MODEL 1
REMARK VINA RESULT:    -4.477      0.000      0.000
REMARK INTER + INTRA:         -16.526
REMARK INTER:                 -11.282
REMARK INTRA:                  -5.245
REMARK UNBOUND:                -5.245
REMARK SMILES CCCCCCCCCCCCCCCCCCCCCCCCCCCC(=O)[O-]
REMARK SMILES IDX 15 1 16 2 17 3 18 4 19 5 20 6 21 7 22 8 23 9 24 10 25 11
REMARK SMILES IDX 26 12 27 13 28 14 29 15 30 16 14 17 13 18 12 19 11 20 10 21
REMARK SMILES IDX 9 22 8 23 7 24 6 25 5 26 4 27 3 28 2 29 1 30
REMARK H PARENT
REMARK Flexibility Score: inf
ROOT
ATOM      1  C   UNL     1     -22.475 -58.773  -0.838  1.00  0.00     0.000 C 
ENDROOT
BRANCH   1   2
ATOM      2  C   UNL     1     -22.052 -58.896   0.636  1.00  0.00     0.000 C 
BRANCH   2   3
ATOM      3  C   UNL     1     -22.238 -60.316   1.204  1.00  0.00     0.000 C 
BRANCH   3   4
ATOM      4  C   UNL     1     -23.285 -60.451   2.326  1.00  0.00     0.000 C 
BRANCH   4   5
ATOM      5  C   UNL     1     -24.301 -61.571   2.069  1.00  0.00     0.000 C 
BRANCH   5   6
ATOM      6  C   UNL     1     -25.427 -61.548   3.112  1.00  0.00     0.000 C 
BRANCH   6   7
ATOM      7  C   UNL     1     -25.729 -62.938   3.696  1.00  0.00     0.000 C 
BRANCH   7   8
ATOM      8  C   UNL     1     -24.678 -64.022   3.389  1.00  0.00     0.000 C 
BRANCH   8   9
ATOM      9  C   UNL     1     -24.007 -64.623   4.641  1.00  0.00     0.000 C 
BRANCH   9  10
ATOM     10  C   UNL     1     -23.590 -63.552   5.666  1.00  0.00     0.000 C 
BRANCH  10  11
ATOM     11  C   UNL     1     -22.311 -62.798   5.246  1.00  0.00     0.000 C 
BRANCH  11  12
ATOM     12  C   UNL     1     -22.262 -61.338   5.733  1.00  0.00     0.006 C 
BRANCH  12  13
ATOM     13  C   UNL     1     -23.634 -60.800   6.155  1.00  0.00     0.053 C 
BRANCH  13  14
ATOM     14  C   UNL     1     -23.743 -59.336   5.859  1.00  0.00     0.041 C 
ATOM     15  O   UNL     1     -22.708 -58.627   5.781  1.00  0.00    -0.550 OA
ATOM     16  O   UNL     1     -24.991 -58.753   5.688  1.00  0.00    -0.550 OA
ENDBRANCH  13  14
ENDBRANCH  12  13
ENDBRANCH  11  12
ENDBRANCH  10  11
ENDBRANCH   9  10
ENDBRANCH   8   9
ENDBRANCH   7   8
ENDBRANCH   6   7
ENDBRANCH   5   6
ENDBRANCH   4   5
ENDBRANCH   3   4
ENDBRANCH   2   3
ENDBRANCH   1   2
BRANCH   1  17
ATOM     17  C   UNL     1     -23.466 -59.869  -1.268  1.00  0.00     0.000 C 
BRANCH  17  18
ATOM     18  C   UNL     1     -24.957 -59.495  -1.144  1.00  0.00     0.000 C 
BRANCH  18  19
ATOM     19  C   UNL     1     -25.644 -59.083  -2.461  1.00  0.00     0.000 C 
BRANCH  19  20
ATOM     20  C   UNL     1     -25.500 -57.596  -2.832  1.00  0.00     0.000 C 
BRANCH  20  21
ATOM     21  C   UNL     1     -26.751 -57.020  -3.511  1.00  0.00     0.000 C 
BRANCH  21  22
ATOM     22  C   UNL     1     -27.371 -55.910  -2.649  1.00  0.00    -0.000 C 
BRANCH  22  23
ATOM     23  C   UNL     1     -27.385 -56.249  -1.151  1.00  0.00    -0.000 C 
BRANCH  23  24
ATOM     24  C   UNL     1     -27.087 -55.031  -0.264  1.00  0.00    -0.000 C 
BRANCH  24  25
ATOM     25  C   UNL     1     -25.587 -54.860   0.035  1.00  0.00    -0.000 C 
BRANCH  25  26
ATOM     26  C   UNL     1     -24.883 -56.170   0.450  1.00  0.00    -0.000 C 
BRANCH  26  27
ATOM     27  C   UNL     1     -25.012 -56.447   1.959  1.00  0.00    -0.000 C 
BRANCH  27  28
ATOM     28  C   UNL     1     -25.496 -57.877   2.265  1.00  0.00    -0.000 C 
BRANCH  28  29
ATOM     29  C   UNL     1     -27.023 -58.013   2.402  1.00  0.00    -0.003 C 
ATOM     30  C   UNL     1     -27.624 -59.002   1.399  1.00  0.00     0.004 C 
ENDBRANCH  28  29
ENDBRANCH  27  28
ENDBRANCH  26  27
ENDBRANCH  25  26
ENDBRANCH  24  25
ENDBRANCH  23  24
ENDBRANCH  22  23
ENDBRANCH  21  22
ENDBRANCH  20  21
ENDBRANCH  19  20
ENDBRANCH  18  19
ENDBRANCH  17  18
ENDBRANCH   1  17
TORSDOF 26
ENDMDL
MODEL 2
REMARK VINA RESULT:    -4.416      2.896      6.249
REMARK INTER + INTRA:         -16.373
REMARK INTER:                 -11.153
REMARK INTRA:                  -5.220
REMARK UNBOUND:                -5.245
REMARK SMILES CCCCCCCCCCCCCCCCCCCCCCCCCCCC(=O)[O-]
REMARK SMILES IDX 15 1 16 2 17 3 18 4 19 5 20 6 21 7 22 8 23 9 24 10 25 11
REMARK SMILES IDX 26 12 27 13 28 14 29 15 30 16 14 17 13 18 12 19 11 20 10 21
REMARK SMILES IDX 9 22 8 23 7 24 6 25 5 26 4 27 3 28 2 29 1 30
REMARK H PARENT
REMARK Flexibility Score: inf
ROOT
ATOM      1  C   UNL     1     -23.291 -62.079   6.125  1.00  0.00     0.000 C 
ENDROOT
BRANCH   1   2
ATOM      2  C   UNL     1     -24.810 -61.843   6.163  1.00  0.00     0.000 C 
BRANCH   2   3
ATOM      3  C   UNL     1     -25.625 -63.064   5.694  1.00  0.00     0.000 C 
BRANCH   3   4
ATOM      4  C   UNL     1     -25.901 -63.137   4.180  1.00  0.00     0.000 C 
BRANCH   4   5
ATOM      5  C   UNL     1     -25.971 -61.757   3.514  1.00  0.00     0.000 C 
BRANCH   5   6
ATOM      6  C   UNL     1     -24.893 -61.610   2.432  1.00  0.00     0.000 C 
BRANCH   6   7
ATOM      7  C   UNL     1     -23.874 -62.762   2.442  1.00  0.00     0.000 C 
BRANCH   7   8
ATOM      8  C   UNL     1     -22.460 -62.393   1.953  1.00  0.00     0.000 C 
BRANCH   8   9
ATOM      9  C   UNL     1     -22.436 -61.599   0.631  1.00  0.00     0.000 C 
BRANCH   9  10
ATOM     10  C   UNL     1     -21.906 -60.164   0.805  1.00  0.00     0.000 C 
BRANCH  10  11
ATOM     11  C   UNL     1     -22.319 -59.236  -0.357  1.00  0.00     0.000 C 
BRANCH  11  12
ATOM     12  C   UNL     1     -23.384 -59.843  -1.288  1.00  0.00     0.006 C 
BRANCH  12  13
ATOM     13  C   UNL     1     -24.768 -59.209  -1.110  1.00  0.00     0.053 C 
BRANCH  13  14
ATOM     14  C   UNL     1     -25.274 -58.669  -2.412  1.00  0.00     0.041 C 
ATOM     15  O   UNL     1     -25.132 -57.451  -2.690  1.00  0.00    -0.550 OA
ATOM     16  O   UNL     1     -25.919 -59.509  -3.309  1.00  0.00    -0.550 OA
ENDBRANCH  13  14
ENDBRANCH  12  13
ENDBRANCH  11  12
ENDBRANCH  10  11
ENDBRANCH   9  10
ENDBRANCH   8   9
ENDBRANCH   7   8
ENDBRANCH   6   7
ENDBRANCH   5   6
ENDBRANCH   4   5
ENDBRANCH   3   4
ENDBRANCH   2   3
ENDBRANCH   1   2
BRANCH   1  17
ATOM     17  C   UNL     1     -22.512 -60.872   5.573  1.00  0.00     0.000 C 
BRANCH  17  18
ATOM     18  C   UNL     1     -23.379 -59.678   5.124  1.00  0.00     0.000 C 
BRANCH  18  19
ATOM     19  C   UNL     1     -23.020 -58.324   5.771  1.00  0.00     0.000 C 
BRANCH  19  20
ATOM     20  C   UNL     1     -22.602 -57.222   4.782  1.00  0.00     0.000 C 
BRANCH  20  21
ATOM     21  C   UNL     1     -22.623 -57.686   3.318  1.00  0.00     0.000 C 
BRANCH  21  22
ATOM     22  C   UNL     1     -23.769 -57.008   2.553  1.00  0.00    -0.000 C 
BRANCH  22  23
ATOM     23  C   UNL     1     -24.964 -57.943   2.310  1.00  0.00    -0.000 C 
BRANCH  23  24
ATOM     24  C   UNL     1     -26.310 -57.288   2.660  1.00  0.00    -0.000 C 
BRANCH  24  25
ATOM     25  C   UNL     1     -27.309 -58.273   3.292  1.00  0.00    -0.000 C 
BRANCH  25  26
ATOM     26  C   UNL     1     -28.204 -57.640   4.378  1.00  0.00    -0.000 C 
BRANCH  26  27
ATOM     27  C   UNL     1     -28.151 -58.422   5.704  1.00  0.00    -0.000 C 
BRANCH  27  28
ATOM     28  C   UNL     1     -26.718 -58.591   6.241  1.00  0.00    -0.000 C 
BRANCH  28  29
ATOM     29  C   UNL     1     -26.322 -57.567   7.319  1.00  0.00    -0.003 C 
ATOM     30  C   UNL     1     -26.101 -56.162   6.751  1.00  0.00     0.004 C 
ENDBRANCH  28  29
ENDBRANCH  27  28
ENDBRANCH  26  27
ENDBRANCH  25  26
ENDBRANCH  24  25
ENDBRANCH  23  24
ENDBRANCH  22  23
ENDBRANCH  21  22
ENDBRANCH  20  21
ENDBRANCH  19  20
ENDBRANCH  18  19
ENDBRANCH  17  18
ENDBRANCH   1  17
TORSDOF 26
ENDMDL
MODEL 3
REMARK VINA RESULT:    -4.395      2.973      6.719
REMARK INTER + INTRA:         -16.320
REMARK INTER:                 -10.707
REMARK INTRA:                  -5.614
REMARK UNBOUND:                -5.245
REMARK SMILES CCCCCCCCCCCCCCCCCCCCCCCCCCCC(=O)[O-]
REMARK SMILES IDX 15 1 16 2 17 3 18 4 19 5 20 6 21 7 22 8 23 9 24 10 25 11
REMARK SMILES IDX 26 12 27 13 28 14 29 15 30 16 14 17 13 18 12 19 11 20 10 21
REMARK SMILES IDX 9 22 8 23 7 24 6 25 5 26 4 27 3 28 2 29 1 30
REMARK H PARENT
REMARK Flexibility Score: inf
ROOT
ATOM      1  C   UNL     1     -25.666 -61.961   3.484  1.00  0.00     0.000 C 
ENDROOT
BRANCH   1   2
ATOM      2  C   UNL     1     -25.909 -61.662   4.974  1.00  0.00     0.000 C 
BRANCH   2   3
ATOM      3  C   UNL     1     -25.339 -60.302   5.420  1.00  0.00     0.000 C 
BRANCH   3   4
ATOM      4  C   UNL     1     -23.873 -60.319   5.894  1.00  0.00     0.000 C 
BRANCH   4   5
ATOM      5  C   UNL     1     -22.950 -59.455   5.027  1.00  0.00     0.000 C 
BRANCH   5   6
ATOM      6  C   UNL     1     -23.732 -58.764   3.901  1.00  0.00     0.000 C 
BRANCH   6   7
ATOM      7  C   UNL     1     -22.885 -57.745   3.122  1.00  0.00     0.000 C 
BRANCH   7   8
ATOM      8  C   UNL     1     -23.649 -56.930   2.060  1.00  0.00     0.000 C 
BRANCH   8   9
ATOM      9  C   UNL     1     -24.463 -55.753   2.633  1.00  0.00     0.000 C 
BRANCH   9  10
ATOM     10  C   UNL     1     -25.359 -55.077   1.578  1.00  0.00     0.000 C 
BRANCH  10  11
ATOM     11  C   UNL     1     -25.322 -55.804   0.218  1.00  0.00     0.000 C 
BRANCH  11  12
ATOM     12  C   UNL     1     -26.093 -55.075  -0.897  1.00  0.00     0.006 C 
BRANCH  12  13
ATOM     13  C   UNL     1     -26.700 -56.030  -1.931  1.00  0.00     0.053 C 
BRANCH  13  14
ATOM     14  C   UNL     1     -25.819 -56.135  -3.137  1.00  0.00     0.041 C 
ATOM     15  O   UNL     1     -24.900 -56.991  -3.178  1.00  0.00    -0.550 OA
ATOM     16  O   UNL     1     -26.004 -55.272  -4.209  1.00  0.00    -0.550 OA
ENDBRANCH  13  14
ENDBRANCH  12  13
ENDBRANCH  11  12
ENDBRANCH  10  11
ENDBRANCH   9  10
ENDBRANCH   8   9
ENDBRANCH   7   8
ENDBRANCH   6   7
ENDBRANCH   5   6
ENDBRANCH   4   5
ENDBRANCH   3   4
ENDBRANCH   2   3
ENDBRANCH   1   2
BRANCH   1  17
ATOM     17  C   UNL     1     -24.931 -63.294   3.254  1.00  0.00     0.000 C 
BRANCH  17  18
ATOM     18  C   UNL     1     -23.413 -63.175   3.013  1.00  0.00     0.000 C 
BRANCH  18  19
ATOM     19  C   UNL     1     -22.971 -61.948   2.191  1.00  0.00     0.000 C 
BRANCH  19  20
ATOM     20  C   UNL     1     -22.019 -62.257   1.022  1.00  0.00     0.000 C 
BRANCH  20  21
ATOM     21  C   UNL     1     -22.169 -61.280  -0.153  1.00  0.00     0.000 C 
BRANCH  21  22
ATOM     22  C   UNL     1     -23.195 -60.187   0.179  1.00  0.00    -0.000 C 
BRANCH  22  23
ATOM     23  C   UNL     1     -24.006 -59.732  -1.044  1.00  0.00    -0.000 C 
BRANCH  23  24
ATOM     24  C   UNL     1     -25.473 -59.430  -0.704  1.00  0.00    -0.000 C 
BRANCH  24  25
ATOM     25  C   UNL     1     -25.787 -59.592   0.793  1.00  0.00    -0.000 C 
BRANCH  25  26
ATOM     26  C   UNL     1     -27.161 -59.022   1.206  1.00  0.00    -0.000 C 
BRANCH  26  27
ATOM     27  C   UNL     1     -27.123 -58.363   2.597  1.00  0.00    -0.000 C 
BRANCH  27  28
ATOM     28  C   UNL     1     -28.334 -58.742   3.471  1.00  0.00    -0.000 C 
BRANCH  28  29
ATOM     29  C   UNL     1     -29.160 -59.923   2.930  1.00  0.00    -0.003 C 
ATOM     30  C   UNL     1     -29.389 -61.016   3.977  1.00  0.00     0.004 C 
ENDBRANCH  28  29
ENDBRANCH  27  28
ENDBRANCH  26  27
ENDBRANCH  25  26
ENDBRANCH  24  25
ENDBRANCH  23  24
ENDBRANCH  22  23
ENDBRANCH  21  22
ENDBRANCH  20  21
ENDBRANCH  19  20
ENDBRANCH  18  19
ENDBRANCH  17  18
ENDBRANCH   1  17
TORSDOF 26
ENDMDL
MODEL 4
REMARK VINA RESULT:    -4.382      2.044      6.679
REMARK INTER + INTRA:         -16.288
REMARK INTER:                 -10.708
REMARK INTRA:                  -5.580
REMARK UNBOUND:                -5.245
REMARK SMILES CCCCCCCCCCCCCCCCCCCCCCCCCCCC(=O)[O-]
REMARK SMILES IDX 15 1 16 2 17 3 18 4 19 5 20 6 21 7 22 8 23 9 24 10 25 11
REMARK SMILES IDX 26 12 27 13 28 14 29 15 30 16 14 17 13 18 12 19 11 20 10 21
REMARK SMILES IDX 9 22 8 23 7 24 6 25 5 26 4 27 3 28 2 29 1 30
REMARK H PARENT
REMARK Flexibility Score: inf
ROOT
ATOM      1  C   UNL     1     -25.462 -61.903   3.426  1.00  0.00     0.000 C 
ENDROOT
BRANCH   1   2
ATOM      2  C   UNL     1     -24.371 -62.427   2.475  1.00  0.00     0.000 C 
BRANCH   2   3
ATOM      3  C   UNL     1     -23.260 -61.394   2.200  1.00  0.00     0.000 C 
BRANCH   3   4
ATOM      4  C   UNL     1     -22.107 -61.883   1.303  1.00  0.00     0.000 C 
BRANCH   4   5
ATOM      5  C   UNL     1     -22.244 -61.423  -0.155  1.00  0.00     0.000 C 
BRANCH   5   6
ATOM      6  C   UNL     1     -22.723 -59.967  -0.234  1.00  0.00     0.000 C 
BRANCH   6   7
ATOM      7  C   UNL     1     -23.851 -59.764  -1.259  1.00  0.00     0.000 C 
BRANCH   7   8
ATOM      8  C   UNL     1     -25.075 -58.981  -0.743  1.00  0.00     0.000 C 
BRANCH   8   9
ATOM      9  C   UNL     1     -25.930 -59.752   0.282  1.00  0.00     0.000 C 
BRANCH   9  10
ATOM     10  C   UNL     1     -26.874 -58.835   1.082  1.00  0.00     0.000 C 
BRANCH  10  11
ATOM     11  C   UNL     1     -26.320 -58.491   2.480  1.00  0.00     0.000 C 
BRANCH  11  12
ATOM     12  C   UNL     1     -27.326 -58.726   3.622  1.00  0.00     0.006 C 
BRANCH  12  13
ATOM     13  C   UNL     1     -27.837 -57.425   4.250  1.00  0.00     0.053 C 
BRANCH  13  14
ATOM     14  C   UNL     1     -26.858 -56.902   5.255  1.00  0.00     0.041 C 
ATOM     15  O   UNL     1     -26.690 -57.502   6.347  1.00  0.00    -0.550 OA
ATOM     16  O   UNL     1     -26.146 -55.740   4.992  1.00  0.00    -0.550 OA
ENDBRANCH  13  14
ENDBRANCH  12  13
ENDBRANCH  11  12
ENDBRANCH  10  11
ENDBRANCH   9  10
ENDBRANCH   8   9
ENDBRANCH   7   8
ENDBRANCH   6   7
ENDBRANCH   5   6
ENDBRANCH   4   5
ENDBRANCH   3   4
ENDBRANCH   2   3
ENDBRANCH   1   2
BRANCH   1  17
ATOM     17  C   UNL     1     -26.239 -63.035   4.123  1.00  0.00     0.000 C 
BRANCH  17  18
ATOM     18  C   UNL     1     -25.503 -64.388   4.202  1.00  0.00     0.000 C 
BRANCH  18  19
ATOM     19  C   UNL     1     -24.605 -64.577   5.441  1.00  0.00     0.000 C 
BRANCH  19  20
ATOM     20  C   UNL     1     -23.113 -64.796   5.135  1.00  0.00     0.000 C 
BRANCH  20  21
ATOM     21  C   UNL     1     -22.237 -63.589   5.503  1.00  0.00     0.000 C 
BRANCH  21  22
ATOM     22  C   UNL     1     -23.074 -62.507   6.202  1.00  0.00    -0.000 C 
BRANCH  22  23
ATOM     23  C   UNL     1     -22.612 -61.081   5.865  1.00  0.00    -0.000 C 
BRANCH  23  24
ATOM     24  C   UNL     1     -23.724 -60.037   6.055  1.00  0.00    -0.000 C 
BRANCH  24  25
ATOM     25  C   UNL     1     -23.745 -58.975   4.942  1.00  0.00    -0.000 C 
BRANCH  25  26
ATOM     26  C   UNL     1     -23.111 -57.630   5.356  1.00  0.00    -0.000 C 
BRANCH  26  27
ATOM     27  C   UNL     1     -22.458 -56.904   4.165  1.00  0.00    -0.000 C 
BRANCH  27  28
ATOM     28  C   UNL     1     -22.580 -57.690   2.846  1.00  0.00    -0.000 C 
BRANCH  28  29
ATOM     29  C   UNL     1     -23.418 -56.985   1.764  1.00  0.00    -0.003 C 
ATOM     30  C   UNL     1     -23.989 -55.644   2.235  1.00  0.00     0.004 C 
ENDBRANCH  28  29
ENDBRANCH  27  28
ENDBRANCH  26  27
ENDBRANCH  25  26
ENDBRANCH  24  25
ENDBRANCH  23  24
ENDBRANCH  22  23
ENDBRANCH  21  22
ENDBRANCH  20  21
ENDBRANCH  19  20
ENDBRANCH  18  19
ENDBRANCH  17  18
ENDBRANCH   1  17
TORSDOF 26
ENDMDL
MODEL 5
REMARK VINA RESULT:    -4.334      2.585      6.710
REMARK INTER + INTRA:         -16.167
REMARK INTER:                 -10.753
REMARK INTRA:                  -5.414
REMARK UNBOUND:                -5.245
REMARK SMILES CCCCCCCCCCCCCCCCCCCCCCCCCCCC(=O)[O-]
REMARK SMILES IDX 15 1 16 2 17 3 18 4 19 5 20 6 21 7 22 8 23 9 24 10 25 11
REMARK SMILES IDX 26 12 27 13 28 14 29 15 30 16 14 17 13 18 12 19 11 20 10 21
REMARK SMILES IDX 9 22 8 23 7 24 6 25 5 26 4 27 3 28 2 29 1 30
REMARK H PARENT
REMARK Flexibility Score: inf
ROOT
ATOM      1  C   UNL     1     -26.165 -62.443   3.978  1.00  0.00     0.000 C 
ENDROOT
BRANCH   1   2
ATOM      2  C   UNL     1     -24.904 -62.923   3.238  1.00  0.00     0.000 C 
BRANCH   2   3
ATOM      3  C   UNL     1     -24.265 -61.830   2.358  1.00  0.00     0.000 C 
BRANCH   3   4
ATOM      4  C   UNL     1     -22.750 -61.973   2.119  1.00  0.00     0.000 C 
BRANCH   4   5
ATOM      5  C   UNL     1     -22.290 -61.357   0.792  1.00  0.00     0.000 C 
BRANCH   5   6
ATOM      6  C   UNL     1     -22.146 -59.833   0.909  1.00  0.00     0.000 C 
BRANCH   6   7
ATOM      7  C   UNL     1     -22.683 -59.086  -0.323  1.00  0.00     0.000 C 
BRANCH   7   8
ATOM      8  C   UNL     1     -23.543 -59.933  -1.282  1.00  0.00     0.000 C 
BRANCH   8   9
ATOM      9  C   UNL     1     -24.988 -59.423  -1.450  1.00  0.00     0.000 C 
BRANCH   9  10
ATOM     10  C   UNL     1     -25.710 -59.219  -0.105  1.00  0.00     0.000 C 
BRANCH  10  11
ATOM     11  C   UNL     1     -26.236 -57.779   0.071  1.00  0.00     0.000 C 
BRANCH  11  12
ATOM     12  C   UNL     1     -25.900 -56.847  -1.107  1.00  0.00     0.006 C 
BRANCH  12  13
ATOM     13  C   UNL     1     -25.732 -55.383  -0.685  1.00  0.00     0.053 C 
BRANCH  13  14
ATOM     14  C   UNL     1     -27.051 -54.676  -0.688  1.00  0.00     0.041 C 
ATOM     15  O   UNL     1     -27.275 -53.749   0.132  1.00  0.00    -0.550 OA
ATOM     16  O   UNL     1     -28.041 -55.056  -1.584  1.00  0.00    -0.550 OA
ENDBRANCH  13  14
ENDBRANCH  12  13
ENDBRANCH  11  12
ENDBRANCH  10  11
ENDBRANCH   9  10
ENDBRANCH   8   9
ENDBRANCH   7   8
ENDBRANCH   6   7
ENDBRANCH   5   6
ENDBRANCH   4   5
ENDBRANCH   3   4
ENDBRANCH   2   3
ENDBRANCH   1   2
BRANCH   1  17
ATOM     17  C   UNL     1     -26.100 -62.697   5.495  1.00  0.00     0.000 C 
BRANCH  17  18
ATOM     18  C   UNL     1     -24.736 -62.407   6.153  1.00  0.00     0.000 C 
BRANCH  18  19
ATOM     19  C   UNL     1     -24.355 -60.916   6.247  1.00  0.00     0.000 C 
BRANCH  19  20
ATOM     20  C   UNL     1     -22.917 -60.584   5.809  1.00  0.00     0.000 C 
BRANCH  20  21
ATOM     21  C   UNL     1     -22.706 -59.092   5.513  1.00  0.00     0.000 C 
BRANCH  21  22
ATOM     22  C   UNL     1     -23.351 -58.709   4.173  1.00  0.00    -0.000 C 
BRANCH  22  23
ATOM     23  C   UNL     1     -22.838 -57.371   3.620  1.00  0.00    -0.000 C 
BRANCH  23  24
ATOM     24  C   UNL     1     -23.702 -56.834   2.468  1.00  0.00    -0.000 C 
BRANCH  24  25
ATOM     25  C   UNL     1     -24.346 -55.474   2.786  1.00  0.00    -0.000 C 
BRANCH  25  26
ATOM     26  C   UNL     1     -25.502 -55.556   3.805  1.00  0.00    -0.000 C 
BRANCH  26  27
ATOM     27  C   UNL     1     -26.879 -55.388   3.136  1.00  0.00    -0.000 C 
BRANCH  27  28
ATOM     28  C   UNL     1     -27.762 -56.644   3.260  1.00  0.00    -0.000 C 
BRANCH  28  29
ATOM     29  C   UNL     1     -27.218 -57.705   4.233  1.00  0.00    -0.003 C 
ATOM     30  C   UNL     1     -26.823 -59.007   3.531  1.00  0.00     0.004 C 
ENDBRANCH  28  29
ENDBRANCH  27  28
ENDBRANCH  26  27
ENDBRANCH  25  26
ENDBRANCH  24  25
ENDBRANCH  23  24
ENDBRANCH  22  23
ENDBRANCH  21  22
ENDBRANCH  20  21
ENDBRANCH  19  20
ENDBRANCH  18  19
ENDBRANCH  17  18
ENDBRANCH   1  17
TORSDOF 26
ENDMDL
MODEL 6
REMARK VINA RESULT:    -4.332      2.647      5.822
REMARK INTER + INTRA:         -16.162
REMARK INTER:                 -11.151
REMARK INTRA:                  -5.011
REMARK UNBOUND:                -5.245
REMARK SMILES CCCCCCCCCCCCCCCCCCCCCCCCCCCC(=O)[O-]
REMARK SMILES IDX 15 1 16 2 17 3 18 4 19 5 20 6 21 7 22 8 23 9 24 10 25 11
REMARK SMILES IDX 26 12 27 13 28 14 29 15 30 16 14 17 13 18 12 19 11 20 10 21
REMARK SMILES IDX 9 22 8 23 7 24 6 25 5 26 4 27 3 28 2 29 1 30
REMARK H PARENT
REMARK Flexibility Score: inf
ROOT
ATOM      1  C   UNL     1     -25.603 -62.446   3.551  1.00  0.00     0.000 C 
ENDROOT
BRANCH   1   2
ATOM      2  C   UNL     1     -25.059 -63.412   4.617  1.00  0.00     0.000 C 
BRANCH   2   3
ATOM      3  C   UNL     1     -24.525 -62.692   5.871  1.00  0.00     0.000 C 
BRANCH   3   4
ATOM      4  C   UNL     1     -23.006 -62.436   5.893  1.00  0.00     0.000 C 
BRANCH   4   5
ATOM      5  C   UNL     1     -22.630 -61.008   5.478  1.00  0.00     0.000 C 
BRANCH   5   6
ATOM      6  C   UNL     1     -23.669 -59.995   5.976  1.00  0.00     0.000 C 
BRANCH   6   7
ATOM      7  C   UNL     1     -24.292 -59.170   4.837  1.00  0.00     0.000 C 
BRANCH   7   8
ATOM      8  C   UNL     1     -23.337 -58.825   3.678  1.00  0.00     0.000 C 
BRANCH   8   9
ATOM      9  C   UNL     1     -22.981 -57.328   3.578  1.00  0.00     0.000 C 
BRANCH   9  10
ATOM     10  C   UNL     1     -23.877 -56.441   4.462  1.00  0.00     0.000 C 
BRANCH  10  11
ATOM     11  C   UNL     1     -25.051 -55.817   3.678  1.00  0.00     0.000 C 
BRANCH  11  12
ATOM     12  C   UNL     1     -24.626 -55.133   2.366  1.00  0.00     0.006 C 
BRANCH  12  13
ATOM     13  C   UNL     1     -24.787 -53.609   2.404  1.00  0.00     0.053 C 
BRANCH  13  14
ATOM     14  C   UNL     1     -25.521 -53.124   1.193  1.00  0.00     0.041 C 
ATOM     15  O   UNL     1     -26.316 -52.154   1.280  1.00  0.00    -0.550 OA
ATOM     16  O   UNL     1     -25.341 -53.757  -0.029  1.00  0.00    -0.550 OA
ENDBRANCH  13  14
ENDBRANCH  12  13
ENDBRANCH  11  12
ENDBRANCH  10  11
ENDBRANCH   9  10
ENDBRANCH   8   9
ENDBRANCH   7   8
ENDBRANCH   6   7
ENDBRANCH   5   6
ENDBRANCH   4   5
ENDBRANCH   3   4
ENDBRANCH   2   3
ENDBRANCH   1   2
BRANCH   1  17
ATOM     17  C   UNL     1     -24.552 -62.073   2.491  1.00  0.00     0.000 C 
BRANCH  17  18
ATOM     18  C   UNL     1     -23.499 -63.161   2.196  1.00  0.00     0.000 C 
BRANCH  18  19
ATOM     19  C   UNL     1     -22.266 -62.685   1.400  1.00  0.00     0.000 C 
BRANCH  19  20
ATOM     20  C   UNL     1     -22.274 -61.195   1.018  1.00  0.00     0.000 C 
BRANCH  20  21
ATOM     21  C   UNL     1     -21.875 -60.944  -0.443  1.00  0.00     0.000 C 
BRANCH  21  22
ATOM     22  C   UNL     1     -22.597 -59.707  -0.997  1.00  0.00    -0.000 C 
BRANCH  22  23
ATOM     23  C   UNL     1     -22.652 -58.545   0.007  1.00  0.00    -0.000 C 
BRANCH  23  24
ATOM     24  C   UNL     1     -23.933 -57.708  -0.124  1.00  0.00    -0.000 C 
BRANCH  24  25
ATOM     25  C   UNL     1     -25.184 -58.564  -0.390  1.00  0.00    -0.000 C 
BRANCH  25  26
ATOM     26  C   UNL     1     -25.719 -59.288   0.864  1.00  0.00    -0.000 C 
BRANCH  26  27
ATOM     27  C   UNL     1     -27.064 -58.709   1.340  1.00  0.00    -0.000 C 
BRANCH  27  28
ATOM     28  C   UNL     1     -27.226 -57.215   1.000  1.00  0.00    -0.000 C 
BRANCH  28  29
ATOM     29  C   UNL     1     -28.606 -56.632   1.354  1.00  0.00    -0.003 C 
ATOM     30  C   UNL     1     -28.523 -55.210   1.916  1.00  0.00     0.004 C 
ENDBRANCH  28  29
ENDBRANCH  27  28
ENDBRANCH  26  27
ENDBRANCH  25  26
ENDBRANCH  24  25
ENDBRANCH  23  24
ENDBRANCH  22  23
ENDBRANCH  21  22
ENDBRANCH  20  21
ENDBRANCH  19  20
ENDBRANCH  18  19
ENDBRANCH  17  18
ENDBRANCH   1  17
TORSDOF 26
ENDMDL
MODEL 7
REMARK VINA RESULT:    -4.327      1.956      7.222
REMARK INTER + INTRA:         -16.149
REMARK INTER:                 -10.935
REMARK INTRA:                  -5.215
REMARK UNBOUND:                -5.245
REMARK SMILES CCCCCCCCCCCCCCCCCCCCCCCCCCCC(=O)[O-]
REMARK SMILES IDX 15 1 16 2 17 3 18 4 19 5 20 6 21 7 22 8 23 9 24 10 25 11
REMARK SMILES IDX 26 12 27 13 28 14 29 15 30 16 14 17 13 18 12 19 11 20 10 21
REMARK SMILES IDX 9 22 8 23 7 24 6 25 5 26 4 27 3 28 2 29 1 30
REMARK H PARENT
REMARK Flexibility Score: inf
ROOT
ATOM      1  C   UNL     1     -24.853 -61.962   2.730  1.00  0.00     0.000 C 
ENDROOT
BRANCH   1   2
ATOM      2  C   UNL     1     -23.616 -62.576   2.050  1.00  0.00     0.000 C 
BRANCH   2   3
ATOM      3  C   UNL     1     -22.512 -61.542   1.754  1.00  0.00     0.000 C 
BRANCH   3   4
ATOM      4  C   UNL     1     -22.334 -61.168   0.271  1.00  0.00     0.000 C 
BRANCH   4   5
ATOM      5  C   UNL     1     -21.925 -59.704   0.064  1.00  0.00     0.000 C 
BRANCH   5   6
ATOM      6  C   UNL     1     -23.121 -58.852  -0.382  1.00  0.00     0.000 C 
BRANCH   6   7
ATOM      7  C   UNL     1     -24.440 -59.642  -0.408  1.00  0.00     0.000 C 
BRANCH   7   8
ATOM      8  C   UNL     1     -25.451 -59.196  -1.483  1.00  0.00     0.000 C 
BRANCH   8   9
ATOM      9  C   UNL     1     -24.970 -58.015  -2.350  1.00  0.00     0.000 C 
BRANCH   9  10
ATOM     10  C   UNL     1     -26.114 -57.063  -2.749  1.00  0.00     0.000 C 
BRANCH  10  11
ATOM     11  C   UNL     1     -26.817 -56.438  -1.526  1.00  0.00     0.000 C 
BRANCH  11  12
ATOM     12  C   UNL     1     -26.162 -55.135  -1.032  1.00  0.00     0.006 C 
BRANCH  12  13
ATOM     13  C   UNL     1     -25.329 -55.327   0.240  1.00  0.00     0.053 C 
BRANCH  13  14
ATOM     14  C   UNL     1     -25.540 -54.189   1.189  1.00  0.00     0.041 C 
ATOM     15  O   UNL     1     -26.532 -54.184   1.962  1.00  0.00    -0.550 OA
ATOM     16  O   UNL     1     -24.651 -53.123   1.205  1.00  0.00    -0.550 OA
ENDBRANCH  13  14
ENDBRANCH  12  13
ENDBRANCH  11  12
ENDBRANCH  10  11
ENDBRANCH   9  10
ENDBRANCH   8   9
ENDBRANCH   7   8
ENDBRANCH   6   7
ENDBRANCH   5   6
ENDBRANCH   4   5
ENDBRANCH   3   4
ENDBRANCH   2   3
ENDBRANCH   1   2
BRANCH   1  17
ATOM     17  C   UNL     1     -25.597 -62.964   3.632  1.00  0.00     0.000 C 
BRANCH  17  18
ATOM     18  C   UNL     1     -24.887 -64.318   3.838  1.00  0.00     0.000 C 
BRANCH  18  19
ATOM     19  C   UNL     1     -24.443 -64.614   5.285  1.00  0.00     0.000 C 
BRANCH  19  20
ATOM     20  C   UNL     1     -23.918 -63.397   6.066  1.00  0.00     0.000 C 
BRANCH  20  21
ATOM     21  C   UNL     1     -22.557 -62.897   5.560  1.00  0.00     0.000 C 
BRANCH  21  22
ATOM     22  C   UNL     1     -22.525 -61.362   5.522  1.00  0.00    -0.000 C 
BRANCH  22  23
ATOM     23  C   UNL     1     -23.721 -60.719   6.240  1.00  0.00    -0.000 C 
BRANCH  23  24
ATOM     24  C   UNL     1     -24.294 -59.515   5.476  1.00  0.00    -0.000 C 
BRANCH  24  25
ATOM     25  C   UNL     1     -23.283 -58.890   4.499  1.00  0.00    -0.000 C 
BRANCH  25  26
ATOM     26  C   UNL     1     -23.899 -58.481   3.144  1.00  0.00    -0.000 C 
BRANCH  26  27
ATOM     27  C   UNL     1     -24.844 -57.272   3.275  1.00  0.00    -0.000 C 
BRANCH  27  28
ATOM     28  C   UNL     1     -26.331 -57.670   3.262  1.00  0.00    -0.000 C 
BRANCH  28  29
ATOM     29  C   UNL     1     -26.882 -58.015   1.866  1.00  0.00    -0.003 C 
ATOM     30  C   UNL     1     -27.494 -59.417   1.799  1.00  0.00     0.004 C 
ENDBRANCH  28  29
ENDBRANCH  27  28
ENDBRANCH  26  27
ENDBRANCH  25  26
ENDBRANCH  24  25
ENDBRANCH  23  24
ENDBRANCH  22  23
ENDBRANCH  21  22
ENDBRANCH  20  21
ENDBRANCH  19  20
ENDBRANCH  18  19
ENDBRANCH  17  18
ENDBRANCH   1  17
TORSDOF 26
ENDMDL
MODEL 8
REMARK VINA RESULT:    -4.283      2.918      7.896
REMARK INTER + INTRA:         -16.038
REMARK INTER:                 -11.067
REMARK INTRA:                  -4.971
REMARK UNBOUND:                -5.245
REMARK SMILES CCCCCCCCCCCCCCCCCCCCCCCCCCCC(=O)[O-]
REMARK SMILES IDX 15 1 16 2 17 3 18 4 19 5 20 6 21 7 22 8 23 9 24 10 25 11
REMARK SMILES IDX 26 12 27 13 28 14 29 15 30 16 14 17 13 18 12 19 11 20 10 21
REMARK SMILES IDX 9 22 8 23 7 24 6 25 5 26 4 27 3 28 2 29 1 30
REMARK H PARENT
REMARK Flexibility Score: inf
ROOT
ATOM      1  C   UNL     1     -23.029 -58.650  -0.428  1.00  0.00     0.000 C 
ENDROOT
BRANCH   1   2
ATOM      2  C   UNL     1     -23.988 -59.566  -1.207  1.00  0.00     0.000 C 
BRANCH   2   3
ATOM      3  C   UNL     1     -25.421 -59.566  -0.640  1.00  0.00     0.000 C 
BRANCH   3   4
ATOM      4  C   UNL     1     -25.535 -59.310   0.875  1.00  0.00     0.000 C 
BRANCH   4   5
ATOM      5  C   UNL     1     -26.986 -59.176   1.355  1.00  0.00     0.000 C 
BRANCH   5   6
ATOM      6  C   UNL     1     -27.164 -57.936   2.241  1.00  0.00     0.000 C 
BRANCH   6   7
ATOM      7  C   UNL     1     -27.375 -56.647   1.430  1.00  0.00     0.000 C 
BRANCH   7   8
ATOM      8  C   UNL     1     -26.162 -55.697   1.379  1.00  0.00     0.000 C 
BRANCH   8   9
ATOM      9  C   UNL     1     -25.549 -55.533  -0.026  1.00  0.00     0.000 C 
BRANCH   9  10
ATOM     10  C   UNL     1     -26.357 -56.258  -1.119  1.00  0.00     0.000 C 
BRANCH  10  11
ATOM     11  C   UNL     1     -26.342 -55.502  -2.465  1.00  0.00     0.000 C 
BRANCH  11  12
ATOM     12  C   UNL     1     -27.740 -55.099  -2.966  1.00  0.00     0.006 C 
BRANCH  12  13
ATOM     13  C   UNL     1     -28.178 -53.715  -2.475  1.00  0.00     0.053 C 
BRANCH  13  14
ATOM     14  C   UNL     1     -29.502 -53.794  -1.780  1.00  0.00     0.041 C 
ATOM     15  O   UNL     1     -30.358 -52.888  -1.943  1.00  0.00    -0.550 OA
ATOM     16  O   UNL     1     -29.781 -54.861  -0.936  1.00  0.00    -0.550 OA
ENDBRANCH  13  14
ENDBRANCH  12  13
ENDBRANCH  11  12
ENDBRANCH  10  11
ENDBRANCH   9  10
ENDBRANCH   8   9
ENDBRANCH   7   8
ENDBRANCH   6   7
ENDBRANCH   5   6
ENDBRANCH   4   5
ENDBRANCH   3   4
ENDBRANCH   2   3
ENDBRANCH   1   2
BRANCH   1  17
ATOM     17  C   UNL     1     -21.876 -59.421   0.241  1.00  0.00     0.000 C 
BRANCH  17  18
ATOM     18  C   UNL     1     -22.129 -60.928   0.454  1.00  0.00     0.000 C 
BRANCH  18  19
ATOM     19  C   UNL     1     -22.634 -61.318   1.857  1.00  0.00     0.000 C 
BRANCH  19  20
ATOM     20  C   UNL     1     -23.725 -62.404   1.876  1.00  0.00     0.000 C 
BRANCH  20  21
ATOM     21  C   UNL     1     -24.861 -62.100   2.865  1.00  0.00     0.000 C 
BRANCH  21  22
ATOM     22  C   UNL     1     -25.105 -63.299   3.793  1.00  0.00    -0.000 C 
BRANCH  22  23
ATOM     23  C   UNL     1     -24.548 -63.085   5.209  1.00  0.00    -0.000 C 
BRANCH  23  24
ATOM     24  C   UNL     1     -23.016 -63.190   5.265  1.00  0.00    -0.000 C 
BRANCH  24  25
ATOM     25  C   UNL     1     -22.335 -61.846   5.577  1.00  0.00    -0.000 C 
BRANCH  25  26
ATOM     26  C   UNL     1     -23.322 -60.723   5.959  1.00  0.00    -0.000 C 
BRANCH  26  27
ATOM     27  C   UNL     1     -22.906 -59.360   5.376  1.00  0.00    -0.000 C 
BRANCH  27  28
ATOM     28  C   UNL     1     -23.915 -58.817   4.347  1.00  0.00    -0.000 C 
BRANCH  28  29
ATOM     29  C   UNL     1     -23.319 -57.808   3.348  1.00  0.00    -0.003 C 
ATOM     30  C   UNL     1     -23.573 -56.353   3.753  1.00  0.00     0.004 C 
ENDBRANCH  28  29
ENDBRANCH  27  28
ENDBRANCH  26  27
ENDBRANCH  25  26
ENDBRANCH  24  25
ENDBRANCH  23  24
ENDBRANCH  22  23
ENDBRANCH  21  22
ENDBRANCH  20  21
ENDBRANCH  19  20
ENDBRANCH  18  19
ENDBRANCH  17  18
ENDBRANCH   1  17
TORSDOF 26
ENDMDL
MODEL 9
REMARK VINA RESULT:    -4.261      2.079      4.198
REMARK INTER + INTRA:         -15.981
REMARK INTER:                  -9.543
REMARK INTRA:                  -6.438
REMARK UNBOUND:                -5.245
REMARK SMILES CCCCCCCCCCCCCCCCCCCCCCCCCCCC(=O)[O-]
REMARK SMILES IDX 15 1 16 2 17 3 18 4 19 5 20 6 21 7 22 8 23 9 24 10 25 11
REMARK SMILES IDX 26 12 27 13 28 14 29 15 30 16 14 17 13 18 12 19 11 20 10 21
REMARK SMILES IDX 9 22 8 23 7 24 6 25 5 26 4 27 3 28 2 29 1 30
REMARK H PARENT
REMARK Flexibility Score: inf
ROOT
ATOM      1  C   UNL     1     -23.831 -57.629   3.836  1.00  0.00     0.000 C 
ENDROOT
BRANCH   1   2
ATOM      2  C   UNL     1     -22.672 -58.212   4.663  1.00  0.00     0.000 C 
BRANCH   2   3
ATOM      3  C   UNL     1     -23.131 -59.263   5.692  1.00  0.00     0.000 C 
BRANCH   3   4
ATOM      4  C   UNL     1     -22.481 -60.653   5.557  1.00  0.00     0.000 C 
BRANCH   4   5
ATOM      5  C   UNL     1     -23.406 -61.690   4.906  1.00  0.00     0.000 C 
BRANCH   5   6
ATOM      6  C   UNL     1     -23.101 -61.842   3.410  1.00  0.00     0.000 C 
BRANCH   6   7
ATOM      7  C   UNL     1     -24.330 -61.586   2.521  1.00  0.00     0.000 C 
BRANCH   7   8
ATOM      8  C   UNL     1     -25.663 -61.417   3.276  1.00  0.00     0.000 C 
BRANCH   8   9
ATOM      9  C   UNL     1     -26.555 -60.282   2.734  1.00  0.00     0.000 C 
BRANCH   9  10
ATOM     10  C   UNL     1     -27.232 -59.468   3.853  1.00  0.00     0.000 C 
BRANCH  10  11
ATOM     11  C   UNL     1     -26.583 -59.706   5.232  1.00  0.00     0.000 C 
BRANCH  11  12
ATOM     12  C   UNL     1     -26.942 -58.636   6.279  1.00  0.00     0.006 C 
BRANCH  12  13
ATOM     13  C   UNL     1     -27.233 -57.265   5.661  1.00  0.00     0.053 C 
BRANCH  13  14
ATOM     14  C   UNL     1     -26.249 -56.246   6.146  1.00  0.00     0.041 C 
ATOM     15  O   UNL     1     -26.346 -55.047   5.780  1.00  0.00    -0.550 OA
ATOM     16  O   UNL     1     -25.214 -56.626   6.989  1.00  0.00    -0.550 OA
ENDBRANCH  13  14
ENDBRANCH  12  13
ENDBRANCH  11  12
ENDBRANCH  10  11
ENDBRANCH   9  10
ENDBRANCH   8   9
ENDBRANCH   7   8
ENDBRANCH   6   7
ENDBRANCH   5   6
ENDBRANCH   4   5
ENDBRANCH   3   4
ENDBRANCH   2   3
ENDBRANCH   1   2
BRANCH   1  17
ATOM     17  C   UNL     1     -23.737 -57.984   2.341  1.00  0.00     0.000 C 
BRANCH  17  18
ATOM     18  C   UNL     1     -22.316 -57.948   1.744  1.00  0.00     0.000 C 
BRANCH  18  19
ATOM     19  C   UNL     1     -21.898 -59.210   0.962  1.00  0.00     0.000 C 
BRANCH  19  20
ATOM     20  C   UNL     1     -22.285 -59.209  -0.527  1.00  0.00     0.000 C 
BRANCH  20  21
ATOM     21  C   UNL     1     -23.399 -60.212  -0.862  1.00  0.00     0.000 C 
BRANCH  21  22
ATOM     22  C   UNL     1     -24.733 -59.485  -1.085  1.00  0.00    -0.000 C 
BRANCH  22  23
ATOM     23  C   UNL     1     -24.555 -58.046  -1.594  1.00  0.00    -0.000 C 
BRANCH  23  24
ATOM     24  C   UNL     1     -25.619 -57.085  -1.041  1.00  0.00    -0.000 C 
BRANCH  24  25
ATOM     25  C   UNL     1     -26.516 -57.735   0.026  1.00  0.00    -0.000 C 
BRANCH  25  26
ATOM     26  C   UNL     1     -27.473 -56.743   0.721  1.00  0.00    -0.000 C 
BRANCH  26  27
ATOM     27  C   UNL     1     -26.976 -56.342   2.123  1.00  0.00    -0.000 C 
BRANCH  27  28
ATOM     28  C   UNL     1     -26.547 -54.865   2.205  1.00  0.00    -0.000 C 
BRANCH  28  29
ATOM     29  C   UNL     1     -25.161 -54.574   1.604  1.00  0.00    -0.003 C 
ATOM     30  C   UNL     1     -24.207 -53.913   2.603  1.00  0.00     0.004 C 
ENDBRANCH  28  29
ENDBRANCH  27  28
ENDBRANCH  26  27
ENDBRANCH  25  26
ENDBRANCH  24  25
ENDBRANCH  23  24
ENDBRANCH  22  23
ENDBRANCH  21  22
ENDBRANCH  20  21
ENDBRANCH  19  20
ENDBRANCH  18  19
ENDBRANCH  17  18
ENDBRANCH   1  17
TORSDOF 26
ENDMDL
