MODEL 1
REMARK VINA RESULT:    -6.453      0.000      0.000
REMARK INTER + INTRA:         -10.371
REMARK INTER:                  -8.528
REMARK INTRA:                  -1.843
REMARK UNBOUND:                -1.843
REMARK SMILES CC[C@@H](C=C[C@H](C)[C@H]1CC[C@H]2[C@@H]3CC=C4C[C@H](O)CC[C@@]4(C)[C@H]3CC[C@]12C)C(C)C
REMARK SMILES IDX 6 1 7 2 5 3 4 4 3 5 2 6 1 7 28 8 29 9 30 10 8 11 9 12 26 13
REMARK SMILES IDX 10 14 11 15 25 16 27 17 12 18 24 19 23 20 13 21 21 22 14 23
REMARK SMILES IDX 15 24 20 25 22 26 16 27 19 28 17 29 18 30
REMARK H PARENT 18 31
REMARK Flexibility Score: inf
ROOT
ATOM      1  C   UNL     1     163.882 161.527 181.901  1.00  0.00     0.012 C 
ATOM      2  C   UNL     1     164.656 160.747 182.968  1.00  0.00     0.012 C 
ENDROOT
BRANCH   1   3
ATOM      3  C   UNL     1     163.585 162.936 182.394  1.00  0.00    -0.028 C 
ATOM      4  C   UNL     1     162.380 163.537 182.344  1.00  0.00    -0.027 C 
BRANCH   4   5
ATOM      5  C   UNL     1     161.125 162.951 181.715  1.00  0.00     0.014 C 
BRANCH   5   6
ATOM      6  C   UNL     1     160.280 164.093 181.090  1.00  0.00     0.004 C 
ATOM      7  C   UNL     1     160.725 165.499 181.504  1.00  0.00     0.004 C 
ENDBRANCH   5   6
BRANCH   5   8
ATOM      8  C   UNL     1     160.346 162.076 182.749  1.00  0.00    -0.011 C 
ATOM      9  C   UNL     1     160.969 162.198 184.152  1.00  0.00     0.008 C 
ATOM     10  C   UNL     1     160.316 160.590 182.347  1.00  0.00     0.008 C 
ENDBRANCH   5   8
ENDBRANCH   4   5
ENDBRANCH   1   3
BRANCH   1  11
ATOM     11  C   UNL     1     164.523 161.432 180.473  1.00  0.00     0.002 C 
ATOM     12  C   UNL     1     165.504 160.241 180.317  1.00  0.00     0.005 C 
ATOM     13  C   UNL     1     163.662 161.402 179.173  1.00  0.00    -0.026 C 
ATOM     14  C   UNL     1     165.537 159.892 178.819  1.00  0.00     0.005 C 
ATOM     15  C   UNL     1     164.748 161.013 178.154  1.00  0.00    -0.001 C 
ATOM     16  C   UNL     1     163.095 162.772 178.716  1.00  0.00     0.007 C 
ATOM     17  C   UNL     1     162.521 160.346 179.268  1.00  0.00     0.012 C 
ATOM     18  C   UNL     1     164.205 160.795 176.725  1.00  0.00     0.000 C 
ATOM     19  C   UNL     1     162.535 162.705 177.275  1.00  0.00     0.005 C 
ATOM     20  C   UNL     1     163.543 162.116 176.233  1.00  0.00     0.003 C 
ATOM     21  C   UNL     1     165.350 160.445 175.766  1.00  0.00     0.031 C 
ATOM     22  C   UNL     1     162.958 161.980 174.764  1.00  0.00    -0.008 C 
ATOM     23  C   UNL     1     164.854 160.331 174.358  1.00  0.00    -0.027 C 
ATOM     24  C   UNL     1     163.814 161.049 173.882  1.00  0.00    -0.065 C 
ATOM     25  C   UNL     1     161.509 161.395 174.776  1.00  0.00     0.014 C 
ATOM     26  C   UNL     1     162.944 163.393 174.124  1.00  0.00     0.016 C 
ATOM     27  C   UNL     1     163.301 160.733 172.492  1.00  0.00     0.063 C 
ATOM     28  C   UNL     1     160.959 161.037 173.379  1.00  0.00     0.033 C 
ATOM     29  C   UNL     1     161.905 160.110 172.602  1.00  0.00     0.118 C 
BRANCH  29  30
ATOM     30  O   UNL     1     161.382 159.896 171.317  1.00  0.00    -0.393 OA
ATOM     31  H   UNL     1     161.191 160.791 170.927  1.00  0.00     0.210 HD
ENDBRANCH  29  30
ENDBRANCH   1  11
TORSDOF 6
ENDMDL
MODEL 2
REMARK VINA RESULT:    -6.410     18.204     19.241
REMARK INTER + INTRA:         -10.314
REMARK INTER:                  -8.188
REMARK INTRA:                  -2.126
REMARK UNBOUND:                -1.843
REMARK SMILES CC[C@@H](C=C[C@H](C)[C@H]1CC[C@H]2[C@@H]3CC=C4C[C@H](O)CC[C@@]4(C)[C@H]3CC[C@]12C)C(C)C
REMARK SMILES IDX 6 1 7 2 5 3 4 4 3 5 2 6 1 7 28 8 29 9 30 10 8 11 9 12 26 13
REMARK SMILES IDX 10 14 11 15 25 16 27 17 12 18 24 19 23 20 13 21 21 22 14 23
REMARK SMILES IDX 15 24 20 25 22 26 16 27 19 28 17 29 18 30
REMARK H PARENT 18 31
REMARK Flexibility Score: inf
ROOT
ATOM      1  C   UNL     1     179.041 172.092 182.182  1.00  0.00     0.012 C 
ATOM      2  C   UNL     1     179.345 170.989 183.201  1.00  0.00     0.012 C 
ENDROOT
BRANCH   1   3
ATOM      3  C   UNL     1     179.383 173.455 182.768  1.00  0.00    -0.028 C 
ATOM      4  C   UNL     1     178.525 174.487 182.881  1.00  0.00    -0.027 C 
BRANCH   4   5
ATOM      5  C   UNL     1     177.091 174.505 182.372  1.00  0.00     0.014 C 
BRANCH   5   6
ATOM      6  C   UNL     1     176.927 175.649 181.335  1.00  0.00     0.004 C 
ATOM      7  C   UNL     1     175.942 175.333 180.205  1.00  0.00     0.004 C 
ENDBRANCH   5   6
BRANCH   5   8
ATOM      8  C   UNL     1     176.083 174.575 183.562  1.00  0.00    -0.011 C 
ATOM      9  C   UNL     1     176.630 175.465 184.694  1.00  0.00     0.008 C 
ATOM     10  C   UNL     1     175.763 173.183 184.136  1.00  0.00     0.008 C 
ENDBRANCH   5   8
ENDBRANCH   4   5
ENDBRANCH   1   3
BRANCH   1  11
ATOM     11  C   UNL     1     179.629 171.802 180.758  1.00  0.00     0.002 C 
ATOM     12  C   UNL     1     179.858 170.294 180.481  1.00  0.00     0.005 C 
ATOM     13  C   UNL     1     178.962 172.342 179.455  1.00  0.00    -0.026 C 
ATOM     14  C   UNL     1     179.800 170.113 178.954  1.00  0.00     0.005 C 
ATOM     15  C   UNL     1     179.752 171.535 178.409  1.00  0.00    -0.001 C 
ATOM     16  C   UNL     1     179.219 173.840 179.145  1.00  0.00     0.007 C 
ATOM     17  C   UNL     1     177.436 172.034 179.425  1.00  0.00     0.012 C 
ATOM     18  C   UNL     1     179.266 171.760 176.960  1.00  0.00     0.000 C 
ATOM     19  C   UNL     1     178.798 174.203 177.701  1.00  0.00     0.005 C 
ATOM     20  C   UNL     1     179.418 173.269 176.609  1.00  0.00     0.003 C 
ATOM     21  C   UNL     1     180.121 170.950 175.977  1.00  0.00     0.031 C 
ATOM     22  C   UNL     1     178.942 173.589 175.129  1.00  0.00    -0.008 C 
ATOM     23  C   UNL     1     179.729 171.237 174.562  1.00  0.00    -0.027 C 
ATOM     24  C   UNL     1     179.245 172.431 174.158  1.00  0.00    -0.065 C 
ATOM     25  C   UNL     1     177.403 173.849 175.066  1.00  0.00     0.014 C 
ATOM     26  C   UNL     1     179.704 174.852 174.647  1.00  0.00     0.016 C 
ATOM     27  C   UNL     1     178.733 172.553 172.738  1.00  0.00     0.063 C 
ATOM     28  C   UNL     1     176.837 173.957 173.634  1.00  0.00     0.033 C 
ATOM     29  C   UNL     1     177.212 172.745 172.769  1.00  0.00     0.118 C 
BRANCH  29  30
ATOM     30  O   UNL     1     176.737 172.950 171.463  1.00  0.00    -0.393 OA
ATOM     31  H   UNL     1     176.322 172.097 171.166  1.00  0.00     0.210 HD
ENDBRANCH  29  30
ENDBRANCH   1  11
TORSDOF 6
ENDMDL
MODEL 3
REMARK VINA RESULT:    -6.335     14.930     17.301
REMARK INTER + INTRA:         -10.214
REMARK INTER:                  -8.451
REMARK INTRA:                  -1.763
REMARK UNBOUND:                -1.843
REMARK SMILES CC[C@@H](C=C[C@H](C)[C@H]1CC[C@H]2[C@@H]3CC=C4C[C@H](O)CC[C@@]4(C)[C@H]3CC[C@]12C)C(C)C
REMARK SMILES IDX 6 1 7 2 5 3 4 4 3 5 2 6 1 7 28 8 29 9 30 10 8 11 9 12 26 13
REMARK SMILES IDX 10 14 11 15 25 16 27 17 12 18 24 19 23 20 13 21 21 22 14 23
REMARK SMILES IDX 15 24 20 25 22 26 16 27 19 28 17 29 18 30
REMARK H PARENT 18 31
REMARK Flexibility Score: inf
ROOT
ATOM      1  C   UNL     1     175.807 165.180 180.217  1.00  0.00     0.012 C 
ATOM      2  C   UNL     1     176.568 164.150 179.376  1.00  0.00     0.012 C 
ENDROOT
BRANCH   1   3
ATOM      3  C   UNL     1     174.681 164.501 180.984  1.00  0.00    -0.028 C 
ATOM      4  C   UNL     1     174.839 163.763 182.101  1.00  0.00    -0.027 C 
BRANCH   4   5
ATOM      5  C   UNL     1     176.171 163.410 182.746  1.00  0.00     0.014 C 
BRANCH   5   6
ATOM      6  C   UNL     1     176.332 161.867 182.784  1.00  0.00     0.004 C 
ATOM      7  C   UNL     1     175.007 161.100 182.838  1.00  0.00     0.004 C 
ENDBRANCH   5   6
BRANCH   5   8
ATOM      8  C   UNL     1     176.309 164.099 184.141  1.00  0.00    -0.011 C 
ATOM      9  C   UNL     1     175.286 165.241 184.294  1.00  0.00     0.008 C 
ATOM     10  C   UNL     1     177.722 164.664 184.374  1.00  0.00     0.008 C 
ENDBRANCH   5   8
ENDBRANCH   4   5
ENDBRANCH   1   3
BRANCH   1  11
ATOM     11  C   UNL     1     176.745 166.102 181.070  1.00  0.00     0.002 C 
ATOM     12  C   UNL     1     178.253 165.823 180.846  1.00  0.00     0.005 C 
ATOM     13  C   UNL     1     176.628 167.658 181.048  1.00  0.00    -0.026 C 
ATOM     14  C   UNL     1     178.998 167.124 181.190  1.00  0.00     0.005 C 
ATOM     15  C   UNL     1     177.925 168.023 181.792  1.00  0.00    -0.001 C 
ATOM     16  C   UNL     1     175.460 168.252 181.877  1.00  0.00     0.007 C 
ATOM     17  C   UNL     1     176.596 168.208 179.591  1.00  0.00     0.012 C 
ATOM     18  C   UNL     1     178.186 169.544 181.869  1.00  0.00     0.000 C 
ATOM     19  C   UNL     1     175.609 169.781 182.057  1.00  0.00     0.005 C 
ATOM     20  C   UNL     1     177.001 170.218 182.620  1.00  0.00     0.003 C 
ATOM     21  C   UNL     1     179.475 169.826 182.651  1.00  0.00     0.031 C 
ATOM     22  C   UNL     1     177.191 171.788 182.747  1.00  0.00    -0.008 C 
ATOM     23  C   UNL     1     179.687 171.298 182.822  1.00  0.00    -0.027 C 
ATOM     24  C   UNL     1     178.672 172.183 182.916  1.00  0.00    -0.065 C 
ATOM     25  C   UNL     1     176.660 172.534 181.482  1.00  0.00     0.014 C 
ATOM     26  C   UNL     1     176.407 172.263 183.999  1.00  0.00     0.016 C 
ATOM     27  C   UNL     1     179.008 173.660 182.925  1.00  0.00     0.063 C 
ATOM     28  C   UNL     1     177.003 174.038 181.442  1.00  0.00     0.033 C 
ATOM     29  C   UNL     1     178.505 174.297 181.625  1.00  0.00     0.118 C 
BRANCH  29  30
ATOM     30  O   UNL     1     178.730 175.682 181.662  1.00  0.00    -0.393 OA
ATOM     31  H   UNL     1     179.175 175.882 182.529  1.00  0.00     0.210 HD
ENDBRANCH  29  30
ENDBRANCH   1  11
TORSDOF 6
ENDMDL
MODEL 4
REMARK VINA RESULT:    -6.301      7.556     10.461
REMARK INTER + INTRA:         -10.170
REMARK INTER:                  -8.434
REMARK INTRA:                  -1.736
REMARK UNBOUND:                -1.843
REMARK SMILES CC[C@@H](C=C[C@H](C)[C@H]1CC[C@H]2[C@@H]3CC=C4C[C@H](O)CC[C@@]4(C)[C@H]3CC[C@]12C)C(C)C
REMARK SMILES IDX 6 1 7 2 5 3 4 4 3 5 2 6 1 7 28 8 29 9 30 10 8 11 9 12 26 13
REMARK SMILES IDX 10 14 11 15 25 16 27 17 12 18 24 19 23 20 13 21 21 22 14 23
REMARK SMILES IDX 15 24 20 25 22 26 16 27 19 28 17 29 18 30
REMARK H PARENT 18 31
REMARK Flexibility Score: inf
ROOT
ATOM      1  C   UNL     1     167.357 162.347 180.310  1.00  0.00     0.012 C 
ATOM      2  C   UNL     1     166.603 161.305 179.477  1.00  0.00     0.012 C 
ENDROOT
BRANCH   1   3
ATOM      3  C   UNL     1     166.371 163.214 181.080  1.00  0.00    -0.028 C 
ATOM      4  C   UNL     1     165.711 162.835 182.193  1.00  0.00    -0.027 C 
BRANCH   4   5
ATOM      5  C   UNL     1     165.768 161.454 182.828  1.00  0.00     0.014 C 
BRANCH   5   6
ATOM      6  C   UNL     1     164.337 160.857 182.891  1.00  0.00     0.004 C 
ATOM      7  C   UNL     1     163.521 161.050 181.609  1.00  0.00     0.004 C 
ENDBRANCH   5   6
BRANCH   5   8
ATOM      8  C   UNL     1     166.496 161.511 184.209  1.00  0.00    -0.011 C 
ATOM      9  C   UNL     1     167.374 162.772 184.316  1.00  0.00     0.008 C 
ATOM     10  C   UNL     1     167.375 160.272 184.454  1.00  0.00     0.008 C 
ENDBRANCH   5   8
ENDBRANCH   4   5
ENDBRANCH   1   3
BRANCH   1  11
ATOM     11  C   UNL     1     168.527 161.738 181.157  1.00  0.00     0.002 C 
ATOM     12  C   UNL     1     168.704 160.211 180.955  1.00  0.00     0.005 C 
ATOM     13  C   UNL     1     169.978 162.309 181.108  1.00  0.00    -0.026 C 
ATOM     14  C   UNL     1     170.172 159.890 181.286  1.00  0.00     0.005 C 
ATOM     15  C   UNL     1     170.720 161.190 181.860  1.00  0.00    -0.001 C 
ATOM     16  C   UNL     1     170.209 163.614 181.913  1.00  0.00     0.007 C 
ATOM     17  C   UNL     1     170.474 162.480 179.641  1.00  0.00     0.012 C 
ATOM     18  C   UNL     1     172.251 161.393 181.914  1.00  0.00     0.000 C 
ATOM     19  C   UNL     1     171.716 163.928 182.069  1.00  0.00     0.005 C 
ATOM     20  C   UNL     1     172.553 162.736 182.641  1.00  0.00     0.003 C 
ATOM     21  C   UNL     1     172.912 160.258 182.706  1.00  0.00     0.031 C 
ATOM     22  C   UNL     1     174.111 163.022 182.743  1.00  0.00    -0.008 C 
ATOM     23  C   UNL     1     174.383 160.494 182.854  1.00  0.00    -0.027 C 
ATOM     24  C   UNL     1     174.929 161.727 182.922  1.00  0.00    -0.065 C 
ATOM     25  C   UNL     1     174.649 163.730 181.459  1.00  0.00     0.014 C 
ATOM     26  C   UNL     1     174.348 163.931 183.978  1.00  0.00     0.016 C 
ATOM     27  C   UNL     1     176.439 161.844 182.910  1.00  0.00     0.063 C 
ATOM     28  C   UNL     1     176.187 163.848 181.398  1.00  0.00     0.033 C 
ATOM     29  C   UNL     1     176.881 162.493 181.593  1.00  0.00     0.118 C 
BRANCH  29  30
ATOM     30  O   UNL     1     178.272 162.689 181.609  1.00  0.00    -0.393 OA
ATOM     31  H   UNL     1     178.459 163.495 181.058  1.00  0.00     0.210 HD
ENDBRANCH  29  30
ENDBRANCH   1  11
TORSDOF 6
ENDMDL
MODEL 5
REMARK VINA RESULT:    -6.301     11.292     13.202
REMARK INTER + INTRA:         -10.169
REMARK INTER:                  -8.169
REMARK INTRA:                  -2.000
REMARK UNBOUND:                -1.843
REMARK SMILES CC[C@@H](C=C[C@H](C)[C@H]1CC[C@H]2[C@@H]3CC=C4C[C@H](O)CC[C@@]4(C)[C@H]3CC[C@]12C)C(C)C
REMARK SMILES IDX 6 1 7 2 5 3 4 4 3 5 2 6 1 7 28 8 29 9 30 10 8 11 9 12 26 13
REMARK SMILES IDX 10 14 11 15 25 16 27 17 12 18 24 19 23 20 13 21 21 22 14 23
REMARK SMILES IDX 15 24 20 25 22 26 16 27 19 28 17 29 18 30
REMARK H PARENT 18 31
REMARK Flexibility Score: inf
ROOT
ATOM      1  C   UNL     1     175.071 161.439 182.041  1.00  0.00     0.012 C 
ATOM      2  C   UNL     1     174.079 160.896 183.075  1.00  0.00     0.012 C 
ENDROOT
BRANCH   1   3
ATOM      3  C   UNL     1     176.475 161.473 182.629  1.00  0.00    -0.028 C 
ATOM      4  C   UNL     1     177.241 162.576 182.741  1.00  0.00    -0.027 C 
BRANCH   4   5
ATOM      5  C   UNL     1     176.877 163.962 182.230  1.00  0.00     0.014 C 
BRANCH   5   6
ATOM      6  C   UNL     1     177.794 164.326 181.032  1.00  0.00     0.004 C 
ATOM      7  C   UNL     1     177.166 165.307 180.038  1.00  0.00     0.004 C 
ENDBRANCH   5   6
BRANCH   5   8
ATOM      8  C   UNL     1     176.904 165.005 183.393  1.00  0.00    -0.011 C 
ATOM      9  C   UNL     1     177.601 164.422 184.637  1.00  0.00     0.008 C 
ATOM     10  C   UNL     1     175.491 165.472 183.788  1.00  0.00     0.008 C 
ENDBRANCH   5   8
ENDBRANCH   4   5
ENDBRANCH   1   3
BRANCH   1  11
ATOM     11  C   UNL     1     174.943 160.754 180.637  1.00  0.00     0.002 C 
ATOM     12  C   UNL     1     173.562 160.091 180.398  1.00  0.00     0.005 C 
ATOM     13  C   UNL     1     175.246 161.513 179.308  1.00  0.00    -0.026 C 
ATOM     14  C   UNL     1     173.349 160.052 178.875  1.00  0.00     0.005 C 
ATOM     15  C   UNL     1     174.687 160.496 178.298  1.00  0.00    -0.001 C 
ATOM     16  C   UNL     1     176.749 161.693 178.971  1.00  0.00     0.007 C 
ATOM     17  C   UNL     1     174.508 162.884 179.252  1.00  0.00     0.012 C 
ATOM     18  C   UNL     1     174.740 160.986 176.834  1.00  0.00     0.000 C 
ATOM     19  C   UNL     1     176.953 162.162 177.510  1.00  0.00     0.005 C 
ATOM     20  C   UNL     1     176.223 161.268 176.453  1.00  0.00     0.003 C 
ATOM     21  C   UNL     1     174.198 159.906 175.889  1.00  0.00     0.031 C 
ATOM     22  C   UNL     1     176.369 161.776 174.957  1.00  0.00    -0.008 C 
ATOM     23  C   UNL     1     174.338 160.326 174.459  1.00  0.00    -0.027 C 
ATOM     24  C   UNL     1     175.334 161.124 174.018  1.00  0.00    -0.065 C 
ATOM     25  C   UNL     1     176.171 163.322 174.854  1.00  0.00     0.014 C 
ATOM     26  C   UNL     1     177.791 161.400 174.463  1.00  0.00     0.016 C 
ATOM     27  C   UNL     1     175.281 161.611 172.585  1.00  0.00     0.063 C 
ATOM     28  C   UNL     1     176.088 163.856 173.408  1.00  0.00     0.033 C 
ATOM     29  C   UNL     1     175.024 163.123 172.578  1.00  0.00     0.118 C 
BRANCH  29  30
ATOM     30  O   UNL     1     175.063 163.601 171.259  1.00  0.00    -0.393 OA
ATOM     31  H   UNL     1     174.493 162.996 170.712  1.00  0.00     0.210 HD
ENDBRANCH  29  30
ENDBRANCH   1  11
TORSDOF 6
ENDMDL
MODEL 6
REMARK VINA RESULT:    -6.276     16.972     19.272
REMARK INTER + INTRA:         -10.137
REMARK INTER:                  -8.450
REMARK INTRA:                  -1.687
REMARK UNBOUND:                -1.843
REMARK SMILES CC[C@@H](C=C[C@H](C)[C@H]1CC[C@H]2[C@@H]3CC=C4C[C@H](O)CC[C@@]4(C)[C@H]3CC[C@]12C)C(C)C
REMARK SMILES IDX 6 1 7 2 5 3 4 4 3 5 2 6 1 7 28 8 29 9 30 10 8 11 9 12 26 13
REMARK SMILES IDX 10 14 11 15 25 16 27 17 12 18 24 19 23 20 13 21 21 22 14 23
REMARK SMILES IDX 15 24 20 25 22 26 16 27 19 28 17 29 18 30
REMARK H PARENT 18 31
REMARK Flexibility Score: inf
ROOT
ATOM      1  C   UNL     1     175.448 174.126 180.306  1.00  0.00     0.012 C 
ATOM      2  C   UNL     1     176.695 174.537 179.516  1.00  0.00     0.012 C 
ENDROOT
BRANCH   1   3
ATOM      3  C   UNL     1     175.712 172.832 181.064  1.00  0.00    -0.028 C 
ATOM      4  C   UNL     1     176.500 172.718 182.152  1.00  0.00    -0.027 C 
BRANCH   4   5
ATOM      5  C   UNL     1     177.327 173.838 182.766  1.00  0.00     0.014 C 
BRANCH   5   6
ATOM      6  C   UNL     1     178.823 173.424 182.780  1.00  0.00     0.004 C 
ATOM      7  C   UNL     1     179.054 171.913 182.871  1.00  0.00     0.004 C 
ENDBRANCH   5   6
BRANCH   5   8
ATOM      8  C   UNL     1     176.763 174.237 184.167  1.00  0.00    -0.011 C 
ATOM      9  C   UNL     1     175.335 173.694 184.359  1.00  0.00     0.008 C 
ATOM     10  C   UNL     1     176.747 175.762 184.375  1.00  0.00     0.008 C 
ENDBRANCH   5   8
ENDBRANCH   4   5
ENDBRANCH   1   3
BRANCH   1  11
ATOM     11  C   UNL     1     174.837 175.294 181.154  1.00  0.00     0.002 C 
ATOM     12  C   UNL     1     175.573 176.645 180.963  1.00  0.00     0.005 C 
ATOM     13  C   UNL     1     173.322 175.662 181.096  1.00  0.00    -0.026 C 
ATOM     14  C   UNL     1     174.554 177.750 181.292  1.00  0.00     0.005 C 
ATOM     15  C   UNL     1     173.354 177.001 181.854  1.00  0.00    -0.001 C 
ATOM     16  C   UNL     1     172.376 174.724 181.891  1.00  0.00     0.007 C 
ATOM     17  C   UNL     1     172.828 175.815 179.627  1.00  0.00     0.012 C 
ATOM     18  C   UNL     1     171.985 177.716 181.902  1.00  0.00     0.000 C 
ATOM     19  C   UNL     1     170.962 175.335 182.040  1.00  0.00     0.005 C 
ATOM     20  C   UNL     1     170.960 176.789 182.618  1.00  0.00     0.003 C 
ATOM     21  C   UNL     1     172.093 179.021 182.701  1.00  0.00     0.031 C 
ATOM     22  C   UNL     1     169.521 177.451 182.714  1.00  0.00    -0.008 C 
ATOM     23  C   UNL     1     170.753 179.674 182.843  1.00  0.00    -0.027 C 
ATOM     24  C   UNL     1     169.597 178.980 182.899  1.00  0.00    -0.065 C 
ATOM     25  C   UNL     1     168.682 177.188 181.422  1.00  0.00     0.014 C 
ATOM     26  C   UNL     1     168.795 176.839 183.940  1.00  0.00     0.016 C 
ATOM     27  C   UNL     1     168.295 179.754 182.882  1.00  0.00     0.063 C 
ATOM     28  C   UNL     1     167.358 177.978 181.355  1.00  0.00     0.033 C 
ATOM     29  C   UNL     1     167.569 179.485 181.559  1.00  0.00     0.118 C 
BRANCH  29  30
ATOM     30  O   UNL     1     166.319 180.125 181.569  1.00  0.00    -0.393 OA
ATOM     31  H   UNL     1     165.674 179.498 181.993  1.00  0.00     0.210 HD
ENDBRANCH  29  30
ENDBRANCH   1  11
TORSDOF 6
ENDMDL
MODEL 7
REMARK VINA RESULT:    -6.234      1.854      4.258
REMARK INTER + INTRA:         -10.081
REMARK INTER:                  -8.130
REMARK INTRA:                  -1.951
REMARK UNBOUND:                -1.843
REMARK SMILES CC[C@@H](C=C[C@H](C)[C@H]1CC[C@H]2[C@@H]3CC=C4C[C@H](O)CC[C@@]4(C)[C@H]3CC[C@]12C)C(C)C
REMARK SMILES IDX 6 1 7 2 5 3 4 4 3 5 2 6 1 7 28 8 29 9 30 10 8 11 9 12 26 13
REMARK SMILES IDX 10 14 11 15 25 16 27 17 12 18 24 19 23 20 13 21 21 22 14 23
REMARK SMILES IDX 15 24 20 25 22 26 16 27 19 28 17 29 18 30
REMARK H PARENT 18 31
REMARK Flexibility Score: inf
ROOT
ATOM      1  C   UNL     1     162.871 161.786 182.051  1.00  0.00     0.012 C 
ATOM      2  C   UNL     1     161.881 162.485 182.987  1.00  0.00     0.012 C 
ENDROOT
BRANCH   1   3
ATOM      3  C   UNL     1     163.444 160.547 182.725  1.00  0.00    -0.028 C 
ATOM      4  C   UNL     1     164.756 160.261 182.836  1.00  0.00    -0.027 C 
BRANCH   4   5
ATOM      5  C   UNL     1     165.892 161.078 182.240  1.00  0.00     0.014 C 
BRANCH   5   6
ATOM      6  C   UNL     1     166.749 160.172 181.316  1.00  0.00     0.004 C 
ATOM      7  C   UNL     1     167.652 160.941 180.347  1.00  0.00     0.004 C 
ENDBRANCH   5   6
BRANCH   5   8
ATOM      8  C   UNL     1     166.708 161.793 183.364  1.00  0.00    -0.011 C 
ATOM      9  C   UNL     1     167.103 160.800 184.472  1.00  0.00     0.008 C 
ATOM     10  C   UNL     1     165.927 162.959 183.997  1.00  0.00     0.008 C 
ENDBRANCH   5   8
ENDBRANCH   4   5
ENDBRANCH   1   3
BRANCH   1  11
ATOM     11  C   UNL     1     162.312 161.569 180.603  1.00  0.00     0.002 C 
ATOM     12  C   UNL     1     160.997 162.343 180.328  1.00  0.00     0.005 C 
ATOM     13  C   UNL     1     163.180 161.810 179.329  1.00  0.00    -0.026 C 
ATOM     14  C   UNL     1     160.927 162.567 178.807  1.00  0.00     0.005 C 
ATOM     15  C   UNL     1     162.082 161.742 178.253  1.00  0.00    -0.001 C 
ATOM     16  C   UNL     1     164.199 160.689 178.994  1.00  0.00     0.007 C 
ATOM     17  C   UNL     1     163.891 163.195 179.376  1.00  0.00     0.012 C 
ATOM     18  C   UNL     1     162.594 162.044 176.827  1.00  0.00     0.000 C 
ATOM     19  C   UNL     1     164.779 160.854 177.569  1.00  0.00     0.005 C 
ATOM     20  C   UNL     1     163.688 160.999 176.456  1.00  0.00     0.003 C 
ATOM     21  C   UNL     1     161.451 161.924 175.812  1.00  0.00     0.031 C 
ATOM     22  C   UNL     1     164.269 161.236 174.999  1.00  0.00    -0.008 C 
ATOM     23  C   UNL     1     161.953 162.113 174.414  1.00  0.00    -0.027 C 
ATOM     24  C   UNL     1     163.197 161.764 174.024  1.00  0.00    -0.065 C 
ATOM     25  C   UNL     1     165.433 162.278 175.008  1.00  0.00     0.014 C 
ATOM     26  C   UNL     1     164.793 159.875 174.469  1.00  0.00     0.016 C 
ATOM     27  C   UNL     1     163.645 162.149 172.630  1.00  0.00     0.063 C 
ATOM     28  C   UNL     1     165.903 162.715 173.604  1.00  0.00     0.033 C 
ATOM     29  C   UNL     1     164.742 163.216 172.733  1.00  0.00     0.118 C 
BRANCH  29  30
ATOM     30  O   UNL     1     165.229 163.515 171.450  1.00  0.00    -0.393 OA
ATOM     31  H   UNL     1     164.512 163.277 170.803  1.00  0.00     0.210 HD
ENDBRANCH  29  30
ENDBRANCH   1  11
TORSDOF 6
ENDMDL
MODEL 8
REMARK VINA RESULT:    -6.176     15.068     17.382
REMARK INTER + INTRA:         -10.004
REMARK INTER:                  -8.128
REMARK INTRA:                  -1.876
REMARK UNBOUND:                -1.843
REMARK SMILES CC[C@@H](C=C[C@H](C)[C@H]1CC[C@H]2[C@@H]3CC=C4C[C@H](O)CC[C@@]4(C)[C@H]3CC[C@]12C)C(C)C
REMARK SMILES IDX 6 1 7 2 5 3 4 4 3 5 2 6 1 7 28 8 29 9 30 10 8 11 9 12 26 13
REMARK SMILES IDX 10 14 11 15 25 16 27 17 12 18 24 19 23 20 13 21 21 22 14 23
REMARK SMILES IDX 15 24 20 25 22 26 16 27 19 28 17 29 18 30
REMARK H PARENT 18 31
REMARK Flexibility Score: inf
ROOT
ATOM      1  C   UNL     1     178.843 170.544 179.291  1.00  0.00     0.012 C 
ATOM      2  C   UNL     1     178.181 171.525 178.319  1.00  0.00     0.012 C 
ENDROOT
BRANCH   1   3
ATOM      3  C   UNL     1     180.095 171.167 179.893  1.00  0.00    -0.028 C 
ATOM      4  C   UNL     1     180.121 171.942 180.995  1.00  0.00    -0.027 C 
BRANCH   4   5
ATOM      5  C   UNL     1     178.903 172.399 181.784  1.00  0.00     0.014 C 
BRANCH   5   6
ATOM      6  C   UNL     1     178.800 173.947 181.721  1.00  0.00     0.004 C 
ATOM      7  C   UNL     1     178.995 174.642 183.072  1.00  0.00     0.004 C 
ENDBRANCH   5   6
BRANCH   5   8
ATOM      8  C   UNL     1     178.936 171.822 183.235  1.00  0.00    -0.011 C 
ATOM      9  C   UNL     1     180.071 170.792 183.390  1.00  0.00     0.008 C 
ATOM     10  C   UNL     1     177.604 171.156 183.625  1.00  0.00     0.008 C 
ENDBRANCH   5   8
ENDBRANCH   4   5
ENDBRANCH   1   3
BRANCH   1  11
ATOM     11  C   UNL     1     177.840 169.915 180.319  1.00  0.00     0.002 C 
ATOM     12  C   UNL     1     176.361 170.292 180.046  1.00  0.00     0.005 C 
ATOM     13  C   UNL     1     177.804 168.384 180.619  1.00  0.00    -0.026 C 
ATOM     14  C   UNL     1     175.501 169.170 180.655  1.00  0.00     0.005 C 
ATOM     15  C   UNL     1     176.495 168.312 181.426  1.00  0.00    -0.001 C 
ATOM     16  C   UNL     1     178.929 167.860 181.550  1.00  0.00     0.007 C 
ATOM     17  C   UNL     1     177.749 167.546 179.308  1.00  0.00     0.012 C 
ATOM     18  C   UNL     1     176.090 166.873 181.817  1.00  0.00     0.000 C 
ATOM     19  C   UNL     1     178.636 166.423 182.044  1.00  0.00     0.005 C 
ATOM     20  C   UNL     1     177.221 166.253 182.689  1.00  0.00     0.003 C 
ATOM     21  C   UNL     1     174.798 166.889 182.645  1.00  0.00     0.031 C 
ATOM     22  C   UNL     1     176.883 164.770 183.139  1.00  0.00    -0.008 C 
ATOM     23  C   UNL     1     174.448 165.512 183.118  1.00  0.00    -0.027 C 
ATOM     24  C   UNL     1     175.374 164.568 183.390  1.00  0.00    -0.065 C 
ATOM     25  C   UNL     1     177.309 163.730 182.054  1.00  0.00     0.014 C 
ATOM     26  C   UNL     1     177.646 164.487 184.460  1.00  0.00     0.016 C 
ATOM     27  C   UNL     1     174.897 163.166 183.706  1.00  0.00     0.063 C 
ATOM     28  C   UNL     1     176.821 162.292 182.327  1.00  0.00     0.033 C 
ATOM     29  C   UNL     1     175.305 162.228 182.564  1.00  0.00     0.118 C 
BRANCH  29  30
ATOM     30  O   UNL     1     174.947 160.909 182.888  1.00  0.00    -0.393 OA
ATOM     31  H   UNL     1     173.959 160.893 182.995  1.00  0.00     0.210 HD
ENDBRANCH  29  30
ENDBRANCH   1  11
TORSDOF 6
ENDMDL
MODEL 9
REMARK VINA RESULT:    -6.126      7.127     10.859
REMARK INTER + INTRA:          -9.938
REMARK INTER:                  -8.076
REMARK INTRA:                  -1.862
REMARK UNBOUND:                -1.843
REMARK SMILES CC[C@@H](C=C[C@H](C)[C@H]1CC[C@H]2[C@@H]3CC=C4C[C@H](O)CC[C@@]4(C)[C@H]3CC[C@]12C)C(C)C
REMARK SMILES IDX 6 1 7 2 5 3 4 4 3 5 2 6 1 7 28 8 29 9 30 10 8 11 9 12 26 13
REMARK SMILES IDX 10 14 11 15 25 16 27 17 12 18 24 19 23 20 13 21 21 22 14 23
REMARK SMILES IDX 15 24 20 25 22 26 16 27 19 28 17 29 18 30
REMARK H PARENT 18 31
REMARK Flexibility Score: inf
ROOT
ATOM      1  C   UNL     1     173.552 160.950 179.329  1.00  0.00     0.012 C 
ATOM      2  C   UNL     1     174.276 161.871 178.342  1.00  0.00     0.012 C 
ENDROOT
BRANCH   1   3
ATOM      3  C   UNL     1     174.540 159.981 179.963  1.00  0.00    -0.028 C 
ATOM      4  C   UNL     1     175.280 160.236 181.060  1.00  0.00    -0.027 C 
BRANCH   4   5
ATOM      5  C   UNL     1     175.322 161.559 181.810  1.00  0.00     0.014 C 
BRANCH   5   6
ATOM      6  C   UNL     1     176.761 162.140 181.749  1.00  0.00     0.004 C 
ATOM      7  C   UNL     1     177.500 162.125 183.090  1.00  0.00     0.004 C 
ENDBRANCH   5   6
BRANCH   5   8
ATOM      8  C   UNL     1     174.765 161.390 183.260  1.00  0.00    -0.011 C 
ATOM      9  C   UNL     1     174.099 160.013 183.435  1.00  0.00     0.008 C 
ATOM     10  C   UNL     1     173.746 162.485 183.622  1.00  0.00     0.008 C 
ENDBRANCH   5   8
ENDBRANCH   4   5
ENDBRANCH   1   3
BRANCH   1  11
ATOM     11  C   UNL     1     172.623 161.720 180.331  1.00  0.00     0.002 C 
ATOM     12  C   UNL     1     172.509 163.235 180.024  1.00  0.00     0.005 C 
ATOM     13  C   UNL     1     171.159 161.269 180.625  1.00  0.00    -0.026 C 
ATOM     14  C   UNL     1     171.164 163.702 180.609  1.00  0.00     0.005 C 
ATOM     15  C   UNL     1     170.662 162.502 181.400  1.00  0.00    -0.001 C 
ATOM     16  C   UNL     1     171.013 160.056 181.580  1.00  0.00     0.007 C 
ATOM     17  C   UNL     1     170.362 161.024 179.309  1.00  0.00     0.012 C 
ATOM     18  C   UNL     1     169.165 162.432 181.777  1.00  0.00     0.000 C 
ATOM     19  C   UNL     1     169.553 159.882 182.062  1.00  0.00     0.005 C 
ATOM     20  C   UNL     1     168.931 161.181 182.673  1.00  0.00     0.003 C 
ATOM     21  C   UNL     1     168.756 163.678 182.574  1.00  0.00     0.031 C 
ATOM     22  C   UNL     1     167.413 161.035 183.110  1.00  0.00    -0.008 C 
ATOM     23  C   UNL     1     167.335 163.577 183.033  1.00  0.00    -0.027 C 
ATOM     24  C   UNL     1     166.735 162.403 183.324  1.00  0.00    -0.065 C 
ATOM     25  C   UNL     1     166.577 160.274 182.031  1.00  0.00     0.014 C 
ATOM     26  C   UNL     1     167.375 160.249 184.447  1.00  0.00     0.016 C 
ATOM     27  C   UNL     1     165.251 162.412 183.624  1.00  0.00     0.063 C 
ATOM     28  C   UNL     1     165.055 160.281 182.288  1.00  0.00     0.033 C 
ATOM     29  C   UNL     1     164.506 161.700 182.489  1.00  0.00     0.118 C 
BRANCH  29  30
ATOM     30  O   UNL     1     163.139 161.623 182.799  1.00  0.00    -0.393 OA
ATOM     31  H   UNL     1     162.761 162.536 182.687  1.00  0.00     0.210 HD
ENDBRANCH  29  30
ENDBRANCH   1  11
TORSDOF 6
ENDMDL
