MODEL 1
REMARK VINA RESULT:    -8.237      0.000      0.000
REMARK INTER + INTRA:          -9.939
REMARK INTER:                  -9.922
REMARK INTRA:                  -0.017
REMARK UNBOUND:                -0.017
REMARK SMILES O=c1c(O)c(-c2ccc(O)c(O)c2)oc2cc(O)cc(O)c12
REMARK SMILES IDX 5 1 3 2 2 3 1 4 22 5 20 6 19 7 17 8 16 9 15 10 14 11 6 12
REMARK SMILES IDX 7 13 8 14 9 15 13 16 11 17 10 18 12 20 4 22 21 24 18 26
REMARK H PARENT 10 19 12 21 4 23 21 25 18 27
REMARK Flexibility Score: inf
ROOT
ATOM      1  C   UNL     1       7.910  75.623  -2.190  1.00  0.00     0.180 A 
ATOM      2  C   UNL     1       7.813  75.774  -3.584  1.00  0.00     0.208 A 
ATOM      3  C   UNL     1       8.266  74.736  -4.414  1.00  0.00     0.238 A 
ATOM      4  O   UNL     1       8.126  74.853  -5.660  1.00  0.00    -0.285 OA
ATOM      5  C   UNL     1       8.825  73.568  -3.841  1.00  0.00     0.111 A 
ATOM      6  C   UNL     1       9.353  72.471  -4.588  1.00  0.00     0.134 A 
ATOM      7  C   UNL     1       9.762  71.312  -3.916  1.00  0.00     0.093 A 
ATOM      8  C   UNL     1       9.722  71.235  -2.522  1.00  0.00     0.123 A 
ATOM      9  C   UNL     1       9.265  72.323  -1.782  1.00  0.00     0.094 A 
ATOM     10  C   UNL     1       8.817  73.480  -2.424  1.00  0.00     0.146 A 
ATOM     11  O   UNL     1       8.379  74.489  -1.682  1.00  0.00    -0.452 OA
ENDROOT
BRANCH   1  12
ATOM     12  C   UNL     1       7.477  76.683  -1.251  1.00  0.00     0.025 A 
ATOM     13  C   UNL     1       6.539  76.426  -0.240  1.00  0.00     0.016 A 
ATOM     14  C   UNL     1       6.129  77.447   0.618  1.00  0.00     0.051 A 
ATOM     15  C   UNL     1       6.632  78.745   0.477  1.00  0.00     0.157 A 
ATOM     16  C   UNL     1       7.968  77.989  -1.409  1.00  0.00     0.062 A 
ATOM     17  C   UNL     1       7.561  79.021  -0.554  1.00  0.00     0.158 A 
BRANCH  15  18
ATOM     18  O   UNL     1       6.184  79.720   1.370  1.00  0.00    -0.504 OA
ATOM     19  H   UNL     1       5.210  79.933   1.532  1.00  0.00     0.293 HD
ENDBRANCH  15  18
BRANCH  17  20
ATOM     20  O   UNL     1       8.101  80.292  -0.763  1.00  0.00    -0.504 OA
ATOM     21  H   UNL     1       9.030  80.565  -0.476  1.00  0.00     0.293 HD
ENDBRANCH  17  20
ENDBRANCH   1  12
BRANCH   2  22
ATOM     22  O   UNL     1       7.238  76.924  -4.129  1.00  0.00    -0.502 OA
ATOM     23  H   UNL     1       6.283  76.949  -4.464  1.00  0.00     0.293 HD
ENDBRANCH   2  22
BRANCH   6  24
ATOM     24  O   UNL     1       9.521  72.481  -5.975  1.00  0.00    -0.507 OA
ATOM     25  H   UNL     1       9.676  73.309  -6.530  1.00  0.00     0.293 HD
ENDBRANCH   6  24
BRANCH   8  26
ATOM     26  O   UNL     1      10.146  70.084  -1.861  1.00  0.00    -0.508 OA
ATOM     27  H   UNL     1      11.039  70.045  -1.383  1.00  0.00     0.293 HD
ENDBRANCH   8  26
TORSDOF 6
ENDMDL
MODEL 2
REMARK VINA RESULT:    -8.044      0.767      1.481
REMARK INTER + INTRA:          -9.707
REMARK INTER:                  -9.685
REMARK INTRA:                  -0.022
REMARK UNBOUND:                -0.017
REMARK SMILES O=c1c(O)c(-c2ccc(O)c(O)c2)oc2cc(O)cc(O)c12
REMARK SMILES IDX 5 1 3 2 2 3 1 4 22 5 20 6 19 7 17 8 16 9 15 10 14 11 6 12
REMARK SMILES IDX 7 13 8 14 9 15 13 16 11 17 10 18 12 20 4 22 21 24 18 26
REMARK H PARENT 10 19 12 21 4 23 21 25 18 27
REMARK Flexibility Score: inf
ROOT
ATOM      1  C   UNL     1       8.248  75.684  -2.667  1.00  0.00     0.180 A 
ATOM      2  C   UNL     1       8.078  75.673  -4.063  1.00  0.00     0.208 A 
ATOM      3  C   UNL     1       8.410  74.512  -4.780  1.00  0.00     0.238 A 
ATOM      4  O   UNL     1       8.204  74.489  -6.021  1.00  0.00    -0.285 OA
ATOM      5  C   UNL     1       8.921  73.383  -4.095  1.00  0.00     0.111 A 
ATOM      6  C   UNL     1       9.328  72.169  -4.726  1.00  0.00     0.134 A 
ATOM      7  C   UNL     1       9.698  71.072  -3.938  1.00  0.00     0.093 A 
ATOM      8  C   UNL     1       9.736  71.166  -2.545  1.00  0.00     0.123 A 
ATOM      9  C   UNL     1       9.399  72.365  -1.923  1.00  0.00     0.094 A 
ATOM     10  C   UNL     1       8.992  73.467  -2.680  1.00  0.00     0.146 A 
ATOM     11  O   UNL     1       8.668  74.588  -2.048  1.00  0.00    -0.452 OA
ENDROOT
BRANCH   1  12
ATOM     12  C   UNL     1       7.944  76.879  -1.846  1.00  0.00     0.025 A 
ATOM     13  C   UNL     1       8.448  78.144  -2.183  1.00  0.00     0.016 A 
ATOM     14  C   UNL     1       8.167  79.251  -1.381  1.00  0.00     0.051 A 
ATOM     15  C   UNL     1       7.394  79.117  -0.223  1.00  0.00     0.157 A 
ATOM     16  C   UNL     1       7.186  76.737  -0.674  1.00  0.00     0.062 A 
ATOM     17  C   UNL     1       6.900  77.842   0.138  1.00  0.00     0.158 A 
BRANCH  15  18
ATOM     18  O   UNL     1       7.146  80.265   0.533  1.00  0.00    -0.504 OA
ATOM     19  H   UNL     1       6.355  80.876   0.390  1.00  0.00     0.293 HD
ENDBRANCH  15  18
BRANCH  17  20
ATOM     20  O   UNL     1       6.129  77.627   1.283  1.00  0.00    -0.504 OA
ATOM     21  H   UNL     1       6.379  76.984   2.020  1.00  0.00     0.293 HD
ENDBRANCH  17  20
ENDBRANCH   1  12
BRANCH   2  22
ATOM     22  O   UNL     1       7.550  76.790  -4.715  1.00  0.00    -0.502 OA
ATOM     23  H   UNL     1       8.131  77.461  -5.203  1.00  0.00     0.293 HD
ENDBRANCH   2  22
BRANCH   6  24
ATOM     24  O   UNL     1       9.413  72.000  -6.111  1.00  0.00    -0.507 OA
ATOM     25  H   UNL     1       8.680  71.620  -6.690  1.00  0.00     0.293 HD
ENDBRANCH   6  24
BRANCH   8  26
ATOM     26  O   UNL     1      10.120  70.074  -1.769  1.00  0.00    -0.508 OA
ATOM     27  H   UNL     1       9.851  69.128  -2.015  1.00  0.00     0.293 HD
ENDBRANCH   8  26
TORSDOF 6
ENDMDL
MODEL 3
REMARK VINA RESULT:    -7.790      1.435      7.111
REMARK INTER + INTRA:          -9.400
REMARK INTER:                  -9.207
REMARK INTRA:                  -0.194
REMARK UNBOUND:                -0.017
REMARK SMILES O=c1c(O)c(-c2ccc(O)c(O)c2)oc2cc(O)cc(O)c12
REMARK SMILES IDX 5 1 3 2 2 3 1 4 22 5 20 6 19 7 17 8 16 9 15 10 14 11 6 12
REMARK SMILES IDX 7 13 8 14 9 15 13 16 11 17 10 18 12 20 4 22 21 24 18 26
REMARK H PARENT 10 19 12 21 4 23 21 25 18 27
REMARK Flexibility Score: inf
ROOT
ATOM      1  C   UNL     1       7.806  75.324  -2.082  1.00  0.00     0.180 A 
ATOM      2  C   UNL     1       6.772  75.086  -1.158  1.00  0.00     0.208 A 
ATOM      3  C   UNL     1       6.360  76.129  -0.314  1.00  0.00     0.238 A 
ATOM      4  O   UNL     1       5.399  75.926   0.472  1.00  0.00    -0.285 OA
ATOM      5  C   UNL     1       6.996  77.392  -0.392  1.00  0.00     0.111 A 
ATOM      6  C   UNL     1       6.687  78.508   0.444  1.00  0.00     0.134 A 
ATOM      7  C   UNL     1       7.290  79.746   0.192  1.00  0.00     0.093 A 
ATOM      8  C   UNL     1       8.238  79.893  -0.824  1.00  0.00     0.123 A 
ATOM      9  C   UNL     1       8.590  78.795  -1.605  1.00  0.00     0.094 A 
ATOM     10  C   UNL     1       7.981  77.555  -1.401  1.00  0.00     0.146 A 
ATOM     11  O   UNL     1       8.337  76.537  -2.175  1.00  0.00    -0.452 OA
ENDROOT
BRANCH   1  12
ATOM     12  C   UNL     1       8.311  74.267  -2.987  1.00  0.00     0.025 A 
ATOM     13  C   UNL     1       8.957  73.126  -2.490  1.00  0.00     0.016 A 
ATOM     14  C   UNL     1       9.447  72.154  -3.364  1.00  0.00     0.051 A 
ATOM     15  C   UNL     1       9.315  72.307  -4.749  1.00  0.00     0.157 A 
ATOM     16  C   UNL     1       8.196  74.434  -4.376  1.00  0.00     0.062 A 
ATOM     17  C   UNL     1       8.684  73.465  -5.262  1.00  0.00     0.158 A 
BRANCH  15  18
ATOM     18  O   UNL     1       9.821  71.297  -5.569  1.00  0.00    -0.504 OA
ATOM     19  H   UNL     1       9.406  70.381  -5.659  1.00  0.00     0.293 HD
ENDBRANCH  15  18
BRANCH  17  20
ATOM     20  O   UNL     1       8.524  73.693  -6.631  1.00  0.00    -0.504 OA
ATOM     21  H   UNL     1       9.290  73.832  -7.274  1.00  0.00     0.293 HD
ENDBRANCH  17  20
ENDBRANCH   1  12
BRANCH   2  22
ATOM     22  O   UNL     1       6.143  73.840  -1.114  1.00  0.00    -0.502 OA
ATOM     23  H   UNL     1       6.468  73.086  -0.521  1.00  0.00     0.293 HD
ENDBRANCH   2  22
BRANCH   6  24
ATOM     24  O   UNL     1       5.824  78.445   1.541  1.00  0.00    -0.507 OA
ATOM     25  H   UNL     1       6.063  78.054   2.439  1.00  0.00     0.293 HD
ENDBRANCH   6  24
BRANCH   8  26
ATOM     26  O   UNL     1       8.845  81.125  -1.058  1.00  0.00    -0.508 OA
ATOM     27  H   UNL     1       9.248  81.669  -0.303  1.00  0.00     0.293 HD
ENDBRANCH   8  26
TORSDOF 6
ENDMDL
MODEL 4
REMARK VINA RESULT:    -7.666      1.520      2.836
REMARK INTER + INTRA:          -9.251
REMARK INTER:                  -8.920
REMARK INTRA:                  -0.331
REMARK UNBOUND:                -0.017
REMARK SMILES O=c1c(O)c(-c2ccc(O)c(O)c2)oc2cc(O)cc(O)c12
REMARK SMILES IDX 5 1 3 2 2 3 1 4 22 5 20 6 19 7 17 8 16 9 15 10 14 11 6 12
REMARK SMILES IDX 7 13 8 14 9 15 13 16 11 17 10 18 12 20 4 22 21 24 18 26
REMARK H PARENT 10 19 12 21 4 23 21 25 18 27
REMARK Flexibility Score: inf
ROOT
ATOM      1  C   UNL     1       8.480  75.962  -1.343  1.00  0.00     0.180 A 
ATOM      2  C   UNL     1       9.626  75.367  -0.786  1.00  0.00     0.208 A 
ATOM      3  C   UNL     1      10.290  74.362  -1.507  1.00  0.00     0.238 A 
ATOM      4  O   UNL     1      11.346  73.872  -1.028  1.00  0.00    -0.285 OA
ATOM      5  C   UNL     1       9.793  73.953  -2.767  1.00  0.00     0.111 A 
ATOM      6  C   UNL     1      10.363  72.916  -3.566  1.00  0.00     0.134 A 
ATOM      7  C   UNL     1       9.864  72.683  -4.854  1.00  0.00     0.093 A 
ATOM      8  C   UNL     1       8.776  73.407  -5.347  1.00  0.00     0.123 A 
ATOM      9  C   UNL     1       8.175  74.380  -4.552  1.00  0.00     0.094 A 
ATOM     10  C   UNL     1       8.672  74.659  -3.276  1.00  0.00     0.146 A 
ATOM     11  O   UNL     1       8.077  75.602  -2.556  1.00  0.00    -0.452 OA
ENDROOT
BRANCH   1  12
ATOM     12  C   UNL     1       7.712  77.010  -0.632  1.00  0.00     0.025 A 
ATOM     13  C   UNL     1       6.645  76.683   0.218  1.00  0.00     0.016 A 
ATOM     14  C   UNL     1       5.920  77.690   0.858  1.00  0.00     0.051 A 
ATOM     15  C   UNL     1       6.235  79.038   0.654  1.00  0.00     0.157 A 
ATOM     16  C   UNL     1       8.017  78.362  -0.856  1.00  0.00     0.062 A 
ATOM     17  C   UNL     1       7.296  79.379  -0.218  1.00  0.00     0.158 A 
BRANCH  15  18
ATOM     18  O   UNL     1       5.475  79.995   1.328  1.00  0.00    -0.504 OA
ATOM     19  H   UNL     1       5.725  80.387   2.225  1.00  0.00     0.293 HD
ENDBRANCH  15  18
BRANCH  17  20
ATOM     20  O   UNL     1       7.663  80.701  -0.479  1.00  0.00    -0.504 OA
ATOM     21  H   UNL     1       8.335  80.972  -1.183  1.00  0.00     0.293 HD
ENDBRANCH  17  20
ENDBRANCH   1  12
BRANCH   2  22
ATOM     22  O   UNL     1      10.114  75.802   0.449  1.00  0.00    -0.502 OA
ATOM     23  H   UNL     1      10.324  76.774   0.640  1.00  0.00     0.293 HD
ENDBRANCH   2  22
BRANCH   6  24
ATOM     24  O   UNL     1      11.392  72.074  -3.134  1.00  0.00    -0.507 OA
ATOM     25  H   UNL     1      11.262  71.130  -2.804  1.00  0.00     0.293 HD
ENDBRANCH   6  24
BRANCH   8  26
ATOM     26  O   UNL     1       8.277  73.159  -6.623  1.00  0.00    -0.508 OA
ATOM     27  H   UNL     1       8.815  73.374  -7.455  1.00  0.00     0.293 HD
ENDBRANCH   8  26
TORSDOF 6
ENDMDL
MODEL 5
REMARK VINA RESULT:    -7.235      2.331      2.851
REMARK INTER + INTRA:          -8.732
REMARK INTER:                  -8.453
REMARK INTRA:                  -0.279
REMARK UNBOUND:                -0.017
REMARK SMILES O=c1c(O)c(-c2ccc(O)c(O)c2)oc2cc(O)cc(O)c12
REMARK SMILES IDX 5 1 3 2 2 3 1 4 22 5 20 6 19 7 17 8 16 9 15 10 14 11 6 12
REMARK SMILES IDX 7 13 8 14 9 15 13 16 11 17 10 18 12 20 4 22 21 24 18 26
REMARK H PARENT 10 19 12 21 4 23 21 25 18 27
REMARK Flexibility Score: inf
ROOT
ATOM      1  C   UNL     1       9.652  76.107  -2.464  1.00  0.00     0.180 A 
ATOM      2  C   UNL     1      11.047  76.268  -2.539  1.00  0.00     0.208 A 
ATOM      3  C   UNL     1      11.791  75.387  -3.339  1.00  0.00     0.238 A 
ATOM      4  O   UNL     1      13.032  75.569  -3.445  1.00  0.00    -0.285 OA
ATOM      5  C   UNL     1      11.135  74.347  -4.042  1.00  0.00     0.111 A 
ATOM      6  C   UNL     1      11.796  73.372  -4.849  1.00  0.00     0.134 A 
ATOM      7  C   UNL     1      11.035  72.469  -5.602  1.00  0.00     0.093 A 
ATOM      8  C   UNL     1       9.640  72.464  -5.525  1.00  0.00     0.123 A 
ATOM      9  C   UNL     1       8.989  73.372  -4.694  1.00  0.00     0.094 A 
ATOM     10  C   UNL     1       9.719  74.309  -3.958  1.00  0.00     0.146 A 
ATOM     11  O   UNL     1       9.060  75.163  -3.186  1.00  0.00    -0.452 OA
ENDROOT
BRANCH   1  12
ATOM     12  C   UNL     1       8.803  76.981  -1.622  1.00  0.00     0.025 A 
ATOM     13  C   UNL     1       8.288  76.537  -0.395  1.00  0.00     0.016 A 
ATOM     14  C   UNL     1       7.470  77.370   0.370  1.00  0.00     0.051 A 
ATOM     15  C   UNL     1       7.139  78.653  -0.078  1.00  0.00     0.157 A 
ATOM     16  C   UNL     1       8.455  78.260  -2.085  1.00  0.00     0.062 A 
ATOM     17  C   UNL     1       7.634  79.103  -1.325  1.00  0.00     0.158 A 
BRANCH  15  18
ATOM     18  O   UNL     1       6.320  79.438   0.736  1.00  0.00    -0.504 OA
ATOM     19  H   UNL     1       5.572  80.022   0.391  1.00  0.00     0.293 HD
ENDBRANCH  15  18
BRANCH  17  20
ATOM     20  O   UNL     1       7.339  80.366  -1.843  1.00  0.00    -0.504 OA
ATOM     21  H   UNL     1       7.925  81.179  -1.716  1.00  0.00     0.293 HD
ENDBRANCH  17  20
ENDBRANCH   1  12
BRANCH   2  22
ATOM     22  O   UNL     1      11.671  77.314  -1.856  1.00  0.00    -0.502 OA
ATOM     23  H   UNL     1      11.210  78.196  -1.671  1.00  0.00     0.293 HD
ENDBRANCH   2  22
BRANCH   6  24
ATOM     24  O   UNL     1      13.185  73.233  -4.925  1.00  0.00    -0.507 OA
ATOM     25  H   UNL     1      13.677  72.353  -4.889  1.00  0.00     0.293 HD
ENDBRANCH   6  24
BRANCH   8  26
ATOM     26  O   UNL     1       8.891  71.551  -6.265  1.00  0.00    -0.508 OA
ATOM     27  H   UNL     1       8.962  70.553  -6.104  1.00  0.00     0.293 HD
ENDBRANCH   8  26
TORSDOF 6
ENDMDL
MODEL 6
REMARK VINA RESULT:    -7.158      2.405      7.069
REMARK INTER + INTRA:          -8.639
REMARK INTER:                  -8.304
REMARK INTRA:                  -0.335
REMARK UNBOUND:                -0.017
REMARK SMILES O=c1c(O)c(-c2ccc(O)c(O)c2)oc2cc(O)cc(O)c12
REMARK SMILES IDX 5 1 3 2 2 3 1 4 22 5 20 6 19 7 17 8 16 9 15 10 14 11 6 12
REMARK SMILES IDX 7 13 8 14 9 15 13 16 11 17 10 18 12 20 4 22 21 24 18 26
REMARK H PARENT 10 19 12 21 4 23 21 25 18 27
REMARK Flexibility Score: inf
ROOT
ATOM      1  C   UNL     1       9.355  76.063  -2.191  1.00  0.00     0.180 A 
ATOM      2  C   UNL     1       8.241  76.557  -1.489  1.00  0.00     0.208 A 
ATOM      3  C   UNL     1       8.341  77.801  -0.845  1.00  0.00     0.238 A 
ATOM      4  O   UNL     1       7.324  78.264  -0.265  1.00  0.00    -0.285 OA
ATOM      5  C   UNL     1       9.556  78.526  -0.896  1.00  0.00     0.111 A 
ATOM      6  C   UNL     1       9.781  79.777  -0.245  1.00  0.00     0.134 A 
ATOM      7  C   UNL     1      10.979  80.466  -0.470  1.00  0.00     0.093 A 
ATOM      8  C   UNL     1      11.985  79.920  -1.272  1.00  0.00     0.123 A 
ATOM      9  C   UNL     1      11.798  78.673  -1.862  1.00  0.00     0.094 A 
ATOM     10  C   UNL     1      10.600  77.977  -1.685  1.00  0.00     0.146 A 
ATOM     11  O   UNL     1      10.458  76.796  -2.274  1.00  0.00    -0.452 OA
ENDROOT
BRANCH   1  12
ATOM     12  C   UNL     1       9.335  74.749  -2.874  1.00  0.00     0.025 A 
ATOM     13  C   UNL     1       9.695  73.570  -2.203  1.00  0.00     0.016 A 
ATOM     14  C   UNL     1       9.691  72.347  -2.874  1.00  0.00     0.051 A 
ATOM     15  C   UNL     1       9.343  72.275  -4.227  1.00  0.00     0.157 A 
ATOM     16  C   UNL     1       9.006  74.683  -4.237  1.00  0.00     0.062 A 
ATOM     17  C   UNL     1       9.000  73.461  -4.920  1.00  0.00     0.158 A 
BRANCH  15  18
ATOM     18  O   UNL     1       9.355  71.020  -4.839  1.00  0.00    -0.504 OA
ATOM     19  H   UNL     1       9.770  70.835  -5.741  1.00  0.00     0.293 HD
ENDBRANCH  15  18
BRANCH  17  20
ATOM     20  O   UNL     1       8.650  73.471  -6.272  1.00  0.00    -0.504 OA
ATOM     21  H   UNL     1       8.060  72.777  -6.707  1.00  0.00     0.293 HD
ENDBRANCH  17  20
ENDBRANCH   1  12
BRANCH   2  22
ATOM     22  O   UNL     1       7.045  75.837  -1.471  1.00  0.00    -0.502 OA
ATOM     23  H   UNL     1       6.144  76.281  -1.344  1.00  0.00     0.293 HD
ENDBRANCH   2  22
BRANCH   6  24
ATOM     24  O   UNL     1       8.880  80.366   0.646  1.00  0.00    -0.507 OA
ATOM     25  H   UNL     1       7.876  80.324   0.561  1.00  0.00     0.293 HD
ENDBRANCH   6  24
BRANCH   8  26
ATOM     26  O   UNL     1      13.180  80.606  -1.478  1.00  0.00    -0.508 OA
ATOM     27  H   UNL     1      14.068  80.121  -1.525  1.00  0.00     0.293 HD
ENDBRANCH   8  26
TORSDOF 6
ENDMDL
MODEL 7
REMARK VINA RESULT:    -7.154      2.578      2.977
REMARK INTER + INTRA:          -8.635
REMARK INTER:                  -8.499
REMARK INTRA:                  -0.136
REMARK UNBOUND:                -0.017
REMARK SMILES O=c1c(O)c(-c2ccc(O)c(O)c2)oc2cc(O)cc(O)c12
REMARK SMILES IDX 5 1 3 2 2 3 1 4 22 5 20 6 19 7 17 8 16 9 15 10 14 11 6 12
REMARK SMILES IDX 7 13 8 14 9 15 13 16 11 17 10 18 12 20 4 22 21 24 18 26
REMARK H PARENT 10 19 12 21 4 23 21 25 18 27
REMARK Flexibility Score: inf
ROOT
ATOM      1  C   UNL     1       9.170  76.097  -2.521  1.00  0.00     0.180 A 
ATOM      2  C   UNL     1       8.567  74.964  -3.095  1.00  0.00     0.208 A 
ATOM      3  C   UNL     1       9.335  74.133  -3.926  1.00  0.00     0.238 A 
ATOM      4  O   UNL     1       8.806  73.090  -4.392  1.00  0.00    -0.285 OA
ATOM      5  C   UNL     1      10.689  74.453  -4.187  1.00  0.00     0.111 A 
ATOM      6  C   UNL     1      11.548  73.704  -5.047  1.00  0.00     0.134 A 
ATOM      7  C   UNL     1      12.905  74.040  -5.130  1.00  0.00     0.093 A 
ATOM      8  C   UNL     1      13.420  75.137  -4.433  1.00  0.00     0.123 A 
ATOM      9  C   UNL     1      12.576  75.909  -3.639  1.00  0.00     0.094 A 
ATOM     10  C   UNL     1      11.225  75.579  -3.508  1.00  0.00     0.146 A 
ATOM     11  O   UNL     1      10.458  76.335  -2.733  1.00  0.00    -0.452 OA
ENDROOT
BRANCH   1  12
ATOM     12  C   UNL     1       8.419  77.034  -1.654  1.00  0.00     0.025 A 
ATOM     13  C   UNL     1       7.862  76.616  -0.436  1.00  0.00     0.016 A 
ATOM     14  C   UNL     1       7.138  77.511   0.353  1.00  0.00     0.051 A 
ATOM     15  C   UNL     1       6.943  78.833  -0.062  1.00  0.00     0.157 A 
ATOM     16  C   UNL     1       8.207  78.354  -2.083  1.00  0.00     0.062 A 
ATOM     17  C   UNL     1       7.482  79.260  -1.299  1.00  0.00     0.158 A 
BRANCH  15  18
ATOM     18  O   UNL     1       6.213  79.680   0.776  1.00  0.00    -0.504 OA
ATOM     19  H   UNL     1       5.255  79.515   1.049  1.00  0.00     0.293 HD
ENDBRANCH  15  18
BRANCH  17  20
ATOM     20  O   UNL     1       7.322  80.560  -1.783  1.00  0.00    -0.504 OA
ATOM     21  H   UNL     1       7.344  81.385  -1.202  1.00  0.00     0.293 HD
ENDBRANCH  17  20
ENDBRANCH   1  12
BRANCH   2  22
ATOM     22  O   UNL     1       7.236  74.653  -2.806  1.00  0.00    -0.502 OA
ATOM     23  H   UNL     1       6.564  75.353  -2.519  1.00  0.00     0.293 HD
ENDBRANCH   2  22
BRANCH   6  24
ATOM     24  O   UNL     1      11.116  72.649  -5.855  1.00  0.00    -0.507 OA
ATOM     25  H   UNL     1      11.590  72.329  -6.686  1.00  0.00     0.293 HD
ENDBRANCH   6  24
BRANCH   8  26
ATOM     26  O   UNL     1      14.768  75.473  -4.533  1.00  0.00    -0.508 OA
ATOM     27  H   UNL     1      15.443  74.840  -4.946  1.00  0.00     0.293 HD
ENDBRANCH   8  26
TORSDOF 6
ENDMDL
MODEL 8
REMARK VINA RESULT:    -7.151      2.405      7.157
REMARK INTER + INTRA:          -8.631
REMARK INTER:                  -8.318
REMARK INTRA:                  -0.313
REMARK UNBOUND:                -0.017
REMARK SMILES O=c1c(O)c(-c2ccc(O)c(O)c2)oc2cc(O)cc(O)c12
REMARK SMILES IDX 5 1 3 2 2 3 1 4 22 5 20 6 19 7 17 8 16 9 15 10 14 11 6 12
REMARK SMILES IDX 7 13 8 14 9 15 13 16 11 17 10 18 12 20 4 22 21 24 18 26
REMARK H PARENT 10 19 12 21 4 23 21 25 18 27
REMARK Flexibility Score: inf
ROOT
ATOM      1  C   UNL     1       9.396  76.115  -2.135  1.00  0.00     0.180 A 
ATOM      2  C   UNL     1       8.269  76.604  -1.453  1.00  0.00     0.208 A 
ATOM      3  C   UNL     1       8.340  77.865  -0.838  1.00  0.00     0.238 A 
ATOM      4  O   UNL     1       7.311  78.322  -0.276  1.00  0.00    -0.285 OA
ATOM      5  C   UNL     1       9.541  78.612  -0.899  1.00  0.00     0.111 A 
ATOM      6  C   UNL     1       9.738  79.882  -0.277  1.00  0.00     0.134 A 
ATOM      7  C   UNL     1      10.924  80.589  -0.512  1.00  0.00     0.093 A 
ATOM      8  C   UNL     1      11.945  80.044  -1.294  1.00  0.00     0.123 A 
ATOM      9  C   UNL     1      11.786  78.779  -1.855  1.00  0.00     0.094 A 
ATOM     10  C   UNL     1      10.601  78.064  -1.668  1.00  0.00     0.146 A 
ATOM     11  O   UNL     1      10.486  76.867  -2.230  1.00  0.00    -0.452 OA
ENDROOT
BRANCH   1  12
ATOM     12  C   UNL     1       9.406  74.785  -2.786  1.00  0.00     0.025 A 
ATOM     13  C   UNL     1       9.098  74.635  -4.147  1.00  0.00     0.016 A 
ATOM     14  C   UNL     1       9.091  73.368  -4.733  1.00  0.00     0.051 A 
ATOM     15  C   UNL     1       9.375  72.228  -3.974  1.00  0.00     0.157 A 
ATOM     16  C   UNL     1       9.671  73.640  -2.017  1.00  0.00     0.062 A 
ATOM     17  C   UNL     1       9.665  72.365  -2.596  1.00  0.00     0.158 A 
BRANCH  15  18
ATOM     18  O   UNL     1       9.355  70.991  -4.622  1.00  0.00    -0.504 OA
ATOM     19  H   UNL     1       9.894  70.777  -5.449  1.00  0.00     0.293 HD
ENDBRANCH  15  18
BRANCH  17  20
ATOM     20  O   UNL     1       9.949  71.273  -1.772  1.00  0.00    -0.504 OA
ATOM     21  H   UNL     1      10.659  70.585  -1.973  1.00  0.00     0.293 HD
ENDBRANCH  17  20
ENDBRANCH   1  12
BRANCH   2  22
ATOM     22  O   UNL     1       7.086  75.861  -1.424  1.00  0.00    -0.502 OA
ATOM     23  H   UNL     1       6.718  75.392  -2.243  1.00  0.00     0.293 HD
ENDBRANCH   2  22
BRANCH   6  24
ATOM     24  O   UNL     1       8.820  80.475   0.594  1.00  0.00    -0.507 OA
ATOM     25  H   UNL     1       7.912  80.096   0.817  1.00  0.00     0.293 HD
ENDBRANCH   6  24
BRANCH   8  26
ATOM     26  O   UNL     1      13.128  80.747  -1.509  1.00  0.00    -0.508 OA
ATOM     27  H   UNL     1      13.765  80.497  -2.257  1.00  0.00     0.293 HD
ENDBRANCH   8  26
TORSDOF 6
ENDMDL
MODEL 9
REMARK VINA RESULT:    -7.128      3.704      5.205
REMARK INTER + INTRA:          -8.604
REMARK INTER:                  -8.281
REMARK INTRA:                  -0.323
REMARK UNBOUND:                -0.017
REMARK SMILES O=c1c(O)c(-c2ccc(O)c(O)c2)oc2cc(O)cc(O)c12
REMARK SMILES IDX 5 1 3 2 2 3 1 4 22 5 20 6 19 7 17 8 16 9 15 10 14 11 6 12
REMARK SMILES IDX 7 13 8 14 9 15 13 16 11 17 10 18 12 20 4 22 21 24 18 26
REMARK H PARENT 10 19 12 21 4 23 21 25 18 27
REMARK Flexibility Score: inf
ROOT
ATOM      1  C   UNL     1      11.919  75.400  -2.736  1.00  0.00     0.180 A 
ATOM      2  C   UNL     1      12.180  74.523  -1.668  1.00  0.00     0.208 A 
ATOM      3  C   UNL     1      11.663  73.219  -1.717  1.00  0.00     0.238 A 
ATOM      4  O   UNL     1      11.946  72.422  -0.784  1.00  0.00    -0.285 OA
ATOM      5  C   UNL     1      10.879  72.812  -2.823  1.00  0.00     0.111 A 
ATOM      6  C   UNL     1      10.271  71.527  -2.957  1.00  0.00     0.134 A 
ATOM      7  C   UNL     1       9.626  71.190  -4.153  1.00  0.00     0.093 A 
ATOM      8  C   UNL     1       9.510  72.114  -5.194  1.00  0.00     0.123 A 
ATOM      9  C   UNL     1      10.048  73.391  -5.049  1.00  0.00     0.094 A 
ATOM     10  C   UNL     1      10.729  73.745  -3.882  1.00  0.00     0.146 A 
ATOM     11  O   UNL     1      11.235  74.968  -3.789  1.00  0.00    -0.452 OA
ENDROOT
BRANCH   1  12
ATOM     12  C   UNL     1      12.408  76.798  -2.745  1.00  0.00     0.025 A 
ATOM     13  C   UNL     1      13.652  77.133  -3.300  1.00  0.00     0.016 A 
ATOM     14  C   UNL     1      14.103  78.454  -3.276  1.00  0.00     0.051 A 
ATOM     15  C   UNL     1      13.332  79.461  -2.687  1.00  0.00     0.157 A 
ATOM     16  C   UNL     1      11.642  77.803  -2.134  1.00  0.00     0.062 A 
ATOM     17  C   UNL     1      12.086  79.130  -2.104  1.00  0.00     0.158 A 
BRANCH  15  18
ATOM     18  O   UNL     1      13.838  80.763  -2.700  1.00  0.00    -0.504 OA
ATOM     19  H   UNL     1      14.720  81.022  -3.118  1.00  0.00     0.293 HD
ENDBRANCH  15  18
BRANCH  17  20
ATOM     20  O   UNL     1      11.264  80.079  -1.490  1.00  0.00    -0.504 OA
ATOM     21  H   UNL     1      11.415  80.437  -0.558  1.00  0.00     0.293 HD
ENDBRANCH  17  20
ENDBRANCH   1  12
BRANCH   2  22
ATOM     22  O   UNL     1      12.975  74.938  -0.597  1.00  0.00    -0.502 OA
ATOM     23  H   UNL     1      13.723  75.612  -0.703  1.00  0.00     0.293 HD
ENDBRANCH   2  22
BRANCH   6  24
ATOM     24  O   UNL     1      10.250  70.565  -1.944  1.00  0.00    -0.507 OA
ATOM     25  H   UNL     1      10.537  70.727  -0.991  1.00  0.00     0.293 HD
ENDBRANCH   6  24
BRANCH   8  26
ATOM     26  O   UNL     1       8.852  71.776  -6.375  1.00  0.00    -0.508 OA
ATOM     27  H   UNL     1       9.308  71.853  -7.277  1.00  0.00     0.293 HD
ENDBRANCH   8  26
TORSDOF 6
ENDMDL
