MODEL 1
REMARK VINA RESULT:    -6.242      0.000      0.000
REMARK INTER + INTRA:          -7.558
REMARK INTER:                  -7.337
REMARK INTRA:                  -0.221
REMARK UNBOUND:                -0.221
REMARK SMILES O=c1c(O)c(-c2ccc(O)cc2)oc2cc(O)cc(O)c12
REMARK SMILES IDX 5 1 3 2 2 3 1 4 21 5 19 6 18 7 16 8 15 9 14 10 13 11 6 12
REMARK SMILES IDX 7 13 8 14 9 15 12 16 11 17 10 18 4 20 20 22 17 24
REMARK H PARENT 10 19 4 21 20 23 17 25
REMARK Flexibility Score: inf
ROOT
ATOM      1  C   UNL     1      -8.300   0.108  -5.193  1.00  0.00     0.180 A 
ATOM      2  C   UNL     1      -8.694  -1.087  -4.560  1.00  0.00     0.208 A 
ATOM      3  C   UNL     1      -8.424  -2.311  -5.192  1.00  0.00     0.238 A 
ATOM      4  O   UNL     1      -8.781  -3.387  -4.639  1.00  0.00    -0.285 OA
ATOM      5  C   UNL     1      -7.749  -2.321  -6.430  1.00  0.00     0.111 A 
ATOM      6  C   UNL     1      -7.436  -3.512  -7.130  1.00  0.00     0.134 A 
ATOM      7  C   UNL     1      -6.754  -3.440  -8.354  1.00  0.00     0.093 A 
ATOM      8  C   UNL     1      -6.379  -2.202  -8.889  1.00  0.00     0.123 A 
ATOM      9  C   UNL     1      -6.687  -1.026  -8.203  1.00  0.00     0.094 A 
ATOM     10  C   UNL     1      -7.368  -1.077  -6.983  1.00  0.00     0.146 A 
ATOM     11  O   UNL     1      -7.653   0.058  -6.353  1.00  0.00    -0.452 OA
ENDROOT
BRANCH   1  12
ATOM     12  C   UNL     1      -8.566   1.437  -4.599  1.00  0.00     0.021 A 
ATOM     13  C   UNL     1      -7.493   2.210  -4.125  1.00  0.00     0.016 A 
ATOM     14  C   UNL     1      -7.719   3.478  -3.581  1.00  0.00     0.047 A 
ATOM     15  C   UNL     1      -9.016   3.997  -3.518  1.00  0.00     0.115 A 
ATOM     16  C   UNL     1      -9.867   1.972  -4.552  1.00  0.00     0.016 A 
ATOM     17  C   UNL     1     -10.090   3.242  -4.008  1.00  0.00     0.047 A 
BRANCH  15  18
ATOM     18  O   UNL     1      -9.227   5.261  -2.973  1.00  0.00    -0.508 OA
ATOM     19  H   UNL     1      -8.453   5.860  -2.710  1.00  0.00     0.293 HD
ENDBRANCH  15  18
ENDBRANCH   1  12
BRANCH   2  20
ATOM     20  O   UNL     1      -9.316  -1.051  -3.309  1.00  0.00    -0.502 OA
ATOM     21  H   UNL     1      -9.884  -1.816  -2.964  1.00  0.00     0.293 HD
ENDBRANCH   2  20
BRANCH   6  22
ATOM     22  O   UNL     1      -7.794  -4.761  -6.621  1.00  0.00    -0.507 OA
ATOM     23  H   UNL     1      -7.099  -5.433  -6.321  1.00  0.00     0.293 HD
ENDBRANCH   6  22
BRANCH   8  24
ATOM     24  O   UNL     1      -5.702  -2.129 -10.104  1.00  0.00    -0.508 OA
ATOM     25  H   UNL     1      -6.124  -2.454 -10.967  1.00  0.00     0.293 HD
ENDBRANCH   8  24
TORSDOF 5
ENDMDL
MODEL 2
REMARK VINA RESULT:    -5.938      1.050      1.522
REMARK INTER + INTRA:          -7.201
REMARK INTER:                  -6.910
REMARK INTRA:                  -0.291
REMARK UNBOUND:                -0.221
REMARK SMILES O=c1c(O)c(-c2ccc(O)cc2)oc2cc(O)cc(O)c12
REMARK SMILES IDX 5 1 3 2 2 3 1 4 21 5 19 6 18 7 16 8 15 9 14 10 13 11 6 12
REMARK SMILES IDX 7 13 8 14 9 15 12 16 11 17 10 18 4 20 20 22 17 24
REMARK H PARENT 10 19 4 21 20 23 17 25
REMARK Flexibility Score: inf
ROOT
ATOM      1  C   UNL     1      -7.997  -0.762  -5.440  1.00  0.00     0.180 A 
ATOM      2  C   UNL     1      -8.772  -1.805  -4.897  1.00  0.00     0.208 A 
ATOM      3  C   UNL     1      -8.680  -3.086  -5.465  1.00  0.00     0.238 A 
ATOM      4  O   UNL     1      -9.376  -4.025  -4.994  1.00  0.00    -0.285 OA
ATOM      5  C   UNL     1      -7.803  -3.305  -6.548  1.00  0.00     0.111 A 
ATOM      6  C   UNL     1      -7.649  -4.566  -7.174  1.00  0.00     0.134 A 
ATOM      7  C   UNL     1      -6.748  -4.707  -8.241  1.00  0.00     0.093 A 
ATOM      8  C   UNL     1      -6.001  -3.612  -8.692  1.00  0.00     0.123 A 
ATOM      9  C   UNL     1      -6.151  -2.368  -8.078  1.00  0.00     0.094 A 
ATOM     10  C   UNL     1      -7.045  -2.207  -7.014  1.00  0.00     0.146 A 
ATOM     11  O   UNL     1      -7.171  -1.010  -6.451  1.00  0.00    -0.452 OA
ENDROOT
BRANCH   1  12
ATOM     12  C   UNL     1      -8.054   0.619  -4.909  1.00  0.00     0.021 A 
ATOM     13  C   UNL     1      -9.006   1.517  -5.420  1.00  0.00     0.016 A 
ATOM     14  C   UNL     1      -9.093   2.819  -4.917  1.00  0.00     0.047 A 
ATOM     15  C   UNL     1      -8.243   3.235  -3.889  1.00  0.00     0.115 A 
ATOM     16  C   UNL     1      -7.214   1.037  -3.860  1.00  0.00     0.016 A 
ATOM     17  C   UNL     1      -7.304   2.340  -3.359  1.00  0.00     0.047 A 
BRANCH  15  18
ATOM     18  O   UNL     1      -8.340   4.535  -3.398  1.00  0.00    -0.508 OA
ATOM     19  H   UNL     1      -7.755   5.281  -3.755  1.00  0.00     0.293 HD
ENDBRANCH  15  18
ENDBRANCH   1  12
BRANCH   2  20
ATOM     20  O   UNL     1      -9.595  -1.572  -3.792  1.00  0.00    -0.502 OA
ATOM     21  H   UNL     1      -9.280  -1.054  -2.981  1.00  0.00     0.293 HD
ENDBRANCH   2  20
BRANCH   6  22
ATOM     22  O   UNL     1      -8.378  -5.676  -6.746  1.00  0.00    -0.507 OA
ATOM     23  H   UNL     1      -8.297  -6.036  -5.804  1.00  0.00     0.293 HD
ENDBRANCH   6  22
BRANCH   8  24
ATOM     24  O   UNL     1      -5.107  -3.751  -9.751  1.00  0.00    -0.508 OA
ATOM     25  H   UNL     1      -5.176  -3.175 -10.582  1.00  0.00     0.293 HD
ENDBRANCH   8  24
TORSDOF 5
ENDMDL
MODEL 3
REMARK VINA RESULT:    -5.926      1.771      3.608
REMARK INTER + INTRA:          -7.187
REMARK INTER:                  -6.889
REMARK INTRA:                  -0.298
REMARK UNBOUND:                -0.221
REMARK SMILES O=c1c(O)c(-c2ccc(O)cc2)oc2cc(O)cc(O)c12
REMARK SMILES IDX 5 1 3 2 2 3 1 4 21 5 19 6 18 7 16 8 15 9 14 10 13 11 6 12
REMARK SMILES IDX 7 13 8 14 9 15 12 16 11 17 10 18 4 20 20 22 17 24
REMARK H PARENT 10 19 4 21 20 23 17 25
REMARK Flexibility Score: inf
ROOT
ATOM      1  C   UNL     1      -7.928  -1.123  -5.977  1.00  0.00     0.180 A 
ATOM      2  C   UNL     1      -7.162  -1.418  -7.122  1.00  0.00     0.208 A 
ATOM      3  C   UNL     1      -7.114  -2.742  -7.585  1.00  0.00     0.238 A 
ATOM      4  O   UNL     1      -6.423  -3.019  -8.603  1.00  0.00    -0.285 OA
ATOM      5  C   UNL     1      -7.846  -3.742  -6.912  1.00  0.00     0.111 A 
ATOM      6  C   UNL     1      -7.854  -5.099  -7.316  1.00  0.00     0.134 A 
ATOM      7  C   UNL     1      -8.616  -6.034  -6.598  1.00  0.00     0.093 A 
ATOM      8  C   UNL     1      -9.368  -5.637  -5.487  1.00  0.00     0.123 A 
ATOM      9  C   UNL     1      -9.362  -4.301  -5.085  1.00  0.00     0.094 A 
ATOM     10  C   UNL     1      -8.608  -3.354  -5.786  1.00  0.00     0.146 A 
ATOM     11  O   UNL     1      -8.617  -2.090  -5.377  1.00  0.00    -0.452 OA
ENDROOT
BRANCH   1  12
ATOM     12  C   UNL     1      -8.013   0.244  -5.417  1.00  0.00     0.021 A 
ATOM     13  C   UNL     1      -9.057   1.093  -5.821  1.00  0.00     0.016 A 
ATOM     14  C   UNL     1      -9.170   2.381  -5.288  1.00  0.00     0.047 A 
ATOM     15  C   UNL     1      -8.251   2.832  -4.336  1.00  0.00     0.115 A 
ATOM     16  C   UNL     1      -7.103   0.696  -4.444  1.00  0.00     0.016 A 
ATOM     17  C   UNL     1      -7.219   1.985  -3.912  1.00  0.00     0.047 A 
BRANCH  15  18
ATOM     18  O   UNL     1      -8.375   4.117  -3.814  1.00  0.00    -0.508 OA
ATOM     19  H   UNL     1      -9.170   4.705  -4.036  1.00  0.00     0.293 HD
ENDBRANCH  15  18
ENDBRANCH   1  12
BRANCH   2  20
ATOM     20  O   UNL     1      -6.486  -0.399  -7.800  1.00  0.00    -0.502 OA
ATOM     21  H   UNL     1      -5.560  -0.092  -7.532  1.00  0.00     0.293 HD
ENDBRANCH   2  20
BRANCH   6  22
ATOM     22  O   UNL     1      -7.116  -5.525  -8.420  1.00  0.00    -0.507 OA
ATOM     23  H   UNL     1      -6.742  -6.464  -8.482  1.00  0.00     0.293 HD
ENDBRANCH   6  22
BRANCH   8  24
ATOM     24  O   UNL     1     -10.125  -6.564  -4.774  1.00  0.00    -0.508 OA
ATOM     25  H   UNL     1     -10.908  -7.048  -5.199  1.00  0.00     0.293 HD
ENDBRANCH   8  24
TORSDOF 5
ENDMDL
MODEL 4
REMARK VINA RESULT:    -5.839      2.082      7.020
REMARK INTER + INTRA:          -7.084
REMARK INTER:                  -6.906
REMARK INTRA:                  -0.178
REMARK UNBOUND:                -0.221
REMARK SMILES O=c1c(O)c(-c2ccc(O)cc2)oc2cc(O)cc(O)c12
REMARK SMILES IDX 5 1 3 2 2 3 1 4 21 5 19 6 18 7 16 8 15 9 14 10 13 11 6 12
REMARK SMILES IDX 7 13 8 14 9 15 12 16 11 17 10 18 4 20 20 22 17 24
REMARK H PARENT 10 19 4 21 20 23 17 25
REMARK Flexibility Score: inf
ROOT
ATOM      1  C   UNL     1      -8.359  -2.102  -6.095  1.00  0.00     0.180 A 
ATOM      2  C   UNL     1      -8.854  -1.079  -6.928  1.00  0.00     0.208 A 
ATOM      3  C   UNL     1      -8.929   0.229  -6.424  1.00  0.00     0.238 A 
ATOM      4  O   UNL     1      -9.380   1.151  -7.157  1.00  0.00    -0.285 OA
ATOM      5  C   UNL     1      -8.492   0.495  -5.111  1.00  0.00     0.111 A 
ATOM      6  C   UNL     1      -8.532   1.786  -4.529  1.00  0.00     0.134 A 
ATOM      7  C   UNL     1      -8.069   1.972  -3.218  1.00  0.00     0.093 A 
ATOM      8  C   UNL     1      -7.568   0.894  -2.479  1.00  0.00     0.123 A 
ATOM      9  C   UNL     1      -7.529  -0.380  -3.047  1.00  0.00     0.094 A 
ATOM     10  C   UNL     1      -7.987  -0.586  -4.353  1.00  0.00     0.146 A 
ATOM     11  O   UNL     1      -7.942  -1.811  -4.867  1.00  0.00    -0.452 OA
ENDROOT
BRANCH   1  12
ATOM     12  C   UNL     1      -8.266  -3.509  -6.547  1.00  0.00     0.021 A 
ATOM     13  C   UNL     1      -7.300  -3.866  -7.502  1.00  0.00     0.016 A 
ATOM     14  C   UNL     1      -7.180  -5.192  -7.927  1.00  0.00     0.047 A 
ATOM     15  C   UNL     1      -8.012  -6.181  -7.394  1.00  0.00     0.115 A 
ATOM     16  C   UNL     1      -9.088  -4.511  -5.999  1.00  0.00     0.016 A 
ATOM     17  C   UNL     1      -8.964  -5.838  -6.426  1.00  0.00     0.047 A 
BRANCH  15  18
ATOM     18  O   UNL     1      -7.881  -7.498  -7.826  1.00  0.00    -0.508 OA
ATOM     19  H   UNL     1      -7.054  -8.045  -7.618  1.00  0.00     0.293 HD
ENDBRANCH  15  18
ENDBRANCH   1  12
BRANCH   2  20
ATOM     20  O   UNL     1      -9.234  -1.362  -8.243  1.00  0.00    -0.502 OA
ATOM     21  H   UNL     1      -9.087  -2.270  -8.666  1.00  0.00     0.293 HD
ENDBRANCH   2  20
BRANCH   6  22
ATOM     22  O   UNL     1      -9.023   2.881  -5.241  1.00  0.00    -0.507 OA
ATOM     23  H   UNL     1      -8.787   3.034  -6.214  1.00  0.00     0.293 HD
ENDBRANCH   6  22
BRANCH   8  24
ATOM     24  O   UNL     1      -7.109   1.079  -1.177  1.00  0.00    -0.508 OA
ATOM     25  H   UNL     1      -6.484   0.413  -0.736  1.00  0.00     0.293 HD
ENDBRANCH   8  24
TORSDOF 5
ENDMDL
MODEL 5
REMARK VINA RESULT:    -5.697     13.120     16.379
REMARK INTER + INTRA:          -6.918
REMARK INTER:                  -6.818
REMARK INTRA:                  -0.100
REMARK UNBOUND:                -0.221
REMARK SMILES O=c1c(O)c(-c2ccc(O)cc2)oc2cc(O)cc(O)c12
REMARK SMILES IDX 5 1 3 2 2 3 1 4 21 5 19 6 18 7 16 8 15 9 14 10 13 11 6 12
REMARK SMILES IDX 7 13 8 14 9 15 12 16 11 17 10 18 4 20 20 22 17 24
REMARK H PARENT 10 19 4 21 20 23 17 25
REMARK Flexibility Score: inf
ROOT
ATOM      1  C   UNL     1      -0.816   6.268   6.725  1.00  0.00     0.180 A 
ATOM      2  C   UNL     1      -0.339   7.446   6.117  1.00  0.00     0.208 A 
ATOM      3  C   UNL     1      -1.186   8.153   5.251  1.00  0.00     0.238 A 
ATOM      4  O   UNL     1      -0.767   9.204   4.693  1.00  0.00    -0.285 OA
ATOM      5  C   UNL     1      -2.497   7.685   5.022  1.00  0.00     0.111 A 
ATOM      6  C   UNL     1      -3.414   8.341   4.167  1.00  0.00     0.134 A 
ATOM      7  C   UNL     1      -4.705   7.818   3.998  1.00  0.00     0.093 A 
ATOM      8  C   UNL     1      -5.094   6.653   4.669  1.00  0.00     0.123 A 
ATOM      9  C   UNL     1      -4.193   6.002   5.512  1.00  0.00     0.094 A 
ATOM     10  C   UNL     1      -2.901   6.508   5.692  1.00  0.00     0.146 A 
ATOM     11  O   UNL     1      -2.062   5.865   6.497  1.00  0.00    -0.452 OA
ENDROOT
BRANCH   1  12
ATOM     12  C   UNL     1       0.024   5.457   7.635  1.00  0.00     0.021 A 
ATOM     13  C   UNL     1       0.378   4.148   7.267  1.00  0.00     0.016 A 
ATOM     14  C   UNL     1       1.189   3.372   8.100  1.00  0.00     0.047 A 
ATOM     15  C   UNL     1       1.669   3.897   9.304  1.00  0.00     0.115 A 
ATOM     16  C   UNL     1       0.526   5.988   8.838  1.00  0.00     0.016 A 
ATOM     17  C   UNL     1       1.338   5.208   9.670  1.00  0.00     0.047 A 
BRANCH  15  18
ATOM     18  O   UNL     1       2.475   3.113  10.125  1.00  0.00    -0.508 OA
ATOM     19  H   UNL     1       3.159   3.527  10.747  1.00  0.00     0.293 HD
ENDBRANCH  15  18
ENDBRANCH   1  12
BRANCH   2  20
ATOM     20  O   UNL     1       0.947   7.915   6.400  1.00  0.00    -0.502 OA
ATOM     21  H   UNL     1       1.555   7.460   7.070  1.00  0.00     0.293 HD
ENDBRANCH   2  20
BRANCH   6  22
ATOM     22  O   UNL     1      -3.057   9.506   3.486  1.00  0.00    -0.507 OA
ATOM     23  H   UNL     1      -2.635   9.477   2.566  1.00  0.00     0.293 HD
ENDBRANCH   6  22
BRANCH   8  24
ATOM     24  O   UNL     1      -6.376   6.132   4.502  1.00  0.00    -0.508 OA
ATOM     25  H   UNL     1      -7.174   6.523   4.989  1.00  0.00     0.293 HD
ENDBRANCH   8  24
TORSDOF 5
ENDMDL
MODEL 6
REMARK VINA RESULT:    -5.606      2.105      3.999
REMARK INTER + INTRA:          -6.811
REMARK INTER:                  -6.520
REMARK INTRA:                  -0.290
REMARK UNBOUND:                -0.221
REMARK SMILES O=c1c(O)c(-c2ccc(O)cc2)oc2cc(O)cc(O)c12
REMARK SMILES IDX 5 1 3 2 2 3 1 4 21 5 19 6 18 7 16 8 15 9 14 10 13 11 6 12
REMARK SMILES IDX 7 13 8 14 9 15 12 16 11 17 10 18 4 20 20 22 17 24
REMARK H PARENT 10 19 4 21 20 23 17 25
REMARK Flexibility Score: inf
ROOT
ATOM      1  C   UNL     1      -7.879  -2.380  -6.230  1.00  0.00     0.180 A 
ATOM      2  C   UNL     1      -6.851  -1.992  -7.112  1.00  0.00     0.208 A 
ATOM      3  C   UNL     1      -6.329  -2.941  -8.005  1.00  0.00     0.238 A 
ATOM      4  O   UNL     1      -5.402  -2.608  -8.792  1.00  0.00    -0.285 OA
ATOM      5  C   UNL     1      -6.853  -4.250  -8.015  1.00  0.00     0.111 A 
ATOM      6  C   UNL     1      -6.385  -5.264  -8.885  1.00  0.00     0.134 A 
ATOM      7  C   UNL     1      -6.965  -6.541  -8.841  1.00  0.00     0.093 A 
ATOM      8  C   UNL     1      -8.003  -6.821  -7.945  1.00  0.00     0.123 A 
ATOM      9  C   UNL     1      -8.466  -5.825  -7.085  1.00  0.00     0.094 A 
ATOM     10  C   UNL     1      -7.900  -4.547  -7.112  1.00  0.00     0.146 A 
ATOM     11  O   UNL     1      -8.359  -3.619  -6.279  1.00  0.00    -0.452 OA
ENDROOT
BRANCH   1  12
ATOM     12  C   UNL     1      -8.468  -1.442  -5.248  1.00  0.00     0.021 A 
ATOM     13  C   UNL     1      -7.887  -1.321  -3.974  1.00  0.00     0.016 A 
ATOM     14  C   UNL     1      -8.413  -0.426  -3.038  1.00  0.00     0.047 A 
ATOM     15  C   UNL     1      -9.514   0.371  -3.366  1.00  0.00     0.115 A 
ATOM     16  C   UNL     1      -9.563  -0.624  -5.580  1.00  0.00     0.016 A 
ATOM     17  C   UNL     1     -10.086   0.273  -4.641  1.00  0.00     0.047 A 
BRANCH  15  18
ATOM     18  O   UNL     1     -10.027   1.259  -2.424  1.00  0.00    -0.508 OA
ATOM     19  H   UNL     1      -9.501   2.069  -2.117  1.00  0.00     0.293 HD
ENDBRANCH  15  18
ENDBRANCH   1  12
BRANCH   2  20
ATOM     20  O   UNL     1      -6.384  -0.675  -7.116  1.00  0.00    -0.502 OA
ATOM     21  H   UNL     1      -5.567  -0.391  -7.642  1.00  0.00     0.293 HD
ENDBRANCH   2  20
BRANCH   6  22
ATOM     22  O   UNL     1      -5.353  -5.015  -9.790  1.00  0.00    -0.507 OA
ATOM     23  H   UNL     1      -4.753  -5.756 -10.132  1.00  0.00     0.293 HD
ENDBRANCH   6  22
BRANCH   8  24
ATOM     24  O   UNL     1      -8.579  -8.089  -7.900  1.00  0.00    -0.508 OA
ATOM     25  H   UNL     1      -8.094  -8.878  -7.488  1.00  0.00     0.293 HD
ENDBRANCH   8  24
TORSDOF 5
ENDMDL
MODEL 7
REMARK VINA RESULT:    -5.453     13.373     15.817
REMARK INTER + INTRA:          -6.630
REMARK INTER:                  -6.340
REMARK INTRA:                  -0.291
REMARK UNBOUND:                -0.221
REMARK SMILES O=c1c(O)c(-c2ccc(O)cc2)oc2cc(O)cc(O)c12
REMARK SMILES IDX 5 1 3 2 2 3 1 4 21 5 19 6 18 7 16 8 15 9 14 10 13 11 6 12
REMARK SMILES IDX 7 13 8 14 9 15 12 16 11 17 10 18 4 20 20 22 17 24
REMARK H PARENT 10 19 4 21 20 23 17 25
REMARK Flexibility Score: inf
ROOT
ATOM      1  C   UNL     1      -2.429   6.360   6.498  1.00  0.00     0.180 A 
ATOM      2  C   UNL     1      -3.204   5.618   7.411  1.00  0.00     0.208 A 
ATOM      3  C   UNL     1      -2.554   4.765   8.316  1.00  0.00     0.238 A 
ATOM      4  O   UNL     1      -3.238   4.088   9.132  1.00  0.00    -0.285 OA
ATOM      5  C   UNL     1      -1.147   4.682   8.307  1.00  0.00     0.111 A 
ATOM      6  C   UNL     1      -0.415   3.850   9.188  1.00  0.00     0.134 A 
ATOM      7  C   UNL     1       0.987   3.830   9.123  1.00  0.00     0.093 A 
ATOM      8  C   UNL     1       1.668   4.626   8.196  1.00  0.00     0.123 A 
ATOM      9  C   UNL     1       0.951   5.447   7.325  1.00  0.00     0.094 A 
ATOM     10  C   UNL     1      -0.446   5.480   7.373  1.00  0.00     0.146 A 
ATOM     11  O   UNL     1      -1.104   6.268   6.528  1.00  0.00    -0.452 OA
ENDROOT
BRANCH   1  12
ATOM     12  C   UNL     1      -3.042   7.266   5.500  1.00  0.00     0.021 A 
ATOM     13  C   UNL     1      -3.442   6.754   4.255  1.00  0.00     0.016 A 
ATOM     14  C   UNL     1      -4.044   7.586   3.306  1.00  0.00     0.047 A 
ATOM     15  C   UNL     1      -4.268   8.936   3.594  1.00  0.00     0.115 A 
ATOM     16  C   UNL     1      -3.288   8.620   5.793  1.00  0.00     0.016 A 
ATOM     17  C   UNL     1      -3.891   9.451   4.842  1.00  0.00     0.047 A 
BRANCH  15  18
ATOM     18  O   UNL     1      -4.868   9.754   2.640  1.00  0.00    -0.508 OA
ATOM     19  H   UNL     1      -4.835   9.529   1.653  1.00  0.00     0.293 HD
ENDBRANCH  15  18
ENDBRANCH   1  12
BRANCH   2  20
ATOM     20  O   UNL     1      -4.594   5.756   7.432  1.00  0.00    -0.502 OA
ATOM     21  H   UNL     1      -5.065   6.565   7.044  1.00  0.00     0.293 HD
ENDBRANCH   2  20
BRANCH   6  22
ATOM     22  O   UNL     1      -1.066   3.046  10.125  1.00  0.00    -0.507 OA
ATOM     23  H   UNL     1      -1.794   3.410  10.726  1.00  0.00     0.293 HD
ENDBRANCH   6  22
BRANCH   8  24
ATOM     24  O   UNL     1       3.060   4.607   8.131  1.00  0.00    -0.508 OA
ATOM     25  H   UNL     1       3.570   5.219   7.503  1.00  0.00     0.293 HD
ENDBRANCH   8  24
TORSDOF 5
ENDMDL
MODEL 8
REMARK VINA RESULT:    -5.403     13.747     15.884
REMARK INTER + INTRA:          -6.572
REMARK INTER:                  -6.274
REMARK INTRA:                  -0.298
REMARK UNBOUND:                -0.221
REMARK SMILES O=c1c(O)c(-c2ccc(O)cc2)oc2cc(O)cc(O)c12
REMARK SMILES IDX 5 1 3 2 2 3 1 4 21 5 19 6 18 7 16 8 15 9 14 10 13 11 6 12
REMARK SMILES IDX 7 13 8 14 9 15 12 16 11 17 10 18 4 20 20 22 17 24
REMARK H PARENT 10 19 4 21 20 23 17 25
REMARK Flexibility Score: inf
ROOT
ATOM      1  C   UNL     1      -1.741   6.041   6.824  1.00  0.00     0.180 A 
ATOM      2  C   UNL     1      -3.101   5.745   7.047  1.00  0.00     0.208 A 
ATOM      3  C   UNL     1      -4.070   6.361   6.240  1.00  0.00     0.238 A 
ATOM      4  O   UNL     1      -5.291   6.112   6.437  1.00  0.00    -0.285 OA
ATOM      5  C   UNL     1      -3.667   7.243   5.216  1.00  0.00     0.111 A 
ATOM      6  C   UNL     1      -4.580   7.901   4.358  1.00  0.00     0.134 A 
ATOM      7  C   UNL     1      -4.100   8.757   3.355  1.00  0.00     0.093 A 
ATOM      8  C   UNL     1      -2.725   8.966   3.196  1.00  0.00     0.123 A 
ATOM      9  C   UNL     1      -1.821   8.320   4.040  1.00  0.00     0.094 A 
ATOM     10  C   UNL     1      -2.281   7.464   5.046  1.00  0.00     0.146 A 
ATOM     11  O   UNL     1      -1.398   6.866   5.839  1.00  0.00    -0.452 OA
ENDROOT
BRANCH   1  12
ATOM     12  C   UNL     1      -0.662   5.447   7.644  1.00  0.00     0.021 A 
ATOM     13  C   UNL     1       0.012   4.305   7.178  1.00  0.00     0.016 A 
ATOM     14  C   UNL     1       1.049   3.740   7.926  1.00  0.00     0.047 A 
ATOM     15  C   UNL     1       1.437   4.315   9.139  1.00  0.00     0.115 A 
ATOM     16  C   UNL     1      -0.255   6.033   8.857  1.00  0.00     0.016 A 
ATOM     17  C   UNL     1       0.784   5.465   9.602  1.00  0.00     0.047 A 
BRANCH  15  18
ATOM     18  O   UNL     1       2.472   3.742   9.874  1.00  0.00    -0.508 OA
ATOM     19  H   UNL     1       2.721   2.766   9.766  1.00  0.00     0.293 HD
ENDBRANCH  15  18
ENDBRANCH   1  12
BRANCH   2  20
ATOM     20  O   UNL     1      -3.471   4.830   8.035  1.00  0.00    -0.502 OA
ATOM     21  H   UNL     1      -3.431   5.053   9.023  1.00  0.00     0.293 HD
ENDBRANCH   2  20
BRANCH   6  22
ATOM     22  O   UNL     1      -5.956   7.712   4.491  1.00  0.00    -0.507 OA
ATOM     23  H   UNL     1      -6.344   6.845   4.840  1.00  0.00     0.293 HD
ENDBRANCH   6  22
BRANCH   8  24
ATOM     24  O   UNL     1      -2.247   9.815   2.200  1.00  0.00    -0.508 OA
ATOM     25  H   UNL     1      -2.560   9.735   1.239  1.00  0.00     0.293 HD
ENDBRANCH   8  24
TORSDOF 5
ENDMDL
MODEL 9
REMARK VINA RESULT:    -5.314     13.629     15.534
REMARK INTER + INTRA:          -6.467
REMARK INTER:                  -6.178
REMARK INTRA:                  -0.289
REMARK UNBOUND:                -0.221
REMARK SMILES O=c1c(O)c(-c2ccc(O)cc2)oc2cc(O)cc(O)c12
REMARK SMILES IDX 5 1 3 2 2 3 1 4 21 5 19 6 18 7 16 8 15 9 14 10 13 11 6 12
REMARK SMILES IDX 7 13 8 14 9 15 12 16 11 17 10 18 4 20 20 22 17 24
REMARK H PARENT 10 19 4 21 20 23 17 25
REMARK Flexibility Score: inf
ROOT
ATOM      1  C   UNL     1      -4.071   6.886   6.620  1.00  0.00     0.180 A 
ATOM      2  C   UNL     1      -3.817   6.080   5.493  1.00  0.00     0.208 A 
ATOM      3  C   UNL     1      -2.536   5.530   5.327  1.00  0.00     0.238 A 
ATOM      4  O   UNL     1      -2.294   4.815   4.317  1.00  0.00    -0.285 OA
ATOM      5  C   UNL     1      -1.541   5.778   6.295  1.00  0.00     0.111 A 
ATOM      6  C   UNL     1      -0.227   5.259   6.203  1.00  0.00     0.134 A 
ATOM      7  C   UNL     1       0.705   5.543   7.213  1.00  0.00     0.093 A 
ATOM      8  C   UNL     1       0.348   6.335   8.310  1.00  0.00     0.123 A 
ATOM      9  C   UNL     1      -0.946   6.849   8.404  1.00  0.00     0.094 A 
ATOM     10  C   UNL     1      -1.888   6.579   7.407  1.00  0.00     0.146 A 
ATOM     11  O   UNL     1      -3.112   7.086   7.520  1.00  0.00    -0.452 OA
ENDROOT
BRANCH   1  12
ATOM     12  C   UNL     1      -5.389   7.516   6.855  1.00  0.00     0.021 A 
ATOM     13  C   UNL     1      -5.678   8.757   6.263  1.00  0.00     0.016 A 
ATOM     14  C   UNL     1      -6.925   9.360   6.453  1.00  0.00     0.047 A 
ATOM     15  C   UNL     1      -7.904   8.726   7.223  1.00  0.00     0.115 A 
ATOM     16  C   UNL     1      -6.385   6.873   7.613  1.00  0.00     0.016 A 
ATOM     17  C   UNL     1      -7.632   7.479   7.800  1.00  0.00     0.047 A 
BRANCH  15  18
ATOM     18  O   UNL     1      -9.142   9.338   7.404  1.00  0.00    -0.508 OA
ATOM     19  H   UNL     1      -9.223  10.254   7.830  1.00  0.00     0.293 HD
ENDBRANCH  15  18
ENDBRANCH   1  12
BRANCH   2  20
ATOM     20  O   UNL     1      -4.835   5.809   4.576  1.00  0.00    -0.502 OA
ATOM     21  H   UNL     1      -5.551   6.487   4.345  1.00  0.00     0.293 HD
ENDBRANCH   2  20
BRANCH   6  22
ATOM     22  O   UNL     1       0.160   4.465   5.123  1.00  0.00    -0.507 OA
ATOM     23  H   UNL     1       0.772   3.667   5.239  1.00  0.00     0.293 HD
ENDBRANCH   6  22
BRANCH   8  24
ATOM     24  O   UNL     1       1.272   6.617   9.313  1.00  0.00    -0.508 OA
ATOM     25  H   UNL     1       1.128   7.378   9.968  1.00  0.00     0.293 HD
ENDBRANCH   8  24
TORSDOF 5
ENDMDL
