MODEL 1
REMARK VINA RESULT:    -5.900      0.000      0.000
REMARK INTER + INTRA:          -7.222
REMARK INTER:                  -6.934
REMARK INTRA:                  -0.288
REMARK UNBOUND:                -0.288
REMARK SMILES O=c1cc(-c2ccc(O)c(O)c2)oc2cc(O)cc(O)c12
REMARK SMILES IDX 4 1 3 2 2 3 1 4 21 5 19 6 18 7 16 8 15 9 14 10 13 11 5 12
REMARK SMILES IDX 6 13 7 14 8 15 12 16 10 17 9 18 11 20 20 22 17 24
REMARK H PARENT 9 19 11 21 20 23 17 25
REMARK Flexibility Score: inf
ROOT
ATOM      1  C   UNL     1       3.881   9.148  -1.985  1.00  0.00     0.138 A 
ATOM      2  C   UNL     1       2.742   9.721  -1.405  1.00  0.00     0.100 A 
ATOM      3  C   UNL     1       2.429   9.439  -0.074  1.00  0.00     0.197 A 
ATOM      4  O   UNL     1       1.436  10.016   0.439  1.00  0.00    -0.289 OA
ATOM      5  C   UNL     1       3.247   8.554   0.668  1.00  0.00     0.107 A 
ATOM      6  C   UNL     1       3.004   8.161   2.019  1.00  0.00     0.134 A 
ATOM      7  C   UNL     1       3.946   7.370   2.687  1.00  0.00     0.093 A 
ATOM      8  C   UNL     1       5.091   6.908   2.039  1.00  0.00     0.123 A 
ATOM      9  C   UNL     1       5.312   7.241   0.701  1.00  0.00     0.094 A 
ATOM     10  C   UNL     1       4.408   8.057   0.017  1.00  0.00     0.146 A 
ATOM     11  O   UNL     1       4.662   8.363  -1.251  1.00  0.00    -0.456 OA
ENDROOT
BRANCH   1  12
ATOM     12  C   UNL     1       4.259   9.413  -3.396  1.00  0.00     0.021 A 
ATOM     13  C   UNL     1       5.615   9.396  -3.764  1.00  0.00     0.016 A 
ATOM     14  C   UNL     1       5.996   9.635  -5.087  1.00  0.00     0.051 A 
ATOM     15  C   UNL     1       5.028   9.885  -6.068  1.00  0.00     0.157 A 
ATOM     16  C   UNL     1       3.290   9.653  -4.391  1.00  0.00     0.062 A 
ATOM     17  C   UNL     1       3.668   9.890  -5.716  1.00  0.00     0.158 A 
BRANCH  15  18
ATOM     18  O   UNL     1       5.411  10.125  -7.386  1.00  0.00    -0.504 OA
ATOM     19  H   UNL     1       6.387  10.141  -7.660  1.00  0.00     0.293 HD
ENDBRANCH  15  18
BRANCH  17  20
ATOM     20  O   UNL     1       2.679  10.124  -6.671  1.00  0.00    -0.504 OA
ATOM     21  H   UNL     1       2.374  11.061  -6.912  1.00  0.00     0.293 HD
ENDBRANCH  17  20
ENDBRANCH   1  12
BRANCH   6  22
ATOM     22  O   UNL     1       1.851   8.497   2.734  1.00  0.00    -0.507 OA
ATOM     23  H   UNL     1       1.692   9.382   3.188  1.00  0.00     0.293 HD
ENDBRANCH   6  22
BRANCH   8  24
ATOM     24  O   UNL     1       5.998   6.111   2.732  1.00  0.00    -0.508 OA
ATOM     25  H   UNL     1       5.709   5.255   3.191  1.00  0.00     0.293 HD
ENDBRANCH   8  24
TORSDOF 5
ENDMDL
MODEL 2
REMARK VINA RESULT:    -5.216      1.630      2.885
REMARK INTER + INTRA:          -6.419
REMARK INTER:                  -6.129
REMARK INTRA:                  -0.290
REMARK UNBOUND:                -0.288
REMARK SMILES O=c1cc(-c2ccc(O)c(O)c2)oc2cc(O)cc(O)c12
REMARK SMILES IDX 4 1 3 2 2 3 1 4 21 5 19 6 18 7 16 8 15 9 14 10 13 11 5 12
REMARK SMILES IDX 6 13 7 14 8 15 12 16 10 17 9 18 11 20 20 22 17 24
REMARK H PARENT 9 19 11 21 20 23 17 25
REMARK Flexibility Score: inf
ROOT
ATOM      1  C   UNL     1       4.439   9.681  -2.214  1.00  0.00     0.138 A 
ATOM      2  C   UNL     1       5.720   9.999  -1.743  1.00  0.00     0.100 A 
ATOM      3  C   UNL     1       6.003   9.885  -0.381  1.00  0.00     0.197 A 
ATOM      4  O   UNL     1       7.179  10.117   0.003  1.00  0.00    -0.289 OA
ATOM      5  C   UNL     1       4.988   9.479   0.517  1.00  0.00     0.107 A 
ATOM      6  C   UNL     1       5.149   9.367   1.931  1.00  0.00     0.134 A 
ATOM      7  C   UNL     1       4.106   8.845   2.705  1.00  0.00     0.093 A 
ATOM      8  C   UNL     1       2.888   8.488   2.127  1.00  0.00     0.123 A 
ATOM      9  C   UNL     1       2.700   8.644   0.753  1.00  0.00     0.094 A 
ATOM     10  C   UNL     1       3.733   9.130  -0.051  1.00  0.00     0.146 A 
ATOM     11  O   UNL     1       3.519   9.250  -1.357  1.00  0.00    -0.456 OA
ENDROOT
BRANCH   1  12
ATOM     12  C   UNL     1       4.084   9.786  -3.651  1.00  0.00     0.021 A 
ATOM     13  C   UNL     1       2.743   9.987  -4.019  1.00  0.00     0.016 A 
ATOM     14  C   UNL     1       2.383  10.096  -5.365  1.00  0.00     0.051 A 
ATOM     15  C   UNL     1       3.360  10.017  -6.366  1.00  0.00     0.157 A 
ATOM     16  C   UNL     1       5.062   9.719  -4.663  1.00  0.00     0.062 A 
ATOM     17  C   UNL     1       4.705   9.831  -6.011  1.00  0.00     0.158 A 
BRANCH  15  18
ATOM     18  O   UNL     1       2.997  10.125  -7.708  1.00  0.00    -0.504 OA
ATOM     19  H   UNL     1       3.522   9.657  -8.438  1.00  0.00     0.293 HD
ENDBRANCH  15  18
BRANCH  17  20
ATOM     20  O   UNL     1       5.703   9.759  -6.984  1.00  0.00    -0.504 OA
ATOM     21  H   UNL     1       6.268   8.928  -7.115  1.00  0.00     0.293 HD
ENDBRANCH  17  20
ENDBRANCH   1  12
BRANCH   6  22
ATOM     22  O   UNL     1       6.295   9.775   2.620  1.00  0.00    -0.507 OA
ATOM     23  H   UNL     1       6.677  10.708   2.602  1.00  0.00     0.293 HD
ENDBRANCH   6  22
BRANCH   8  24
ATOM     24  O   UNL     1       1.868   7.985   2.931  1.00  0.00    -0.508 OA
ATOM     25  H   UNL     1       1.315   7.185   2.648  1.00  0.00     0.293 HD
ENDBRANCH   8  24
TORSDOF 5
ENDMDL
MODEL 3
REMARK VINA RESULT:    -4.782      1.833      7.347
REMARK INTER + INTRA:          -5.909
REMARK INTER:                  -5.643
REMARK INTRA:                  -0.265
REMARK UNBOUND:                -0.288
REMARK SMILES O=c1cc(-c2ccc(O)c(O)c2)oc2cc(O)cc(O)c12
REMARK SMILES IDX 4 1 3 2 2 3 1 4 21 5 19 6 18 7 16 8 15 9 14 10 13 11 5 12
REMARK SMILES IDX 6 13 7 14 8 15 12 16 10 17 9 18 11 20 20 22 17 24
REMARK H PARENT 9 19 11 21 20 23 17 25
REMARK Flexibility Score: inf
ROOT
ATOM      1  C   UNL     1       3.908   9.168  -0.292  1.00  0.00     0.138 A 
ATOM      2  C   UNL     1       5.158   9.105  -0.923  1.00  0.00     0.100 A 
ATOM      3  C   UNL     1       5.239   9.229  -2.310  1.00  0.00     0.197 A 
ATOM      4  O   UNL     1       6.379   9.231  -2.842  1.00  0.00    -0.289 OA
ATOM      5  C   UNL     1       4.057   9.387  -3.072  1.00  0.00     0.107 A 
ATOM      6  C   UNL     1       4.013   9.483  -4.496  1.00  0.00     0.134 A 
ATOM      7  C   UNL     1       2.795   9.753  -5.132  1.00  0.00     0.093 A 
ATOM      8  C   UNL     1       1.612   9.871  -4.404  1.00  0.00     0.123 A 
ATOM      9  C   UNL     1       1.634   9.725  -3.016  1.00  0.00     0.094 A 
ATOM     10  C   UNL     1       2.838   9.489  -2.349  1.00  0.00     0.146 A 
ATOM     11  O   UNL     1       2.819   9.371  -1.025  1.00  0.00    -0.456 OA
ENDROOT
BRANCH   1  12
ATOM     12  C   UNL     1       3.765   9.040   1.180  1.00  0.00     0.021 A 
ATOM     13  C   UNL     1       4.108  10.125   2.005  1.00  0.00     0.016 A 
ATOM     14  C   UNL     1       3.977  10.033   3.392  1.00  0.00     0.051 A 
ATOM     15  C   UNL     1       3.490   8.858   3.980  1.00  0.00     0.157 A 
ATOM     16  C   UNL     1       3.265   7.866   1.777  1.00  0.00     0.062 A 
ATOM     17  C   UNL     1       3.129   7.772   3.166  1.00  0.00     0.158 A 
BRANCH  15  18
ATOM     18  O   UNL     1       3.362   8.769   5.365  1.00  0.00    -0.504 OA
ATOM     19  H   UNL     1       3.889   9.371   5.987  1.00  0.00     0.293 HD
ENDBRANCH  15  18
BRANCH  17  20
ATOM     20  O   UNL     1       2.632   6.592   3.719  1.00  0.00    -0.504 OA
ATOM     21  H   UNL     1       1.812   6.127   3.347  1.00  0.00     0.293 HD
ENDBRANCH  17  20
ENDBRANCH   1  12
BRANCH   6  22
ATOM     22  O   UNL     1       5.123   9.297  -5.325  1.00  0.00    -0.507 OA
ATOM     23  H   UNL     1       5.100   9.319  -6.333  1.00  0.00     0.293 HD
ENDBRANCH   6  22
BRANCH   8  24
ATOM     24  O   UNL     1       0.417  10.125  -5.073  1.00  0.00    -0.508 OA
ATOM     25  H   UNL     1       0.321  10.910  -5.706  1.00  0.00     0.293 HD
ENDBRANCH   8  24
TORSDOF 5
ENDMDL
MODEL 4
REMARK VINA RESULT:    -4.172      1.814      6.883
REMARK INTER + INTRA:          -5.191
REMARK INTER:                  -4.916
REMARK INTRA:                  -0.275
REMARK UNBOUND:                -0.288
REMARK SMILES O=c1cc(-c2ccc(O)c(O)c2)oc2cc(O)cc(O)c12
REMARK SMILES IDX 4 1 3 2 2 3 1 4 21 5 19 6 18 7 16 8 15 9 14 10 13 11 5 12
REMARK SMILES IDX 6 13 7 14 8 15 12 16 10 17 9 18 11 20 20 22 17 24
REMARK H PARENT 9 19 11 21 20 23 17 25
REMARK Flexibility Score: inf
ROOT
ATOM      1  C   UNL     1       3.212   9.472  -0.680  1.00  0.00     0.138 A 
ATOM      2  C   UNL     1       1.933   9.692  -1.209  1.00  0.00     0.100 A 
ATOM      3  C   UNL     1       1.762   9.770  -2.592  1.00  0.00     0.197 A 
ATOM      4  O   UNL     1       0.594   9.905  -3.040  1.00  0.00    -0.289 OA
ATOM      5  C   UNL     1       2.884   9.658  -3.447  1.00  0.00     0.107 A 
ATOM      6  C   UNL     1       2.836   9.763  -4.870  1.00  0.00     0.134 A 
ATOM      7  C   UNL     1       3.994   9.521  -5.619  1.00  0.00     0.093 A 
ATOM      8  C   UNL     1       5.209   9.237  -4.996  1.00  0.00     0.123 A 
ATOM      9  C   UNL     1       5.279   9.185  -3.603  1.00  0.00     0.094 A 
ATOM     10  C   UNL     1       4.135   9.389  -2.829  1.00  0.00     0.146 A 
ATOM     11  O   UNL     1       4.241   9.317  -1.507  1.00  0.00    -0.456 OA
ENDROOT
BRANCH   1  12
ATOM     12  C   UNL     1       3.450   9.382   0.782  1.00  0.00     0.021 A 
ATOM     13  C   UNL     1       4.494  10.125   1.360  1.00  0.00     0.016 A 
ATOM     14  C   UNL     1       4.735  10.063   2.735  1.00  0.00     0.051 A 
ATOM     15  C   UNL     1       3.930   9.266   3.558  1.00  0.00     0.157 A 
ATOM     16  C   UNL     1       2.638   8.591   1.618  1.00  0.00     0.062 A 
ATOM     17  C   UNL     1       2.875   8.529   2.996  1.00  0.00     0.158 A 
BRANCH  15  18
ATOM     18  O   UNL     1       4.174   9.205   4.929  1.00  0.00    -0.504 OA
ATOM     19  H   UNL     1       4.508  10.011   5.445  1.00  0.00     0.293 HD
ENDBRANCH  15  18
BRANCH  17  20
ATOM     20  O   UNL     1       2.049   7.734   3.790  1.00  0.00    -0.504 OA
ATOM     21  H   UNL     1       2.172   7.664   4.794  1.00  0.00     0.293 HD
ENDBRANCH  17  20
ENDBRANCH   1  12
BRANCH   6  22
ATOM     22  O   UNL     1       1.692  10.125  -5.588  1.00  0.00    -0.507 OA
ATOM     23  H   UNL     1       0.896   9.526  -5.743  1.00  0.00     0.293 HD
ENDBRANCH   6  22
BRANCH   8  24
ATOM     24  O   UNL     1       6.343   9.016  -5.774  1.00  0.00    -0.508 OA
ATOM     25  H   UNL     1       6.489   9.505  -6.649  1.00  0.00     0.293 HD
ENDBRANCH   8  24
TORSDOF 5
ENDMDL
MODEL 5
REMARK VINA RESULT:    -4.040      1.632      6.927
REMARK INTER + INTRA:          -5.036
REMARK INTER:                  -4.731
REMARK INTRA:                  -0.305
REMARK UNBOUND:                -0.288
REMARK SMILES O=c1cc(-c2ccc(O)c(O)c2)oc2cc(O)cc(O)c12
REMARK SMILES IDX 4 1 3 2 2 3 1 4 21 5 19 6 18 7 16 8 15 9 14 10 13 11 5 12
REMARK SMILES IDX 6 13 7 14 8 15 12 16 10 17 9 18 11 20 20 22 17 24
REMARK H PARENT 9 19 11 21 20 23 17 25
REMARK Flexibility Score: inf
ROOT
ATOM      1  C   UNL     1       3.293   9.531  -1.045  1.00  0.00     0.138 A 
ATOM      2  C   UNL     1       1.991   9.682  -1.540  1.00  0.00     0.100 A 
ATOM      3  C   UNL     1       1.781   9.758  -2.918  1.00  0.00     0.197 A 
ATOM      4  O   UNL     1       0.596   9.829  -3.336  1.00  0.00    -0.289 OA
ATOM      5  C   UNL     1       2.886   9.714  -3.801  1.00  0.00     0.107 A 
ATOM      6  C   UNL     1       2.797   9.825  -5.221  1.00  0.00     0.134 A 
ATOM      7  C   UNL     1       3.947   9.652  -6.000  1.00  0.00     0.093 A 
ATOM      8  C   UNL     1       5.192   9.434  -5.410  1.00  0.00     0.123 A 
ATOM      9  C   UNL     1       5.299   9.378  -4.019  1.00  0.00     0.094 A 
ATOM     10  C   UNL     1       4.165   9.512  -3.216  1.00  0.00     0.146 A 
ATOM     11  O   UNL     1       4.308   9.439  -1.897  1.00  0.00    -0.456 OA
ENDROOT
BRANCH   1  12
ATOM     12  C   UNL     1       3.573   9.447   0.411  1.00  0.00     0.021 A 
ATOM     13  C   UNL     1       2.735  10.120   1.316  1.00  0.00     0.016 A 
ATOM     14  C   UNL     1       2.972  10.051   2.691  1.00  0.00     0.051 A 
ATOM     15  C   UNL     1       4.044   9.298   3.187  1.00  0.00     0.157 A 
ATOM     16  C   UNL     1       4.642   8.682   0.917  1.00  0.00     0.062 A 
ATOM     17  C   UNL     1       4.880   8.608   2.294  1.00  0.00     0.158 A 
BRANCH  15  18
ATOM     18  O   UNL     1       4.279   9.233   4.559  1.00  0.00    -0.504 OA
ATOM     19  H   UNL     1       3.994   9.979   5.183  1.00  0.00     0.293 HD
ENDBRANCH  15  18
BRANCH  17  20
ATOM     20  O   UNL     1       5.950   7.842   2.756  1.00  0.00    -0.504 OA
ATOM     21  H   UNL     1       6.911   8.059   2.517  1.00  0.00     0.293 HD
ENDBRANCH  17  20
ENDBRANCH   1  12
BRANCH   6  22
ATOM     22  O   UNL     1       1.617  10.125  -5.909  1.00  0.00    -0.507 OA
ATOM     23  H   UNL     1       0.787  10.512  -5.487  1.00  0.00     0.293 HD
ENDBRANCH   6  22
BRANCH   8  24
ATOM     24  O   UNL     1       6.317   9.281  -6.217  1.00  0.00    -0.508 OA
ATOM     25  H   UNL     1       6.247   8.921  -7.161  1.00  0.00     0.293 HD
ENDBRANCH   8  24
TORSDOF 5
ENDMDL
