MODEL 1
REMARK VINA RESULT:    -3.453      0.000      0.000
REMARK INTER + INTRA:         -11.963
REMARK INTER:                  -7.895
REMARK INTRA:                  -4.068
REMARK UNBOUND:                -4.068
REMARK SMILES CCCCCCCCCCCCCCCCCCCCCCCC(=O)[O-]
REMARK SMILES IDX 13 1 14 2 15 3 16 4 17 5 18 6 19 7 20 8 21 9 22 10 23 11
REMARK SMILES IDX 24 12 25 13 26 14 12 15 11 16 10 17 9 18 8 19 7 20 6 21 5 22
REMARK SMILES IDX 4 23 3 24 2 25 1 26
REMARK H PARENT
REMARK Flexibility Score: inf
ROOT
ATOM      1  C   UNL     1      -7.608 -64.907  -7.697  1.00  0.00     0.000 C 
ENDROOT
BRANCH   1   2
ATOM      2  C   UNL     1      -8.750 -64.205  -6.936  1.00  0.00     0.000 C 
BRANCH   2   3
ATOM      3  C   UNL     1      -8.957 -62.728  -7.334  1.00  0.00     0.000 C 
BRANCH   3   4
ATOM      4  C   UNL     1      -8.412 -62.422  -8.742  1.00  0.00     0.000 C 
BRANCH   4   5
ATOM      5  C   UNL     1      -7.455 -61.219  -8.761  1.00  0.00     0.000 C 
BRANCH   5   6
ATOM      6  C   UNL     1      -5.985 -61.635  -8.585  1.00  0.00     0.000 C 
BRANCH   6   7
ATOM      7  C   UNL     1      -5.466 -61.399  -7.156  1.00  0.00     0.000 C 
BRANCH   7   8
ATOM      8  C   UNL     1      -3.987 -61.795  -6.991  1.00  0.00     0.000 C 
BRANCH   8   9
ATOM      9  C   UNL     1      -3.682 -62.360  -5.593  1.00  0.00     0.000 C 
BRANCH   9  10
ATOM     10  C   UNL     1      -2.388 -63.190  -5.562  1.00  0.00     0.006 C 
BRANCH  10  11
ATOM     11  C   UNL     1      -1.683 -63.158  -6.922  1.00  0.00     0.053 C 
BRANCH  11  12
ATOM     12  C   UNL     1      -0.398 -63.920  -6.866  1.00  0.00     0.041 C 
ATOM     13  O   UNL     1       0.679 -63.374  -7.226  1.00  0.00    -0.550 OA
ATOM     14  O   UNL     1      -0.394 -65.251  -6.465  1.00  0.00    -0.550 OA
ENDBRANCH  11  12
ENDBRANCH  10  11
ENDBRANCH   9  10
ENDBRANCH   8   9
ENDBRANCH   7   8
ENDBRANCH   6   7
ENDBRANCH   5   6
ENDBRANCH   4   5
ENDBRANCH   3   4
ENDBRANCH   2   3
ENDBRANCH   1   2
BRANCH   1  15
ATOM     15  C   UNL     1      -6.245 -64.904  -6.985  1.00  0.00     0.000 C 
BRANCH  15  16
ATOM     16  C   UNL     1      -5.076 -65.240  -7.928  1.00  0.00     0.000 C 
BRANCH  16  17
ATOM     17  C   UNL     1      -4.622 -66.706  -7.814  1.00  0.00     0.000 C 
BRANCH  17  18
ATOM     18  C   UNL     1      -4.715 -67.305  -6.399  1.00  0.00    -0.000 C 
BRANCH  18  19
ATOM     19  C   UNL     1      -3.520 -66.923  -5.508  1.00  0.00    -0.000 C 
BRANCH  19  20
ATOM     20  C   UNL     1      -3.926 -66.701  -4.032  1.00  0.00    -0.000 C 
BRANCH  20  21
ATOM     21  C   UNL     1      -4.700 -65.392  -3.799  1.00  0.00    -0.000 C 
BRANCH  21  22
ATOM     22  C   UNL     1      -4.245 -64.602  -2.560  1.00  0.00    -0.000 C 
BRANCH  22  23
ATOM     23  C   UNL     1      -5.395 -64.282  -1.577  1.00  0.00    -0.000 C 
BRANCH  23  24
ATOM     24  C   UNL     1      -6.764 -64.219  -2.275  1.00  0.00    -0.000 C 
BRANCH  24  25
ATOM     25  C   UNL     1      -7.210 -62.782  -2.583  1.00  0.00    -0.003 C 
ATOM     26  C   UNL     1      -7.067 -62.417  -4.060  1.00  0.00     0.004 C 
ENDBRANCH  24  25
ENDBRANCH  23  24
ENDBRANCH  22  23
ENDBRANCH  21  22
ENDBRANCH  20  21
ENDBRANCH  19  20
ENDBRANCH  18  19
ENDBRANCH  17  18
ENDBRANCH  16  17
ENDBRANCH  15  16
ENDBRANCH   1  15
TORSDOF 22
ENDMDL
MODEL 2
REMARK VINA RESULT:    -3.442      1.663      5.527
REMARK INTER + INTRA:         -11.936
REMARK INTER:                  -7.954
REMARK INTRA:                  -3.982
REMARK UNBOUND:                -4.068
REMARK SMILES CCCCCCCCCCCCCCCCCCCCCCCC(=O)[O-]
REMARK SMILES IDX 13 1 14 2 15 3 16 4 17 5 18 6 19 7 20 8 21 9 22 10 23 11
REMARK SMILES IDX 24 12 25 13 26 14 12 15 11 16 10 17 9 18 8 19 7 20 6 21 5 22
REMARK SMILES IDX 4 23 3 24 2 25 1 26
REMARK H PARENT
REMARK Flexibility Score: inf
ROOT
ATOM      1  C   UNL     1      -5.727 -66.792  -8.548  1.00  0.00     0.000 C 
ENDROOT
BRANCH   1   2
ATOM      2  C   UNL     1      -4.473 -67.355  -7.851  1.00  0.00     0.000 C 
BRANCH   2   3
ATOM      3  C   UNL     1      -4.717 -67.829  -6.402  1.00  0.00     0.000 C 
BRANCH   3   4
ATOM      4  C   UNL     1      -3.633 -67.322  -5.432  1.00  0.00     0.000 C 
BRANCH   4   5
ATOM      5  C   UNL     1      -4.221 -66.733  -4.139  1.00  0.00     0.000 C 
BRANCH   5   6
ATOM      6  C   UNL     1      -4.357 -65.202  -4.200  1.00  0.00     0.000 C 
BRANCH   6   7
ATOM      7  C   UNL     1      -3.501 -64.572  -5.312  1.00  0.00     0.000 C 
BRANCH   7   8
ATOM      8  C   UNL     1      -3.825 -63.084  -5.535  1.00  0.00     0.000 C 
BRANCH   8   9
ATOM      9  C   UNL     1      -2.568 -62.245  -5.828  1.00  0.00     0.000 C 
BRANCH   9  10
ATOM     10  C   UNL     1      -1.279 -62.927  -5.345  1.00  0.00     0.006 C 
BRANCH  10  11
ATOM     11  C   UNL     1      -0.195 -62.884  -6.428  1.00  0.00     0.053 C 
BRANCH  11  12
ATOM     12  C   UNL     1       0.431 -64.231  -6.599  1.00  0.00     0.041 C 
ATOM     13  O   UNL     1       0.141 -64.940  -7.599  1.00  0.00    -0.550 OA
ATOM     14  O   UNL     1       1.294 -64.727  -5.631  1.00  0.00    -0.550 OA
ENDBRANCH  11  12
ENDBRANCH  10  11
ENDBRANCH   9  10
ENDBRANCH   8   9
ENDBRANCH   7   8
ENDBRANCH   6   7
ENDBRANCH   5   6
ENDBRANCH   4   5
ENDBRANCH   3   4
ENDBRANCH   2   3
ENDBRANCH   1   2
BRANCH   1  15
ATOM     15  C   UNL     1      -6.229 -65.442  -8.008  1.00  0.00     0.000 C 
BRANCH  15  16
ATOM     16  C   UNL     1      -7.639 -65.085  -8.510  1.00  0.00     0.000 C 
BRANCH  16  17
ATOM     17  C   UNL     1      -8.581 -64.643  -7.375  1.00  0.00     0.000 C 
BRANCH  17  18
ATOM     18  C   UNL     1      -8.566 -63.134  -7.071  1.00  0.00    -0.000 C 
BRANCH  18  19
ATOM     19  C   UNL     1      -8.847 -62.272  -8.313  1.00  0.00    -0.000 C 
BRANCH  19  20
ATOM     20  C   UNL     1      -7.654 -61.359  -8.686  1.00  0.00    -0.000 C 
BRANCH  20  21
ATOM     21  C   UNL     1      -6.412 -61.585  -7.808  1.00  0.00    -0.000 C 
BRANCH  21  22
ATOM     22  C   UNL     1      -5.078 -61.279  -8.511  1.00  0.00    -0.000 C 
BRANCH  22  23
ATOM     23  C   UNL     1      -4.675 -62.344  -9.557  1.00  0.00    -0.000 C 
BRANCH  23  24
ATOM     24  C   UNL     1      -3.175 -62.681  -9.504  1.00  0.00    -0.000 C 
BRANCH  24  25
ATOM     25  C   UNL     1      -2.903 -64.108  -9.005  1.00  0.00    -0.003 C 
ATOM     26  C   UNL     1      -2.687 -65.107 -10.141  1.00  0.00     0.004 C 
ENDBRANCH  24  25
ENDBRANCH  23  24
ENDBRANCH  22  23
ENDBRANCH  21  22
ENDBRANCH  20  21
ENDBRANCH  19  20
ENDBRANCH  18  19
ENDBRANCH  17  18
ENDBRANCH  16  17
ENDBRANCH  15  16
ENDBRANCH   1  15
TORSDOF 22
ENDMDL
MODEL 3
REMARK VINA RESULT:    -3.370      1.026      4.251
REMARK INTER + INTRA:         -11.774
REMARK INTER:                  -7.685
REMARK INTRA:                  -4.089
REMARK UNBOUND:                -4.068
REMARK SMILES CCCCCCCCCCCCCCCCCCCCCCCC(=O)[O-]
REMARK SMILES IDX 13 1 14 2 15 3 16 4 17 5 18 6 19 7 20 8 21 9 22 10 23 11
REMARK SMILES IDX 24 12 25 13 26 14 12 15 11 16 10 17 9 18 8 19 7 20 6 21 5 22
REMARK SMILES IDX 4 23 3 24 2 25 1 26
REMARK H PARENT
REMARK Flexibility Score: inf
ROOT
ATOM      1  C   UNL     1      -4.463 -64.317  -1.941  1.00  0.00     0.000 C 
ENDROOT
BRANCH   1   2
ATOM      2  C   UNL     1      -5.998 -64.254  -1.813  1.00  0.00     0.000 C 
BRANCH   2   3
ATOM      3  C   UNL     1      -6.647 -63.087  -2.587  1.00  0.00     0.000 C 
BRANCH   3   4
ATOM      4  C   UNL     1      -6.781 -63.389  -4.091  1.00  0.00     0.000 C 
BRANCH   4   5
ATOM      5  C   UNL     1      -6.401 -62.189  -4.975  1.00  0.00     0.000 C 
BRANCH   5   6
ATOM      6  C   UNL     1      -4.916 -61.811  -4.846  1.00  0.00     0.000 C 
BRANCH   6   7
ATOM      7  C   UNL     1      -3.993 -62.741  -5.653  1.00  0.00     0.000 C 
BRANCH   7   8
ATOM      8  C   UNL     1      -3.868 -62.315  -7.127  1.00  0.00     0.000 C 
BRANCH   8   9
ATOM      9  C   UNL     1      -3.131 -63.361  -7.982  1.00  0.00     0.000 C 
BRANCH   9  10
ATOM     10  C   UNL     1      -1.907 -63.952  -7.264  1.00  0.00     0.006 C 
BRANCH  10  11
ATOM     11  C   UNL     1      -0.723 -62.981  -7.305  1.00  0.00     0.053 C 
BRANCH  11  12
ATOM     12  C   UNL     1       0.152 -63.167  -6.107  1.00  0.00     0.041 C 
ATOM     13  O   UNL     1      -0.357 -63.445  -4.989  1.00  0.00    -0.550 OA
ATOM     14  O   UNL     1       1.525 -62.983  -6.211  1.00  0.00    -0.550 OA
ENDBRANCH  11  12
ENDBRANCH  10  11
ENDBRANCH   9  10
ENDBRANCH   8   9
ENDBRANCH   7   8
ENDBRANCH   6   7
ENDBRANCH   5   6
ENDBRANCH   4   5
ENDBRANCH   3   4
ENDBRANCH   2   3
ENDBRANCH   1   2
BRANCH   1  15
ATOM     15  C   UNL     1      -3.936 -65.189  -3.093  1.00  0.00     0.000 C 
BRANCH  15  16
ATOM     16  C   UNL     1      -4.609 -66.570  -3.154  1.00  0.00     0.000 C 
BRANCH  16  17
ATOM     17  C   UNL     1      -4.468 -67.241  -4.533  1.00  0.00     0.000 C 
BRANCH  17  18
ATOM     18  C   UNL     1      -4.392 -66.267  -5.723  1.00  0.00    -0.000 C 
BRANCH  18  19
ATOM     19  C   UNL     1      -4.549 -66.971  -7.081  1.00  0.00    -0.000 C 
BRANCH  19  20
ATOM     20  C   UNL     1      -5.475 -66.197  -8.049  1.00  0.00    -0.000 C 
BRANCH  20  21
ATOM     21  C   UNL     1      -6.338 -65.131  -7.351  1.00  0.00    -0.000 C 
BRANCH  21  22
ATOM     22  C   UNL     1      -7.697 -64.878  -8.026  1.00  0.00    -0.000 C 
BRANCH  22  23
ATOM     23  C   UNL     1      -8.765 -64.310  -7.064  1.00  0.00    -0.000 C 
BRANCH  23  24
ATOM     24  C   UNL     1      -9.160 -62.865  -7.411  1.00  0.00    -0.000 C 
BRANCH  24  25
ATOM     25  C   UNL     1      -8.510 -62.366  -8.710  1.00  0.00    -0.003 C 
ATOM     26  C   UNL     1      -7.409 -61.334  -8.468  1.00  0.00     0.004 C 
ENDBRANCH  24  25
ENDBRANCH  23  24
ENDBRANCH  22  23
ENDBRANCH  21  22
ENDBRANCH  20  21
ENDBRANCH  19  20
ENDBRANCH  18  19
ENDBRANCH  17  18
ENDBRANCH  16  17
ENDBRANCH  15  16
ENDBRANCH   1  15
TORSDOF 22
ENDMDL
MODEL 4
REMARK VINA RESULT:    -3.365      3.404      6.400
REMARK INTER + INTRA:         -11.762
REMARK INTER:                  -8.766
REMARK INTRA:                  -2.996
REMARK UNBOUND:                -4.068
REMARK SMILES CCCCCCCCCCCCCCCCCCCCCCCC(=O)[O-]
REMARK SMILES IDX 13 1 14 2 15 3 16 4 17 5 18 6 19 7 20 8 21 9 22 10 23 11
REMARK SMILES IDX 24 12 25 13 26 14 12 15 11 16 10 17 9 18 8 19 7 20 6 21 5 22
REMARK SMILES IDX 4 23 3 24 2 25 1 26
REMARK H PARENT
REMARK Flexibility Score: inf
ROOT
ATOM      1  C   UNL     1      -6.116 -63.569  -1.034  1.00  0.00     0.000 C 
ENDROOT
BRANCH   1   2
ATOM      2  C   UNL     1      -5.391 -64.763  -1.683  1.00  0.00     0.000 C 
BRANCH   2   3
ATOM      3  C   UNL     1      -5.338 -64.705  -3.225  1.00  0.00     0.000 C 
BRANCH   3   4
ATOM      4  C   UNL     1      -4.497 -63.519  -3.734  1.00  0.00     0.000 C 
BRANCH   4   5
ATOM      5  C   UNL     1      -5.091 -62.867  -4.994  1.00  0.00     0.000 C 
BRANCH   5   6
ATOM      6  C   UNL     1      -6.616 -62.688  -4.900  1.00  0.00     0.000 C 
BRANCH   6   7
ATOM      7  C   UNL     1      -7.378 -63.498  -5.963  1.00  0.00     0.000 C 
BRANCH   7   8
ATOM      8  C   UNL     1      -6.531 -63.768  -7.220  1.00  0.00     0.000 C 
BRANCH   8   9
ATOM      9  C   UNL     1      -6.382 -65.270  -7.518  1.00  0.00     0.000 C 
BRANCH   9  10
ATOM     10  C   UNL     1      -4.919 -65.739  -7.462  1.00  0.00     0.006 C 
BRANCH  10  11
ATOM     11  C   UNL     1      -4.728 -66.812  -6.386  1.00  0.00     0.053 C 
BRANCH  11  12
ATOM     12  C   UNL     1      -3.415 -66.633  -5.692  1.00  0.00     0.041 C 
ATOM     13  O   UNL     1      -2.547 -65.856  -6.173  1.00  0.00    -0.550 OA
ATOM     14  O   UNL     1      -3.128 -67.361  -4.545  1.00  0.00    -0.550 OA
ENDBRANCH  11  12
ENDBRANCH  10  11
ENDBRANCH   9  10
ENDBRANCH   8   9
ENDBRANCH   7   8
ENDBRANCH   6   7
ENDBRANCH   5   6
ENDBRANCH   4   5
ENDBRANCH   3   4
ENDBRANCH   2   3
ENDBRANCH   1   2
BRANCH   1  15
ATOM     15  C   UNL     1      -7.604 -63.427  -1.398  1.00  0.00     0.000 C 
BRANCH  15  16
ATOM     16  C   UNL     1      -8.356 -64.768  -1.373  1.00  0.00     0.000 C 
BRANCH  16  17
ATOM     17  C   UNL     1      -8.907 -65.116   0.022  1.00  0.00     0.000 C 
BRANCH  17  18
ATOM     18  C   UNL     1      -9.023 -63.923   0.989  1.00  0.00    -0.000 C 
BRANCH  18  19
ATOM     19  C   UNL     1      -8.350 -64.188   2.346  1.00  0.00    -0.000 C 
BRANCH  19  20
ATOM     20  C   UNL     1      -7.211 -65.230   2.253  1.00  0.00    -0.000 C 
BRANCH  20  21
ATOM     21  C   UNL     1      -5.837 -64.676   2.665  1.00  0.00    -0.000 C 
BRANCH  21  22
ATOM     22  C   UNL     1      -4.668 -65.185   1.805  1.00  0.00    -0.000 C 
BRANCH  22  23
ATOM     23  C   UNL     1      -4.035 -66.492   2.337  1.00  0.00    -0.000 C 
BRANCH  23  24
ATOM     24  C   UNL     1      -3.555 -66.363   3.792  1.00  0.00    -0.000 C 
BRANCH  24  25
ATOM     25  C   UNL     1      -2.421 -65.339   3.957  1.00  0.00    -0.003 C 
ATOM     26  C   UNL     1      -1.259 -65.867   4.797  1.00  0.00     0.004 C 
ENDBRANCH  24  25
ENDBRANCH  23  24
ENDBRANCH  22  23
ENDBRANCH  21  22
ENDBRANCH  20  21
ENDBRANCH  19  20
ENDBRANCH  18  19
ENDBRANCH  17  18
ENDBRANCH  16  17
ENDBRANCH  15  16
ENDBRANCH   1  15
TORSDOF 22
ENDMDL
MODEL 5
REMARK VINA RESULT:    -3.360      1.434      4.775
REMARK INTER + INTRA:         -11.749
REMARK INTER:                  -7.540
REMARK INTRA:                  -4.209
REMARK UNBOUND:                -4.068
REMARK SMILES CCCCCCCCCCCCCCCCCCCCCCCC(=O)[O-]
REMARK SMILES IDX 13 1 14 2 15 3 16 4 17 5 18 6 19 7 20 8 21 9 22 10 23 11
REMARK SMILES IDX 24 12 25 13 26 14 12 15 11 16 10 17 9 18 8 19 7 20 6 21 5 22
REMARK SMILES IDX 4 23 3 24 2 25 1 26
REMARK H PARENT
REMARK Flexibility Score: inf
ROOT
ATOM      1  C   UNL     1      -5.236 -65.768  -7.449  1.00  0.00     0.000 C 
ENDROOT
BRANCH   1   2
ATOM      2  C   UNL     1      -4.712 -66.400  -6.144  1.00  0.00     0.000 C 
BRANCH   2   3
ATOM      3  C   UNL     1      -4.373 -65.375  -5.041  1.00  0.00     0.000 C 
BRANCH   3   4
ATOM      4  C   UNL     1      -4.165 -66.043  -3.669  1.00  0.00     0.000 C 
BRANCH   4   5
ATOM      5  C   UNL     1      -4.425 -65.084  -2.495  1.00  0.00     0.000 C 
BRANCH   5   6
ATOM      6  C   UNL     1      -4.975 -63.725  -2.957  1.00  0.00     0.000 C 
BRANCH   6   7
ATOM      7  C   UNL     1      -4.042 -62.553  -2.605  1.00  0.00     0.000 C 
BRANCH   7   8
ATOM      8  C   UNL     1      -2.601 -62.777  -3.097  1.00  0.00     0.000 C 
BRANCH   8   9
ATOM      9  C   UNL     1      -2.370 -62.223  -4.514  1.00  0.00     0.000 C 
BRANCH   9  10
ATOM     10  C   UNL     1      -1.050 -62.714  -5.131  1.00  0.00     0.006 C 
BRANCH  10  11
ATOM     11  C   UNL     1      -1.312 -63.674  -6.296  1.00  0.00     0.053 C 
BRANCH  11  12
ATOM     12  C   UNL     1      -0.048 -63.948  -7.045  1.00  0.00     0.041 C 
ATOM     13  O   UNL     1       0.067 -65.000  -7.729  1.00  0.00    -0.550 OA
ATOM     14  O   UNL     1       1.025 -63.071  -6.947  1.00  0.00    -0.550 OA
ENDBRANCH  11  12
ENDBRANCH  10  11
ENDBRANCH   9  10
ENDBRANCH   8   9
ENDBRANCH   7   8
ENDBRANCH   6   7
ENDBRANCH   5   6
ENDBRANCH   4   5
ENDBRANCH   3   4
ENDBRANCH   2   3
ENDBRANCH   1   2
BRANCH   1  15
ATOM     15  C   UNL     1      -5.448 -66.749  -8.615  1.00  0.00     0.000 C 
BRANCH  15  16
ATOM     16  C   UNL     1      -6.742 -66.473  -9.400  1.00  0.00     0.000 C 
BRANCH  16  17
ATOM     17  C   UNL     1      -6.826 -65.026  -9.919  1.00  0.00     0.000 C 
BRANCH  17  18
ATOM     18  C   UNL     1      -7.994 -64.200  -9.351  1.00  0.00    -0.000 C 
BRANCH  18  19
ATOM     19  C   UNL     1      -8.823 -64.974  -8.312  1.00  0.00    -0.000 C 
BRANCH  19  20
ATOM     20  C   UNL     1      -8.830 -64.287  -6.926  1.00  0.00    -0.000 C 
BRANCH  20  21
ATOM     21  C   UNL     1      -8.210 -62.879  -6.936  1.00  0.00    -0.000 C 
BRANCH  21  22
ATOM     22  C   UNL     1      -7.387 -62.543  -5.681  1.00  0.00    -0.000 C 
BRANCH  22  23
ATOM     23  C   UNL     1      -5.935 -62.114  -5.993  1.00  0.00    -0.000 C 
BRANCH  23  24
ATOM     24  C   UNL     1      -5.661 -62.020  -7.503  1.00  0.00    -0.000 C 
BRANCH  24  25
ATOM     25  C   UNL     1      -4.164 -61.911  -7.831  1.00  0.00    -0.003 C 
ATOM     26  C   UNL     1      -3.735 -62.833  -8.972  1.00  0.00     0.004 C 
ENDBRANCH  24  25
ENDBRANCH  23  24
ENDBRANCH  22  23
ENDBRANCH  21  22
ENDBRANCH  20  21
ENDBRANCH  19  20
ENDBRANCH  18  19
ENDBRANCH  17  18
ENDBRANCH  16  17
ENDBRANCH  15  16
ENDBRANCH   1  15
TORSDOF 22
ENDMDL
MODEL 6
REMARK VINA RESULT:    -3.351      1.524      5.409
REMARK INTER + INTRA:         -11.728
REMARK INTER:                  -7.735
REMARK INTRA:                  -3.993
REMARK UNBOUND:                -4.068
REMARK SMILES CCCCCCCCCCCCCCCCCCCCCCCC(=O)[O-]
REMARK SMILES IDX 13 1 14 2 15 3 16 4 17 5 18 6 19 7 20 8 21 9 22 10 23 11
REMARK SMILES IDX 24 12 25 13 26 14 12 15 11 16 10 17 9 18 8 19 7 20 6 21 5 22
REMARK SMILES IDX 4 23 3 24 2 25 1 26
REMARK H PARENT
REMARK Flexibility Score: inf
ROOT
ATOM      1  C   UNL     1      -4.305 -65.100  -7.787  1.00  0.00     0.000 C 
ENDROOT
BRANCH   1   2
ATOM      2  C   UNL     1      -5.297 -66.169  -7.289  1.00  0.00     0.000 C 
BRANCH   2   3
ATOM      3  C   UNL     1      -4.630 -67.351  -6.553  1.00  0.00     0.000 C 
BRANCH   3   4
ATOM      4  C   UNL     1      -3.542 -66.884  -5.567  1.00  0.00     0.000 C 
BRANCH   4   5
ATOM      5  C   UNL     1      -4.102 -66.570  -4.169  1.00  0.00     0.000 C 
BRANCH   5   6
ATOM      6  C   UNL     1      -4.526 -65.099  -4.023  1.00  0.00     0.000 C 
BRANCH   6   7
ATOM      7  C   UNL     1      -3.768 -64.368  -2.902  1.00  0.00     0.000 C 
BRANCH   7   8
ATOM      8  C   UNL     1      -2.824 -63.278  -3.441  1.00  0.00     0.000 C 
BRANCH   8   9
ATOM      9  C   UNL     1      -2.650 -63.351  -4.968  1.00  0.00     0.000 C 
BRANCH   9  10
ATOM     10  C   UNL     1      -1.795 -62.199  -5.519  1.00  0.00     0.006 C 
BRANCH  10  11
ATOM     11  C   UNL     1      -1.096 -62.608  -6.821  1.00  0.00     0.053 C 
BRANCH  11  12
ATOM     12  C   UNL     1      -0.139 -63.730  -6.574  1.00  0.00     0.041 C 
ATOM     13  O   UNL     1       0.623 -63.702  -5.571  1.00  0.00    -0.550 OA
ATOM     14  O   UNL     1      -0.050 -64.781  -7.477  1.00  0.00    -0.550 OA
ENDBRANCH  11  12
ENDBRANCH  10  11
ENDBRANCH   9  10
ENDBRANCH   8   9
ENDBRANCH   7   8
ENDBRANCH   6   7
ENDBRANCH   5   6
ENDBRANCH   4   5
ENDBRANCH   3   4
ENDBRANCH   2   3
ENDBRANCH   1   2
BRANCH   1  15
ATOM     15  C   UNL     1      -4.926 -63.966  -8.622  1.00  0.00     0.000 C 
BRANCH  15  16
ATOM     16  C   UNL     1      -4.611 -62.569  -8.060  1.00  0.00     0.000 C 
BRANCH  16  17
ATOM     17  C   UNL     1      -5.830 -61.909  -7.391  1.00  0.00     0.000 C 
BRANCH  17  18
ATOM     18  C   UNL     1      -5.957 -62.165  -5.878  1.00  0.00    -0.000 C 
BRANCH  18  19
ATOM     19  C   UNL     1      -7.181 -63.025  -5.518  1.00  0.00    -0.000 C 
BRANCH  19  20
ATOM     20  C   UNL     1      -8.367 -62.804  -6.486  1.00  0.00    -0.000 C 
BRANCH  20  21
ATOM     21  C   UNL     1      -9.232 -64.059  -6.692  1.00  0.00    -0.000 C 
BRANCH  21  22
ATOM     22  C   UNL     1      -8.783 -64.948  -7.865  1.00  0.00    -0.000 C 
BRANCH  22  23
ATOM     23  C   UNL     1      -8.531 -64.162  -9.172  1.00  0.00    -0.000 C 
BRANCH  23  24
ATOM     24  C   UNL     1      -8.325 -65.086 -10.384  1.00  0.00    -0.000 C 
BRANCH  24  25
ATOM     25  C   UNL     1      -7.796 -66.474  -9.991  1.00  0.00    -0.003 C 
ATOM     26  C   UNL     1      -8.779 -67.599 -10.312  1.00  0.00     0.004 C 
ENDBRANCH  24  25
ENDBRANCH  23  24
ENDBRANCH  22  23
ENDBRANCH  21  22
ENDBRANCH  20  21
ENDBRANCH  19  20
ENDBRANCH  18  19
ENDBRANCH  17  18
ENDBRANCH  16  17
ENDBRANCH  15  16
ENDBRANCH   1  15
TORSDOF 22
ENDMDL
MODEL 7
REMARK VINA RESULT:    -3.343      3.032      6.502
REMARK INTER + INTRA:         -11.711
REMARK INTER:                  -7.443
REMARK INTRA:                  -4.268
REMARK UNBOUND:                -4.068
REMARK SMILES CCCCCCCCCCCCCCCCCCCCCCCC(=O)[O-]
REMARK SMILES IDX 13 1 14 2 15 3 16 4 17 5 18 6 19 7 20 8 21 9 22 10 23 11
REMARK SMILES IDX 24 12 25 13 26 14 12 15 11 16 10 17 9 18 8 19 7 20 6 21 5 22
REMARK SMILES IDX 4 23 3 24 2 25 1 26
REMARK H PARENT
REMARK Flexibility Score: inf
ROOT
ATOM      1  C   UNL     1      -4.991 -62.666  -4.141  1.00  0.00     0.000 C 
ENDROOT
BRANCH   1   2
ATOM      2  C   UNL     1      -5.197 -64.009  -3.413  1.00  0.00     0.000 C 
BRANCH   2   3
ATOM      3  C   UNL     1      -4.078 -65.042  -3.669  1.00  0.00     0.000 C 
BRANCH   3   4
ATOM      4  C   UNL     1      -4.500 -66.469  -3.272  1.00  0.00     0.000 C 
BRANCH   4   5
ATOM      5  C   UNL     1      -4.247 -67.496  -4.389  1.00  0.00     0.000 C 
BRANCH   5   6
ATOM      6  C   UNL     1      -3.806 -66.835  -5.706  1.00  0.00     0.000 C 
BRANCH   6   7
ATOM      7  C   UNL     1      -4.582 -67.361  -6.925  1.00  0.00     0.000 C 
BRANCH   7   8
ATOM      8  C   UNL     1      -5.231 -66.231  -7.745  1.00  0.00     0.000 C 
BRANCH   8   9
ATOM      9  C   UNL     1      -5.720 -65.069  -6.864  1.00  0.00     0.000 C 
BRANCH   9  10
ATOM     10  C   UNL     1      -6.292 -63.905  -7.688  1.00  0.00     0.006 C 
BRANCH  10  11
ATOM     11  C   UNL     1      -7.341 -63.127  -6.885  1.00  0.00     0.053 C 
BRANCH  11  12
ATOM     12  C   UNL     1      -8.721 -63.531  -7.294  1.00  0.00     0.041 C 
ATOM     13  O   UNL     1      -9.119 -64.711  -7.099  1.00  0.00    -0.550 OA
ATOM     14  O   UNL     1      -9.552 -62.622  -7.937  1.00  0.00    -0.550 OA
ENDBRANCH  11  12
ENDBRANCH  10  11
ENDBRANCH   9  10
ENDBRANCH   8   9
ENDBRANCH   7   8
ENDBRANCH   6   7
ENDBRANCH   5   6
ENDBRANCH   4   5
ENDBRANCH   3   4
ENDBRANCH   2   3
ENDBRANCH   1   2
BRANCH   1  15
ATOM     15  C   UNL     1      -3.571 -62.421  -4.677  1.00  0.00     0.000 C 
BRANCH  15  16
ATOM     16  C   UNL     1      -3.550 -61.521  -5.924  1.00  0.00     0.000 C 
BRANCH  16  17
ATOM     17  C   UNL     1      -2.427 -61.894  -6.909  1.00  0.00     0.000 C 
BRANCH  17  18
ATOM     18  C   UNL     1      -2.867 -62.780  -8.089  1.00  0.00    -0.000 C 
BRANCH  18  19
ATOM     19  C   UNL     1      -2.158 -64.145  -8.107  1.00  0.00    -0.000 C 
BRANCH  19  20
ATOM     20  C   UNL     1      -1.367 -64.422  -6.807  1.00  0.00    -0.000 C 
BRANCH  20  21
ATOM     21  C   UNL     1       0.136 -64.651  -7.041  1.00  0.00    -0.000 C 
BRANCH  21  22
ATOM     22  C   UNL     1       1.048 -63.934  -6.031  1.00  0.00    -0.000 C 
BRANCH  22  23
ATOM     23  C   UNL     1       1.184 -62.416  -6.293  1.00  0.00    -0.000 C 
BRANCH  23  24
ATOM     24  C   UNL     1       0.803 -61.571  -5.066  1.00  0.00    -0.000 C 
BRANCH  24  25
ATOM     25  C   UNL     1       0.026 -62.372  -4.010  1.00  0.00    -0.003 C 
ATOM     26  C   UNL     1      -0.039 -61.666  -2.656  1.00  0.00     0.004 C 
ENDBRANCH  24  25
ENDBRANCH  23  24
ENDBRANCH  22  23
ENDBRANCH  21  22
ENDBRANCH  20  21
ENDBRANCH  19  20
ENDBRANCH  18  19
ENDBRANCH  17  18
ENDBRANCH  16  17
ENDBRANCH  15  16
ENDBRANCH   1  15
TORSDOF 22
ENDMDL
MODEL 8
REMARK VINA RESULT:    -3.304      1.303      5.164
REMARK INTER + INTRA:         -11.622
REMARK INTER:                  -7.846
REMARK INTRA:                  -3.775
REMARK UNBOUND:                -4.068
REMARK SMILES CCCCCCCCCCCCCCCCCCCCCCCC(=O)[O-]
REMARK SMILES IDX 13 1 14 2 15 3 16 4 17 5 18 6 19 7 20 8 21 9 22 10 23 11
REMARK SMILES IDX 24 12 25 13 26 14 12 15 11 16 10 17 9 18 8 19 7 20 6 21 5 22
REMARK SMILES IDX 4 23 3 24 2 25 1 26
REMARK H PARENT
REMARK Flexibility Score: inf
ROOT
ATOM      1  C   UNL     1      -5.050 -65.516  -2.774  1.00  0.00     0.000 C 
ENDROOT
BRANCH   1   2
ATOM      2  C   UNL     1      -4.240 -66.458  -3.686  1.00  0.00     0.000 C 
BRANCH   2   3
ATOM      3  C   UNL     1      -4.565 -66.312  -5.188  1.00  0.00     0.000 C 
BRANCH   3   4
ATOM      4  C   UNL     1      -4.350 -67.627  -5.961  1.00  0.00     0.000 C 
BRANCH   4   5
ATOM      5  C   UNL     1      -4.673 -67.496  -7.459  1.00  0.00     0.000 C 
BRANCH   5   6
ATOM      6  C   UNL     1      -5.014 -66.052  -7.862  1.00  0.00     0.000 C 
BRANCH   6   7
ATOM      7  C   UNL     1      -4.098 -65.511  -8.973  1.00  0.00     0.000 C 
BRANCH   7   8
ATOM      8  C   UNL     1      -3.500 -64.135  -8.628  1.00  0.00     0.000 C 
BRANCH   8   9
ATOM      9  C   UNL     1      -2.009 -64.217  -8.258  1.00  0.00     0.000 C 
BRANCH   9  10
ATOM     10  C   UNL     1      -1.787 -64.519  -6.767  1.00  0.00     0.006 C 
BRANCH  10  11
ATOM     11  C   UNL     1      -0.875 -63.469  -6.124  1.00  0.00     0.053 C 
BRANCH  11  12
ATOM     12  C   UNL     1       0.562 -63.796  -6.378  1.00  0.00     0.041 C 
ATOM     13  O   UNL     1       1.117 -64.738  -5.752  1.00  0.00    -0.550 OA
ATOM     14  O   UNL     1       1.305 -63.027  -7.265  1.00  0.00    -0.550 OA
ENDBRANCH  11  12
ENDBRANCH  10  11
ENDBRANCH   9  10
ENDBRANCH   8   9
ENDBRANCH   7   8
ENDBRANCH   6   7
ENDBRANCH   5   6
ENDBRANCH   4   5
ENDBRANCH   3   4
ENDBRANCH   2   3
ENDBRANCH   1   2
BRANCH   1  15
ATOM     15  C   UNL     1      -4.222 -64.471  -2.007  1.00  0.00     0.000 C 
BRANCH  15  16
ATOM     16  C   UNL     1      -3.244 -63.702  -2.912  1.00  0.00     0.000 C 
BRANCH  16  17
ATOM     17  C   UNL     1      -3.959 -62.896  -4.012  1.00  0.00     0.000 C 
BRANCH  17  18
ATOM     18  C   UNL     1      -5.290 -62.253  -3.581  1.00  0.00    -0.000 C 
BRANCH  18  19
ATOM     19  C   UNL     1      -6.385 -62.371  -4.656  1.00  0.00    -0.000 C 
BRANCH  19  20
ATOM     20  C   UNL     1      -5.818 -62.751  -6.043  1.00  0.00    -0.000 C 
BRANCH  20  21
ATOM     21  C   UNL     1      -5.849 -61.595  -7.057  1.00  0.00    -0.000 C 
BRANCH  21  22
ATOM     22  C   UNL     1      -6.960 -61.713  -8.115  1.00  0.00    -0.000 C 
BRANCH  22  23
ATOM     23  C   UNL     1      -6.986 -63.083  -8.830  1.00  0.00    -0.000 C 
BRANCH  23  24
ATOM     24  C   UNL     1      -8.416 -63.611  -9.036  1.00  0.00    -0.000 C 
BRANCH  24  25
ATOM     25  C   UNL     1      -8.764 -64.773  -8.093  1.00  0.00    -0.003 C 
ATOM     26  C   UNL     1      -9.127 -64.308  -6.683  1.00  0.00     0.004 C 
ENDBRANCH  24  25
ENDBRANCH  23  24
ENDBRANCH  22  23
ENDBRANCH  21  22
ENDBRANCH  20  21
ENDBRANCH  19  20
ENDBRANCH  18  19
ENDBRANCH  17  18
ENDBRANCH  16  17
ENDBRANCH  15  16
ENDBRANCH   1  15
TORSDOF 22
ENDMDL
MODEL 9
REMARK VINA RESULT:    -3.293      1.963      3.690
REMARK INTER + INTRA:         -11.596
REMARK INTER:                  -6.718
REMARK INTRA:                  -4.878
REMARK UNBOUND:                -4.068
REMARK SMILES CCCCCCCCCCCCCCCCCCCCCCCC(=O)[O-]
REMARK SMILES IDX 13 1 14 2 15 3 16 4 17 5 18 6 19 7 20 8 21 9 22 10 23 11
REMARK SMILES IDX 24 12 25 13 26 14 12 15 11 16 10 17 9 18 8 19 7 20 6 21 5 22
REMARK SMILES IDX 4 23 3 24 2 25 1 26
REMARK H PARENT
REMARK Flexibility Score: inf
ROOT
ATOM      1  C   UNL     1      -6.710 -65.324 -10.057  1.00  0.00     0.000 C 
ENDROOT
BRANCH   1   2
ATOM      2  C   UNL     1      -7.024 -63.818  -9.955  1.00  0.00     0.000 C 
BRANCH   2   3
ATOM      3  C   UNL     1      -8.255 -63.489  -9.084  1.00  0.00     0.000 C 
BRANCH   3   4
ATOM      4  C   UNL     1      -8.697 -64.688  -8.223  1.00  0.00     0.000 C 
BRANCH   4   5
ATOM      5  C   UNL     1      -9.113 -64.278  -6.800  1.00  0.00     0.000 C 
BRANCH   5   6
ATOM      6  C   UNL     1      -8.680 -62.844  -6.453  1.00  0.00     0.000 C 
BRANCH   6   7
ATOM      7  C   UNL     1      -7.504 -62.800  -5.462  1.00  0.00     0.000 C 
BRANCH   7   8
ATOM      8  C   UNL     1      -6.229 -62.202  -6.083  1.00  0.00     0.000 C 
BRANCH   8   9
ATOM      9  C   UNL     1      -5.328 -63.272  -6.723  1.00  0.00     0.000 C 
BRANCH   9  10
ATOM     10  C   UNL     1      -5.448 -64.637  -6.027  1.00  0.00     0.006 C 
BRANCH  10  11
ATOM     11  C   UNL     1      -4.755 -65.733  -6.843  1.00  0.00     0.053 C 
BRANCH  11  12
ATOM     12  C   UNL     1      -3.950 -66.623  -5.951  1.00  0.00     0.041 C 
ATOM     13  O   UNL     1      -4.517 -67.525  -5.279  1.00  0.00    -0.550 OA
ATOM     14  O   UNL     1      -2.581 -66.424  -5.820  1.00  0.00    -0.550 OA
ENDBRANCH  11  12
ENDBRANCH  10  11
ENDBRANCH   9  10
ENDBRANCH   8   9
ENDBRANCH   7   8
ENDBRANCH   6   7
ENDBRANCH   5   6
ENDBRANCH   4   5
ENDBRANCH   3   4
ENDBRANCH   2   3
ENDBRANCH   1   2
BRANCH   1  15
ATOM     15  C   UNL     1      -5.300 -65.668 -10.565  1.00  0.00     0.000 C 
BRANCH  15  16
ATOM     16  C   UNL     1      -4.399 -64.430 -10.712  1.00  0.00     0.000 C 
BRANCH  16  17
ATOM     17  C   UNL     1      -3.098 -64.540  -9.897  1.00  0.00     0.000 C 
BRANCH  17  18
ATOM     18  C   UNL     1      -2.746 -63.293  -9.066  1.00  0.00    -0.000 C 
BRANCH  18  19
ATOM     19  C   UNL     1      -1.828 -63.611  -7.873  1.00  0.00    -0.000 C 
BRANCH  19  20
ATOM     20  C   UNL     1      -1.907 -62.539  -6.761  1.00  0.00    -0.000 C 
BRANCH  20  21
ATOM     21  C   UNL     1      -1.643 -63.097  -5.351  1.00  0.00    -0.000 C 
BRANCH  21  22
ATOM     22  C   UNL     1      -2.488 -62.441  -4.245  1.00  0.00    -0.000 C 
BRANCH  22  23
ATOM     23  C   UNL     1      -3.251 -63.460  -3.368  1.00  0.00    -0.000 C 
BRANCH  23  24
ATOM     24  C   UNL     1      -4.576 -62.896  -2.828  1.00  0.00    -0.000 C 
BRANCH  24  25
ATOM     25  C   UNL     1      -5.547 -63.994  -2.369  1.00  0.00    -0.003 C 
ATOM     26  C   UNL     1      -4.914 -65.385  -2.361  1.00  0.00     0.004 C 
ENDBRANCH  24  25
ENDBRANCH  23  24
ENDBRANCH  22  23
ENDBRANCH  21  22
ENDBRANCH  20  21
ENDBRANCH  19  20
ENDBRANCH  18  19
ENDBRANCH  17  18
ENDBRANCH  16  17
ENDBRANCH  15  16
ENDBRANCH   1  15
TORSDOF 22
ENDMDL
