MODEL 1
REMARK VINA RESULT:    -4.145      0.000      0.000
REMARK INTER + INTRA:         -10.582
REMARK INTER:                  -8.022
REMARK INTRA:                  -2.560
REMARK UNBOUND:                -2.560
REMARK SMILES CCCCCCCCCCCCCCCCCC(=O)[O-]
REMARK SMILES IDX 10 1 11 2 12 3 13 4 14 5 15 6 16 7 17 8 18 9 19 10 20 11
REMARK SMILES IDX 9 12 8 13 7 14 6 15 5 16 4 17 3 18 2 19 1 20
REMARK H PARENT
REMARK Flexibility Score: inf
ROOT
ATOM      1  C   UNL     1      35.754  77.081  10.796  1.00  0.00     0.000 C 
ENDROOT
BRANCH   1   2
ATOM      2  C   UNL     1      34.488  77.438  11.600  1.00  0.00     0.000 C 
BRANCH   2   3
ATOM      3  C   UNL     1      33.608  78.541  10.980  1.00  0.00     0.000 C 
BRANCH   3   4
ATOM      4  C   UNL     1      32.339  78.888  11.779  1.00  0.00     0.000 C 
BRANCH   4   5
ATOM      5  C   UNL     1      32.195  78.052  13.062  1.00  0.00     0.000 C 
BRANCH   5   6
ATOM      6  C   UNL     1      31.247  78.695  14.087  1.00  0.00     0.000 C 
BRANCH   6   7
ATOM      7  C   UNL     1      31.632  80.144  14.425  1.00  0.00     0.006 C 
BRANCH   7   8
ATOM      8  C   UNL     1      32.563  80.193  15.641  1.00  0.00     0.053 C 
BRANCH   8   9
ATOM      9  C   UNL     1      32.391  81.481  16.382  1.00  0.00     0.041 C 
ATOM     10  O   UNL     1      32.649  82.578  15.817  1.00  0.00    -0.550 OA
ATOM     11  O   UNL     1      31.904  81.474  17.683  1.00  0.00    -0.550 OA
ENDBRANCH   8   9
ENDBRANCH   7   8
ENDBRANCH   6   7
ENDBRANCH   5   6
ENDBRANCH   4   5
ENDBRANCH   3   4
ENDBRANCH   2   3
ENDBRANCH   1   2
BRANCH   1  12
ATOM     12  C   UNL     1      35.701  75.727  10.065  1.00  0.00     0.000 C 
BRANCH  12  13
ATOM     13  C   UNL     1      35.709  75.880   8.534  1.00  0.00    -0.000 C 
BRANCH  13  14
ATOM     14  C   UNL     1      34.376  76.412   7.981  1.00  0.00    -0.000 C 
BRANCH  14  15
ATOM     15  C   UNL     1      33.143  75.548   8.314  1.00  0.00    -0.000 C 
BRANCH  15  16
ATOM     16  C   UNL     1      31.906  76.370   8.733  1.00  0.00    -0.000 C 
BRANCH  16  17
ATOM     17  C   UNL     1      31.220  75.787   9.982  1.00  0.00    -0.000 C 
BRANCH  17  18
ATOM     18  C   UNL     1      31.855  74.464  10.436  1.00  0.00    -0.000 C 
BRANCH  18  19
ATOM     19  C   UNL     1      32.220  74.476  11.929  1.00  0.00    -0.003 C 
ATOM     20  C   UNL     1      33.621  73.916  12.157  1.00  0.00     0.004 C 
ENDBRANCH  18  19
ENDBRANCH  17  18
ENDBRANCH  16  17
ENDBRANCH  15  16
ENDBRANCH  14  15
ENDBRANCH  13  14
ENDBRANCH  12  13
ENDBRANCH   1  12
TORSDOF 16
ENDMDL
MODEL 2
REMARK VINA RESULT:    -4.017      1.197      2.545
REMARK INTER + INTRA:         -10.334
REMARK INTER:                  -7.436
REMARK INTRA:                  -2.897
REMARK UNBOUND:                -2.560
REMARK SMILES CCCCCCCCCCCCCCCCCC(=O)[O-]
REMARK SMILES IDX 10 1 11 2 12 3 13 4 14 5 15 6 16 7 17 8 18 9 19 10 20 11
REMARK SMILES IDX 9 12 8 13 7 14 6 15 5 16 4 17 3 18 2 19 1 20
REMARK H PARENT
REMARK Flexibility Score: inf
ROOT
ATOM      1  C   UNL     1      31.450  76.773   9.107  1.00  0.00     0.000 C 
ENDROOT
BRANCH   1   2
ATOM      2  C   UNL     1      31.794  78.236   9.452  1.00  0.00     0.000 C 
BRANCH   2   3
ATOM      3  C   UNL     1      31.959  78.532  10.956  1.00  0.00     0.000 C 
BRANCH   3   4
ATOM      4  C   UNL     1      31.148  77.619  11.894  1.00  0.00     0.000 C 
BRANCH   4   5
ATOM      5  C   UNL     1      31.793  77.468  13.282  1.00  0.00     0.000 C 
BRANCH   5   6
ATOM      6  C   UNL     1      32.738  78.631  13.627  1.00  0.00     0.000 C 
BRANCH   6   7
ATOM      7  C   UNL     1      32.888  78.846  15.141  1.00  0.00     0.006 C 
BRANCH   7   8
ATOM      8  C   UNL     1      31.705  79.642  15.700  1.00  0.00     0.053 C 
BRANCH   8   9
ATOM      9  C   UNL     1      31.922  81.110  15.508  1.00  0.00     0.041 C 
ATOM     10  O   UNL     1      32.744  81.731  16.234  1.00  0.00    -0.550 OA
ATOM     11  O   UNL     1      31.250  81.785  14.497  1.00  0.00    -0.550 OA
ENDBRANCH   8   9
ENDBRANCH   7   8
ENDBRANCH   6   7
ENDBRANCH   5   6
ENDBRANCH   4   5
ENDBRANCH   3   4
ENDBRANCH   2   3
ENDBRANCH   1   2
BRANCH   1  12
ATOM     12  C   UNL     1      32.472  76.061   8.202  1.00  0.00     0.000 C 
BRANCH  12  13
ATOM     13  C   UNL     1      33.798  76.832   8.086  1.00  0.00    -0.000 C 
BRANCH  13  14
ATOM     14  C   UNL     1      34.943  76.171   8.872  1.00  0.00    -0.000 C 
BRANCH  14  15
ATOM     15  C   UNL     1      35.363  76.912  10.157  1.00  0.00    -0.000 C 
BRANCH  15  16
ATOM     16  C   UNL     1      34.815  76.270  11.449  1.00  0.00    -0.000 C 
BRANCH  16  17
ATOM     17  C   UNL     1      34.289  74.844  11.208  1.00  0.00    -0.000 C 
BRANCH  17  18
ATOM     18  C   UNL     1      33.222  74.432  12.234  1.00  0.00    -0.000 C 
BRANCH  18  19
ATOM     19  C   UNL     1      31.949  73.892  11.565  1.00  0.00    -0.003 C 
ATOM     20  C   UNL     1      32.287  73.047  10.341  1.00  0.00     0.004 C 
ENDBRANCH  18  19
ENDBRANCH  17  18
ENDBRANCH  16  17
ENDBRANCH  15  16
ENDBRANCH  14  15
ENDBRANCH  13  14
ENDBRANCH  12  13
ENDBRANCH   1  12
TORSDOF 16
ENDMDL
MODEL 3
REMARK VINA RESULT:    -4.015      1.088      3.386
REMARK INTER + INTRA:         -10.330
REMARK INTER:                  -7.753
REMARK INTRA:                  -2.577
REMARK UNBOUND:                -2.560
REMARK SMILES CCCCCCCCCCCCCCCCCC(=O)[O-]
REMARK SMILES IDX 10 1 11 2 12 3 13 4 14 5 15 6 16 7 17 8 18 9 19 10 20 11
REMARK SMILES IDX 9 12 8 13 7 14 6 15 5 16 4 17 3 18 2 19 1 20
REMARK H PARENT
REMARK Flexibility Score: inf
ROOT
ATOM      1  C   UNL     1      30.921  75.622  10.153  1.00  0.00     0.000 C 
ENDROOT
BRANCH   1   2
ATOM      2  C   UNL     1      30.869  76.903  11.009  1.00  0.00     0.000 C 
BRANCH   2   3
ATOM      3  C   UNL     1      31.561  78.133  10.389  1.00  0.00     0.000 C 
BRANCH   3   4
ATOM      4  C   UNL     1      32.556  78.856  11.314  1.00  0.00     0.000 C 
BRANCH   4   5
ATOM      5  C   UNL     1      32.016  79.041  12.742  1.00  0.00     0.000 C 
BRANCH   5   6
ATOM      6  C   UNL     1      32.755  78.173  13.774  1.00  0.00     0.000 C 
BRANCH   6   7
ATOM      7  C   UNL     1      33.378  79.000  14.909  1.00  0.00     0.006 C 
BRANCH   7   8
ATOM      8  C   UNL     1      32.317  79.409  15.934  1.00  0.00     0.053 C 
BRANCH   8   9
ATOM      9  C   UNL     1      32.216  80.900  16.018  1.00  0.00     0.041 C 
ATOM     10  O   UNL     1      32.742  81.518  16.982  1.00  0.00    -0.550 OA
ATOM     11  O   UNL     1      31.577  81.610  15.010  1.00  0.00    -0.550 OA
ENDBRANCH   8   9
ENDBRANCH   7   8
ENDBRANCH   6   7
ENDBRANCH   5   6
ENDBRANCH   4   5
ENDBRANCH   3   4
ENDBRANCH   2   3
ENDBRANCH   1   2
BRANCH   1  12
ATOM     12  C   UNL     1      31.857  74.521  10.684  1.00  0.00     0.000 C 
BRANCH  12  13
ATOM     13  C   UNL     1      32.751  75.010  11.837  1.00  0.00    -0.000 C 
BRANCH  13  14
ATOM     14  C   UNL     1      34.251  74.921  11.507  1.00  0.00    -0.000 C 
BRANCH  14  15
ATOM     15  C   UNL     1      34.932  76.272  11.205  1.00  0.00    -0.000 C 
BRANCH  15  16
ATOM     16  C   UNL     1      36.100  76.165  10.203  1.00  0.00    -0.000 C 
BRANCH  16  17
ATOM     17  C   UNL     1      35.624  75.734   8.804  1.00  0.00    -0.000 C 
BRANCH  17  18
ATOM     18  C   UNL     1      34.530  76.658   8.248  1.00  0.00    -0.000 C 
BRANCH  18  19
ATOM     19  C   UNL     1      33.387  75.872   7.586  1.00  0.00    -0.003 C 
ATOM     20  C   UNL     1      33.723  74.386   7.493  1.00  0.00     0.004 C 
ENDBRANCH  18  19
ENDBRANCH  17  18
ENDBRANCH  16  17
ENDBRANCH  15  16
ENDBRANCH  14  15
ENDBRANCH  13  14
ENDBRANCH  12  13
ENDBRANCH   1  12
TORSDOF 16
ENDMDL
MODEL 4
REMARK VINA RESULT:    -4.005      1.752      2.249
REMARK INTER + INTRA:         -10.311
REMARK INTER:                  -7.821
REMARK INTRA:                  -2.490
REMARK UNBOUND:                -2.560
REMARK SMILES CCCCCCCCCCCCCCCCCC(=O)[O-]
REMARK SMILES IDX 10 1 11 2 12 3 13 4 14 5 15 6 16 7 17 8 18 9 19 10 20 11
REMARK SMILES IDX 9 12 8 13 7 14 6 15 5 16 4 17 3 18 2 19 1 20
REMARK H PARENT
REMARK Flexibility Score: inf
ROOT
ATOM      1  C   UNL     1      35.665  75.622   9.778  1.00  0.00     0.000 C 
ENDROOT
BRANCH   1   2
ATOM      2  C   UNL     1      36.144  76.630  10.842  1.00  0.00     0.000 C 
BRANCH   2   3
ATOM      3  C   UNL     1      35.173  77.794  11.126  1.00  0.00     0.000 C 
BRANCH   3   4
ATOM      4  C   UNL     1      34.117  78.043  10.034  1.00  0.00     0.000 C 
BRANCH   4   5
ATOM      5  C   UNL     1      32.706  78.252  10.608  1.00  0.00     0.000 C 
BRANCH   5   6
ATOM      6  C   UNL     1      32.592  77.817  12.078  1.00  0.00     0.000 C 
BRANCH   6   7
ATOM      7  C   UNL     1      31.409  78.477  12.803  1.00  0.00     0.006 C 
BRANCH   7   8
ATOM      8  C   UNL     1      31.899  79.367  13.951  1.00  0.00     0.053 C 
BRANCH   8   9
ATOM      9  C   UNL     1      32.608  78.549  14.983  1.00  0.00     0.041 C 
ATOM     10  O   UNL     1      33.798  78.818  15.299  1.00  0.00    -0.550 OA
ATOM     11  O   UNL     1      31.941  77.515  15.629  1.00  0.00    -0.550 OA
ENDBRANCH   8   9
ENDBRANCH   7   8
ENDBRANCH   6   7
ENDBRANCH   5   6
ENDBRANCH   4   5
ENDBRANCH   3   4
ENDBRANCH   2   3
ENDBRANCH   1   2
BRANCH   1  12
ATOM     12  C   UNL     1      36.629  75.418   8.595  1.00  0.00     0.000 C 
BRANCH  12  13
ATOM     13  C   UNL     1      35.896  75.074   7.287  1.00  0.00    -0.000 C 
BRANCH  13  14
ATOM     14  C   UNL     1      34.576  75.846   7.122  1.00  0.00    -0.000 C 
BRANCH  14  15
ATOM     15  C   UNL     1      33.302  74.980   7.189  1.00  0.00    -0.000 C 
BRANCH  15  16
ATOM     16  C   UNL     1      32.106  75.689   7.857  1.00  0.00    -0.000 C 
BRANCH  16  17
ATOM     17  C   UNL     1      31.765  75.082   9.230  1.00  0.00    -0.000 C 
BRANCH  17  18
ATOM     18  C   UNL     1      32.448  73.724   9.455  1.00  0.00    -0.000 C 
BRANCH  18  19
ATOM     19  C   UNL     1      32.378  73.275  10.923  1.00  0.00    -0.003 C 
ATOM     20  C   UNL     1      33.150  74.230  11.828  1.00  0.00     0.004 C 
ENDBRANCH  18  19
ENDBRANCH  17  18
ENDBRANCH  16  17
ENDBRANCH  15  16
ENDBRANCH  14  15
ENDBRANCH  13  14
ENDBRANCH  12  13
ENDBRANCH   1  12
TORSDOF 16
ENDMDL
MODEL 5
REMARK VINA RESULT:    -4.004      1.695      3.576
REMARK INTER + INTRA:         -10.310
REMARK INTER:                  -7.208
REMARK INTRA:                  -3.103
REMARK UNBOUND:                -2.560
REMARK SMILES CCCCCCCCCCCCCCCCCC(=O)[O-]
REMARK SMILES IDX 10 1 11 2 12 3 13 4 14 5 15 6 16 7 17 8 18 9 19 10 20 11
REMARK SMILES IDX 9 12 8 13 7 14 6 15 5 16 4 17 3 18 2 19 1 20
REMARK H PARENT
REMARK Flexibility Score: inf
ROOT
ATOM      1  C   UNL     1      34.318  74.812  11.096  1.00  0.00     0.000 C 
ENDROOT
BRANCH   1   2
ATOM      2  C   UNL     1      34.979  76.204  11.162  1.00  0.00     0.000 C 
BRANCH   2   3
ATOM      3  C   UNL     1      34.995  76.984   9.832  1.00  0.00     0.000 C 
BRANCH   3   4
ATOM      4  C   UNL     1      33.913  78.071   9.701  1.00  0.00     0.000 C 
BRANCH   4   5
ATOM      5  C   UNL     1      33.416  78.584  11.064  1.00  0.00     0.000 C 
BRANCH   5   6
ATOM      6  C   UNL     1      31.906  78.374  11.262  1.00  0.00     0.000 C 
BRANCH   6   7
ATOM      7  C   UNL     1      31.497  78.366  12.743  1.00  0.00     0.006 C 
BRANCH   7   8
ATOM      8  C   UNL     1      32.685  77.998  13.637  1.00  0.00     0.053 C 
BRANCH   8   9
ATOM      9  C   UNL     1      32.696  78.846  14.870  1.00  0.00     0.041 C 
ATOM     10  O   UNL     1      33.352  78.484  15.883  1.00  0.00    -0.550 OA
ATOM     11  O   UNL     1      32.017  80.058  14.885  1.00  0.00    -0.550 OA
ENDBRANCH   8   9
ENDBRANCH   7   8
ENDBRANCH   6   7
ENDBRANCH   5   6
ENDBRANCH   4   5
ENDBRANCH   3   4
ENDBRANCH   2   3
ENDBRANCH   1   2
BRANCH   1  12
ATOM     12  C   UNL     1      33.124  74.614  12.047  1.00  0.00     0.000 C 
BRANCH  12  13
ATOM     13  C   UNL     1      31.771  74.660  11.315  1.00  0.00    -0.000 C 
BRANCH  13  14
ATOM     14  C   UNL     1      31.899  74.386   9.807  1.00  0.00    -0.000 C 
BRANCH  14  15
ATOM     15  C   UNL     1      31.225  75.432   8.896  1.00  0.00    -0.000 C 
BRANCH  15  16
ATOM     16  C   UNL     1      32.007  75.714   7.595  1.00  0.00    -0.000 C 
BRANCH  16  17
ATOM     17  C   UNL     1      33.239  74.802   7.451  1.00  0.00    -0.000 C 
BRANCH  17  18
ATOM     18  C   UNL     1      34.346  75.445   6.602  1.00  0.00    -0.000 C 
BRANCH  18  19
ATOM     19  C   UNL     1      35.731  74.855   6.910  1.00  0.00    -0.003 C 
ATOM     20  C   UNL     1      35.929  73.518   6.203  1.00  0.00     0.004 C 
ENDBRANCH  18  19
ENDBRANCH  17  18
ENDBRANCH  16  17
ENDBRANCH  15  16
ENDBRANCH  14  15
ENDBRANCH  13  14
ENDBRANCH  12  13
ENDBRANCH   1  12
TORSDOF 16
ENDMDL
MODEL 6
REMARK VINA RESULT:    -3.999      4.500      7.365
REMARK INTER + INTRA:         -10.299
REMARK INTER:                  -7.677
REMARK INTRA:                  -2.622
REMARK UNBOUND:                -2.560
REMARK SMILES CCCCCCCCCCCCCCCCCC(=O)[O-]
REMARK SMILES IDX 10 1 11 2 12 3 13 4 14 5 15 6 16 7 17 8 18 9 19 10 20 11
REMARK SMILES IDX 9 12 8 13 7 14 6 15 5 16 4 17 3 18 2 19 1 20
REMARK H PARENT
REMARK Flexibility Score: inf
ROOT
ATOM      1  C   UNL     1      31.647  74.779  11.533  1.00  0.00     0.000 C 
ENDROOT
BRANCH   1   2
ATOM      2  C   UNL     1      33.023  74.842  12.227  1.00  0.00     0.000 C 
BRANCH   2   3
ATOM      3  C   UNL     1      34.237  74.780  11.280  1.00  0.00     0.000 C 
BRANCH   3   4
ATOM      4  C   UNL     1      34.976  76.116  11.079  1.00  0.00     0.000 C 
BRANCH   4   5
ATOM      5  C   UNL     1      35.580  76.256   9.671  1.00  0.00     0.000 C 
BRANCH   5   6
ATOM      6  C   UNL     1      34.560  76.754   8.635  1.00  0.00     0.000 C 
BRANCH   6   7
ATOM      7  C   UNL     1      34.485  75.852   7.393  1.00  0.00     0.006 C 
BRANCH   7   8
ATOM      8  C   UNL     1      35.809  75.114   7.172  1.00  0.00     0.053 C 
BRANCH   8   9
ATOM      9  C   UNL     1      35.566  73.773   6.556  1.00  0.00     0.041 C 
ATOM     10  O   UNL     1      36.467  73.214   5.875  1.00  0.00    -0.550 OA
ATOM     11  O   UNL     1      34.359  73.119   6.769  1.00  0.00    -0.550 OA
ENDBRANCH   8   9
ENDBRANCH   7   8
ENDBRANCH   6   7
ENDBRANCH   5   6
ENDBRANCH   4   5
ENDBRANCH   3   4
ENDBRANCH   2   3
ENDBRANCH   1   2
BRANCH   1  12
ATOM     12  C   UNL     1      31.676  75.004  10.011  1.00  0.00     0.000 C 
BRANCH  12  13
ATOM     13  C   UNL     1      30.711  76.114   9.559  1.00  0.00    -0.000 C 
BRANCH  13  14
ATOM     14  C   UNL     1      30.756  77.352  10.471  1.00  0.00    -0.000 C 
BRANCH  14  15
ATOM     15  C   UNL     1      31.777  78.430  10.055  1.00  0.00    -0.000 C 
BRANCH  15  16
ATOM     16  C   UNL     1      32.616  78.974  11.230  1.00  0.00    -0.000 C 
BRANCH  16  17
ATOM     17  C   UNL     1      31.972  78.663  12.593  1.00  0.00    -0.000 C 
BRANCH  17  18
ATOM     18  C   UNL     1      32.988  78.122  13.611  1.00  0.00    -0.000 C 
BRANCH  18  19
ATOM     19  C   UNL     1      33.020  78.957  14.901  1.00  0.00    -0.003 C 
ATOM     20  C   UNL     1      31.789  79.851  15.007  1.00  0.00     0.004 C 
ENDBRANCH  18  19
ENDBRANCH  17  18
ENDBRANCH  16  17
ENDBRANCH  15  16
ENDBRANCH  14  15
ENDBRANCH  13  14
ENDBRANCH  12  13
ENDBRANCH   1  12
TORSDOF 16
ENDMDL
MODEL 7
REMARK VINA RESULT:    -3.997      1.751      3.043
REMARK INTER + INTRA:         -10.296
REMARK INTER:                  -7.134
REMARK INTRA:                  -3.163
REMARK UNBOUND:                -2.560
REMARK SMILES CCCCCCCCCCCCCCCCCC(=O)[O-]
REMARK SMILES IDX 10 1 11 2 12 3 13 4 14 5 15 6 16 7 17 8 18 9 19 10 20 11
REMARK SMILES IDX 9 12 8 13 7 14 6 15 5 16 4 17 3 18 2 19 1 20
REMARK H PARENT
REMARK Flexibility Score: inf
ROOT
ATOM      1  C   UNL     1      34.475  78.112  10.325  1.00  0.00     0.000 C 
ENDROOT
BRANCH   1   2
ATOM      2  C   UNL     1      33.812  77.652   9.012  1.00  0.00     0.000 C 
BRANCH   2   3
ATOM      3  C   UNL     1      32.288  77.870   8.937  1.00  0.00     0.000 C 
BRANCH   3   4
ATOM      4  C   UNL     1      31.640  78.396  10.230  1.00  0.00     0.000 C 
BRANCH   4   5
ATOM      5  C   UNL     1      30.950  77.289  11.044  1.00  0.00     0.000 C 
BRANCH   5   6
ATOM      6  C   UNL     1      31.285  77.357  12.543  1.00  0.00     0.000 C 
BRANCH   6   7
ATOM      7  C   UNL     1      31.927  78.693  12.948  1.00  0.00     0.006 C 
BRANCH   7   8
ATOM      8  C   UNL     1      33.077  78.471  13.935  1.00  0.00     0.053 C 
BRANCH   8   9
ATOM      9  C   UNL     1      32.727  79.022  15.281  1.00  0.00     0.041 C 
ATOM     10  O   UNL     1      32.403  80.233  15.406  1.00  0.00    -0.550 OA
ATOM     11  O   UNL     1      32.717  78.188  16.392  1.00  0.00    -0.550 OA
ENDBRANCH   8   9
ENDBRANCH   7   8
ENDBRANCH   6   7
ENDBRANCH   5   6
ENDBRANCH   4   5
ENDBRANCH   3   4
ENDBRANCH   2   3
ENDBRANCH   1   2
BRANCH   1  12
ATOM     12  C   UNL     1      35.105  76.987  11.165  1.00  0.00     0.000 C 
BRANCH  12  13
ATOM     13  C   UNL     1      34.725  75.585  10.657  1.00  0.00    -0.000 C 
BRANCH  13  14
ATOM     14  C   UNL     1      33.909  74.780  11.682  1.00  0.00    -0.000 C 
BRANCH  14  15
ATOM     15  C   UNL     1      32.785  73.911  11.082  1.00  0.00    -0.000 C 
BRANCH  15  16
ATOM     16  C   UNL     1      32.459  74.251   9.612  1.00  0.00    -0.000 C 
BRANCH  16  17
ATOM     17  C   UNL     1      32.383  72.992   8.730  1.00  0.00    -0.000 C 
BRANCH  17  18
ATOM     18  C   UNL     1      33.256  73.106   7.471  1.00  0.00    -0.000 C 
BRANCH  18  19
ATOM     19  C   UNL     1      33.661  74.559   7.174  1.00  0.00    -0.003 C 
ATOM     20  C   UNL     1      35.176  74.694   7.052  1.00  0.00     0.004 C 
ENDBRANCH  18  19
ENDBRANCH  17  18
ENDBRANCH  16  17
ENDBRANCH  15  16
ENDBRANCH  14  15
ENDBRANCH  13  14
ENDBRANCH  12  13
ENDBRANCH   1  12
TORSDOF 16
ENDMDL
MODEL 8
REMARK VINA RESULT:    -3.956      1.516      3.122
REMARK INTER + INTRA:         -10.216
REMARK INTER:                  -8.180
REMARK INTRA:                  -2.037
REMARK UNBOUND:                -2.560
REMARK SMILES CCCCCCCCCCCCCCCCCC(=O)[O-]
REMARK SMILES IDX 10 1 11 2 12 3 13 4 14 5 15 6 16 7 17 8 18 9 19 10 20 11
REMARK SMILES IDX 9 12 8 13 7 14 6 15 5 16 4 17 3 18 2 19 1 20
REMARK H PARENT
REMARK Flexibility Score: inf
ROOT
ATOM      1  C   UNL     1      32.340  78.919  12.067  1.00  0.00     0.000 C 
ENDROOT
BRANCH   1   2
ATOM      2  C   UNL     1      32.814  78.227  13.360  1.00  0.00     0.000 C 
BRANCH   2   3
ATOM      3  C   UNL     1      32.046  76.944  13.736  1.00  0.00     0.000 C 
BRANCH   3   4
ATOM      4  C   UNL     1      30.867  77.149  14.704  1.00  0.00     0.000 C 
BRANCH   4   5
ATOM      5  C   UNL     1      30.964  78.469  15.489  1.00  0.00     0.000 C 
BRANCH   5   6
ATOM      6  C   UNL     1      29.814  79.437  15.166  1.00  0.00     0.000 C 
BRANCH   6   7
ATOM      7  C   UNL     1      30.150  80.896  15.510  1.00  0.00     0.006 C 
BRANCH   7   8
ATOM      8  C   UNL     1      31.578  81.244  15.077  1.00  0.00     0.053 C 
BRANCH   8   9
ATOM      9  C   UNL     1      32.314  81.920  16.192  1.00  0.00     0.041 C 
ATOM     10  O   UNL     1      32.834  83.053  16.013  1.00  0.00    -0.550 OA
ATOM     11  O   UNL     1      32.388  81.317  17.441  1.00  0.00    -0.550 OA
ENDBRANCH   8   9
ENDBRANCH   7   8
ENDBRANCH   6   7
ENDBRANCH   5   6
ENDBRANCH   4   5
ENDBRANCH   3   4
ENDBRANCH   2   3
ENDBRANCH   1   2
BRANCH   1  12
ATOM     12  C   UNL     1      31.577  78.011  11.085  1.00  0.00     0.000 C 
BRANCH  12  13
ATOM     13  C   UNL     1      32.018  78.216   9.626  1.00  0.00    -0.000 C 
BRANCH  13  14
ATOM     14  C   UNL     1      31.668  77.020   8.724  1.00  0.00    -0.000 C 
BRANCH  14  15
ATOM     15  C   UNL     1      32.881  76.261   8.148  1.00  0.00    -0.000 C 
BRANCH  15  16
ATOM     16  C   UNL     1      34.230  76.965   8.408  1.00  0.00    -0.000 C 
BRANCH  16  17
ATOM     17  C   UNL     1      35.357  75.961   8.711  1.00  0.00    -0.000 C 
BRANCH  17  18
ATOM     18  C   UNL     1      35.392  75.549  10.191  1.00  0.00    -0.000 C 
BRANCH  18  19
ATOM     19  C   UNL     1      35.155  76.741  11.132  1.00  0.00    -0.003 C 
ATOM     20  C   UNL     1      36.439  77.537  11.346  1.00  0.00     0.004 C 
ENDBRANCH  18  19
ENDBRANCH  17  18
ENDBRANCH  16  17
ENDBRANCH  15  16
ENDBRANCH  14  15
ENDBRANCH  13  14
ENDBRANCH  12  13
ENDBRANCH   1  12
TORSDOF 16
ENDMDL
MODEL 9
REMARK VINA RESULT:    -3.879      1.507      3.210
REMARK INTER + INTRA:         -10.067
REMARK INTER:                  -6.973
REMARK INTRA:                  -3.094
REMARK UNBOUND:                -2.560
REMARK SMILES CCCCCCCCCCCCCCCCCC(=O)[O-]
REMARK SMILES IDX 10 1 11 2 12 3 13 4 14 5 15 6 16 7 17 8 18 9 19 10 20 11
REMARK SMILES IDX 9 12 8 13 7 14 6 15 5 16 4 17 3 18 2 19 1 20
REMARK H PARENT
REMARK Flexibility Score: inf
ROOT
ATOM      1  C   UNL     1      35.289  75.896  10.958  1.00  0.00     0.000 C 
ENDROOT
BRANCH   1   2
ATOM      2  C   UNL     1      34.255  74.800  11.283  1.00  0.00     0.000 C 
BRANCH   2   3
ATOM      3  C   UNL     1      33.152  75.215  12.277  1.00  0.00     0.000 C 
BRANCH   3   4
ATOM      4  C   UNL     1      31.822  74.453  12.130  1.00  0.00     0.000 C 
BRANCH   4   5
ATOM      5  C   UNL     1      30.705  75.030  13.016  1.00  0.00     0.000 C 
BRANCH   5   6
ATOM      6  C   UNL     1      30.679  76.568  13.013  1.00  0.00     0.000 C 
BRANCH   6   7
ATOM      7  C   UNL     1      30.981  77.170  14.394  1.00  0.00     0.006 C 
BRANCH   7   8
ATOM      8  C   UNL     1      32.207  78.086  14.335  1.00  0.00     0.053 C 
BRANCH   8   9
ATOM      9  C   UNL     1      31.922  79.389  15.013  1.00  0.00     0.041 C 
ATOM     10  O   UNL     1      30.808  79.957  14.854  1.00  0.00    -0.550 OA
ATOM     11  O   UNL     1      32.870  79.955  15.857  1.00  0.00    -0.550 OA
ENDBRANCH   8   9
ENDBRANCH   7   8
ENDBRANCH   6   7
ENDBRANCH   5   6
ENDBRANCH   4   5
ENDBRANCH   3   4
ENDBRANCH   2   3
ENDBRANCH   1   2
BRANCH   1  12
ATOM     12  C   UNL     1      34.921  77.305  11.454  1.00  0.00     0.000 C 
BRANCH  12  13
ATOM     13  C   UNL     1      34.278  78.170  10.356  1.00  0.00    -0.000 C 
BRANCH  13  14
ATOM     14  C   UNL     1      32.830  78.572  10.685  1.00  0.00    -0.000 C 
BRANCH  14  15
ATOM     15  C   UNL     1      31.749  77.848   9.856  1.00  0.00    -0.000 C 
BRANCH  15  16
ATOM     16  C   UNL     1      32.287  77.221   8.552  1.00  0.00    -0.000 C 
BRANCH  16  17
ATOM     17  C   UNL     1      32.024  75.706   8.488  1.00  0.00    -0.000 C 
BRANCH  17  18
ATOM     18  C   UNL     1      33.204  74.931   7.882  1.00  0.00    -0.000 C 
BRANCH  18  19
ATOM     19  C   UNL     1      34.333  75.864   7.414  1.00  0.00    -0.003 C 
ATOM     20  C   UNL     1      35.672  75.135   7.386  1.00  0.00     0.004 C 
ENDBRANCH  18  19
ENDBRANCH  17  18
ENDBRANCH  16  17
ENDBRANCH  15  16
ENDBRANCH  14  15
ENDBRANCH  13  14
ENDBRANCH  12  13
ENDBRANCH   1  12
TORSDOF 16
ENDMDL
