MODEL 1
REMARK VINA RESULT:    -7.917      0.000      0.000
REMARK INTER + INTRA:         -13.245
REMARK INTER:                 -11.619
REMARK INTRA:                  -1.626
REMARK UNBOUND:                -1.626
REMARK SMILES O=c1c(O[C@@H]2O[C@H](CO)[C@H](O)[C@H](O)[C@@H]2O)c(-c2ccc(O)c(O)c2)oc2cc(O)cc(O)c12
REMARK SMILES IDX 4 1 3 2 16 3 25 4 2 5 26 6 1 7 33 8 27 9 31 10 28 11 30 12
REMARK SMILES IDX 17 13 18 14 19 15 20 16 24 17 22 18 21 19 23 21 32 23 29 25
REMARK SMILES IDX 5 27 14 28 6 29 12 30 7 31 10 32 15 33 13 35 8 37 9 38 11 40
REMARK H PARENT 21 20 23 22 32 24 29 26 15 34 13 36 9 39 11 41
REMARK Flexibility Score: inf
ROOT
ATOM      1  O   UNL     1      34.868  44.566 159.928  1.00  0.00    -0.454 OA
ENDROOT
BRANCH   1   2
ATOM      2  C   UNL     1      36.044  45.017 160.543  1.00  0.00     0.214 A 
ATOM      3  C   UNL     1      36.925  45.884 159.882  1.00  0.00     0.180 A 
ATOM      4  O   UNL     1      37.742  46.652 160.600  1.00  0.00    -0.452 OA
ATOM      5  C   UNL     1      36.275  44.743 161.901  1.00  0.00     0.239 A 
ATOM      6  C   UNL     1      37.866  46.555 161.925  1.00  0.00     0.146 A 
ATOM      7  O   UNL     1      35.606  43.836 162.439  1.00  0.00    -0.285 OA
ATOM      8  C   UNL     1      37.216  45.509 162.626  1.00  0.00     0.111 A 
ATOM      9  C   UNL     1      38.674  47.470 162.591  1.00  0.00     0.094 A 
ATOM     10  C   UNL     1      37.524  45.344 164.014  1.00  0.00     0.134 A 
ATOM     11  C   UNL     1      38.905  47.355 163.951  1.00  0.00     0.123 A 
ATOM     12  C   UNL     1      38.329  46.290 164.657  1.00  0.00     0.093 A 
BRANCH   3  13
ATOM     13  C   UNL     1      37.010  45.943 158.416  1.00  0.00     0.025 A 
ATOM     14  C   UNL     1      36.898  47.195 157.778  1.00  0.00     0.016 A 
ATOM     15  C   UNL     1      37.048  47.307 156.389  1.00  0.00     0.051 A 
ATOM     16  C   UNL     1      37.274  46.165 155.626  1.00  0.00     0.157 A 
ATOM     17  C   UNL     1      37.178  44.793 157.635  1.00  0.00     0.062 A 
ATOM     18  C   UNL     1      37.314  44.898 156.245  1.00  0.00     0.158 A 
BRANCH  16  19
ATOM     19  O   UNL     1      37.418  46.258 154.243  1.00  0.00    -0.504 OA
ATOM     20  H   UNL     1      37.590  47.129 153.764  1.00  0.00     0.293 HD
ENDBRANCH  16  19
BRANCH  18  21
ATOM     21  O   UNL     1      37.477  43.732 155.475  1.00  0.00    -0.504 OA
ATOM     22  H   UNL     1      36.742  43.044 155.395  1.00  0.00     0.293 HD
ENDBRANCH  18  21
ENDBRANCH   3  13
BRANCH  10  23
ATOM     23  O   UNL     1      37.086  44.256 164.788  1.00  0.00    -0.507 OA
ATOM     24  H   UNL     1      36.333  43.623 164.541  1.00  0.00     0.293 HD
ENDBRANCH  10  23
BRANCH  11  25
ATOM     25  O   UNL     1      39.699  48.288 164.606  1.00  0.00    -0.508 OA
ATOM     26  H   UNL     1      39.768  49.241 164.243  1.00  0.00     0.293 HD
ENDBRANCH  11  25
ENDBRANCH   1   2
BRANCH   1  27
ATOM     27  C   UNL     1      33.741  45.372 159.555  1.00  0.00     0.339 C 
ATOM     28  C   UNL     1      32.459  44.484 159.601  1.00  0.00     0.214 C 
ATOM     29  O   UNL     1      33.715  46.457 160.478  1.00  0.00    -0.332 OA
ATOM     30  C   UNL     1      31.858  44.507 161.019  1.00  0.00     0.180 C 
ATOM     31  C   UNL     1      32.418  47.002 160.680  1.00  0.00     0.179 C 
ATOM     32  C   UNL     1      31.431  45.959 161.311  1.00  0.00     0.177 C 
BRANCH  28  33
ATOM     33  O   UNL     1      32.677  43.163 159.155  1.00  0.00    -0.384 OA
ATOM     34  H   UNL     1      33.371  43.181 158.453  1.00  0.00     0.211 HD
ENDBRANCH  28  33
BRANCH  30  35
ATOM     35  O   UNL     1      32.835  44.063 161.929  1.00  0.00    -0.387 OA
ATOM     36  H   UNL     1      33.617  43.723 161.429  1.00  0.00     0.211 HD
ENDBRANCH  30  35
BRANCH  31  37
ATOM     37  C   UNL     1      32.554  48.280 161.519  1.00  0.00     0.191 C 
BRANCH  37  38
ATOM     38  O   UNL     1      31.291  48.879 161.692  1.00  0.00    -0.394 OA
ATOM     39  H   UNL     1      30.640  48.348 161.174  1.00  0.00     0.210 HD
ENDBRANCH  37  38
ENDBRANCH  31  37
BRANCH  32  40
ATOM     40  O   UNL     1      31.225  46.158 162.694  1.00  0.00    -0.387 OA
ATOM     41  H   UNL     1      31.747  45.447 163.153  1.00  0.00     0.211 HD
ENDBRANCH  32  40
ENDBRANCH   1  27
TORSDOF 12
ENDMDL
MODEL 2
REMARK VINA RESULT:    -7.889      1.870      6.491
REMARK INTER + INTRA:         -13.205
REMARK INTER:                 -11.641
REMARK INTRA:                  -1.564
REMARK UNBOUND:                -1.626
REMARK SMILES O=c1c(O[C@@H]2O[C@H](CO)[C@H](O)[C@H](O)[C@@H]2O)c(-c2ccc(O)c(O)c2)oc2cc(O)cc(O)c12
REMARK SMILES IDX 4 1 3 2 16 3 25 4 2 5 26 6 1 7 33 8 27 9 31 10 28 11 30 12
REMARK SMILES IDX 17 13 18 14 19 15 20 16 24 17 22 18 21 19 23 21 32 23 29 25
REMARK SMILES IDX 5 27 14 28 6 29 12 30 7 31 10 32 15 33 13 35 8 37 9 38 11 40
REMARK H PARENT 21 20 23 22 32 24 29 26 15 34 13 36 9 39 11 41
REMARK Flexibility Score: inf
ROOT
ATOM      1  O   UNL     1      35.882  48.718 160.292  1.00  0.00    -0.454 OA
ENDROOT
BRANCH   1   2
ATOM      2  C   UNL     1      36.661  47.830 159.536  1.00  0.00     0.214 A 
ATOM      3  C   UNL     1      37.189  46.661 160.101  1.00  0.00     0.180 A 
ATOM      4  O   UNL     1      37.497  45.637 159.308  1.00  0.00    -0.452 OA
ATOM      5  C   UNL     1      36.782  48.011 158.148  1.00  0.00     0.239 A 
ATOM      6  C   UNL     1      37.455  45.701 157.976  1.00  0.00     0.146 A 
ATOM      7  O   UNL     1      36.479  49.125 157.673  1.00  0.00    -0.285 OA
ATOM      8  C   UNL     1      37.202  46.938 157.331  1.00  0.00     0.111 A 
ATOM      9  C   UNL     1      37.702  44.547 157.241  1.00  0.00     0.094 A 
ATOM     10  C   UNL     1      37.343  46.988 155.907  1.00  0.00     0.134 A 
ATOM     11  C   UNL     1      37.757  44.583 155.859  1.00  0.00     0.123 A 
ATOM     12  C   UNL     1      37.579  45.806 155.197  1.00  0.00     0.093 A 
BRANCH   3  13
ATOM     13  C   UNL     1      37.455  46.542 161.541  1.00  0.00     0.025 A 
ATOM     14  C   UNL     1      36.909  45.451 162.246  1.00  0.00     0.016 A 
ATOM     15  C   UNL     1      37.200  45.257 163.604  1.00  0.00     0.051 A 
ATOM     16  C   UNL     1      38.007  46.171 164.273  1.00  0.00     0.157 A 
ATOM     17  C   UNL     1      38.218  47.488 162.236  1.00  0.00     0.062 A 
ATOM     18  C   UNL     1      38.500  47.307 163.597  1.00  0.00     0.158 A 
BRANCH  16  19
ATOM     19  O   UNL     1      38.301  45.997 165.625  1.00  0.00    -0.504 OA
ATOM     20  H   UNL     1      38.089  46.688 166.327  1.00  0.00     0.293 HD
ENDBRANCH  16  19
BRANCH  18  21
ATOM     21  O   UNL     1      39.263  48.270 164.280  1.00  0.00    -0.504 OA
ATOM     22  H   UNL     1      38.843  49.108 164.657  1.00  0.00     0.293 HD
ENDBRANCH  18  21
ENDBRANCH   3  13
BRANCH  10  23
ATOM     23  O   UNL     1      37.288  48.175 155.157  1.00  0.00    -0.507 OA
ATOM     24  H   UNL     1      36.439  48.645 154.859  1.00  0.00     0.293 HD
ENDBRANCH  10  23
BRANCH  11  25
ATOM     25  O   UNL     1      37.986  43.418 155.138  1.00  0.00    -0.508 OA
ATOM     26  H   UNL     1      37.212  42.776 154.952  1.00  0.00     0.293 HD
ENDBRANCH  11  25
ENDBRANCH   1   2
BRANCH   1  27
ATOM     27  C   UNL     1      34.619  48.428 160.908  1.00  0.00     0.339 C 
ATOM     28  C   UNL     1      33.728  49.706 160.837  1.00  0.00     0.214 C 
ATOM     29  O   UNL     1      34.082  47.319 160.192  1.00  0.00    -0.332 OA
ATOM     30  C   UNL     1      32.944  49.724 159.510  1.00  0.00     0.180 C 
ATOM     31  C   UNL     1      32.661  47.259 160.217  1.00  0.00     0.179 C 
ATOM     32  C   UNL     1      32.007  48.501 159.517  1.00  0.00     0.177 C 
BRANCH  28  33
ATOM     33  O   UNL     1      34.450  50.904 161.025  1.00  0.00    -0.384 OA
ATOM     34  H   UNL     1      34.728  50.955 161.971  1.00  0.00     0.211 HD
ENDBRANCH  28  33
BRANCH  30  35
ATOM     35  O   UNL     1      33.863  49.666 158.446  1.00  0.00    -0.387 OA
ATOM     36  H   UNL     1      33.696  48.850 157.913  1.00  0.00     0.211 HD
ENDBRANCH  30  35
BRANCH  31  37
ATOM     37  C   UNL     1      32.222  45.924 159.601  1.00  0.00     0.191 C 
BRANCH  37  38
ATOM     38  O   UNL     1      33.033  45.617 158.491  1.00  0.00    -0.394 OA
ATOM     39  H   UNL     1      32.456  45.637 157.691  1.00  0.00     0.210 HD
ENDBRANCH  37  38
ENDBRANCH  31  37
BRANCH  32  40
ATOM     40  O   UNL     1      31.535  48.217 158.216  1.00  0.00    -0.387 OA
ATOM     41  H   UNL     1      30.820  48.883 158.034  1.00  0.00     0.211 HD
ENDBRANCH  32  40
ENDBRANCH   1  27
TORSDOF 12
ENDMDL
MODEL 3
REMARK VINA RESULT:    -7.872      1.633      2.129
REMARK INTER + INTRA:         -13.180
REMARK INTER:                 -11.737
REMARK INTRA:                  -1.443
REMARK UNBOUND:                -1.626
REMARK SMILES O=c1c(O[C@@H]2O[C@H](CO)[C@H](O)[C@H](O)[C@@H]2O)c(-c2ccc(O)c(O)c2)oc2cc(O)cc(O)c12
REMARK SMILES IDX 4 1 3 2 16 3 25 4 2 5 26 6 1 7 33 8 27 9 31 10 28 11 30 12
REMARK SMILES IDX 17 13 18 14 19 15 20 16 24 17 22 18 21 19 23 21 32 23 29 25
REMARK SMILES IDX 5 27 14 28 6 29 12 30 7 31 10 32 15 33 13 35 8 37 9 38 11 40
REMARK H PARENT 21 20 23 22 32 24 29 26 15 34 13 36 9 39 11 41
REMARK Flexibility Score: inf
ROOT
ATOM      1  O   UNL     1      34.547  45.957 159.376  1.00  0.00    -0.454 OA
ENDROOT
BRANCH   1   2
ATOM      2  C   UNL     1      35.700  45.693 160.128  1.00  0.00     0.214 A 
ATOM      3  C   UNL     1      36.980  45.886 159.590  1.00  0.00     0.180 A 
ATOM      4  O   UNL     1      38.007  46.090 160.412  1.00  0.00    -0.452 OA
ATOM      5  C   UNL     1      35.593  45.393 161.496  1.00  0.00     0.239 A 
ATOM      6  C   UNL     1      37.915  45.995 161.740  1.00  0.00     0.146 A 
ATOM      7  O   UNL     1      34.477  45.043 161.934  1.00  0.00    -0.285 OA
ATOM      8  C   UNL     1      36.719  45.526 162.338  1.00  0.00     0.111 A 
ATOM      9  C   UNL     1      39.023  46.323 162.513  1.00  0.00     0.094 A 
ATOM     10  C   UNL     1      36.733  45.274 163.748  1.00  0.00     0.134 A 
ATOM     11  C   UNL     1      39.005  46.154 163.887  1.00  0.00     0.123 A 
ATOM     12  C   UNL     1      37.859  45.628 164.498  1.00  0.00     0.093 A 
BRANCH   3  13
ATOM     13  C   UNL     1      37.236  45.826 158.144  1.00  0.00     0.025 A 
ATOM     14  C   UNL     1      37.489  47.025 157.448  1.00  0.00     0.016 A 
ATOM     15  C   UNL     1      37.812  47.008 156.085  1.00  0.00     0.051 A 
ATOM     16  C   UNL     1      37.849  45.797 155.401  1.00  0.00     0.157 A 
ATOM     17  C   UNL     1      37.218  44.619 157.435  1.00  0.00     0.062 A 
ATOM     18  C   UNL     1      37.526  44.597 156.069  1.00  0.00     0.158 A 
BRANCH  16  19
ATOM     19  O   UNL     1      38.162  45.762 154.042  1.00  0.00    -0.504 OA
ATOM     20  H   UNL     1      38.997  45.327 153.681  1.00  0.00     0.293 HD
ENDBRANCH  16  19
BRANCH  18  21
ATOM     21  O   UNL     1      37.497  43.376 155.372  1.00  0.00    -0.504 OA
ATOM     22  H   UNL     1      37.776  42.510 155.810  1.00  0.00     0.293 HD
ENDBRANCH  18  21
ENDBRANCH   3  13
BRANCH  10  23
ATOM     23  O   UNL     1      35.680  44.654 164.442  1.00  0.00    -0.507 OA
ATOM     24  H   UNL     1      34.716  44.606 164.128  1.00  0.00     0.293 HD
ENDBRANCH  10  23
BRANCH  11  25
ATOM     25  O   UNL     1      40.112  46.505 164.649  1.00  0.00    -0.508 OA
ATOM     26  H   UNL     1      40.045  47.275 165.318  1.00  0.00     0.293 HD
ENDBRANCH  11  25
ENDBRANCH   1   2
BRANCH   1  27
ATOM     27  C   UNL     1      34.146  47.232 158.854  1.00  0.00     0.339 C 
ATOM     28  C   UNL     1      32.588  47.307 158.872  1.00  0.00     0.214 C 
ATOM     29  O   UNL     1      34.772  48.207 159.682  1.00  0.00    -0.332 OA
ATOM     30  C   UNL     1      32.107  47.845 160.234  1.00  0.00     0.180 C 
ATOM     31  C   UNL     1      34.071  49.442 159.739  1.00  0.00     0.179 C 
ATOM     32  C   UNL     1      32.646  49.282 160.373  1.00  0.00     0.177 C 
BRANCH  28  33
ATOM     33  O   UNL     1      31.964  46.083 158.552  1.00  0.00    -0.384 OA
ATOM     34  H   UNL     1      30.990  46.235 158.493  1.00  0.00     0.211 HD
ENDBRANCH  28  33
BRANCH  30  35
ATOM     35  O   UNL     1      32.602  47.006 161.248  1.00  0.00    -0.387 OA
ATOM     36  H   UNL     1      33.473  46.633 160.969  1.00  0.00     0.211 HD
ENDBRANCH  30  35
BRANCH  31  37
ATOM     37  C   UNL     1      34.945  50.462 160.480  1.00  0.00     0.191 C 
BRANCH  37  38
ATOM     38  O   UNL     1      35.990  50.899 159.643  1.00  0.00    -0.394 OA
ATOM     39  H   UNL     1      35.585  51.449 158.930  1.00  0.00     0.210 HD
ENDBRANCH  37  38
ENDBRANCH  31  37
BRANCH  32  40
ATOM     40  O   UNL     1      32.586  49.717 161.716  1.00  0.00    -0.387 OA
ATOM     41  H   UNL     1      32.348  50.682 161.680  1.00  0.00     0.211 HD
ENDBRANCH  32  40
ENDBRANCH   1  27
TORSDOF 12
ENDMDL
MODEL 4
REMARK VINA RESULT:    -7.798      1.497      6.216
REMARK INTER + INTRA:         -13.071
REMARK INTER:                 -11.610
REMARK INTRA:                  -1.461
REMARK UNBOUND:                -1.626
REMARK SMILES O=c1c(O[C@@H]2O[C@H](CO)[C@H](O)[C@H](O)[C@@H]2O)c(-c2ccc(O)c(O)c2)oc2cc(O)cc(O)c12
REMARK SMILES IDX 4 1 3 2 16 3 25 4 2 5 26 6 1 7 33 8 27 9 31 10 28 11 30 12
REMARK SMILES IDX 17 13 18 14 19 15 20 16 24 17 22 18 21 19 23 21 32 23 29 25
REMARK SMILES IDX 5 27 14 28 6 29 12 30 7 31 10 32 15 33 13 35 8 37 9 38 11 40
REMARK H PARENT 21 20 23 22 32 24 29 26 15 34 13 36 9 39 11 41
REMARK Flexibility Score: inf
ROOT
ATOM      1  O   UNL     1      34.934  47.310 160.681  1.00  0.00    -0.454 OA
ENDROOT
BRANCH   1   2
ATOM      2  C   UNL     1      36.023  47.157 159.811  1.00  0.00     0.214 A 
ATOM      3  C   UNL     1      37.205  46.529 160.228  1.00  0.00     0.180 A 
ATOM      4  O   UNL     1      38.005  45.980 159.317  1.00  0.00    -0.452 OA
ATOM      5  C   UNL     1      35.885  47.477 158.450  1.00  0.00     0.239 A 
ATOM      6  C   UNL     1      37.815  46.104 158.002  1.00  0.00     0.146 A 
ATOM      7  O   UNL     1      34.921  48.195 158.112  1.00  0.00    -0.285 OA
ATOM      8  C   UNL     1      36.801  46.961 157.507  1.00  0.00     0.111 A 
ATOM      9  C   UNL     1      38.654  45.411 157.136  1.00  0.00     0.094 A 
ATOM     10  C   UNL     1      36.755  47.194 156.095  1.00  0.00     0.134 A 
ATOM     11  C   UNL     1      38.553  45.577 155.766  1.00  0.00     0.123 A 
ATOM     12  C   UNL     1      37.603  46.471 155.251  1.00  0.00     0.093 A 
BRANCH   3  13
ATOM     13  C   UNL     1      37.614  46.493 161.639  1.00  0.00     0.025 A 
ATOM     14  C   UNL     1      37.504  45.281 162.349  1.00  0.00     0.016 A 
ATOM     15  C   UNL     1      37.953  45.182 163.673  1.00  0.00     0.051 A 
ATOM     16  C   UNL     1      38.480  46.303 164.307  1.00  0.00     0.157 A 
ATOM     17  C   UNL     1      38.090  47.630 162.303  1.00  0.00     0.062 A 
ATOM     18  C   UNL     1      38.527  47.541 163.631  1.00  0.00     0.158 A 
BRANCH  16  19
ATOM     19  O   UNL     1      38.925  46.224 165.626  1.00  0.00    -0.504 OA
ATOM     20  H   UNL     1      39.729  46.728 165.967  1.00  0.00     0.293 HD
ENDBRANCH  16  19
BRANCH  18  21
ATOM     21  O   UNL     1      38.997  48.694 164.285  1.00  0.00    -0.504 OA
ATOM     22  H   UNL     1      39.110  49.570 163.796  1.00  0.00     0.293 HD
ENDBRANCH  18  21
ENDBRANCH   3  13
BRANCH  10  23
ATOM     23  O   UNL     1      35.917  48.144 155.487  1.00  0.00    -0.507 OA
ATOM     24  H   UNL     1      35.422  48.887 155.969  1.00  0.00     0.293 HD
ENDBRANCH  10  23
BRANCH  11  25
ATOM     25  O   UNL     1      39.384  44.863 154.912  1.00  0.00    -0.508 OA
ATOM     26  H   UNL     1      40.340  44.642 155.201  1.00  0.00     0.293 HD
ENDBRANCH  11  25
ENDBRANCH   1   2
BRANCH   1  27
ATOM     27  C   UNL     1      34.162  46.255 161.271  1.00  0.00     0.339 C 
ATOM     28  C   UNL     1      32.689  46.745 161.429  1.00  0.00     0.214 C 
ATOM     29  O   UNL     1      34.299  45.137 160.399  1.00  0.00    -0.332 OA
ATOM     30  C   UNL     1      31.899  46.444 160.141  1.00  0.00     0.180 C 
ATOM     31  C   UNL     1      33.199  44.238 160.447  1.00  0.00     0.179 C 
ATOM     32  C   UNL     1      31.865  44.913 159.972  1.00  0.00     0.177 C 
BRANCH  28  33
ATOM     33  O   UNL     1      32.588  48.105 161.790  1.00  0.00    -0.384 OA
ATOM     34  H   UNL     1      31.795  48.489 161.342  1.00  0.00     0.211 HD
ENDBRANCH  28  33
BRANCH  30  35
ATOM     35  O   UNL     1      32.546  47.070 159.060  1.00  0.00    -0.387 OA
ATOM     36  H   UNL     1      32.777  46.392 158.379  1.00  0.00     0.211 HD
ENDBRANCH  30  35
BRANCH  31  37
ATOM     37  C   UNL     1      33.559  42.987 159.635  1.00  0.00     0.191 C 
BRANCH  37  38
ATOM     38  O   UNL     1      34.464  42.188 160.359  1.00  0.00    -0.394 OA
ATOM     39  H   UNL     1      34.447  42.498 161.295  1.00  0.00     0.210 HD
ENDBRANCH  37  38
ENDBRANCH  31  37
BRANCH  32  40
ATOM     40  O   UNL     1      31.504  44.556 158.654  1.00  0.00    -0.387 OA
ATOM     41  H   UNL     1      32.340  44.243 158.217  1.00  0.00     0.211 HD
ENDBRANCH  32  40
ENDBRANCH   1  27
TORSDOF 12
ENDMDL
MODEL 5
REMARK VINA RESULT:    -7.746      1.221      1.704
REMARK INTER + INTRA:         -12.995
REMARK INTER:                 -11.622
REMARK INTRA:                  -1.373
REMARK UNBOUND:                -1.626
REMARK SMILES O=c1c(O[C@@H]2O[C@H](CO)[C@H](O)[C@H](O)[C@@H]2O)c(-c2ccc(O)c(O)c2)oc2cc(O)cc(O)c12
REMARK SMILES IDX 4 1 3 2 16 3 25 4 2 5 26 6 1 7 33 8 27 9 31 10 28 11 30 12
REMARK SMILES IDX 17 13 18 14 19 15 20 16 24 17 22 18 21 19 23 21 32 23 29 25
REMARK SMILES IDX 5 27 14 28 6 29 12 30 7 31 10 32 15 33 13 35 8 37 9 38 11 40
REMARK H PARENT 21 20 23 22 32 24 29 26 15 34 13 36 9 39 11 41
REMARK Flexibility Score: inf
ROOT
ATOM      1  O   UNL     1      35.025  44.345 159.762  1.00  0.00    -0.454 OA
ENDROOT
BRANCH   1   2
ATOM      2  C   UNL     1      36.155  44.861 160.412  1.00  0.00     0.214 A 
ATOM      3  C   UNL     1      37.019  45.759 159.769  1.00  0.00     0.180 A 
ATOM      4  O   UNL     1      37.770  46.576 160.503  1.00  0.00    -0.452 OA
ATOM      5  C   UNL     1      36.346  44.621 161.783  1.00  0.00     0.239 A 
ATOM      6  C   UNL     1      37.849  46.507 161.833  1.00  0.00     0.146 A 
ATOM      7  O   UNL     1      35.700  43.693 162.312  1.00  0.00    -0.285 OA
ATOM      8  C   UNL     1      37.221  45.443 162.528  1.00  0.00     0.111 A 
ATOM      9  C   UNL     1      38.587  47.470 162.511  1.00  0.00     0.094 A 
ATOM     10  C   UNL     1      37.484  45.316 163.930  1.00  0.00     0.134 A 
ATOM     11  C   UNL     1      38.771  47.389 163.881  1.00  0.00     0.123 A 
ATOM     12  C   UNL     1      38.219  46.309 164.584  1.00  0.00     0.093 A 
BRANCH   3  13
ATOM     13  C   UNL     1      37.156  45.797 158.306  1.00  0.00     0.025 A 
ATOM     14  C   UNL     1      36.943  47.018 157.635  1.00  0.00     0.016 A 
ATOM     15  C   UNL     1      37.137  47.118 156.251  1.00  0.00     0.051 A 
ATOM     16  C   UNL     1      37.509  45.991 155.524  1.00  0.00     0.157 A 
ATOM     17  C   UNL     1      37.472  44.656 157.560  1.00  0.00     0.062 A 
ATOM     18  C   UNL     1      37.652  44.747 156.173  1.00  0.00     0.158 A 
BRANCH  16  19
ATOM     19  O   UNL     1      37.699  46.071 154.145  1.00  0.00    -0.504 OA
ATOM     20  H   UNL     1      38.265  45.416 153.629  1.00  0.00     0.293 HD
ENDBRANCH  16  19
BRANCH  18  21
ATOM     21  O   UNL     1      37.964  43.589 155.438  1.00  0.00    -0.504 OA
ATOM     22  H   UNL     1      37.970  43.589 154.429  1.00  0.00     0.293 HD
ENDBRANCH  18  21
ENDBRANCH   3  13
BRANCH  10  23
ATOM     23  O   UNL     1      37.069  44.221 164.707  1.00  0.00    -0.507 OA
ATOM     24  H   UNL     1      37.683  43.538 165.138  1.00  0.00     0.293 HD
ENDBRANCH  10  23
BRANCH  11  25
ATOM     25  O   UNL     1      39.495  48.369 164.548  1.00  0.00    -0.508 OA
ATOM     26  H   UNL     1      39.021  48.988 165.210  1.00  0.00     0.293 HD
ENDBRANCH  11  25
ENDBRANCH   1   2
BRANCH   1  27
ATOM     27  C   UNL     1      33.897  45.097 159.292  1.00  0.00     0.339 C 
ATOM     28  C   UNL     1      33.356  44.420 157.994  1.00  0.00     0.214 C 
ATOM     29  O   UNL     1      32.959  45.105 160.363  1.00  0.00    -0.332 OA
ATOM     30  C   UNL     1      32.328  43.333 158.363  1.00  0.00     0.180 C 
ATOM     31  C   UNL     1      31.609  45.245 159.939  1.00  0.00     0.179 C 
ATOM     32  C   UNL     1      31.144  44.039 159.051  1.00  0.00     0.177 C 
BRANCH  28  33
ATOM     33  O   UNL     1      34.374  43.907 157.164  1.00  0.00    -0.384 OA
ATOM     34  H   UNL     1      34.163  44.145 156.229  1.00  0.00     0.211 HD
ENDBRANCH  28  33
BRANCH  30  35
ATOM     35  O   UNL     1      32.945  42.404 159.220  1.00  0.00    -0.387 OA
ATOM     36  H   UNL     1      32.325  41.655 159.393  1.00  0.00     0.211 HD
ENDBRANCH  30  35
BRANCH  31  37
ATOM     37  C   UNL     1      30.730  45.450 161.179  1.00  0.00     0.191 C 
BRANCH  37  38
ATOM     38  O   UNL     1      31.106  44.545 162.190  1.00  0.00    -0.394 OA
ATOM     39  H   UNL     1      30.452  43.806 162.181  1.00  0.00     0.210 HD
ENDBRANCH  37  38
ENDBRANCH  31  37
BRANCH  32  40
ATOM     40  O   UNL     1      30.341  43.112 159.754  1.00  0.00    -0.387 OA
ATOM     41  H   UNL     1      29.529  42.977 159.197  1.00  0.00     0.211 HD
ENDBRANCH  32  40
ENDBRANCH   1  27
TORSDOF 12
ENDMDL
MODEL 6
REMARK VINA RESULT:    -7.667      2.511      6.508
REMARK INTER + INTRA:         -12.879
REMARK INTER:                 -11.375
REMARK INTRA:                  -1.504
REMARK UNBOUND:                -1.626
REMARK SMILES O=c1c(O[C@@H]2O[C@H](CO)[C@H](O)[C@H](O)[C@@H]2O)c(-c2ccc(O)c(O)c2)oc2cc(O)cc(O)c12
REMARK SMILES IDX 4 1 3 2 16 3 25 4 2 5 26 6 1 7 33 8 27 9 31 10 28 11 30 12
REMARK SMILES IDX 17 13 18 14 19 15 20 16 24 17 22 18 21 19 23 21 32 23 29 25
REMARK SMILES IDX 5 27 14 28 6 29 12 30 7 31 10 32 15 33 13 35 8 37 9 38 11 40
REMARK H PARENT 21 20 23 22 32 24 29 26 15 34 13 36 9 39 11 41
REMARK Flexibility Score: inf
ROOT
ATOM      1  O   UNL     1      35.790  48.504 159.970  1.00  0.00    -0.454 OA
ENDROOT
BRANCH   1   2
ATOM      2  C   UNL     1      36.618  47.671 159.204  1.00  0.00     0.214 A 
ATOM      3  C   UNL     1      37.209  46.525 159.753  1.00  0.00     0.180 A 
ATOM      4  O   UNL     1      37.575  45.531 158.947  1.00  0.00    -0.452 OA
ATOM      5  C   UNL     1      36.730  47.877 157.818  1.00  0.00     0.239 A 
ATOM      6  C   UNL     1      37.530  45.611 157.616  1.00  0.00     0.146 A 
ATOM      7  O   UNL     1      36.366  48.979 157.358  1.00  0.00    -0.285 OA
ATOM      8  C   UNL     1      37.210  46.840 156.987  1.00  0.00     0.111 A 
ATOM      9  C   UNL     1      37.842  44.482 156.867  1.00  0.00     0.094 A 
ATOM     10  C   UNL     1      37.349  46.917 155.564  1.00  0.00     0.134 A 
ATOM     11  C   UNL     1      37.896  44.540 155.485  1.00  0.00     0.123 A 
ATOM     12  C   UNL     1      37.651  45.760 154.839  1.00  0.00     0.093 A 
BRANCH   3  13
ATOM     13  C   UNL     1      37.480  46.402 161.193  1.00  0.00     0.025 A 
ATOM     14  C   UNL     1      36.751  45.458 161.944  1.00  0.00     0.016 A 
ATOM     15  C   UNL     1      37.030  45.254 163.302  1.00  0.00     0.051 A 
ATOM     16  C   UNL     1      38.013  46.016 163.926  1.00  0.00     0.157 A 
ATOM     17  C   UNL     1      38.426  47.204 161.842  1.00  0.00     0.062 A 
ATOM     18  C   UNL     1      38.698  47.014 163.203  1.00  0.00     0.158 A 
BRANCH  16  19
ATOM     19  O   UNL     1      38.298  45.830 165.278  1.00  0.00    -0.504 OA
ATOM     20  H   UNL     1      38.018  45.009 165.792  1.00  0.00     0.293 HD
ENDBRANCH  16  19
BRANCH  18  21
ATOM     21  O   UNL     1      39.648  47.834 163.840  1.00  0.00    -0.504 OA
ATOM     22  H   UNL     1      39.636  48.838 163.734  1.00  0.00     0.293 HD
ENDBRANCH  18  21
ENDBRANCH   3  13
BRANCH  10  23
ATOM     23  O   UNL     1      37.229  48.110 154.831  1.00  0.00    -0.507 OA
ATOM     24  H   UNL     1      36.910  48.181 153.870  1.00  0.00     0.293 HD
ENDBRANCH  10  23
BRANCH  11  25
ATOM     25  O   UNL     1      38.190  43.400 154.748  1.00  0.00    -0.508 OA
ATOM     26  H   UNL     1      39.164  43.161 154.549  1.00  0.00     0.293 HD
ENDBRANCH  11  25
ENDBRANCH   1   2
BRANCH   1  27
ATOM     27  C   UNL     1      34.527  48.146 160.549  1.00  0.00     0.339 C 
ATOM     28  C   UNL     1      34.429  48.795 161.965  1.00  0.00     0.214 C 
ATOM     29  O   UNL     1      33.535  48.613 159.639  1.00  0.00    -0.332 OA
ATOM     30  C   UNL     1      33.842  50.214 161.849  1.00  0.00     0.180 C 
ATOM     31  C   UNL     1      32.289  48.908 160.257  1.00  0.00     0.179 C 
ATOM     32  C   UNL     1      32.409  50.073 161.300  1.00  0.00     0.177 C 
BRANCH  28  33
ATOM     33  O   UNL     1      35.654  48.799 162.665  1.00  0.00    -0.384 OA
ATOM     34  H   UNL     1      36.289  49.378 162.179  1.00  0.00     0.211 HD
ENDBRANCH  28  33
BRANCH  30  35
ATOM     35  O   UNL     1      34.656  50.968 160.983  1.00  0.00    -0.387 OA
ATOM     36  H   UNL     1      34.275  51.874 160.882  1.00  0.00     0.211 HD
ENDBRANCH  30  35
BRANCH  31  37
ATOM     37  C   UNL     1      31.259  49.194 159.156  1.00  0.00     0.191 C 
BRANCH  37  38
ATOM     38  O   UNL     1      31.850  49.954 158.129  1.00  0.00    -0.394 OA
ATOM     39  H   UNL     1      32.224  50.768 158.543  1.00  0.00     0.210 HD
ENDBRANCH  37  38
ENDBRANCH  31  37
BRANCH  32  40
ATOM     40  O   UNL     1      31.931  51.308 160.807  1.00  0.00    -0.387 OA
ATOM     41  H   UNL     1      32.040  51.959 161.550  1.00  0.00     0.211 HD
ENDBRANCH  32  40
ENDBRANCH   1  27
TORSDOF 12
ENDMDL
MODEL 7
REMARK VINA RESULT:    -7.519      2.367      6.546
REMARK INTER + INTRA:         -12.662
REMARK INTER:                 -11.020
REMARK INTRA:                  -1.642
REMARK UNBOUND:                -1.626
REMARK SMILES O=c1c(O[C@@H]2O[C@H](CO)[C@H](O)[C@H](O)[C@@H]2O)c(-c2ccc(O)c(O)c2)oc2cc(O)cc(O)c12
REMARK SMILES IDX 4 1 3 2 16 3 25 4 2 5 26 6 1 7 33 8 27 9 31 10 28 11 30 12
REMARK SMILES IDX 17 13 18 14 19 15 20 16 24 17 22 18 21 19 23 21 32 23 29 25
REMARK SMILES IDX 5 27 14 28 6 29 12 30 7 31 10 32 15 33 13 35 8 37 9 38 11 40
REMARK H PARENT 21 20 23 22 32 24 29 26 15 34 13 36 9 39 11 41
REMARK Flexibility Score: inf
ROOT
ATOM      1  O   UNL     1      35.079  47.559 158.540  1.00  0.00    -0.454 OA
ENDROOT
BRANCH   1   2
ATOM      2  C   UNL     1      36.134  46.926 157.867  1.00  0.00     0.214 A 
ATOM      3  C   UNL     1      36.890  45.918 158.481  1.00  0.00     0.180 A 
ATOM      4  O   UNL     1      37.533  45.033 157.723  1.00  0.00    -0.452 OA
ATOM      5  C   UNL     1      36.341  47.171 156.499  1.00  0.00     0.239 A 
ATOM      6  C   UNL     1      37.607  45.121 156.394  1.00  0.00     0.146 A 
ATOM      7  O   UNL     1      35.806  48.181 155.996  1.00  0.00    -0.285 OA
ATOM      8  C   UNL     1      37.105  46.267 155.728  1.00  0.00     0.111 A 
ATOM      9  C   UNL     1      38.219  44.092 155.687  1.00  0.00     0.094 A 
ATOM     10  C   UNL     1      37.369  46.392 154.326  1.00  0.00     0.134 A 
ATOM     11  C   UNL     1      38.400  44.180 154.318  1.00  0.00     0.123 A 
ATOM     12  C   UNL     1      37.975  45.333 153.643  1.00  0.00     0.093 A 
BRANCH   3  13
ATOM     13  C   UNL     1      37.034  45.832 159.942  1.00  0.00     0.025 A 
ATOM     14  C   UNL     1      36.237  44.912 160.651  1.00  0.00     0.016 A 
ATOM     15  C   UNL     1      36.395  44.743 162.033  1.00  0.00     0.051 A 
ATOM     16  C   UNL     1      37.324  45.517 162.720  1.00  0.00     0.157 A 
ATOM     17  C   UNL     1      37.925  46.648 160.650  1.00  0.00     0.062 A 
ATOM     18  C   UNL     1      38.077  46.493 162.034  1.00  0.00     0.158 A 
BRANCH  16  19
ATOM     19  O   UNL     1      37.489  45.367 164.096  1.00  0.00    -0.504 OA
ATOM     20  H   UNL     1      36.730  45.142 164.720  1.00  0.00     0.293 HD
ENDBRANCH  16  19
BRANCH  18  21
ATOM     21  O   UNL     1      38.972  47.325 162.730  1.00  0.00    -0.504 OA
ATOM     22  H   UNL     1      38.809  47.592 163.689  1.00  0.00     0.293 HD
ENDBRANCH  18  21
ENDBRANCH   3  13
BRANCH  10  23
ATOM     23  O   UNL     1      37.081  47.545 153.576  1.00  0.00    -0.507 OA
ATOM     24  H   UNL     1      37.358  47.706 152.613  1.00  0.00     0.293 HD
ENDBRANCH  10  23
BRANCH  11  25
ATOM     25  O   UNL     1      38.996  43.135 153.623  1.00  0.00    -0.508 OA
ATOM     26  H   UNL     1      38.436  42.568 152.982  1.00  0.00     0.293 HD
ENDBRANCH  11  25
ENDBRANCH   1   2
BRANCH   1  27
ATOM     27  C   UNL     1      35.113  48.862 159.137  1.00  0.00     0.339 C 
ATOM     28  C   UNL     1      33.802  49.617 158.756  1.00  0.00     0.214 C 
ATOM     29  O   UNL     1      35.258  48.646 160.538  1.00  0.00    -0.332 OA
ATOM     30  C   UNL     1      32.700  49.302 159.786  1.00  0.00     0.180 C 
ATOM     31  C   UNL     1      34.725  49.695 161.335  1.00  0.00     0.179 C 
ATOM     32  C   UNL     1      33.176  49.849 161.145  1.00  0.00     0.177 C 
BRANCH  28  33
ATOM     33  O   UNL     1      33.368  49.355 157.440  1.00  0.00    -0.384 OA
ATOM     34  H   UNL     1      34.042  49.711 156.812  1.00  0.00     0.211 HD
ENDBRANCH  28  33
BRANCH  30  35
ATOM     35  O   UNL     1      32.509  47.909 159.827  1.00  0.00    -0.387 OA
ATOM     36  H   UNL     1      32.902  47.500 159.018  1.00  0.00     0.211 HD
ENDBRANCH  30  35
BRANCH  31  37
ATOM     37  C   UNL     1      35.127  49.447 162.795  1.00  0.00     0.191 C 
BRANCH  37  38
ATOM     38  O   UNL     1      36.528  49.337 162.895  1.00  0.00    -0.394 OA
ATOM     39  H   UNL     1      36.805  49.831 163.703  1.00  0.00     0.210 HD
ENDBRANCH  37  38
ENDBRANCH  31  37
BRANCH  32  40
ATOM     40  O   UNL     1      32.430  49.288 162.206  1.00  0.00    -0.387 OA
ATOM     41  H   UNL     1      31.799  48.645 161.786  1.00  0.00     0.211 HD
ENDBRANCH  32  40
ENDBRANCH   1  27
TORSDOF 12
ENDMDL
MODEL 8
REMARK VINA RESULT:    -7.330      2.117      6.731
REMARK INTER + INTRA:         -12.385
REMARK INTER:                 -11.498
REMARK INTRA:                  -0.887
REMARK UNBOUND:                -1.626
REMARK SMILES O=c1c(O[C@@H]2O[C@H](CO)[C@H](O)[C@H](O)[C@@H]2O)c(-c2ccc(O)c(O)c2)oc2cc(O)cc(O)c12
REMARK SMILES IDX 4 1 3 2 16 3 25 4 2 5 26 6 1 7 33 8 27 9 31 10 28 11 30 12
REMARK SMILES IDX 17 13 18 14 19 15 20 16 24 17 22 18 21 19 23 21 32 23 29 25
REMARK SMILES IDX 5 27 14 28 6 29 12 30 7 31 10 32 15 33 13 35 8 37 9 38 11 40
REMARK H PARENT 21 20 23 22 32 24 29 26 15 34 13 36 9 39 11 41
REMARK Flexibility Score: inf
ROOT
ATOM      1  O   UNL     1      36.908  46.260 159.312  1.00  0.00    -0.454 OA
ENDROOT
BRANCH   1   2
ATOM      2  C   UNL     1      36.539  46.484 157.979  1.00  0.00     0.214 A 
ATOM      3  C   UNL     1      35.873  47.655 157.593  1.00  0.00     0.180 A 
ATOM      4  O   UNL     1      35.953  48.063 156.329  1.00  0.00    -0.452 OA
ATOM      5  C   UNL     1      36.986  45.611 156.972  1.00  0.00     0.239 A 
ATOM      6  C   UNL     1      36.531  47.348 155.362  1.00  0.00     0.146 A 
ATOM      7  O   UNL     1      37.413  44.489 157.315  1.00  0.00    -0.285 OA
ATOM      8  C   UNL     1      36.976  46.028 155.622  1.00  0.00     0.111 A 
ATOM      9  C   UNL     1      36.648  47.907 154.094  1.00  0.00     0.094 A 
ATOM     10  C   UNL     1      37.425  45.244 154.511  1.00  0.00     0.134 A 
ATOM     11  C   UNL     1      37.158  47.172 153.038  1.00  0.00     0.123 A 
ATOM     12  C   UNL     1      37.543  45.841 153.252  1.00  0.00     0.093 A 
BRANCH   3  13
ATOM     13  C   UNL     1      35.048  48.429 158.532  1.00  0.00     0.025 A 
ATOM     14  C   UNL     1      33.692  48.083 158.691  1.00  0.00     0.016 A 
ATOM     15  C   UNL     1      32.889  48.743 159.631  1.00  0.00     0.051 A 
ATOM     16  C   UNL     1      33.427  49.778 160.390  1.00  0.00     0.157 A 
ATOM     17  C   UNL     1      35.565  49.509 159.258  1.00  0.00     0.062 A 
ATOM     18  C   UNL     1      34.763  50.182 160.188  1.00  0.00     0.158 A 
BRANCH  16  19
ATOM     19  O   UNL     1      32.640  50.450 161.324  1.00  0.00    -0.504 OA
ATOM     20  H   UNL     1      32.483  51.446 161.297  1.00  0.00     0.293 HD
ENDBRANCH  16  19
BRANCH  18  21
ATOM     21  O   UNL     1      35.297  51.269 160.905  1.00  0.00    -0.504 OA
ATOM     22  H   UNL     1      34.702  51.971 161.320  1.00  0.00     0.293 HD
ENDBRANCH  18  21
ENDBRANCH   3  13
BRANCH  10  23
ATOM     23  O   UNL     1      37.734  43.876 154.593  1.00  0.00    -0.507 OA
ATOM     24  H   UNL     1      38.645  43.466 154.413  1.00  0.00     0.293 HD
ENDBRANCH  10  23
BRANCH  11  25
ATOM     25  O   UNL     1      37.287  47.750 151.782  1.00  0.00    -0.508 OA
ATOM     26  H   UNL     1      36.778  48.609 151.563  1.00  0.00     0.293 HD
ENDBRANCH  11  25
ENDBRANCH   1   2
BRANCH   1  27
ATOM     27  C   UNL     1      36.752  45.037 160.044  1.00  0.00     0.339 C 
ATOM     28  C   UNL     1      37.041  45.320 161.551  1.00  0.00     0.214 C 
ATOM     29  O   UNL     1      35.420  44.599 159.793  1.00  0.00    -0.332 OA
ATOM     30  C   UNL     1      35.747  45.769 162.255  1.00  0.00     0.180 C 
ATOM     31  C   UNL     1      34.876  43.799 160.835  1.00  0.00     0.179 C 
ATOM     32  C   UNL     1      34.755  44.592 162.183  1.00  0.00     0.177 C 
BRANCH  28  33
ATOM     33  O   UNL     1      38.087  46.243 161.757  1.00  0.00    -0.384 OA
ATOM     34  H   UNL     1      37.881  46.773 162.565  1.00  0.00     0.211 HD
ENDBRANCH  28  33
BRANCH  30  35
ATOM     35  O   UNL     1      35.248  46.907 161.595  1.00  0.00    -0.387 OA
ATOM     36  H   UNL     1      34.262  46.916 161.658  1.00  0.00     0.211 HD
ENDBRANCH  30  35
BRANCH  31  37
ATOM     37  C   UNL     1      33.537  43.224 160.356  1.00  0.00     0.191 C 
BRANCH  37  38
ATOM     38  O   UNL     1      33.758  42.267 159.346  1.00  0.00    -0.394 OA
ATOM     39  H   UNL     1      33.459  41.395 159.697  1.00  0.00     0.210 HD
ENDBRANCH  37  38
ENDBRANCH  31  37
BRANCH  32  40
ATOM     40  O   UNL     1      33.437  45.023 162.454  1.00  0.00    -0.387 OA
ATOM     41  H   UNL     1      32.896  44.763 161.661  1.00  0.00     0.211 HD
ENDBRANCH  32  40
ENDBRANCH   1  27
TORSDOF 12
ENDMDL
MODEL 9
REMARK VINA RESULT:    -7.208      2.070      5.980
REMARK INTER + INTRA:         -12.205
REMARK INTER:                 -10.488
REMARK INTRA:                  -1.717
REMARK UNBOUND:                -1.626
REMARK SMILES O=c1c(O[C@@H]2O[C@H](CO)[C@H](O)[C@H](O)[C@@H]2O)c(-c2ccc(O)c(O)c2)oc2cc(O)cc(O)c12
REMARK SMILES IDX 4 1 3 2 16 3 25 4 2 5 26 6 1 7 33 8 27 9 31 10 28 11 30 12
REMARK SMILES IDX 17 13 18 14 19 15 20 16 24 17 22 18 21 19 23 21 32 23 29 25
REMARK SMILES IDX 5 27 14 28 6 29 12 30 7 31 10 32 15 33 13 35 8 37 9 38 11 40
REMARK H PARENT 21 20 23 22 32 24 29 26 15 34 13 36 9 39 11 41
REMARK Flexibility Score: inf
ROOT
ATOM      1  O   UNL     1      33.435  45.656 161.511  1.00  0.00    -0.454 OA
ENDROOT
BRANCH   1   2
ATOM      2  C   UNL     1      34.589  46.021 160.802  1.00  0.00     0.214 A 
ATOM      3  C   UNL     1      35.822  45.403 161.050  1.00  0.00     0.180 A 
ATOM      4  O   UNL     1      36.753  45.404 160.099  1.00  0.00    -0.452 OA
ATOM      5  C   UNL     1      34.492  46.896 159.707  1.00  0.00     0.239 A 
ATOM      6  C   UNL     1      36.632  46.077 158.954  1.00  0.00     0.146 A 
ATOM      7  O   UNL     1      33.455  47.582 159.594  1.00  0.00    -0.285 OA
ATOM      8  C   UNL     1      35.534  46.952 158.755  1.00  0.00     0.111 A 
ATOM      9  C   UNL     1      37.619  45.935 157.985  1.00  0.00     0.094 A 
ATOM     10  C   UNL     1      35.545  47.781 157.587  1.00  0.00     0.134 A 
ATOM     11  C   UNL     1      37.583  46.679 156.819  1.00  0.00     0.123 A 
ATOM     12  C   UNL     1      36.545  47.602 156.626  1.00  0.00     0.093 A 
BRANCH   3  13
ATOM     13  C   UNL     1      36.140  44.789 162.347  1.00  0.00     0.025 A 
ATOM     14  C   UNL     1      36.587  45.613 163.399  1.00  0.00     0.016 A 
ATOM     15  C   UNL     1      36.828  45.081 164.673  1.00  0.00     0.051 A 
ATOM     16  C   UNL     1      36.661  43.717 164.893  1.00  0.00     0.157 A 
ATOM     17  C   UNL     1      36.031  43.409 162.562  1.00  0.00     0.062 A 
ATOM     18  C   UNL     1      36.286  42.870 163.830  1.00  0.00     0.158 A 
BRANCH  16  19
ATOM     19  O   UNL     1      36.904  43.171 166.153  1.00  0.00    -0.504 OA
ATOM     20  H   UNL     1      37.670  42.543 166.342  1.00  0.00     0.293 HD
ENDBRANCH  16  19
BRANCH  18  21
ATOM     21  O   UNL     1      36.176  41.482 164.027  1.00  0.00    -0.504 OA
ATOM     22  H   UNL     1      36.945  40.938 164.391  1.00  0.00     0.293 HD
ENDBRANCH  18  21
ENDBRANCH   3  13
BRANCH  10  23
ATOM     23  O   UNL     1      34.615  48.807 157.349  1.00  0.00    -0.507 OA
ATOM     24  H   UNL     1      34.636  49.449 156.563  1.00  0.00     0.293 HD
ENDBRANCH  10  23
BRANCH  11  25
ATOM     25  O   UNL     1      38.565  46.512 155.851  1.00  0.00    -0.508 OA
ATOM     26  H   UNL     1      38.305  46.199 154.913  1.00  0.00     0.293 HD
ENDBRANCH  11  25
ENDBRANCH   1   2
BRANCH   1  27
ATOM     27  C   UNL     1      32.606  44.514 161.254  1.00  0.00     0.339 C 
ATOM     28  C   UNL     1      31.189  44.786 161.848  1.00  0.00     0.214 C 
ATOM     29  O   UNL     1      32.607  44.341 159.840  1.00  0.00    -0.332 OA
ATOM     30  C   UNL     1      30.316  45.508 160.803  1.00  0.00     0.180 C 
ATOM     31  C   UNL     1      31.439  43.702 159.343  1.00  0.00     0.179 C 
ATOM     32  C   UNL     1      30.146  44.550 159.609  1.00  0.00     0.177 C 
BRANCH  28  33
ATOM     33  O   UNL     1      31.220  45.491 163.069  1.00  0.00    -0.384 OA
ATOM     34  H   UNL     1      31.156  46.457 162.874  1.00  0.00     0.211 HD
ENDBRANCH  28  33
BRANCH  30  35
ATOM     35  O   UNL     1      30.962  46.698 160.423  1.00  0.00    -0.387 OA
ATOM     36  H   UNL     1      30.340  47.255 159.894  1.00  0.00     0.211 HD
ENDBRANCH  30  35
BRANCH  31  37
ATOM     37  C   UNL     1      31.653  43.387 157.857  1.00  0.00     0.191 C 
BRANCH  37  38
ATOM     38  O   UNL     1      30.582  42.614 157.369  1.00  0.00    -0.394 OA
ATOM     39  H   UNL     1      29.970  43.226 156.894  1.00  0.00     0.210 HD
ENDBRANCH  37  38
ENDBRANCH  31  37
BRANCH  32  40
ATOM     40  O   UNL     1      29.694  45.242 158.464  1.00  0.00    -0.387 OA
ATOM     41  H   UNL     1      30.100  46.148 158.515  1.00  0.00     0.211 HD
ENDBRANCH  32  40
ENDBRANCH   1  27
TORSDOF 12
ENDMDL
