MODEL 1
REMARK VINA RESULT:    -3.747      0.000      0.000
REMARK INTER + INTRA:          -9.322
REMARK INTER:                  -6.814
REMARK INTRA:                  -2.508
REMARK UNBOUND:                -2.508
REMARK SMILES CCCCCCCCCCCCCCCC(=O)[O-]
REMARK SMILES IDX 9 1 10 2 11 3 12 4 13 5 14 6 15 7 16 8 17 9 18 10 8 11 7 12
REMARK SMILES IDX 6 13 5 14 4 15 3 16 2 17 1 18
REMARK H PARENT
REMARK Flexibility Score: inf
ROOT
ATOM      1  C   UNL     1      20.700  85.123  26.558  1.00  0.00     0.000 C 
ENDROOT
BRANCH   1   2
ATOM      2  C   UNL     1      21.390  85.544  27.866  1.00  0.00     0.000 C 
BRANCH   2   3
ATOM      3  C   UNL     1      20.502  85.315  29.101  1.00  0.00     0.000 C 
BRANCH   3   4
ATOM      4  C   UNL     1      19.004  85.450  28.783  1.00  0.00     0.000 C 
BRANCH   4   5
ATOM      5  C   UNL     1      18.109  84.783  29.843  1.00  0.00     0.000 C 
BRANCH   5   6
ATOM      6  C   UNL     1      17.361  85.798  30.725  1.00  0.00     0.006 C 
BRANCH   6   7
ATOM      7  C   UNL     1      17.738  87.264  30.447  1.00  0.00     0.053 C 
BRANCH   7   8
ATOM      8  C   UNL     1      18.342  87.938  31.642  1.00  0.00     0.041 C 
ATOM      9  O   UNL     1      19.539  88.326  31.613  1.00  0.00    -0.550 OA
ATOM     10  O   UNL     1      17.594  88.108  32.801  1.00  0.00    -0.550 OA
ENDBRANCH   7   8
ENDBRANCH   6   7
ENDBRANCH   5   6
ENDBRANCH   4   5
ENDBRANCH   3   4
ENDBRANCH   2   3
ENDBRANCH   1   2
BRANCH   1  11
ATOM     11  C   UNL     1      21.504  84.065  25.781  1.00  0.00     0.000 C 
BRANCH  11  12
ATOM     12  C   UNL     1      20.801  82.697  25.745  1.00  0.00    -0.000 C 
BRANCH  12  13
ATOM     13  C   UNL     1      19.327  82.777  26.179  1.00  0.00    -0.000 C 
BRANCH  13  14
ATOM     14  C   UNL     1      19.043  81.974  27.459  1.00  0.00    -0.000 C 
BRANCH  14  15
ATOM     15  C   UNL     1      20.321  81.384  28.082  1.00  0.00    -0.000 C 
BRANCH  15  16
ATOM     16  C   UNL     1      20.451  81.710  29.578  1.00  0.00    -0.000 C 
BRANCH  16  17
ATOM     17  C   UNL     1      21.879  82.110  29.977  1.00  0.00    -0.003 C 
ATOM     18  C   UNL     1      22.815  82.081  28.772  1.00  0.00     0.004 C 
ENDBRANCH  16  17
ENDBRANCH  15  16
ENDBRANCH  14  15
ENDBRANCH  13  14
ENDBRANCH  12  13
ENDBRANCH  11  12
ENDBRANCH   1  11
TORSDOF 14
ENDMDL
MODEL 2
REMARK VINA RESULT:    -3.666     13.969     16.460
REMARK INTER + INTRA:          -9.174
REMARK INTER:                  -7.103
REMARK INTRA:                  -2.072
REMARK UNBOUND:                -2.508
REMARK SMILES CCCCCCCCCCCCCCCC(=O)[O-]
REMARK SMILES IDX 9 1 10 2 11 3 12 4 13 5 14 6 15 7 16 8 17 9 18 10 8 11 7 12
REMARK SMILES IDX 6 13 5 14 4 15 3 16 2 17 1 18
REMARK H PARENT
REMARK Flexibility Score: inf
ROOT
ATOM      1  C   UNL     1      12.551  99.917  23.397  1.00  0.00     0.000 C 
ENDROOT
BRANCH   1   2
ATOM      2  C   UNL     1      13.352  99.844  24.707  1.00  0.00     0.000 C 
BRANCH   2   3
ATOM      3  C   UNL     1      14.864 100.021  24.486  1.00  0.00     0.000 C 
BRANCH   3   4
ATOM      4  C   UNL     1      15.293  99.678  23.050  1.00  0.00     0.000 C 
BRANCH   4   5
ATOM      5  C   UNL     1      16.766 100.027  22.771  1.00  0.00     0.000 C 
BRANCH   5   6
ATOM      6  C   UNL     1      17.749  99.253  23.667  1.00  0.00     0.006 C 
BRANCH   6   7
ATOM      7  C   UNL     1      17.581  97.725  23.603  1.00  0.00     0.053 C 
BRANCH   7   8
ATOM      8  C   UNL     1      18.520  97.004  24.523  1.00  0.00     0.041 C 
ATOM      9  O   UNL     1      19.326  96.153  24.064  1.00  0.00    -0.550 OA
ATOM     10  O   UNL     1      18.483  97.247  25.890  1.00  0.00    -0.550 OA
ENDBRANCH   7   8
ENDBRANCH   6   7
ENDBRANCH   5   6
ENDBRANCH   4   5
ENDBRANCH   3   4
ENDBRANCH   2   3
ENDBRANCH   1   2
BRANCH   1  11
ATOM     11  C   UNL     1      11.166  99.256  23.514  1.00  0.00     0.000 C 
BRANCH  11  12
ATOM     12  C   UNL     1      10.770  98.485  22.243  1.00  0.00    -0.000 C 
BRANCH  12  13
ATOM     13  C   UNL     1      11.780  98.672  21.097  1.00  0.00    -0.000 C 
BRANCH  13  14
ATOM     14  C   UNL     1      11.677  97.567  20.032  1.00  0.00    -0.000 C 
BRANCH  14  15
ATOM     15  C   UNL     1      12.912  96.651  20.010  1.00  0.00    -0.000 C 
BRANCH  15  16
ATOM     16  C   UNL     1      14.032  97.147  20.939  1.00  0.00    -0.000 C 
BRANCH  16  17
ATOM     17  C   UNL     1      14.461  96.091  21.968  1.00  0.00    -0.003 C 
ATOM     18  C   UNL     1      13.782  96.327  23.314  1.00  0.00     0.004 C 
ENDBRANCH  16  17
ENDBRANCH  15  16
ENDBRANCH  14  15
ENDBRANCH  13  14
ENDBRANCH  12  13
ENDBRANCH  11  12
ENDBRANCH   1  11
TORSDOF 14
ENDMDL
MODEL 3
REMARK VINA RESULT:    -3.628     13.378     15.780
REMARK INTER + INTRA:          -9.105
REMARK INTER:                  -7.300
REMARK INTRA:                  -1.804
REMARK UNBOUND:                -2.508
REMARK SMILES CCCCCCCCCCCCCCCC(=O)[O-]
REMARK SMILES IDX 9 1 10 2 11 3 12 4 13 5 14 6 15 7 16 8 17 9 18 10 8 11 7 12
REMARK SMILES IDX 6 13 5 14 4 15 3 16 2 17 1 18
REMARK H PARENT
REMARK Flexibility Score: inf
ROOT
ATOM      1  C   UNL     1      14.452  99.701  22.490  1.00  0.00     0.000 C 
ENDROOT
BRANCH   1   2
ATOM      2  C   UNL     1      15.852  99.628  23.122  1.00  0.00     0.000 C 
BRANCH   2   3
ATOM      3  C   UNL     1      15.827  99.047  24.547  1.00  0.00     0.000 C 
BRANCH   3   4
ATOM      4  C   UNL     1      17.054  98.170  24.846  1.00  0.00     0.000 C 
BRANCH   4   5
ATOM      5  C   UNL     1      18.142  98.282  23.764  1.00  0.00     0.000 C 
BRANCH   5   6
ATOM      6  C   UNL     1      18.847  96.944  23.477  1.00  0.00     0.006 C 
BRANCH   6   7
ATOM      7  C   UNL     1      19.022  96.052  24.719  1.00  0.00     0.053 C 
BRANCH   7   8
ATOM      8  C   UNL     1      20.400  96.143  25.303  1.00  0.00     0.041 C 
ATOM      9  O   UNL     1      21.407  95.888  24.592  1.00  0.00    -0.550 OA
ATOM     10  O   UNL     1      20.570  96.477  26.641  1.00  0.00    -0.550 OA
ENDBRANCH   7   8
ENDBRANCH   6   7
ENDBRANCH   5   6
ENDBRANCH   4   5
ENDBRANCH   3   4
ENDBRANCH   2   3
ENDBRANCH   1   2
BRANCH   1  11
ATOM     11  C   UNL     1      13.328  99.499  23.522  1.00  0.00     0.000 C 
BRANCH  11  12
ATOM     12  C   UNL     1      12.086  98.820  22.918  1.00  0.00    -0.000 C 
BRANCH  12  13
ATOM     13  C   UNL     1      12.035  98.934  21.385  1.00  0.00    -0.000 C 
BRANCH  13  14
ATOM     14  C   UNL     1      11.433  97.686  20.719  1.00  0.00    -0.000 C 
BRANCH  14  15
ATOM     15  C   UNL     1      12.437  96.960  19.807  1.00  0.00    -0.000 C 
BRANCH  15  16
ATOM     16  C   UNL     1      13.448  96.114  20.597  1.00  0.00    -0.000 C 
BRANCH  16  17
ATOM     17  C   UNL     1      14.891  96.613  20.440  1.00  0.00    -0.003 C 
ATOM     18  C   UNL     1      15.752  96.188  21.626  1.00  0.00     0.004 C 
ENDBRANCH  16  17
ENDBRANCH  15  16
ENDBRANCH  14  15
ENDBRANCH  13  14
ENDBRANCH  12  13
ENDBRANCH  11  12
ENDBRANCH   1  11
TORSDOF 14
ENDMDL
MODEL 4
REMARK VINA RESULT:    -3.624     13.831     16.269
REMARK INTER + INTRA:          -9.097
REMARK INTER:                  -7.158
REMARK INTRA:                  -1.939
REMARK UNBOUND:                -2.508
REMARK SMILES CCCCCCCCCCCCCCCC(=O)[O-]
REMARK SMILES IDX 9 1 10 2 11 3 12 4 13 5 14 6 15 7 16 8 17 9 18 10 8 11 7 12
REMARK SMILES IDX 6 13 5 14 4 15 3 16 2 17 1 18
REMARK H PARENT
REMARK Flexibility Score: inf
ROOT
ATOM      1  C   UNL     1      14.945  96.778  20.994  1.00  0.00     0.000 C 
ENDROOT
BRANCH   1   2
ATOM      2  C   UNL     1      15.449  97.527  22.239  1.00  0.00     0.000 C 
BRANCH   2   3
ATOM      3  C   UNL     1      15.463  99.053  22.045  1.00  0.00     0.000 C 
BRANCH   3   4
ATOM      4  C   UNL     1      16.375  99.768  23.056  1.00  0.00     0.000 C 
BRANCH   4   5
ATOM      5  C   UNL     1      16.497  99.006  24.387  1.00  0.00     0.000 C 
BRANCH   5   6
ATOM      6  C   UNL     1      17.940  98.950  24.919  1.00  0.00     0.006 C 
BRANCH   6   7
ATOM      7  C   UNL     1      18.369  97.558  25.415  1.00  0.00     0.053 C 
BRANCH   7   8
ATOM      8  C   UNL     1      18.231  96.503  24.358  1.00  0.00     0.041 C 
ATOM      9  O   UNL     1      17.567  95.459  24.589  1.00  0.00    -0.550 OA
ATOM     10  O   UNL     1      18.864  96.658  23.131  1.00  0.00    -0.550 OA
ENDBRANCH   7   8
ENDBRANCH   6   7
ENDBRANCH   5   6
ENDBRANCH   4   5
ENDBRANCH   3   4
ENDBRANCH   2   3
ENDBRANCH   1   2
BRANCH   1  11
ATOM     11  C   UNL     1      13.971  95.640  21.345  1.00  0.00     0.000 C 
BRANCH  11  12
ATOM     12  C   UNL     1      12.727  95.626  20.440  1.00  0.00    -0.000 C 
BRANCH  12  13
ATOM     13  C   UNL     1      12.459  96.991  19.780  1.00  0.00    -0.000 C 
BRANCH  13  14
ATOM     14  C   UNL     1      11.339  97.776  20.482  1.00  0.00    -0.000 C 
BRANCH  14  15
ATOM     15  C   UNL     1      11.877  98.938  21.335  1.00  0.00    -0.000 C 
BRANCH  15  16
ATOM     16  C   UNL     1      11.911  98.603  22.835  1.00  0.00    -0.000 C 
BRANCH  16  17
ATOM     17  C   UNL     1      11.500  99.790  23.718  1.00  0.00    -0.003 C 
ATOM     18  C   UNL     1      12.718 100.598  24.155  1.00  0.00     0.004 C 
ENDBRANCH  16  17
ENDBRANCH  15  16
ENDBRANCH  14  15
ENDBRANCH  13  14
ENDBRANCH  12  13
ENDBRANCH  11  12
ENDBRANCH   1  11
TORSDOF 14
ENDMDL
MODEL 5
REMARK VINA RESULT:    -3.613     13.873     16.151
REMARK INTER + INTRA:          -9.077
REMARK INTER:                  -7.008
REMARK INTRA:                  -2.070
REMARK UNBOUND:                -2.508
REMARK SMILES CCCCCCCCCCCCCCCC(=O)[O-]
REMARK SMILES IDX 9 1 10 2 11 3 12 4 13 5 14 6 15 7 16 8 17 9 18 10 8 11 7 12
REMARK SMILES IDX 6 13 5 14 4 15 3 16 2 17 1 18
REMARK H PARENT
REMARK Flexibility Score: inf
ROOT
ATOM      1  C   UNL     1      15.481  99.694  24.353  1.00  0.00     0.000 C 
ENDROOT
BRANCH   1   2
ATOM      2  C   UNL     1      13.976  99.624  24.047  1.00  0.00     0.000 C 
BRANCH   2   3
ATOM      3  C   UNL     1      13.673  99.724  22.542  1.00  0.00     0.000 C 
BRANCH   3   4
ATOM      4  C   UNL     1      13.075  98.426  21.974  1.00  0.00     0.000 C 
BRANCH   4   5
ATOM      5  C   UNL     1      11.747  98.659  21.232  1.00  0.00     0.000 C 
BRANCH   5   6
ATOM      6  C   UNL     1      11.512  97.656  20.089  1.00  0.00     0.006 C 
BRANCH   6   7
ATOM      7  C   UNL     1      12.685  96.689  19.855  1.00  0.00     0.053 C 
BRANCH   7   8
ATOM      8  C   UNL     1      12.377  95.292  20.305  1.00  0.00     0.041 C 
ATOM      9  O   UNL     1      11.913  95.085  21.456  1.00  0.00    -0.550 OA
ATOM     10  O   UNL     1      12.635  94.215  19.465  1.00  0.00    -0.550 OA
ENDBRANCH   7   8
ENDBRANCH   6   7
ENDBRANCH   5   6
ENDBRANCH   4   5
ENDBRANCH   3   4
ENDBRANCH   2   3
ENDBRANCH   1   2
BRANCH   1  11
ATOM     11  C   UNL     1      16.324  99.997  23.101  1.00  0.00     0.000 C 
BRANCH  11  12
ATOM     12  C   UNL     1      17.730  99.379  23.171  1.00  0.00    -0.000 C 
BRANCH  12  13
ATOM     13  C   UNL     1      18.092  98.887  24.583  1.00  0.00    -0.000 C 
BRANCH  13  14
ATOM     14  C   UNL     1      18.473  97.397  24.611  1.00  0.00    -0.000 C 
BRANCH  14  15
ATOM     15  C   UNL     1      17.322  96.502  25.101  1.00  0.00    -0.000 C 
BRANCH  15  16
ATOM     16  C   UNL     1      16.830  95.527  24.020  1.00  0.00    -0.000 C 
BRANCH  16  17
ATOM     17  C   UNL     1      15.645  96.081  23.215  1.00  0.00    -0.003 C 
ATOM     18  C   UNL     1      16.004  96.229  21.740  1.00  0.00     0.004 C 
ENDBRANCH  16  17
ENDBRANCH  15  16
ENDBRANCH  14  15
ENDBRANCH  13  14
ENDBRANCH  12  13
ENDBRANCH  11  12
ENDBRANCH   1  11
TORSDOF 14
ENDMDL
MODEL 6
REMARK VINA RESULT:    -3.594     14.537     16.989
REMARK INTER + INTRA:          -9.043
REMARK INTER:                  -7.467
REMARK INTRA:                  -1.576
REMARK UNBOUND:                -2.508
REMARK SMILES CCCCCCCCCCCCCCCC(=O)[O-]
REMARK SMILES IDX 9 1 10 2 11 3 12 4 13 5 14 6 15 7 16 8 17 9 18 10 8 11 7 12
REMARK SMILES IDX 6 13 5 14 4 15 3 16 2 17 1 18
REMARK H PARENT
REMARK Flexibility Score: inf
ROOT
ATOM      1  C   UNL     1      13.542  96.060  20.690  1.00  0.00     0.000 C 
ENDROOT
BRANCH   1   2
ATOM      2  C   UNL     1      15.017  96.419  20.444  1.00  0.00     0.000 C 
BRANCH   2   3
ATOM      3  C   UNL     1      15.869  96.322  21.722  1.00  0.00     0.000 C 
BRANCH   3   4
ATOM      4  C   UNL     1      15.442  97.339  22.794  1.00  0.00     0.000 C 
BRANCH   4   5
ATOM      5  C   UNL     1      15.657  98.796  22.349  1.00  0.00     0.000 C 
BRANCH   5   6
ATOM      6  C   UNL     1      16.642  99.562  23.250  1.00  0.00     0.006 C 
BRANCH   6   7
ATOM      7  C   UNL     1      17.760  98.684  23.840  1.00  0.00     0.053 C 
BRANCH   7   8
ATOM      8  C   UNL     1      17.775  98.702  25.339  1.00  0.00     0.041 C 
ATOM      9  O   UNL     1      16.815  98.209  25.987  1.00  0.00    -0.550 OA
ATOM     10  O   UNL     1      18.832  99.293  26.020  1.00  0.00    -0.550 OA
ENDBRANCH   7   8
ENDBRANCH   6   7
ENDBRANCH   5   6
ENDBRANCH   4   5
ENDBRANCH   3   4
ENDBRANCH   2   3
ENDBRANCH   1   2
BRANCH   1  11
ATOM     11  C   UNL     1      12.576  96.967  19.908  1.00  0.00     0.000 C 
BRANCH  11  12
ATOM     12  C   UNL     1      11.526  97.633  20.814  1.00  0.00    -0.000 C 
BRANCH  12  13
ATOM     13  C   UNL     1      12.061  98.896  21.512  1.00  0.00    -0.000 C 
BRANCH  13  14
ATOM     14  C   UNL     1      12.057  98.770  23.044  1.00  0.00    -0.000 C 
BRANCH  14  15
ATOM     15  C   UNL     1      12.312 100.114  23.749  1.00  0.00    -0.000 C 
BRANCH  15  16
ATOM     16  C   UNL     1      11.182 100.494  24.719  1.00  0.00    -0.000 C 
BRANCH  16  17
ATOM     17  C   UNL     1       9.817  99.936  24.290  1.00  0.00    -0.003 C 
ATOM     18  C   UNL     1       8.687 100.566  25.098  1.00  0.00     0.004 C 
ENDBRANCH  16  17
ENDBRANCH  15  16
ENDBRANCH  14  15
ENDBRANCH  13  14
ENDBRANCH  12  13
ENDBRANCH  11  12
ENDBRANCH   1  11
TORSDOF 14
ENDMDL
MODEL 7
REMARK VINA RESULT:    -3.523     13.462     15.918
REMARK INTER + INTRA:          -8.915
REMARK INTER:                  -6.510
REMARK INTRA:                  -2.405
REMARK UNBOUND:                -2.508
REMARK SMILES CCCCCCCCCCCCCCCC(=O)[O-]
REMARK SMILES IDX 9 1 10 2 11 3 12 4 13 5 14 6 15 7 16 8 17 9 18 10 8 11 7 12
REMARK SMILES IDX 6 13 5 14 4 15 3 16 2 17 1 18
REMARK H PARENT
REMARK Flexibility Score: inf
ROOT
ATOM      1  C   UNL     1      12.122  97.322  19.945  1.00  0.00     0.000 C 
ENDROOT
BRANCH   1   2
ATOM      2  C   UNL     1      13.186  96.390  20.549  1.00  0.00     0.000 C 
BRANCH   2   3
ATOM      3  C   UNL     1      14.615  96.931  20.370  1.00  0.00     0.000 C 
BRANCH   3   4
ATOM      4  C   UNL     1      15.576  96.429  21.460  1.00  0.00     0.000 C 
BRANCH   4   5
ATOM      5  C   UNL     1      14.893  95.483  22.464  1.00  0.00     0.000 C 
BRANCH   5   6
ATOM      6  C   UNL     1      15.011  95.964  23.921  1.00  0.00     0.006 C 
BRANCH   6   7
ATOM      7  C   UNL     1      14.629  94.899  24.963  1.00  0.00     0.053 C 
BRANCH   7   8
ATOM      8  C   UNL     1      13.156  94.620  24.987  1.00  0.00     0.041 C 
ATOM      9  O   UNL     1      12.333  95.570  25.059  1.00  0.00    -0.550 OA
ATOM     10  O   UNL     1      12.692  93.310  24.966  1.00  0.00    -0.550 OA
ENDBRANCH   7   8
ENDBRANCH   6   7
ENDBRANCH   5   6
ENDBRANCH   4   5
ENDBRANCH   3   4
ENDBRANCH   2   3
ENDBRANCH   1   2
BRANCH   1  11
ATOM     11  C   UNL     1      11.818  98.531  20.847  1.00  0.00     0.000 C 
BRANCH  11  12
ATOM     12  C   UNL     1      11.521  98.125  22.300  1.00  0.00    -0.000 C 
BRANCH  12  13
ATOM     13  C   UNL     1      12.610  98.596  23.281  1.00  0.00    -0.000 C 
BRANCH  13  14
ATOM     14  C   UNL     1      13.562  99.628  22.656  1.00  0.00    -0.000 C 
BRANCH  14  15
ATOM     15  C   UNL     1      14.855  99.808  23.470  1.00  0.00    -0.000 C 
BRANCH  15  16
ATOM     16  C   UNL     1      16.110  99.842  22.583  1.00  0.00    -0.000 C 
BRANCH  16  17
ATOM     17  C   UNL     1      17.387  99.462  23.346  1.00  0.00    -0.003 C 
ATOM     18  C   UNL     1      17.056  98.881  24.717  1.00  0.00     0.004 C 
ENDBRANCH  16  17
ENDBRANCH  15  16
ENDBRANCH  14  15
ENDBRANCH  13  14
ENDBRANCH  12  13
ENDBRANCH  11  12
ENDBRANCH   1  11
TORSDOF 14
ENDMDL
MODEL 8
REMARK VINA RESULT:    -3.509     13.461     15.626
REMARK INTER + INTRA:          -8.889
REMARK INTER:                  -6.491
REMARK INTRA:                  -2.398
REMARK UNBOUND:                -2.508
REMARK SMILES CCCCCCCCCCCCCCCC(=O)[O-]
REMARK SMILES IDX 9 1 10 2 11 3 12 4 13 5 14 6 15 7 16 8 17 9 18 10 8 11 7 12
REMARK SMILES IDX 6 13 5 14 4 15 3 16 2 17 1 18
REMARK H PARENT
REMARK Flexibility Score: inf
ROOT
ATOM      1  C   UNL     1      11.764  97.846  20.390  1.00  0.00     0.000 C 
ENDROOT
BRANCH   1   2
ATOM      2  C   UNL     1      11.974  97.932  21.911  1.00  0.00     0.000 C 
BRANCH   2   3
ATOM      3  C   UNL     1      11.901  99.376  22.436  1.00  0.00     0.000 C 
BRANCH   3   4
ATOM      4  C   UNL     1      13.077  99.727  23.362  1.00  0.00     0.000 C 
BRANCH   4   5
ATOM      5  C   UNL     1      14.378  99.006  22.969  1.00  0.00     0.000 C 
BRANCH   5   6
ATOM      6  C   UNL     1      15.526  99.248  23.965  1.00  0.00     0.006 C 
BRANCH   6   7
ATOM      7  C   UNL     1      16.902  99.424  23.300  1.00  0.00     0.053 C 
BRANCH   7   8
ATOM      8  C   UNL     1      17.986  98.672  24.014  1.00  0.00     0.041 C 
ATOM      9  O   UNL     1      18.556  99.181  25.014  1.00  0.00    -0.550 OA
ATOM     10  O   UNL     1      18.391  97.425  23.553  1.00  0.00    -0.550 OA
ENDBRANCH   7   8
ENDBRANCH   6   7
ENDBRANCH   5   6
ENDBRANCH   4   5
ENDBRANCH   3   4
ENDBRANCH   2   3
ENDBRANCH   1   2
BRANCH   1  11
ATOM     11  C   UNL     1      12.476  96.634  19.764  1.00  0.00     0.000 C 
BRANCH  11  12
ATOM     12  C   UNL     1      13.459  95.959  20.737  1.00  0.00    -0.000 C 
BRANCH  12  13
ATOM     13  C   UNL     1      14.920  96.372  20.485  1.00  0.00    -0.000 C 
BRANCH  13  14
ATOM     14  C   UNL     1      15.873  95.875  21.584  1.00  0.00    -0.000 C 
BRANCH  14  15
ATOM     15  C   UNL     1      15.142  95.099  22.694  1.00  0.00    -0.000 C 
BRANCH  15  16
ATOM     16  C   UNL     1      15.617  95.495  24.100  1.00  0.00    -0.000 C 
BRANCH  16  17
ATOM     17  C   UNL     1      14.456  95.845  25.043  1.00  0.00    -0.003 C 
ATOM     18  C   UNL     1      13.116  95.425  24.445  1.00  0.00     0.004 C 
ENDBRANCH  16  17
ENDBRANCH  15  16
ENDBRANCH  14  15
ENDBRANCH  13  14
ENDBRANCH  12  13
ENDBRANCH  11  12
ENDBRANCH   1  11
TORSDOF 14
ENDMDL
MODEL 9
REMARK VINA RESULT:    -3.495     13.708     15.950
REMARK INTER + INTRA:          -8.863
REMARK INTER:                  -6.635
REMARK INTRA:                  -2.229
REMARK UNBOUND:                -2.508
REMARK SMILES CCCCCCCCCCCCCCCC(=O)[O-]
REMARK SMILES IDX 9 1 10 2 11 3 12 4 13 5 14 6 15 7 16 8 17 9 18 10 8 11 7 12
REMARK SMILES IDX 6 13 5 14 4 15 3 16 2 17 1 18
REMARK H PARENT
REMARK Flexibility Score: inf
ROOT
ATOM      1  C   UNL     1      14.721  96.212  20.492  1.00  0.00     0.000 C 
ENDROOT
BRANCH   1   2
ATOM      2  C   UNL     1      15.359  96.981  21.661  1.00  0.00     0.000 C 
BRANCH   2   3
ATOM      3  C   UNL     1      15.470  96.129  22.937  1.00  0.00     0.000 C 
BRANCH   3   4
ATOM      4  C   UNL     1      16.815  95.389  23.036  1.00  0.00     0.000 C 
BRANCH   4   5
ATOM      5  C   UNL     1      18.014  96.347  23.141  1.00  0.00     0.000 C 
BRANCH   5   6
ATOM      6  C   UNL     1      17.919  97.302  24.343  1.00  0.00     0.006 C 
BRANCH   6   7
ATOM      7  C   UNL     1      18.098  98.786  23.977  1.00  0.00     0.053 C 
BRANCH   7   8
ATOM      8  C   UNL     1      16.792  99.482  23.739  1.00  0.00     0.041 C 
ATOM      9  O   UNL     1      16.648 100.234  22.741  1.00  0.00    -0.550 OA
ATOM     10  O   UNL     1      15.744  99.327  24.639  1.00  0.00    -0.550 OA
ENDBRANCH   7   8
ENDBRANCH   6   7
ENDBRANCH   5   6
ENDBRANCH   4   5
ENDBRANCH   3   4
ENDBRANCH   2   3
ENDBRANCH   1   2
BRANCH   1  11
ATOM     11  C   UNL     1      13.617  95.245  20.955  1.00  0.00     0.000 C 
BRANCH  11  12
ATOM     12  C   UNL     1      12.223  95.652  20.446  1.00  0.00    -0.000 C 
BRANCH  12  13
ATOM     13  C   UNL     1      12.227  97.016  19.733  1.00  0.00    -0.000 C 
BRANCH  13  14
ATOM     14  C   UNL     1      11.346  98.056  20.443  1.00  0.00    -0.000 C 
BRANCH  14  15
ATOM     15  C   UNL     1      12.135  98.908  21.454  1.00  0.00    -0.000 C 
BRANCH  15  16
ATOM     16  C   UNL     1      11.546  98.837  22.871  1.00  0.00    -0.000 C 
BRANCH  16  17
ATOM     17  C   UNL     1      12.420  98.027  23.839  1.00  0.00    -0.003 C 
ATOM     18  C   UNL     1      11.864  96.620  24.037  1.00  0.00     0.004 C 
ENDBRANCH  16  17
ENDBRANCH  15  16
ENDBRANCH  14  15
ENDBRANCH  13  14
ENDBRANCH  12  13
ENDBRANCH  11  12
ENDBRANCH   1  11
TORSDOF 14
ENDMDL
