MODEL 1
REMARK VINA RESULT:    -2.657      0.000      0.000
REMARK INTER + INTRA:          -7.531
REMARK INTER:                  -6.074
REMARK INTRA:                  -1.457
REMARK UNBOUND:                -1.457
REMARK SMILES CCCCCCCCCCCCCCCCCCCCCCCC(=O)[O-]
REMARK SMILES IDX 13 1 14 2 15 3 16 4 17 5 18 6 19 7 20 8 21 9 22 10 23 11
REMARK SMILES IDX 24 12 25 13 26 14 12 15 11 16 10 17 9 18 8 19 7 20 6 21 5 22
REMARK SMILES IDX 4 23 3 24 2 25 1 26
REMARK H PARENT
REMARK Flexibility Score: inf
ROOT
ATOM      1  C   UNL     1      15.358  12.572 -13.826  1.00  0.00     0.000 C 
ENDROOT
BRANCH   1   2
ATOM      2  C   UNL     1      15.703  13.352 -15.114  1.00  0.00     0.000 C 
BRANCH   2   3
ATOM      3  C   UNL     1      16.902  12.771 -15.883  1.00  0.00     0.000 C 
BRANCH   3   4
ATOM      4  C   UNL     1      18.248  13.089 -15.213  1.00  0.00     0.000 C 
BRANCH   4   5
ATOM      5  C   UNL     1      19.132  14.008 -16.073  1.00  0.00     0.000 C 
BRANCH   5   6
ATOM      6  C   UNL     1      20.611  13.582 -16.069  1.00  0.00     0.000 C 
BRANCH   6   7
ATOM      7  C   UNL     1      21.400  14.200 -14.905  1.00  0.00     0.000 C 
BRANCH   7   8
ATOM      8  C   UNL     1      21.671  15.703 -15.101  1.00  0.00     0.000 C 
BRANCH   8   9
ATOM      9  C   UNL     1      22.643  16.262 -14.042  1.00  0.00     0.000 C 
BRANCH   9  10
ATOM     10  C   UNL     1      22.964  17.755 -14.230  1.00  0.00     0.006 C 
BRANCH  10  11
ATOM     11  C   UNL     1      22.753  18.233 -15.671  1.00  0.00     0.053 C 
BRANCH  11  12
ATOM     12  C   UNL     1      22.030  19.542 -15.691  1.00  0.00     0.041 C 
ATOM     13  O   UNL     1      20.827  19.597 -16.059  1.00  0.00    -0.550 OA
ATOM     14  O   UNL     1      22.695  20.710 -15.335  1.00  0.00    -0.550 OA
ENDBRANCH  11  12
ENDBRANCH  10  11
ENDBRANCH   9  10
ENDBRANCH   8   9
ENDBRANCH   7   8
ENDBRANCH   6   7
ENDBRANCH   5   6
ENDBRANCH   4   5
ENDBRANCH   3   4
ENDBRANCH   2   3
ENDBRANCH   1   2
BRANCH   1  15
ATOM     15  C   UNL     1      14.155  11.633 -14.022  1.00  0.00     0.000 C 
BRANCH  15  16
ATOM     16  C   UNL     1      14.393  10.594 -15.139  1.00  0.00     0.000 C 
BRANCH  16  17
ATOM     17  C   UNL     1      13.987   9.159 -14.750  1.00  0.00     0.000 C 
BRANCH  17  18
ATOM     18  C   UNL     1      14.879   8.051 -15.336  1.00  0.00    -0.000 C 
BRANCH  18  19
ATOM     19  C   UNL     1      16.107   8.550 -16.125  1.00  0.00    -0.000 C 
BRANCH  19  20
ATOM     20  C   UNL     1      17.344   8.818 -15.240  1.00  0.00    -0.000 C 
BRANCH  20  21
ATOM     21  C   UNL     1      18.554   9.298 -16.057  1.00  0.00    -0.000 C 
BRANCH  21  22
ATOM     22  C   UNL     1      19.850   8.648 -15.552  1.00  0.00    -0.000 C 
BRANCH  22  23
ATOM     23  C   UNL     1      20.862   9.673 -15.010  1.00  0.00    -0.000 C 
BRANCH  23  24
ATOM     24  C   UNL     1      21.969  10.090 -16.001  1.00  0.00    -0.000 C 
BRANCH  24  25
ATOM     25  C   UNL     1      23.125  10.897 -15.383  1.00  0.00    -0.003 C 
ATOM     26  C   UNL     1      22.711  11.653 -14.121  1.00  0.00     0.004 C 
ENDBRANCH  24  25
ENDBRANCH  23  24
ENDBRANCH  22  23
ENDBRANCH  21  22
ENDBRANCH  20  21
ENDBRANCH  19  20
ENDBRANCH  18  19
ENDBRANCH  17  18
ENDBRANCH  16  17
ENDBRANCH  15  16
ENDBRANCH   1  15
TORSDOF 22
ENDMDL
MODEL 2
REMARK VINA RESULT:    -1.999      3.172      8.540
REMARK INTER + INTRA:          -6.027
REMARK INTER:                  -7.152
REMARK INTRA:                   1.125
REMARK UNBOUND:                -1.457
REMARK SMILES CCCCCCCCCCCCCCCCCCCCCCCC(=O)[O-]
REMARK SMILES IDX 13 1 14 2 15 3 16 4 17 5 18 6 19 7 20 8 21 9 22 10 23 11
REMARK SMILES IDX 24 12 25 13 26 14 12 15 11 16 10 17 9 18 8 19 7 20 6 21 5 22
REMARK SMILES IDX 4 23 3 24 2 25 1 26
REMARK H PARENT
REMARK Flexibility Score: inf
ROOT
ATOM      1  C   UNL     1      19.196  12.282 -14.803  1.00  0.00     0.000 C 
ENDROOT
BRANCH   1   2
ATOM      2  C   UNL     1      19.880  11.622 -16.020  1.00  0.00     0.000 C 
BRANCH   2   3
ATOM      3  C   UNL     1      20.378  10.192 -15.747  1.00  0.00     0.000 C 
BRANCH   3   4
ATOM      4  C   UNL     1      19.888   9.641 -14.398  1.00  0.00     0.000 C 
BRANCH   4   5
ATOM      5  C   UNL     1      18.497  10.172 -14.014  1.00  0.00     0.000 C 
BRANCH   5   6
ATOM      6  C   UNL     1      17.395   9.107 -14.160  1.00  0.00     0.000 C 
BRANCH   6   7
ATOM      7  C   UNL     1      17.335   8.510 -15.575  1.00  0.00     0.000 C 
BRANCH   7   8
ATOM      8  C   UNL     1      15.893   8.300 -16.070  1.00  0.00     0.000 C 
BRANCH   8   9
ATOM      9  C   UNL     1      15.005   9.537 -15.820  1.00  0.00     0.000 C 
BRANCH   9  10
ATOM     10  C   UNL     1      15.729  10.872 -16.067  1.00  0.00     0.006 C 
BRANCH  10  11
ATOM     11  C   UNL     1      15.025  12.063 -15.408  1.00  0.00     0.053 C 
BRANCH  11  12
ATOM     12  C   UNL     1      14.912  11.856 -13.930  1.00  0.00     0.041 C 
ATOM     13  O   UNL     1      13.789  11.640 -13.404  1.00  0.00    -0.550 OA
ATOM     14  O   UNL     1      16.045  11.936 -13.128  1.00  0.00    -0.550 OA
ENDBRANCH  11  12
ENDBRANCH  10  11
ENDBRANCH   9  10
ENDBRANCH   8   9
ENDBRANCH   7   8
ENDBRANCH   6   7
ENDBRANCH   5   6
ENDBRANCH   4   5
ENDBRANCH   3   4
ENDBRANCH   2   3
ENDBRANCH   1   2
BRANCH   1  15
ATOM     15  C   UNL     1      18.331  13.488 -15.208  1.00  0.00     0.000 C 
BRANCH  15  16
ATOM     16  C   UNL     1      19.085  14.475 -16.125  1.00  0.00     0.000 C 
BRANCH  16  17
ATOM     17  C   UNL     1      20.617  14.422 -15.969  1.00  0.00     0.000 C 
BRANCH  17  18
ATOM     18  C   UNL     1      21.127  14.551 -14.523  1.00  0.00    -0.000 C 
BRANCH  18  19
ATOM     19  C   UNL     1      22.527  15.181 -14.378  1.00  0.00    -0.000 C 
BRANCH  19  20
ATOM     20  C   UNL     1      23.125  15.676 -15.713  1.00  0.00    -0.000 C 
BRANCH  20  21
ATOM     21  C   UNL     1      23.020  17.201 -15.872  1.00  0.00    -0.000 C 
BRANCH  21  22
ATOM     22  C   UNL     1      22.726  17.874 -14.524  1.00  0.00    -0.000 C 
BRANCH  22  23
ATOM     23  C   UNL     1      21.783  19.084 -14.653  1.00  0.00    -0.000 C 
BRANCH  23  24
ATOM     24  C   UNL     1      21.911  19.879 -15.970  1.00  0.00    -0.000 C 
BRANCH  24  25
ATOM     25  C   UNL     1      23.011  20.955 -15.976  1.00  0.00    -0.003 C 
ATOM     26  C   UNL     1      22.451  22.374 -16.047  1.00  0.00     0.004 C 
ENDBRANCH  24  25
ENDBRANCH  23  24
ENDBRANCH  22  23
ENDBRANCH  21  22
ENDBRANCH  20  21
ENDBRANCH  19  20
ENDBRANCH  18  19
ENDBRANCH  17  18
ENDBRANCH  16  17
ENDBRANCH  15  16
ENDBRANCH   1  15
TORSDOF 22
ENDMDL
MODEL 3
REMARK VINA RESULT:    -1.830      2.915      6.367
REMARK INTER + INTRA:          -5.640
REMARK INTER:                  -5.375
REMARK INTRA:                  -0.265
REMARK UNBOUND:                -1.457
REMARK SMILES CCCCCCCCCCCCCCCCCCCCCCCC(=O)[O-]
REMARK SMILES IDX 13 1 14 2 15 3 16 4 17 5 18 6 19 7 20 8 21 9 22 10 23 11
REMARK SMILES IDX 24 12 25 13 26 14 12 15 11 16 10 17 9 18 8 19 7 20 6 21 5 22
REMARK SMILES IDX 4 23 3 24 2 25 1 26
REMARK H PARENT
REMARK Flexibility Score: inf
ROOT
ATOM      1  C   UNL     1      16.265   9.018 -14.363  1.00  0.00     0.000 C 
ENDROOT
BRANCH   1   2
ATOM      2  C   UNL     1      15.639   8.168 -15.491  1.00  0.00     0.000 C 
BRANCH   2   3
ATOM      3  C   UNL     1      14.136   7.901 -15.297  1.00  0.00     0.000 C 
BRANCH   3   4
ATOM      4  C   UNL     1      13.252   8.960 -15.974  1.00  0.00     0.000 C 
BRANCH   4   5
ATOM      5  C   UNL     1      13.962  10.317 -16.116  1.00  0.00     0.000 C 
BRANCH   5   6
ATOM      6  C   UNL     1      13.676  11.263 -14.936  1.00  0.00     0.000 C 
BRANCH   6   7
ATOM      7  C   UNL     1      14.866  12.177 -14.609  1.00  0.00     0.000 C 
BRANCH   7   8
ATOM      8  C   UNL     1      15.597  12.676 -15.869  1.00  0.00     0.000 C 
BRANCH   8   9
ATOM      9  C   UNL     1      17.059  12.188 -15.925  1.00  0.00     0.000 C 
BRANCH   9  10
ATOM     10  C   UNL     1      18.088  13.304 -15.673  1.00  0.00     0.006 C 
BRANCH  10  11
ATOM     11  C   UNL     1      19.079  12.961 -14.555  1.00  0.00     0.053 C 
BRANCH  11  12
ATOM     12  C   UNL     1      18.405  12.168 -13.480  1.00  0.00     0.041 C 
ATOM     13  O   UNL     1      18.962  11.145 -13.002  1.00  0.00    -0.550 OA
ATOM     14  O   UNL     1      17.144  12.540 -13.028  1.00  0.00    -0.550 OA
ENDBRANCH  11  12
ENDBRANCH  10  11
ENDBRANCH   9  10
ENDBRANCH   8   9
ENDBRANCH   7   8
ENDBRANCH   6   7
ENDBRANCH   5   6
ENDBRANCH   4   5
ENDBRANCH   3   4
ENDBRANCH   2   3
ENDBRANCH   1   2
BRANCH   1  15
ATOM     15  C   UNL     1      17.735   9.371 -14.653  1.00  0.00     0.000 C 
BRANCH  15  16
ATOM     16  C   UNL     1      18.346   8.490 -15.763  1.00  0.00     0.000 C 
BRANCH  16  17
ATOM     17  C   UNL     1      19.807   8.844 -16.105  1.00  0.00     0.000 C 
BRANCH  17  18
ATOM     18  C   UNL     1      20.564   9.606 -15.003  1.00  0.00    -0.000 C 
BRANCH  18  19
ATOM     19  C   UNL     1      21.956  10.130 -15.410  1.00  0.00    -0.000 C 
BRANCH  19  20
ATOM     20  C   UNL     1      21.920  11.511 -16.102  1.00  0.00    -0.000 C 
BRANCH  20  21
ATOM     21  C   UNL     1      23.074  12.420 -15.652  1.00  0.00    -0.000 C 
BRANCH  21  22
ATOM     22  C   UNL     1      22.801  13.006 -14.260  1.00  0.00    -0.000 C 
BRANCH  22  23
ATOM     23  C   UNL     1      22.197  14.421 -14.314  1.00  0.00    -0.000 C 
BRANCH  23  24
ATOM     24  C   UNL     1      22.574  15.248 -15.561  1.00  0.00    -0.000 C 
BRANCH  24  25
ATOM     25  C   UNL     1      21.718  16.507 -15.789  1.00  0.00    -0.003 C 
ATOM     26  C   UNL     1      20.264  16.182 -16.125  1.00  0.00     0.004 C 
ENDBRANCH  24  25
ENDBRANCH  23  24
ENDBRANCH  22  23
ENDBRANCH  21  22
ENDBRANCH  20  21
ENDBRANCH  19  20
ENDBRANCH  18  19
ENDBRANCH  17  18
ENDBRANCH  16  17
ENDBRANCH  15  16
ENDBRANCH   1  15
TORSDOF 22
ENDMDL
MODEL 4
REMARK VINA RESULT:    -1.511      1.308      3.662
REMARK INTER + INTRA:          -4.911
REMARK INTER:                  -4.050
REMARK INTRA:                  -0.862
REMARK UNBOUND:                -1.457
REMARK SMILES CCCCCCCCCCCCCCCCCCCCCCCC(=O)[O-]
REMARK SMILES IDX 13 1 14 2 15 3 16 4 17 5 18 6 19 7 20 8 21 9 22 10 23 11
REMARK SMILES IDX 24 12 25 13 26 14 12 15 11 16 10 17 9 18 8 19 7 20 6 21 5 22
REMARK SMILES IDX 4 23 3 24 2 25 1 26
REMARK H PARENT
REMARK Flexibility Score: inf
ROOT
ATOM      1  C   UNL     1      18.344  12.330 -15.880  1.00  0.00     0.000 C 
ENDROOT
BRANCH   1   2
ATOM      2  C   UNL     1      18.797  13.148 -14.651  1.00  0.00     0.000 C 
BRANCH   2   3
ATOM      3  C   UNL     1      19.359  12.284 -13.509  1.00  0.00     0.000 C 
BRANCH   3   4
ATOM      4  C   UNL     1      20.895  12.218 -13.515  1.00  0.00     0.000 C 
BRANCH   4   5
ATOM      5  C   UNL     1      21.468  11.959 -14.919  1.00  0.00     0.000 C 
BRANCH   5   6
ATOM      6  C   UNL     1      21.717  13.258 -15.706  1.00  0.00     0.000 C 
BRANCH   6   7
ATOM      7  C   UNL     1      23.125  13.827 -15.477  1.00  0.00     0.000 C 
BRANCH   7   8
ATOM      8  C   UNL     1      23.111  15.326 -15.127  1.00  0.00     0.000 C 
BRANCH   8   9
ATOM      9  C   UNL     1      22.267  16.148 -16.122  1.00  0.00     0.000 C 
BRANCH   9  10
ATOM     10  C   UNL     1      20.990  16.741 -15.502  1.00  0.00     0.006 C 
BRANCH  10  11
ATOM     11  C   UNL     1      20.849  18.247 -15.751  1.00  0.00     0.053 C 
BRANCH  11  12
ATOM     12  C   UNL     1      21.815  19.013 -14.904  1.00  0.00     0.041 C 
ATOM     13  O   UNL     1      22.483  18.425 -14.014  1.00  0.00    -0.550 OA
ATOM     14  O   UNL     1      21.952  20.386 -15.075  1.00  0.00    -0.550 OA
ENDBRANCH  11  12
ENDBRANCH  10  11
ENDBRANCH   9  10
ENDBRANCH   8   9
ENDBRANCH   7   8
ENDBRANCH   6   7
ENDBRANCH   5   6
ENDBRANCH   4   5
ENDBRANCH   3   4
ENDBRANCH   2   3
ENDBRANCH   1   2
BRANCH   1  15
ATOM     15  C   UNL     1      16.828  12.439 -16.122  1.00  0.00     0.000 C 
BRANCH  15  16
ATOM     16  C   UNL     1      16.284  13.854 -15.831  1.00  0.00     0.000 C 
BRANCH  16  17
ATOM     17  C   UNL     1      15.222  13.894 -14.715  1.00  0.00     0.000 C 
BRANCH  17  18
ATOM     18  C   UNL     1      14.459  12.575 -14.498  1.00  0.00    -0.000 C 
BRANCH  18  19
ATOM     19  C   UNL     1      15.211  11.514 -13.671  1.00  0.00    -0.000 C 
BRANCH  19  20
ATOM     20  C   UNL     1      14.725  10.071 -13.926  1.00  0.00    -0.000 C 
BRANCH  20  21
ATOM     21  C   UNL     1      14.195   9.876 -15.355  1.00  0.00    -0.000 C 
BRANCH  21  22
ATOM     22  C   UNL     1      14.231   8.396 -15.758  1.00  0.00    -0.000 C 
BRANCH  22  23
ATOM     23  C   UNL     1      15.648   7.907 -16.111  1.00  0.00    -0.000 C 
BRANCH  23  24
ATOM     24  C   UNL     1      16.791   8.590 -15.333  1.00  0.00    -0.000 C 
BRANCH  24  25
ATOM     25  C   UNL     1      18.112   8.733 -16.110  1.00  0.00    -0.003 C 
ATOM     26  C   UNL     1      19.301   9.049 -15.205  1.00  0.00     0.004 C 
ENDBRANCH  24  25
ENDBRANCH  23  24
ENDBRANCH  22  23
ENDBRANCH  21  22
ENDBRANCH  20  21
ENDBRANCH  19  20
ENDBRANCH  18  19
ENDBRANCH  17  18
ENDBRANCH  16  17
ENDBRANCH  15  16
ENDBRANCH   1  15
TORSDOF 22
ENDMDL
MODEL 5
REMARK VINA RESULT:    -1.406      1.434      3.216
REMARK INTER + INTRA:          -4.672
REMARK INTER:                  -4.266
REMARK INTRA:                  -0.405
REMARK UNBOUND:                -1.457
REMARK SMILES CCCCCCCCCCCCCCCCCCCCCCCC(=O)[O-]
REMARK SMILES IDX 13 1 14 2 15 3 16 4 17 5 18 6 19 7 20 8 21 9 22 10 23 11
REMARK SMILES IDX 24 12 25 13 26 14 12 15 11 16 10 17 9 18 8 19 7 20 6 21 5 22
REMARK SMILES IDX 4 23 3 24 2 25 1 26
REMARK H PARENT
REMARK Flexibility Score: inf
ROOT
ATOM      1  C   UNL     1      15.924  10.815 -13.884  1.00  0.00     0.000 C 
ENDROOT
BRANCH   1   2
ATOM      2  C   UNL     1      14.390  10.787 -14.059  1.00  0.00     0.000 C 
BRANCH   2   3
ATOM      3  C   UNL     1      13.902  11.502 -15.331  1.00  0.00     0.000 C 
BRANCH   3   4
ATOM      4  C   UNL     1      14.761  12.726 -15.691  1.00  0.00     0.000 C 
BRANCH   4   5
ATOM      5  C   UNL     1      16.202  12.343 -16.071  1.00  0.00     0.000 C 
BRANCH   5   6
ATOM      6  C   UNL     1      17.252  13.244 -15.396  1.00  0.00     0.000 C 
BRANCH   6   7
ATOM      7  C   UNL     1      18.604  13.223 -16.125  1.00  0.00     0.000 C 
BRANCH   7   8
ATOM      8  C   UNL     1      19.782  13.589 -15.204  1.00  0.00     0.000 C 
BRANCH   8   9
ATOM      9  C   UNL     1      20.280  15.029 -15.441  1.00  0.00     0.000 C 
BRANCH   9  10
ATOM     10  C   UNL     1      21.730  15.261 -14.981  1.00  0.00     0.006 C 
BRANCH  10  11
ATOM     11  C   UNL     1      22.454  16.331 -15.805  1.00  0.00     0.053 C 
BRANCH  11  12
ATOM     12  C   UNL     1      22.329  17.672 -15.153  1.00  0.00     0.041 C 
ATOM     13  O   UNL     1      22.810  17.866 -14.006  1.00  0.00    -0.550 OA
ATOM     14  O   UNL     1      21.650  18.699 -15.799  1.00  0.00    -0.550 OA
ENDBRANCH  11  12
ENDBRANCH  10  11
ENDBRANCH   9  10
ENDBRANCH   8   9
ENDBRANCH   7   8
ENDBRANCH   6   7
ENDBRANCH   5   6
ENDBRANCH   4   5
ENDBRANCH   3   4
ENDBRANCH   2   3
ENDBRANCH   1   2
BRANCH   1  15
ATOM     15  C   UNL     1      16.530   9.401 -13.861  1.00  0.00     0.000 C 
BRANCH  15  16
ATOM     16  C   UNL     1      16.371   8.668 -15.210  1.00  0.00     0.000 C 
BRANCH  16  17
ATOM     17  C   UNL     1      17.623   8.735 -16.106  1.00  0.00     0.000 C 
BRANCH  17  18
ATOM     18  C   UNL     1      18.959   8.827 -15.348  1.00  0.00    -0.000 C 
BRANCH  18  19
ATOM     19  C   UNL     1      20.185   8.295 -16.118  1.00  0.00    -0.000 C 
BRANCH  19  20
ATOM     20  C   UNL     1      21.533   8.628 -15.442  1.00  0.00    -0.000 C 
BRANCH  20  21
ATOM     21  C   UNL     1      22.256   9.799 -16.125  1.00  0.00    -0.000 C 
BRANCH  21  22
ATOM     22  C   UNL     1      21.775  11.144 -15.562  1.00  0.00    -0.000 C 
BRANCH  22  23
ATOM     23  C   UNL     1      21.972  11.259 -14.039  1.00  0.00    -0.000 C 
BRANCH  23  24
ATOM     24  C   UNL     1      23.091  12.224 -13.593  1.00  0.00    -0.000 C 
BRANCH  24  25
ATOM     25  C   UNL     1      22.606  13.486 -12.858  1.00  0.00    -0.003 C 
ATOM     26  C   UNL     1      23.093  13.553 -11.411  1.00  0.00     0.004 C 
ENDBRANCH  24  25
ENDBRANCH  23  24
ENDBRANCH  22  23
ENDBRANCH  21  22
ENDBRANCH  20  21
ENDBRANCH  19  20
ENDBRANCH  18  19
ENDBRANCH  17  18
ENDBRANCH  16  17
ENDBRANCH  15  16
ENDBRANCH   1  15
TORSDOF 22
ENDMDL
MODEL 6
REMARK VINA RESULT:    -0.592      3.926      8.443
REMARK INTER + INTRA:          -2.810
REMARK INTER:                  -4.983
REMARK INTRA:                   2.174
REMARK UNBOUND:                -1.457
REMARK SMILES CCCCCCCCCCCCCCCCCCCCCCCC(=O)[O-]
REMARK SMILES IDX 13 1 14 2 15 3 16 4 17 5 18 6 19 7 20 8 21 9 22 10 23 11
REMARK SMILES IDX 24 12 25 13 26 14 12 15 11 16 10 17 9 18 8 19 7 20 6 21 5 22
REMARK SMILES IDX 4 23 3 24 2 25 1 26
REMARK H PARENT
REMARK Flexibility Score: inf
ROOT
ATOM      1  C   UNL     1      18.777  12.566 -14.062  1.00  0.00     0.000 C 
ENDROOT
BRANCH   1   2
ATOM      2  C   UNL     1      18.527  11.166 -13.460  1.00  0.00     0.000 C 
BRANCH   2   3
ATOM      3  C   UNL     1      17.063  10.702 -13.566  1.00  0.00     0.000 C 
BRANCH   3   4
ATOM      4  C   UNL     1      16.110  11.541 -12.699  1.00  0.00     0.000 C 
BRANCH   4   5
ATOM      5  C   UNL     1      14.912  12.083 -13.496  1.00  0.00     0.000 C 
BRANCH   5   6
ATOM      6  C   UNL     1      15.282  13.292 -14.375  1.00  0.00     0.000 C 
BRANCH   6   7
ATOM      7  C   UNL     1      15.348  12.939 -15.868  1.00  0.00     0.000 C 
BRANCH   7   8
ATOM      8  C   UNL     1      15.290  11.422 -16.124  1.00  0.00     0.000 C 
BRANCH   8   9
ATOM      9  C   UNL     1      14.214  10.728 -15.263  1.00  0.00     0.000 C 
BRANCH   9  10
ATOM     10  C   UNL     1      13.423   9.648 -16.021  1.00  0.00     0.006 C 
BRANCH  10  11
ATOM     11  C   UNL     1      14.145   8.295 -16.058  1.00  0.00     0.053 C 
BRANCH  11  12
ATOM     12  C   UNL     1      15.293   8.285 -15.100  1.00  0.00     0.041 C 
ATOM     13  O   UNL     1      16.451   8.582 -15.495  1.00  0.00    -0.550 OA
ATOM     14  O   UNL     1      15.091   7.914 -13.776  1.00  0.00    -0.550 OA
ENDBRANCH  11  12
ENDBRANCH  10  11
ENDBRANCH   9  10
ENDBRANCH   8   9
ENDBRANCH   7   8
ENDBRANCH   6   7
ENDBRANCH   5   6
ENDBRANCH   4   5
ENDBRANCH   3   4
ENDBRANCH   2   3
ENDBRANCH   1   2
BRANCH   1  15
ATOM     15  C   UNL     1      20.071  12.615 -14.894  1.00  0.00     0.000 C 
BRANCH  15  16
ATOM     16  C   UNL     1      19.953  13.555 -16.113  1.00  0.00     0.000 C 
BRANCH  16  17
ATOM     17  C   UNL     1      18.861  14.633 -15.965  1.00  0.00     0.000 C 
BRANCH  17  18
ATOM     18  C   UNL     1      19.355  16.082 -16.113  1.00  0.00    -0.000 C 
BRANCH  18  19
ATOM     19  C   UNL     1      20.852  16.296 -15.811  1.00  0.00    -0.000 C 
BRANCH  19  20
ATOM     20  C   UNL     1      21.349  17.724 -16.125  1.00  0.00    -0.000 C 
BRANCH  20  21
ATOM     21  C   UNL     1      22.334  18.246 -15.067  1.00  0.00    -0.000 C 
BRANCH  21  22
ATOM     22  C   UNL     1      22.195  17.464 -13.754  1.00  0.00    -0.000 C 
BRANCH  22  23
ATOM     23  C   UNL     1      23.122  16.236 -13.688  1.00  0.00    -0.000 C 
BRANCH  23  24
ATOM     24  C   UNL     1      22.409  14.870 -13.772  1.00  0.00    -0.000 C 
BRANCH  24  25
ATOM     25  C   UNL     1      23.076  13.738 -12.971  1.00  0.00    -0.003 C 
ATOM     26  C   UNL     1      22.931  12.373 -13.642  1.00  0.00     0.004 C 
ENDBRANCH  24  25
ENDBRANCH  23  24
ENDBRANCH  22  23
ENDBRANCH  21  22
ENDBRANCH  20  21
ENDBRANCH  19  20
ENDBRANCH  18  19
ENDBRANCH  17  18
ENDBRANCH  16  17
ENDBRANCH  15  16
ENDBRANCH   1  15
TORSDOF 22
ENDMDL
