MODEL 1
REMARK VINA RESULT:    -6.622      0.000      0.000
REMARK INTER + INTRA:         -11.857
REMARK INTER:                  -9.138
REMARK INTRA:                  -2.719
REMARK UNBOUND:                -2.719
REMARK SMILES CC[C@H](CC[C@@H](C)[C@H]1CC[C@@H]2C3=CC[C@@H]4C[C@@H](O)CC[C@]4(C)[C@H]3CC[C@]21C)C(C)C
REMARK SMILES IDX 5 1 4 2 3 3 2 4 1 5 28 6 29 7 30 8 6 9 7 10 8 11 9 12 26 13
REMARK SMILES IDX 10 14 11 15 25 16 27 17 12 18 24 19 23 20 13 21 21 22 14 23
REMARK SMILES IDX 15 24 20 25 22 26 16 27 19 28 17 29 18 30
REMARK H PARENT 18 31
REMARK Flexibility Score: inf
ROOT
ATOM      1  C   UNL     1     119.520 125.604 126.871  1.00  0.00     0.004 C 
ENDROOT
BRANCH   1   2
ATOM      2  C   UNL     1     120.392 124.337 126.691  1.00  0.00     0.004 C 
BRANCH   2   3
ATOM      3  C   UNL     1     120.421 123.263 127.823  1.00  0.00    -0.009 C 
BRANCH   3   4
ATOM      4  C   UNL     1     119.934 121.879 127.302  1.00  0.00     0.000 C 
ATOM      5  C   UNL     1     118.411 121.696 127.318  1.00  0.00     0.004 C 
ENDBRANCH   3   4
BRANCH   3   6
ATOM      6  C   UNL     1     121.861 123.193 128.456  1.00  0.00    -0.014 C 
ATOM      7  C   UNL     1     122.978 123.460 127.419  1.00  0.00     0.007 C 
ATOM      8  C   UNL     1     122.116 121.807 129.110  1.00  0.00     0.007 C 
ENDBRANCH   3   6
ENDBRANCH   2   3
ENDBRANCH   1   2
BRANCH   1   9
ATOM      9  C   UNL     1     119.383 126.179 128.331  1.00  0.00    -0.011 C 
ATOM     10  C   UNL     1     119.758 127.691 128.399  1.00  0.00     0.008 C 
BRANCH   9  11
ATOM     11  C   UNL     1     117.990 125.959 129.044  1.00  0.00    -0.002 C 
ATOM     12  C   UNL     1     116.838 125.623 128.053  1.00  0.00     0.005 C 
ATOM     13  C   UNL     1     117.871 124.898 130.220  1.00  0.00    -0.023 C 
ATOM     14  C   UNL     1     116.137 124.383 128.586  1.00  0.00     0.009 C 
ATOM     15  C   UNL     1     117.147 123.743 129.524  1.00  0.00     0.021 C 
ATOM     16  C   UNL     1     119.180 124.321 130.901  1.00  0.00     0.008 C 
ATOM     17  C   UNL     1     116.946 125.494 131.366  1.00  0.00     0.012 C 
ATOM     18  C   UNL     1     116.678 122.745 130.568  1.00  0.00    -0.067 C 
ATOM     19  C   UNL     1     119.141 122.777 131.179  1.00  0.00     0.009 C 
ATOM     20  C   UNL     1     117.714 122.293 131.596  1.00  0.00     0.021 C 
ATOM     21  C   UNL     1     115.411 122.273 130.616  1.00  0.00    -0.027 C 
ATOM     22  C   UNL     1     117.513 120.763 131.878  1.00  0.00    -0.023 C 
ATOM     23  C   UNL     1     114.932 121.304 131.672  1.00  0.00     0.031 C 
ATOM     24  C   UNL     1     116.063 120.568 132.481  1.00  0.00     0.002 C 
ATOM     25  C   UNL     1     118.575 120.165 132.853  1.00  0.00     0.010 C 
ATOM     26  C   UNL     1     117.643 119.918 130.563  1.00  0.00     0.012 C 
ATOM     27  C   UNL     1     115.964 121.004 133.974  1.00  0.00     0.036 C 
ATOM     28  C   UNL     1     118.454 120.621 134.303  1.00  0.00     0.032 C 
ATOM     29  C   UNL     1     117.048 120.382 134.881  1.00  0.00     0.114 C 
BRANCH  29  30
ATOM     30  O   UNL     1     116.808 119.018 135.125  1.00  0.00    -0.393 OA
ATOM     31  H   UNL     1     117.469 118.488 134.619  1.00  0.00     0.210 HD
ENDBRANCH  29  30
ENDBRANCH   9  11
ENDBRANCH   1   9
TORSDOF 7
ENDMDL
MODEL 2
REMARK VINA RESULT:    -6.568      2.764      6.730
REMARK INTER + INTRA:         -11.783
REMARK INTER:                  -8.970
REMARK INTRA:                  -2.813
REMARK UNBOUND:                -2.719
REMARK SMILES CC[C@H](CC[C@@H](C)[C@H]1CC[C@@H]2C3=CC[C@@H]4C[C@@H](O)CC[C@]4(C)[C@H]3CC[C@]21C)C(C)C
REMARK SMILES IDX 5 1 4 2 3 3 2 4 1 5 28 6 29 7 30 8 6 9 7 10 8 11 9 12 26 13
REMARK SMILES IDX 10 14 11 15 25 16 27 17 12 18 24 19 23 20 13 21 21 22 14 23
REMARK SMILES IDX 15 24 20 25 22 26 16 27 19 28 17 29 18 30
REMARK H PARENT 18 31
REMARK Flexibility Score: inf
ROOT
ATOM      1  C   UNL     1     117.327 119.159 128.903  1.00  0.00     0.004 C 
ENDROOT
BRANCH   1   2
ATOM      2  C   UNL     1     115.867 119.544 129.246  1.00  0.00     0.004 C 
BRANCH   2   3
ATOM      3  C   UNL     1     115.553 120.997 129.723  1.00  0.00    -0.009 C 
BRANCH   3   4
ATOM      4  C   UNL     1     114.697 121.763 128.671  1.00  0.00     0.000 C 
ATOM      5  C   UNL     1     115.508 122.399 127.535  1.00  0.00     0.004 C 
ENDBRANCH   3   4
BRANCH   3   6
ATOM      6  C   UNL     1     114.868 120.958 131.140  1.00  0.00    -0.014 C 
ATOM      7  C   UNL     1     114.614 122.373 131.714  1.00  0.00     0.007 C 
ATOM      8  C   UNL     1     115.733 120.162 132.155  1.00  0.00     0.007 C 
ENDBRANCH   3   6
ENDBRANCH   2   3
ENDBRANCH   1   2
BRANCH   1   9
ATOM      9  C   UNL     1     118.453 119.670 129.880  1.00  0.00    -0.011 C 
ATOM     10  C   UNL     1     119.207 118.491 130.567  1.00  0.00     0.008 C 
BRANCH   9  11
ATOM     11  C   UNL     1     119.510 120.673 129.268  1.00  0.00    -0.002 C 
ATOM     12  C   UNL     1     119.633 120.569 127.720  1.00  0.00     0.005 C 
ATOM     13  C   UNL     1     119.393 122.224 129.589  1.00  0.00    -0.023 C 
ATOM     14  C   UNL     1     119.515 121.981 127.167  1.00  0.00     0.009 C 
ATOM     15  C   UNL     1     118.837 122.773 128.272  1.00  0.00     0.021 C 
ATOM     16  C   UNL     1     118.456 122.722 130.765  1.00  0.00     0.008 C 
ATOM     17  C   UNL     1     120.848 122.814 129.839  1.00  0.00     0.012 C 
ATOM     18  C   UNL     1     118.935 124.288 128.281  1.00  0.00    -0.067 C 
ATOM     19  C   UNL     1     117.609 123.998 130.425  1.00  0.00     0.009 C 
ATOM     20  C   UNL     1     118.397 125.001 129.521  1.00  0.00     0.021 C 
ATOM     21  C   UNL     1     119.474 124.996 127.262  1.00  0.00    -0.027 C 
ATOM     22  C   UNL     1     117.665 126.314 129.073  1.00  0.00    -0.023 C 
ATOM     23  C   UNL     1     119.600 126.501 127.280  1.00  0.00     0.031 C 
ATOM     24  C   UNL     1     118.730 127.243 128.360  1.00  0.00     0.002 C 
ATOM     25  C   UNL     1     116.996 127.087 130.253  1.00  0.00     0.010 C 
ATOM     26  C   UNL     1     116.498 126.004 128.073  1.00  0.00     0.012 C 
ATOM     27  C   UNL     1     119.689 127.948 129.366  1.00  0.00     0.036 C 
ATOM     28  C   UNL     1     117.965 127.756 131.222  1.00  0.00     0.032 C 
ATOM     29  C   UNL     1     118.963 128.688 130.511  1.00  0.00     0.114 C 
BRANCH  29  30
ATOM     30  O   UNL     1     118.346 129.870 130.064  1.00  0.00    -0.393 OA
ATOM     31  H   UNL     1     117.470 129.954 130.509  1.00  0.00     0.210 HD
ENDBRANCH  29  30
ENDBRANCH   9  11
ENDBRANCH   1   9
TORSDOF 7
ENDMDL
MODEL 3
REMARK VINA RESULT:    -6.502      2.028      4.976
REMARK INTER + INTRA:         -11.692
REMARK INTER:                  -9.039
REMARK INTRA:                  -2.653
REMARK UNBOUND:                -2.719
REMARK SMILES CC[C@H](CC[C@@H](C)[C@H]1CC[C@@H]2C3=CC[C@@H]4C[C@@H](O)CC[C@]4(C)[C@H]3CC[C@]21C)C(C)C
REMARK SMILES IDX 5 1 4 2 3 3 2 4 1 5 28 6 29 7 30 8 6 9 7 10 8 11 9 12 26 13
REMARK SMILES IDX 10 14 11 15 25 16 27 17 12 18 24 19 23 20 13 21 21 22 14 23
REMARK SMILES IDX 15 24 20 25 22 26 16 27 19 28 17 29 18 30
REMARK H PARENT 18 31
REMARK Flexibility Score: inf
ROOT
ATOM      1  C   UNL     1     120.495 120.523 125.494  1.00  0.00     0.004 C 
ENDROOT
BRANCH   1   2
ATOM      2  C   UNL     1     119.921 121.935 125.764  1.00  0.00     0.004 C 
BRANCH   2   3
ATOM      3  C   UNL     1     120.078 122.564 127.185  1.00  0.00    -0.009 C 
BRANCH   3   4
ATOM      4  C   UNL     1     121.547 123.009 127.446  1.00  0.00     0.000 C 
ATOM      5  C   UNL     1     121.950 123.027 128.927  1.00  0.00     0.004 C 
ENDBRANCH   3   4
BRANCH   3   6
ATOM      6  C   UNL     1     119.053 123.746 127.362  1.00  0.00    -0.014 C 
ATOM      7  C   UNL     1     117.716 123.487 126.627  1.00  0.00     0.007 C 
ATOM      8  C   UNL     1     119.649 125.083 126.844  1.00  0.00     0.007 C 
ENDBRANCH   3   6
ENDBRANCH   2   3
ENDBRANCH   1   2
BRANCH   1   9
ATOM      9  C   UNL     1     119.582 119.294 125.868  1.00  0.00    -0.011 C 
ATOM     10  C   UNL     1     119.640 118.174 124.786  1.00  0.00     0.008 C 
BRANCH   9  11
ATOM     11  C   UNL     1     119.821 118.651 127.292  1.00  0.00    -0.002 C 
ATOM     12  C   UNL     1     121.241 118.927 127.862  1.00  0.00     0.005 C 
ATOM     13  C   UNL     1     118.811 118.970 128.475  1.00  0.00    -0.023 C 
ATOM     14  C   UNL     1     121.060 119.457 129.276  1.00  0.00     0.009 C 
ATOM     15  C   UNL     1     119.625 119.952 129.322  1.00  0.00     0.021 C 
ATOM     16  C   UNL     1     117.407 119.636 128.160  1.00  0.00     0.008 C 
ATOM     17  C   UNL     1     118.546 117.642 129.306  1.00  0.00     0.012 C 
ATOM     18  C   UNL     1     118.937 120.147 130.662  1.00  0.00    -0.067 C 
ATOM     19  C   UNL     1     116.988 120.770 129.160  1.00  0.00     0.009 C 
ATOM     20  C   UNL     1     117.442 120.459 130.624  1.00  0.00     0.021 C 
ATOM     21  C   UNL     1     119.588 120.044 131.843  1.00  0.00    -0.027 C 
ATOM     22  C   UNL     1     117.118 121.520 131.732  1.00  0.00    -0.023 C 
ATOM     23  C   UNL     1     118.901 120.208 133.178  1.00  0.00     0.031 C 
ATOM     24  C   UNL     1     117.481 120.882 133.135  1.00  0.00     0.002 C 
ATOM     25  C   UNL     1     115.627 121.984 131.733  1.00  0.00     0.010 C 
ATOM     26  C   UNL     1     117.955 122.831 131.529  1.00  0.00     0.012 C 
ATOM     27  C   UNL     1     116.426 119.842 133.618  1.00  0.00     0.036 C 
ATOM     28  C   UNL     1     114.622 120.937 132.203  1.00  0.00     0.032 C 
ATOM     29  C   UNL     1     114.972 120.363 133.587  1.00  0.00     0.114 C 
BRANCH  29  30
ATOM     30  O   UNL     1     114.726 121.290 134.616  1.00  0.00    -0.393 OA
ATOM     31  H   UNL     1     113.813 121.143 134.958  1.00  0.00     0.210 HD
ENDBRANCH  29  30
ENDBRANCH   9  11
ENDBRANCH   1   9
TORSDOF 7
ENDMDL
MODEL 4
REMARK VINA RESULT:    -6.185      2.739      6.629
REMARK INTER + INTRA:         -11.254
REMARK INTER:                  -8.346
REMARK INTRA:                  -2.908
REMARK UNBOUND:                -2.719
REMARK SMILES CC[C@H](CC[C@@H](C)[C@H]1CC[C@@H]2C3=CC[C@@H]4C[C@@H](O)CC[C@]4(C)[C@H]3CC[C@]21C)C(C)C
REMARK SMILES IDX 5 1 4 2 3 3 2 4 1 5 28 6 29 7 30 8 6 9 7 10 8 11 9 12 26 13
REMARK SMILES IDX 10 14 11 15 25 16 27 17 12 18 24 19 23 20 13 21 21 22 14 23
REMARK SMILES IDX 15 24 20 25 22 26 16 27 19 28 17 29 18 30
REMARK H PARENT 18 31
REMARK Flexibility Score: inf
ROOT
ATOM      1  C   UNL     1     115.814 122.345 131.522  1.00  0.00     0.004 C 
ENDROOT
BRANCH   1   2
ATOM      2  C   UNL     1     116.601 123.640 131.209  1.00  0.00     0.004 C 
BRANCH   2   3
ATOM      3  C   UNL     1     117.004 123.951 129.733  1.00  0.00    -0.009 C 
BRANCH   3   4
ATOM      4  C   UNL     1     115.895 123.500 128.737  1.00  0.00     0.000 C 
ATOM      5  C   UNL     1     116.398 123.203 127.319  1.00  0.00     0.004 C 
ENDBRANCH   3   4
BRANCH   3   6
ATOM      6  C   UNL     1     117.358 125.477 129.585  1.00  0.00    -0.014 C 
ATOM      7  C   UNL     1     118.719 125.706 128.882  1.00  0.00     0.007 C 
ATOM      8  C   UNL     1     117.395 126.178 130.970  1.00  0.00     0.007 C 
ENDBRANCH   3   6
ENDBRANCH   2   3
ENDBRANCH   1   2
BRANCH   1   9
ATOM      9  C   UNL     1     116.618 121.158 132.176  1.00  0.00    -0.011 C 
ATOM     10  C   UNL     1     115.807 120.458 133.308  1.00  0.00     0.008 C 
BRANCH   9  11
ATOM     11  C   UNL     1     117.175 120.059 131.185  1.00  0.00    -0.002 C 
ATOM     12  C   UNL     1     116.149 119.635 130.095  1.00  0.00     0.005 C 
ATOM     13  C   UNL     1     118.540 120.319 130.415  1.00  0.00    -0.023 C 
ATOM     14  C   UNL     1     116.860 119.723 128.754  1.00  0.00     0.009 C 
ATOM     15  C   UNL     1     118.044 120.642 129.003  1.00  0.00     0.021 C 
ATOM     16  C   UNL     1     119.500 121.491 130.880  1.00  0.00     0.008 C 
ATOM     17  C   UNL     1     119.387 118.974 130.388  1.00  0.00     0.012 C 
ATOM     18  C   UNL     1     119.221 120.631 128.044  1.00  0.00    -0.067 C 
ATOM     19  C   UNL     1     120.122 122.325 129.705  1.00  0.00     0.009 C 
ATOM     20  C   UNL     1     120.452 121.434 128.463  1.00  0.00     0.021 C 
ATOM     21  C   UNL     1     119.212 119.945 126.878  1.00  0.00    -0.027 C 
ATOM     22  C   UNL     1     121.052 122.137 127.196  1.00  0.00    -0.023 C 
ATOM     23  C   UNL     1     120.393 119.908 125.936  1.00  0.00     0.031 C 
ATOM     24  C   UNL     1     121.491 121.008 126.178  1.00  0.00     0.002 C 
ATOM     25  C   UNL     1     122.269 123.061 127.516  1.00  0.00     0.010 C 
ATOM     26  C   UNL     1     119.998 123.072 126.508  1.00  0.00     0.012 C 
ATOM     27  C   UNL     1     122.816 120.300 126.592  1.00  0.00     0.036 C 
ATOM     28  C   UNL     1     123.546 122.335 127.927  1.00  0.00     0.032 C 
ATOM     29  C   UNL     1     123.976 121.272 126.900  1.00  0.00     0.114 C 
BRANCH  29  30
ATOM     30  O   UNL     1     124.496 121.854 125.731  1.00  0.00    -0.393 OA
ATOM     31  H   UNL     1     125.474 121.726 125.726  1.00  0.00     0.210 HD
ENDBRANCH  29  30
ENDBRANCH   9  11
ENDBRANCH   1   9
TORSDOF 7
ENDMDL
MODEL 5
REMARK VINA RESULT:    -6.180      2.936      5.645
REMARK INTER + INTRA:         -11.247
REMARK INTER:                 -10.104
REMARK INTRA:                  -1.142
REMARK UNBOUND:                -2.719
REMARK SMILES CC[C@H](CC[C@@H](C)[C@H]1CC[C@@H]2C3=CC[C@@H]4C[C@@H](O)CC[C@]4(C)[C@H]3CC[C@]21C)C(C)C
REMARK SMILES IDX 5 1 4 2 3 3 2 4 1 5 28 6 29 7 30 8 6 9 7 10 8 11 9 12 26 13
REMARK SMILES IDX 10 14 11 15 25 16 27 17 12 18 24 19 23 20 13 21 21 22 14 23
REMARK SMILES IDX 15 24 20 25 22 26 16 27 19 28 17 29 18 30
REMARK H PARENT 18 31
REMARK Flexibility Score: inf
ROOT
ATOM      1  C   UNL     1     120.244 129.250 130.104  1.00  0.00     0.004 C 
ENDROOT
BRANCH   1   2
ATOM      2  C   UNL     1     120.107 130.785 129.963  1.00  0.00     0.004 C 
BRANCH   2   3
ATOM      3  C   UNL     1     120.654 131.486 128.680  1.00  0.00    -0.009 C 
BRANCH   3   4
ATOM      4  C   UNL     1     119.542 132.313 127.970  1.00  0.00     0.000 C 
ATOM      5  C   UNL     1     118.292 132.559 128.824  1.00  0.00     0.004 C 
ENDBRANCH   3   4
BRANCH   3   6
ATOM      6  C   UNL     1     121.911 132.361 129.044  1.00  0.00    -0.014 C 
ATOM      7  C   UNL     1     121.782 133.821 128.547  1.00  0.00     0.007 C 
ATOM      8  C   UNL     1     123.208 131.751 128.446  1.00  0.00     0.007 C 
ENDBRANCH   3   6
ENDBRANCH   2   3
ENDBRANCH   1   2
BRANCH   1   9
ATOM      9  C   UNL     1     118.913 128.421 130.258  1.00  0.00    -0.011 C 
ATOM     10  C   UNL     1     117.731 129.305 130.760  1.00  0.00     0.008 C 
BRANCH   9  11
ATOM     11  C   UNL     1     118.445 127.605 128.988  1.00  0.00    -0.002 C 
ATOM     12  C   UNL     1     119.570 127.410 127.932  1.00  0.00     0.005 C 
ATOM     13  C   UNL     1     117.779 126.175 129.179  1.00  0.00    -0.023 C 
ATOM     14  C   UNL     1     119.608 125.929 127.587  1.00  0.00     0.009 C 
ATOM     15  C   UNL     1     118.917 125.243 128.754  1.00  0.00     0.021 C 
ATOM     16  C   UNL     1     117.278 125.719 130.612  1.00  0.00     0.008 C 
ATOM     17  C   UNL     1     116.564 126.028 128.166  1.00  0.00     0.012 C 
ATOM     18  C   UNL     1     118.375 123.835 128.586  1.00  0.00    -0.067 C 
ATOM     19  C   UNL     1     117.619 124.232 130.975  1.00  0.00     0.009 C 
ATOM     20  C   UNL     1     117.526 123.288 129.733  1.00  0.00     0.021 C 
ATOM     21  C   UNL     1     118.606 123.086 127.483  1.00  0.00    -0.027 C 
ATOM     22  C   UNL     1     117.870 121.771 129.938  1.00  0.00    -0.023 C 
ATOM     23  C   UNL     1     118.042 121.696 127.300  1.00  0.00     0.031 C 
ATOM     24  C   UNL     1     117.497 121.005 128.603  1.00  0.00     0.002 C 
ATOM     25  C   UNL     1     117.125 121.122 131.145  1.00  0.00     0.010 C 
ATOM     26  C   UNL     1     119.396 121.568 130.241  1.00  0.00     0.012 C 
ATOM     27  C   UNL     1     115.963 120.785 128.440  1.00  0.00     0.036 C 
ATOM     28  C   UNL     1     115.624 120.930 130.954  1.00  0.00     0.032 C 
ATOM     29  C   UNL     1     115.288 120.145 129.673  1.00  0.00     0.114 C 
BRANCH  29  30
ATOM     30  O   UNL     1     115.606 118.781 129.797  1.00  0.00    -0.393 OA
ATOM     31  H   UNL     1     116.169 118.662 130.598  1.00  0.00     0.210 HD
ENDBRANCH  29  30
ENDBRANCH   9  11
ENDBRANCH   1   9
TORSDOF 7
ENDMDL
MODEL 6
REMARK VINA RESULT:    -6.138      3.078      7.027
REMARK INTER + INTRA:         -11.189
REMARK INTER:                  -8.659
REMARK INTRA:                  -2.530
REMARK UNBOUND:                -2.719
REMARK SMILES CC[C@H](CC[C@@H](C)[C@H]1CC[C@@H]2C3=CC[C@@H]4C[C@@H](O)CC[C@]4(C)[C@H]3CC[C@]21C)C(C)C
REMARK SMILES IDX 5 1 4 2 3 3 2 4 1 5 28 6 29 7 30 8 6 9 7 10 8 11 9 12 26 13
REMARK SMILES IDX 10 14 11 15 25 16 27 17 12 18 24 19 23 20 13 21 21 22 14 23
REMARK SMILES IDX 15 24 20 25 22 26 16 27 19 28 17 29 18 30
REMARK H PARENT 18 31
REMARK Flexibility Score: inf
ROOT
ATOM      1  C   UNL     1     115.045 121.717 130.604  1.00  0.00     0.004 C 
ENDROOT
BRANCH   1   2
ATOM      2  C   UNL     1     115.734 122.855 129.813  1.00  0.00     0.004 C 
BRANCH   2   3
ATOM      3  C   UNL     1     115.215 123.215 128.385  1.00  0.00    -0.009 C 
BRANCH   3   4
ATOM      4  C   UNL     1     116.366 123.167 127.337  1.00  0.00     0.000 C 
ATOM      5  C   UNL     1     117.210 124.446 127.263  1.00  0.00     0.004 C 
ENDBRANCH   3   4
BRANCH   3   6
ATOM      6  C   UNL     1     114.014 122.274 128.000  1.00  0.00    -0.014 C 
ATOM      7  C   UNL     1     114.441 121.122 127.059  1.00  0.00     0.007 C 
ATOM      8  C   UNL     1     112.875 123.075 127.312  1.00  0.00     0.007 C 
ENDBRANCH   3   6
ENDBRANCH   2   3
ENDBRANCH   1   2
BRANCH   1   9
ATOM      9  C   UNL     1     115.961 120.826 131.525  1.00  0.00    -0.011 C 
ATOM     10  C   UNL     1     115.146 120.122 132.652  1.00  0.00     0.008 C 
BRANCH   9  11
ATOM     11  C   UNL     1     116.861 119.754 130.792  1.00  0.00    -0.002 C 
ATOM     12  C   UNL     1     116.113 118.993 129.659  1.00  0.00     0.005 C 
ATOM     13  C   UNL     1     118.254 120.195 130.169  1.00  0.00    -0.023 C 
ATOM     14  C   UNL     1     116.993 119.060 128.420  1.00  0.00     0.009 C 
ATOM     15  C   UNL     1     117.929 120.229 128.673  1.00  0.00     0.021 C 
ATOM     16  C   UNL     1     118.893 121.590 130.566  1.00  0.00     0.008 C 
ATOM     17  C   UNL     1     119.333 119.063 130.454  1.00  0.00     0.012 C 
ATOM     18  C   UNL     1     119.221 120.345 127.883  1.00  0.00    -0.067 C 
ATOM     19  C   UNL     1     119.519 122.382 129.366  1.00  0.00     0.009 C 
ATOM     20  C   UNL     1     120.198 121.433 128.326  1.00  0.00     0.021 C 
ATOM     21  C   UNL     1     119.521 119.533 126.843  1.00  0.00    -0.027 C 
ATOM     22  C   UNL     1     120.843 122.083 127.052  1.00  0.00    -0.023 C 
ATOM     23  C   UNL     1     120.818 119.626 126.074  1.00  0.00     0.031 C 
ATOM     24  C   UNL     1     121.638 120.952 126.281  1.00  0.00     0.002 C 
ATOM     25  C   UNL     1     121.799 123.273 127.377  1.00  0.00     0.010 C 
ATOM     26  C   UNL     1     119.749 122.685 126.102  1.00  0.00     0.012 C 
ATOM     27  C   UNL     1     122.993 120.593 126.962  1.00  0.00     0.036 C 
ATOM     28  C   UNL     1     123.111 122.885 128.051  1.00  0.00     0.032 C 
ATOM     29  C   UNL     1     123.887 121.816 127.262  1.00  0.00     0.114 C 
BRANCH  29  30
ATOM     30  O   UNL     1     124.462 122.344 126.092  1.00  0.00    -0.393 OA
ATOM     31  H   UNL     1     125.431 122.164 126.110  1.00  0.00     0.210 HD
ENDBRANCH  29  30
ENDBRANCH   9  11
ENDBRANCH   1   9
TORSDOF 7
ENDMDL
MODEL 7
REMARK VINA RESULT:    -5.932      2.973      6.185
REMARK INTER + INTRA:         -10.905
REMARK INTER:                  -7.981
REMARK INTRA:                  -2.924
REMARK UNBOUND:                -2.719
REMARK SMILES CC[C@H](CC[C@@H](C)[C@H]1CC[C@@H]2C3=CC[C@@H]4C[C@@H](O)CC[C@]4(C)[C@H]3CC[C@]21C)C(C)C
REMARK SMILES IDX 5 1 4 2 3 3 2 4 1 5 28 6 29 7 30 8 6 9 7 10 8 11 9 12 26 13
REMARK SMILES IDX 10 14 11 15 25 16 27 17 12 18 24 19 23 20 13 21 21 22 14 23
REMARK SMILES IDX 15 24 20 25 22 26 16 27 19 28 17 29 18 30
REMARK H PARENT 18 31
REMARK Flexibility Score: inf
ROOT
ATOM      1  C   UNL     1     120.630 118.110 126.840  1.00  0.00     0.004 C 
ENDROOT
BRANCH   1   2
ATOM      2  C   UNL     1     119.099 118.143 127.065  1.00  0.00     0.004 C 
BRANCH   2   3
ATOM      3  C   UNL     1     118.523 118.942 128.276  1.00  0.00    -0.009 C 
BRANCH   3   4
ATOM      4  C   UNL     1     117.175 119.631 127.908  1.00  0.00     0.000 C 
ATOM      5  C   UNL     1     116.275 119.947 129.109  1.00  0.00     0.004 C 
ENDBRANCH   3   4
BRANCH   3   6
ATOM      6  C   UNL     1     118.390 117.996 129.527  1.00  0.00    -0.014 C 
ATOM      7  C   UNL     1     119.490 118.254 130.585  1.00  0.00     0.007 C 
ATOM      8  C   UNL     1     118.452 116.503 129.105  1.00  0.00     0.007 C 
ENDBRANCH   3   6
ENDBRANCH   2   3
ENDBRANCH   1   2
BRANCH   1   9
ATOM      9  C   UNL     1     121.492 119.183 127.605  1.00  0.00    -0.011 C 
ATOM     10  C   UNL     1     122.936 118.673 127.896  1.00  0.00     0.008 C 
BRANCH   9  11
ATOM     11  C   UNL     1     121.573 120.617 126.946  1.00  0.00    -0.002 C 
ATOM     12  C   UNL     1     121.023 120.658 125.491  1.00  0.00     0.005 C 
ATOM     13  C   UNL     1     120.920 121.859 127.690  1.00  0.00    -0.023 C 
ATOM     14  C   UNL     1     120.040 121.817 125.418  1.00  0.00     0.009 C 
ATOM     15  C   UNL     1     119.653 122.086 126.862  1.00  0.00     0.021 C 
ATOM     16  C   UNL     1     120.499 121.739 129.213  1.00  0.00     0.008 C 
ATOM     17  C   UNL     1     121.882 123.117 127.546  1.00  0.00     0.012 C 
ATOM     18  C   UNL     1     119.040 123.423 127.241  1.00  0.00    -0.067 C 
ATOM     19  C   UNL     1     119.114 122.390 129.557  1.00  0.00     0.009 C 
ATOM     20  C   UNL     1     118.858 123.694 128.733  1.00  0.00     0.021 C 
ATOM     21  C   UNL     1     118.676 124.350 126.325  1.00  0.00    -0.027 C 
ATOM     22  C   UNL     1     117.495 124.441 128.950  1.00  0.00    -0.023 C 
ATOM     23  C   UNL     1     118.095 125.693 126.699  1.00  0.00     0.031 C 
ATOM     24  C   UNL     1     117.571 125.820 128.177  1.00  0.00     0.002 C 
ATOM     25  C   UNL     1     117.157 124.695 130.452  1.00  0.00     0.010 C 
ATOM     26  C   UNL     1     116.291 123.603 128.395  1.00  0.00     0.012 C 
ATOM     27  C   UNL     1     118.438 126.882 128.917  1.00  0.00     0.036 C 
ATOM     28  C   UNL     1     118.031 125.734 131.147  1.00  0.00     0.032 C 
ATOM     29  C   UNL     1     118.055 127.080 130.401  1.00  0.00     0.114 C 
BRANCH  29  30
ATOM     30  O   UNL     1     116.841 127.776 130.540  1.00  0.00    -0.393 OA
ATOM     31  H   UNL     1     116.571 128.115 129.654  1.00  0.00     0.210 HD
ENDBRANCH  29  30
ENDBRANCH   9  11
ENDBRANCH   1   9
TORSDOF 7
ENDMDL
MODEL 8
REMARK VINA RESULT:    -5.896      2.977      6.602
REMARK INTER + INTRA:         -10.856
REMARK INTER:                  -7.850
REMARK INTRA:                  -3.006
REMARK UNBOUND:                -2.719
REMARK SMILES CC[C@H](CC[C@@H](C)[C@H]1CC[C@@H]2C3=CC[C@@H]4C[C@@H](O)CC[C@]4(C)[C@H]3CC[C@]21C)C(C)C
REMARK SMILES IDX 5 1 4 2 3 3 2 4 1 5 28 6 29 7 30 8 6 9 7 10 8 11 9 12 26 13
REMARK SMILES IDX 10 14 11 15 25 16 27 17 12 18 24 19 23 20 13 21 21 22 14 23
REMARK SMILES IDX 15 24 20 25 22 26 16 27 19 28 17 29 18 30
REMARK H PARENT 18 31
REMARK Flexibility Score: inf
ROOT
ATOM      1  C   UNL     1     117.121 125.065 130.909  1.00  0.00     0.004 C 
ENDROOT
BRANCH   1   2
ATOM      2  C   UNL     1     116.691 123.657 131.389  1.00  0.00     0.004 C 
BRANCH   2   3
ATOM      3  C   UNL     1     116.822 122.445 130.415  1.00  0.00    -0.009 C 
BRANCH   3   4
ATOM      4  C   UNL     1     117.746 121.341 131.007  1.00  0.00     0.000 C 
ATOM      5  C   UNL     1     118.738 121.844 132.064  1.00  0.00     0.004 C 
ENDBRANCH   3   4
BRANCH   3   6
ATOM      6  C   UNL     1     115.392 121.896 130.049  1.00  0.00    -0.014 C 
ATOM      7  C   UNL     1     114.846 122.495 128.730  1.00  0.00     0.007 C 
ATOM      8  C   UNL     1     114.374 122.192 131.184  1.00  0.00     0.007 C 
ENDBRANCH   3   6
ENDBRANCH   2   3
ENDBRANCH   1   2
BRANCH   1   9
ATOM      9  C   UNL     1     117.372 125.251 129.365  1.00  0.00    -0.011 C 
ATOM     10  C   UNL     1     116.739 126.570 128.827  1.00  0.00     0.008 C 
BRANCH   9  11
ATOM     11  C   UNL     1     118.874 125.163 128.882  1.00  0.00    -0.002 C 
ATOM     12  C   UNL     1     119.896 125.129 130.055  1.00  0.00     0.005 C 
ATOM     13  C   UNL     1     119.312 124.000 127.893  1.00  0.00    -0.023 C 
ATOM     14  C   UNL     1     120.830 123.956 129.799  1.00  0.00     0.009 C 
ATOM     15  C   UNL     1     120.071 123.061 128.834  1.00  0.00     0.021 C 
ATOM     16  C   UNL     1     118.212 123.152 127.131  1.00  0.00     0.008 C 
ATOM     17  C   UNL     1     120.313 124.590 126.808  1.00  0.00     0.012 C 
ATOM     18  C   UNL     1     120.824 122.030 128.012  1.00  0.00    -0.067 C 
ATOM     19  C   UNL     1     118.501 121.611 127.080  1.00  0.00     0.009 C 
ATOM     20  C   UNL     1     120.026 121.305 126.929  1.00  0.00     0.021 C 
ATOM     21  C   UNL     1     122.135 121.756 128.200  1.00  0.00    -0.027 C 
ATOM     22  C   UNL     1     120.472 119.801 126.893  1.00  0.00    -0.023 C 
ATOM     23  C   UNL     1     122.894 120.752 127.364  1.00  0.00     0.031 C 
ATOM     24  C   UNL     1     122.010 119.760 126.522  1.00  0.00     0.002 C 
ATOM     25  C   UNL     1     119.661 118.936 125.879  1.00  0.00     0.010 C 
ATOM     26  C   UNL     1     120.258 119.109 128.285  1.00  0.00     0.012 C 
ATOM     27  C   UNL     1     122.275 120.025 125.010  1.00  0.00     0.036 C 
ATOM     28  C   UNL     1     119.939 119.228 124.408  1.00  0.00     0.032 C 
ATOM     29  C   UNL     1     121.436 119.140 124.062  1.00  0.00     0.114 C 
BRANCH  29  30
ATOM     30  O   UNL     1     121.891 117.810 124.046  1.00  0.00    -0.393 OA
ATOM     31  H   UNL     1     122.671 117.739 124.647  1.00  0.00     0.210 HD
ENDBRANCH  29  30
ENDBRANCH   9  11
ENDBRANCH   1   9
TORSDOF 7
ENDMDL
MODEL 9
REMARK VINA RESULT:    -5.834      2.141      4.419
REMARK INTER + INTRA:         -10.769
REMARK INTER:                  -9.091
REMARK INTRA:                  -1.678
REMARK UNBOUND:                -2.719
REMARK SMILES CC[C@H](CC[C@@H](C)[C@H]1CC[C@@H]2C3=CC[C@@H]4C[C@@H](O)CC[C@]4(C)[C@H]3CC[C@]21C)C(C)C
REMARK SMILES IDX 5 1 4 2 3 3 2 4 1 5 28 6 29 7 30 8 6 9 7 10 8 11 9 12 26 13
REMARK SMILES IDX 10 14 11 15 25 16 27 17 12 18 24 19 23 20 13 21 21 22 14 23
REMARK SMILES IDX 15 24 20 25 22 26 16 27 19 28 17 29 18 30
REMARK H PARENT 18 31
REMARK Flexibility Score: inf
ROOT
ATOM      1  C   UNL     1     115.695 122.806 127.253  1.00  0.00     0.004 C 
ENDROOT
BRANCH   1   2
ATOM      2  C   UNL     1     117.140 123.289 127.530  1.00  0.00     0.004 C 
BRANCH   2   3
ATOM      3  C   UNL     1     117.825 124.264 126.521  1.00  0.00    -0.009 C 
BRANCH   3   4
ATOM      4  C   UNL     1     117.838 125.722 127.066  1.00  0.00     0.000 C 
ATOM      5  C   UNL     1     116.625 126.087 127.931  1.00  0.00     0.004 C 
ENDBRANCH   3   4
BRANCH   3   6
ATOM      6  C   UNL     1     119.269 123.742 126.171  1.00  0.00    -0.014 C 
ATOM      7  C   UNL     1     119.477 122.261 126.568  1.00  0.00     0.007 C 
ATOM      8  C   UNL     1     120.357 124.599 126.872  1.00  0.00     0.007 C 
ENDBRANCH   3   6
ENDBRANCH   2   3
ENDBRANCH   1   2
BRANCH   1   9
ATOM      9  C   UNL     1     114.760 122.588 128.502  1.00  0.00    -0.011 C 
ATOM     10  C   UNL     1     113.252 122.568 128.105  1.00  0.00     0.008 C 
BRANCH   9  11
ATOM     11  C   UNL     1     115.074 121.328 129.403  1.00  0.00    -0.002 C 
ATOM     12  C   UNL     1     115.391 120.047 128.580  1.00  0.00     0.005 C 
ATOM     13  C   UNL     1     116.208 121.421 130.511  1.00  0.00    -0.023 C 
ATOM     14  C   UNL     1     116.686 119.470 129.131  1.00  0.00     0.009 C 
ATOM     15  C   UNL     1     117.345 120.629 129.860  1.00  0.00     0.021 C 
ATOM     16  C   UNL     1     116.778 122.835 130.945  1.00  0.00     0.008 C 
ATOM     17  C   UNL     1     115.718 120.668 131.822  1.00  0.00     0.012 C 
ATOM     18  C   UNL     1     118.420 120.354 130.895  1.00  0.00    -0.067 C 
ATOM     19  C   UNL     1     118.336 122.880 131.123  1.00  0.00     0.009 C 
ATOM     20  C   UNL     1     118.896 121.548 131.721  1.00  0.00     0.021 C 
ATOM     21  C   UNL     1     118.940 119.123 131.105  1.00  0.00    -0.027 C 
ATOM     22  C   UNL     1     120.447 121.434 131.929  1.00  0.00    -0.023 C 
ATOM     23  C   UNL     1     119.989 118.839 132.154  1.00  0.00     0.031 C 
ATOM     24  C   UNL     1     120.732 120.100 132.732  1.00  0.00     0.002 C 
ATOM     25  C   UNL     1     121.064 122.650 132.689  1.00  0.00     0.010 C 
ATOM     26  C   UNL     1     121.205 121.382 130.556  1.00  0.00     0.012 C 
ATOM     27  C   UNL     1     120.391 120.222 134.248  1.00  0.00     0.036 C 
ATOM     28  C   UNL     1     120.702 122.742 134.168  1.00  0.00     0.032 C 
ATOM     29  C   UNL     1     121.027 121.449 134.936  1.00  0.00     0.114 C 
BRANCH  29  30
ATOM     30  O   UNL     1     122.411 121.286 135.123  1.00  0.00    -0.393 OA
ATOM     31  H   UNL     1     122.883 121.961 134.579  1.00  0.00     0.210 HD
ENDBRANCH  29  30
ENDBRANCH   9  11
ENDBRANCH   1   9
TORSDOF 7
ENDMDL
