MODEL 1
REMARK VINA RESULT:    -5.320      0.000      0.000
REMARK INTER + INTRA:         -18.960
REMARK INTER:                 -14.028
REMARK INTRA:                  -4.932
REMARK UNBOUND:                -4.932
REMARK SMILES CCCCCCCCCCCCCCCCCCCCCCCCCCCCCC(=O)[O-]
REMARK SMILES IDX 16 1 17 2 18 3 19 4 20 5 21 6 22 7 23 8 24 9 25 10 26 11
REMARK SMILES IDX 27 12 28 13 29 14 30 15 31 16 32 17 15 18 14 19 13 20 12 21
REMARK SMILES IDX 11 22 10 23 9 24 8 25 7 26 6 27 5 28 4 29 3 30 2 31 1 32
REMARK H PARENT
REMARK Flexibility Score: inf
ROOT
ATOM      1  C   UNL     1      19.232  -5.735  30.966  1.00  0.00     0.000 C 
ENDROOT
BRANCH   1   2
ATOM      2  C   UNL     1      20.392  -5.517  29.970  1.00  0.00     0.000 C 
BRANCH   2   3
ATOM      3  C   UNL     1      21.636  -6.380  30.257  1.00  0.00     0.000 C 
BRANCH   3   4
ATOM      4  C   UNL     1      22.636  -5.738  31.242  1.00  0.00     0.000 C 
BRANCH   4   5
ATOM      5  C   UNL     1      22.448  -6.196  32.699  1.00  0.00     0.000 C 
BRANCH   5   6
ATOM      6  C   UNL     1      22.240  -5.017  33.664  1.00  0.00     0.000 C 
BRANCH   6   7
ATOM      7  C   UNL     1      21.940  -5.519  35.083  1.00  0.00     0.000 C 
BRANCH   7   8
ATOM      8  C   UNL     1      20.446  -5.436  35.445  1.00  0.00     0.000 C 
BRANCH   8   9
ATOM      9  C   UNL     1      20.180  -4.800  36.828  1.00  0.00     0.000 C 
BRANCH   9  10
ATOM     10  C   UNL     1      21.402  -4.901  37.757  1.00  0.00     0.000 C 
BRANCH  10  11
ATOM     11  C   UNL     1      21.354  -6.153  38.660  1.00  0.00     0.000 C 
BRANCH  11  12
ATOM     12  C   UNL     1      22.723  -6.558  39.243  1.00  0.00     0.000 C 
BRANCH  12  13
ATOM     13  C   UNL     1      23.921  -6.345  38.303  1.00  0.00     0.006 C 
BRANCH  13  14
ATOM     14  C   UNL     1      24.930  -5.322  38.845  1.00  0.00     0.053 C 
BRANCH  14  15
ATOM     15  C   UNL     1      25.973  -5.992  39.687  1.00  0.00     0.041 C 
ATOM     16  O   UNL     1      26.721  -6.873  39.182  1.00  0.00    -0.550 OA
ATOM     17  O   UNL     1      26.104  -5.667  41.035  1.00  0.00    -0.550 OA
ENDBRANCH  14  15
ENDBRANCH  13  14
ENDBRANCH  12  13
ENDBRANCH  11  12
ENDBRANCH  10  11
ENDBRANCH   9  10
ENDBRANCH   8   9
ENDBRANCH   7   8
ENDBRANCH   6   7
ENDBRANCH   5   6
ENDBRANCH   4   5
ENDBRANCH   3   4
ENDBRANCH   2   3
ENDBRANCH   1   2
BRANCH   1  18
ATOM     18  C   UNL     1      18.948  -7.214  31.294  1.00  0.00     0.000 C 
BRANCH  18  19
ATOM     19  C   UNL     1      19.042  -7.591  32.790  1.00  0.00     0.000 C 
BRANCH  19  20
ATOM     20  C   UNL     1      18.027  -8.642  33.276  1.00  0.00     0.000 C 
BRANCH  20  21
ATOM     21  C   UNL     1      16.753  -8.018  33.872  1.00  0.00     0.000 C 
BRANCH  21  22
ATOM     22  C   UNL     1      16.752  -6.482  33.795  1.00  0.00     0.000 C 
BRANCH  22  23
ATOM     23  C   UNL     1      16.701  -5.817  35.183  1.00  0.00     0.000 C 
BRANCH  23  24
ATOM     24  C   UNL     1      16.960  -4.302  35.111  1.00  0.00    -0.000 C 
BRANCH  24  25
ATOM     25  C   UNL     1      17.518  -3.868  33.745  1.00  0.00    -0.000 C 
BRANCH  25  26
ATOM     26  C   UNL     1      17.829  -2.361  33.677  1.00  0.00    -0.000 C 
BRANCH  26  27
ATOM     27  C   UNL     1      18.879  -1.859  34.692  1.00  0.00    -0.000 C 
BRANCH  27  28
ATOM     28  C   UNL     1      20.343  -1.943  34.218  1.00  0.00    -0.000 C 
BRANCH  28  29
ATOM     29  C   UNL     1      21.335  -1.108  35.051  1.00  0.00    -0.000 C 
BRANCH  29  30
ATOM     30  C   UNL     1      22.624  -1.871  35.426  1.00  0.00    -0.000 C 
BRANCH  30  31
ATOM     31  C   UNL     1      23.042  -1.635  36.884  1.00  0.00    -0.003 C 
ATOM     32  C   UNL     1      21.982  -0.845  37.643  1.00  0.00     0.004 C 
ENDBRANCH  30  31
ENDBRANCH  29  30
ENDBRANCH  28  29
ENDBRANCH  27  28
ENDBRANCH  26  27
ENDBRANCH  25  26
ENDBRANCH  24  25
ENDBRANCH  23  24
ENDBRANCH  22  23
ENDBRANCH  21  22
ENDBRANCH  20  21
ENDBRANCH  19  20
ENDBRANCH  18  19
ENDBRANCH   1  18
TORSDOF 28
ENDMDL
MODEL 2
REMARK VINA RESULT:    -5.316      3.156      6.032
REMARK INTER + INTRA:         -18.949
REMARK INTER:                 -13.470
REMARK INTRA:                  -5.479
REMARK UNBOUND:                -4.932
REMARK SMILES CCCCCCCCCCCCCCCCCCCCCCCCCCCCCC(=O)[O-]
REMARK SMILES IDX 16 1 17 2 18 3 19 4 20 5 21 6 22 7 23 8 24 9 25 10 26 11
REMARK SMILES IDX 27 12 28 13 29 14 30 15 31 16 32 17 15 18 14 19 13 20 12 21
REMARK SMILES IDX 11 22 10 23 9 24 8 25 7 26 6 27 5 28 4 29 3 30 2 31 1 32
REMARK H PARENT
REMARK Flexibility Score: inf
ROOT
ATOM      1  C   UNL     1      18.545  -4.950  37.037  1.00  0.00     0.000 C 
ENDROOT
BRANCH   1   2
ATOM      2  C   UNL     1      17.287  -5.562  37.689  1.00  0.00     0.000 C 
BRANCH   2   3
ATOM      3  C   UNL     1      17.582  -6.436  38.924  1.00  0.00     0.000 C 
BRANCH   3   4
ATOM      4  C   UNL     1      18.910  -6.096  39.634  1.00  0.00     0.000 C 
BRANCH   4   5
ATOM      5  C   UNL     1      19.656  -7.330  40.172  1.00  0.00     0.000 C 
BRANCH   5   6
ATOM      6  C   UNL     1      21.111  -7.399  39.678  1.00  0.00     0.000 C 
BRANCH   6   7
ATOM      7  C   UNL     1      21.460  -6.168  38.830  1.00  0.00     0.000 C 
BRANCH   7   8
ATOM      8  C   UNL     1      22.200  -6.527  37.530  1.00  0.00     0.000 C 
BRANCH   8   9
ATOM      9  C   UNL     1      22.957  -5.337  36.900  1.00  0.00     0.000 C 
BRANCH   9  10
ATOM     10  C   UNL     1      22.363  -4.926  35.541  1.00  0.00     0.000 C 
BRANCH  10  11
ATOM     11  C   UNL     1      22.814  -3.515  35.104  1.00  0.00     0.000 C 
BRANCH  11  12
ATOM     12  C   UNL     1      22.396  -2.395  36.076  1.00  0.00     0.000 C 
BRANCH  12  13
ATOM     13  C   UNL     1      22.687  -0.966  35.589  1.00  0.00     0.006 C 
BRANCH  13  14
ATOM     14  C   UNL     1      21.475  -0.032  35.720  1.00  0.00     0.053 C 
BRANCH  14  15
ATOM     15  C   UNL     1      21.796   1.340  35.211  1.00  0.00     0.041 C 
ATOM     16  O   UNL     1      22.866   1.543  34.577  1.00  0.00    -0.550 OA
ATOM     17  O   UNL     1      20.929   2.402  35.459  1.00  0.00    -0.550 OA
ENDBRANCH  14  15
ENDBRANCH  13  14
ENDBRANCH  12  13
ENDBRANCH  11  12
ENDBRANCH  10  11
ENDBRANCH   9  10
ENDBRANCH   8   9
ENDBRANCH   7   8
ENDBRANCH   6   7
ENDBRANCH   5   6
ENDBRANCH   4   5
ENDBRANCH   3   4
ENDBRANCH   2   3
ENDBRANCH   1   2
BRANCH   1  18
ATOM     18  C   UNL     1      18.777  -5.386  35.576  1.00  0.00     0.000 C 
BRANCH  18  19
ATOM     19  C   UNL     1      17.594  -6.123  34.909  1.00  0.00     0.000 C 
BRANCH  19  20
ATOM     20  C   UNL     1      17.332  -5.760  33.435  1.00  0.00     0.000 C 
BRANCH  20  21
ATOM     21  C   UNL     1      17.263  -6.992  32.515  1.00  0.00     0.000 C 
BRANCH  21  22
ATOM     22  C   UNL     1      18.584  -7.777  32.474  1.00  0.00     0.000 C 
BRANCH  22  23
ATOM     23  C   UNL     1      19.652  -7.100  31.594  1.00  0.00     0.000 C 
BRANCH  23  24
ATOM     24  C   UNL     1      20.836  -6.571  32.422  1.00  0.00    -0.000 C 
BRANCH  24  25
ATOM     25  C   UNL     1      21.156  -5.098  32.110  1.00  0.00    -0.000 C 
BRANCH  25  26
ATOM     26  C   UNL     1      20.107  -4.440  31.193  1.00  0.00    -0.000 C 
BRANCH  26  27
ATOM     27  C   UNL     1      19.413  -3.191  31.778  1.00  0.00    -0.000 C 
BRANCH  27  28
ATOM     28  C   UNL     1      19.871  -2.786  33.192  1.00  0.00    -0.000 C 
BRANCH  28  29
ATOM     29  C   UNL     1      18.781  -2.120  34.054  1.00  0.00    -0.000 C 
BRANCH  29  30
ATOM     30  C   UNL     1      17.389  -2.101  33.385  1.00  0.00    -0.000 C 
BRANCH  30  31
ATOM     31  C   UNL     1      16.292  -1.589  34.328  1.00  0.00    -0.003 C 
ATOM     32  C   UNL     1      16.193  -2.451  35.582  1.00  0.00     0.004 C 
ENDBRANCH  30  31
ENDBRANCH  29  30
ENDBRANCH  28  29
ENDBRANCH  27  28
ENDBRANCH  26  27
ENDBRANCH  25  26
ENDBRANCH  24  25
ENDBRANCH  23  24
ENDBRANCH  22  23
ENDBRANCH  21  22
ENDBRANCH  20  21
ENDBRANCH  19  20
ENDBRANCH  18  19
ENDBRANCH   1  18
TORSDOF 28
ENDMDL
MODEL 3
REMARK VINA RESULT:    -5.307      1.612      5.303
REMARK INTER + INTRA:         -18.927
REMARK INTER:                 -12.668
REMARK INTRA:                  -6.259
REMARK UNBOUND:                -4.932
REMARK SMILES CCCCCCCCCCCCCCCCCCCCCCCCCCCCCC(=O)[O-]
REMARK SMILES IDX 16 1 17 2 18 3 19 4 20 5 21 6 22 7 23 8 24 9 25 10 26 11
REMARK SMILES IDX 27 12 28 13 29 14 30 15 31 16 32 17 15 18 14 19 13 20 12 21
REMARK SMILES IDX 11 22 10 23 9 24 8 25 7 26 6 27 5 28 4 29 3 30 2 31 1 32
REMARK H PARENT
REMARK Flexibility Score: inf
ROOT
ATOM      1  C   UNL     1      17.479  -5.940  35.260  1.00  0.00     0.000 C 
ENDROOT
BRANCH   1   2
ATOM      2  C   UNL     1      16.499  -4.808  35.638  1.00  0.00     0.000 C 
BRANCH   2   3
ATOM      3  C   UNL     1      17.082  -3.777  36.624  1.00  0.00     0.000 C 
BRANCH   3   4
ATOM      4  C   UNL     1      18.596  -3.935  36.881  1.00  0.00     0.000 C 
BRANCH   4   5
ATOM      5  C   UNL     1      19.292  -2.626  37.289  1.00  0.00     0.000 C 
BRANCH   5   6
ATOM      6  C   UNL     1      18.409  -1.390  37.050  1.00  0.00     0.000 C 
BRANCH   6   7
ATOM      7  C   UNL     1      18.963  -0.537  35.899  1.00  0.00     0.000 C 
BRANCH   7   8
ATOM      8  C   UNL     1      19.671   0.739  36.386  1.00  0.00     0.000 C 
BRANCH   8   9
ATOM      9  C   UNL     1      21.158   0.816  35.975  1.00  0.00     0.000 C 
BRANCH   9  10
ATOM     10  C   UNL     1      21.636  -0.475  35.287  1.00  0.00     0.000 C 
BRANCH  10  11
ATOM     11  C   UNL     1      22.907  -1.057  35.943  1.00  0.00     0.000 C 
BRANCH  11  12
ATOM     12  C   UNL     1      23.026  -2.589  35.828  1.00  0.00     0.000 C 
BRANCH  12  13
ATOM     13  C   UNL     1      23.344  -3.320  37.143  1.00  0.00     0.006 C 
BRANCH  13  14
ATOM     14  C   UNL     1      22.489  -4.579  37.347  1.00  0.00     0.053 C 
BRANCH  14  15
ATOM     15  C   UNL     1      23.216  -5.592  38.179  1.00  0.00     0.041 C 
ATOM     16  O   UNL     1      22.663  -6.085  39.199  1.00  0.00    -0.550 OA
ATOM     17  O   UNL     1      24.514  -5.973  37.846  1.00  0.00    -0.550 OA
ENDBRANCH  14  15
ENDBRANCH  13  14
ENDBRANCH  12  13
ENDBRANCH  11  12
ENDBRANCH  10  11
ENDBRANCH   9  10
ENDBRANCH   8   9
ENDBRANCH   7   8
ENDBRANCH   6   7
ENDBRANCH   5   6
ENDBRANCH   4   5
ENDBRANCH   3   4
ENDBRANCH   2   3
ENDBRANCH   1   2
BRANCH   1  18
ATOM     18  C   UNL     1      17.385  -6.396  33.790  1.00  0.00     0.000 C 
BRANCH  18  19
ATOM     19  C   UNL     1      18.131  -7.706  33.453  1.00  0.00     0.000 C 
BRANCH  19  20
ATOM     20  C   UNL     1      19.091  -7.635  32.250  1.00  0.00     0.000 C 
BRANCH  20  21
ATOM     21  C   UNL     1      18.878  -6.380  31.385  1.00  0.00     0.000 C 
BRANCH  21  22
ATOM     22  C   UNL     1      19.700  -6.408  30.086  1.00  0.00     0.000 C 
BRANCH  22  23
ATOM     23  C   UNL     1      20.913  -5.461  30.128  1.00  0.00     0.000 C 
BRANCH  23  24
ATOM     24  C   UNL     1      22.247  -6.225  30.155  1.00  0.00    -0.000 C 
BRANCH  24  25
ATOM     25  C   UNL     1      22.655  -6.639  31.580  1.00  0.00    -0.000 C 
BRANCH  25  26
ATOM     26  C   UNL     1      22.570  -5.477  32.587  1.00  0.00    -0.000 C 
BRANCH  26  27
ATOM     27  C   UNL     1      21.760  -5.773  33.868  1.00  0.00    -0.000 C 
BRANCH  27  28
ATOM     28  C   UNL     1      20.698  -4.718  34.233  1.00  0.00    -0.000 C 
BRANCH  28  29
ATOM     29  C   UNL     1      20.413  -3.685  33.126  1.00  0.00    -0.000 C 
BRANCH  29  30
ATOM     30  C   UNL     1      19.295  -2.682  33.486  1.00  0.00    -0.000 C 
BRANCH  30  31
ATOM     31  C   UNL     1      18.010  -2.923  32.683  1.00  0.00    -0.003 C 
ATOM     32  C   UNL     1      16.842  -2.125  33.254  1.00  0.00     0.004 C 
ENDBRANCH  30  31
ENDBRANCH  29  30
ENDBRANCH  28  29
ENDBRANCH  27  28
ENDBRANCH  26  27
ENDBRANCH  25  26
ENDBRANCH  24  25
ENDBRANCH  23  24
ENDBRANCH  22  23
ENDBRANCH  21  22
ENDBRANCH  20  21
ENDBRANCH  19  20
ENDBRANCH  18  19
ENDBRANCH   1  18
TORSDOF 28
ENDMDL
MODEL 4
REMARK VINA RESULT:    -5.304      1.654      3.763
REMARK INTER + INTRA:         -18.918
REMARK INTER:                 -13.573
REMARK INTRA:                  -5.346
REMARK UNBOUND:                -4.932
REMARK SMILES CCCCCCCCCCCCCCCCCCCCCCCCCCCCCC(=O)[O-]
REMARK SMILES IDX 16 1 17 2 18 3 19 4 20 5 21 6 22 7 23 8 24 9 25 10 26 11
REMARK SMILES IDX 27 12 28 13 29 14 30 15 31 16 32 17 15 18 14 19 13 20 12 21
REMARK SMILES IDX 11 22 10 23 9 24 8 25 7 26 6 27 5 28 4 29 3 30 2 31 1 32
REMARK H PARENT
REMARK Flexibility Score: inf
ROOT
ATOM      1  C   UNL     1      20.203  -7.158  33.465  1.00  0.00     0.000 C 
ENDROOT
BRANCH   1   2
ATOM      2  C   UNL     1      19.259  -6.933  32.264  1.00  0.00     0.000 C 
BRANCH   2   3
ATOM      3  C   UNL     1      18.218  -8.053  32.067  1.00  0.00     0.000 C 
BRANCH   3   4
ATOM      4  C   UNL     1      17.700  -8.672  33.384  1.00  0.00     0.000 C 
BRANCH   4   5
ATOM      5  C   UNL     1      16.269  -8.241  33.748  1.00  0.00     0.000 C 
BRANCH   5   6
ATOM      6  C   UNL     1      16.204  -7.487  35.086  1.00  0.00     0.000 C 
BRANCH   6   7
ATOM      7  C   UNL     1      16.681  -6.037  34.921  1.00  0.00     0.000 C 
BRANCH   7   8
ATOM      8  C   UNL     1      17.945  -5.725  35.743  1.00  0.00     0.000 C 
BRANCH   8   9
ATOM      9  C   UNL     1      17.680  -4.810  36.959  1.00  0.00     0.000 C 
BRANCH   9  10
ATOM     10  C   UNL     1      18.984  -4.286  37.585  1.00  0.00     0.000 C 
BRANCH  10  11
ATOM     11  C   UNL     1      19.876  -5.423  38.130  1.00  0.00     0.000 C 
BRANCH  11  12
ATOM     12  C   UNL     1      21.387  -5.140  38.023  1.00  0.00     0.000 C 
BRANCH  12  13
ATOM     13  C   UNL     1      22.241  -6.327  37.547  1.00  0.00     0.006 C 
BRANCH  13  14
ATOM     14  C   UNL     1      23.672  -6.291  38.102  1.00  0.00     0.053 C 
BRANCH  14  15
ATOM     15  C   UNL     1      23.703  -6.726  39.536  1.00  0.00     0.041 C 
ATOM     16  O   UNL     1      24.566  -6.250  40.322  1.00  0.00    -0.550 OA
ATOM     17  O   UNL     1      22.797  -7.678  40.001  1.00  0.00    -0.550 OA
ENDBRANCH  14  15
ENDBRANCH  13  14
ENDBRANCH  12  13
ENDBRANCH  11  12
ENDBRANCH  10  11
ENDBRANCH   9  10
ENDBRANCH   8   9
ENDBRANCH   7   8
ENDBRANCH   6   7
ENDBRANCH   5   6
ENDBRANCH   4   5
ENDBRANCH   3   4
ENDBRANCH   2   3
ENDBRANCH   1   2
BRANCH   1  18
ATOM     18  C   UNL     1      21.690  -6.887  33.160  1.00  0.00     0.000 C 
BRANCH  18  19
ATOM     19  C   UNL     1      22.058  -5.405  32.921  1.00  0.00     0.000 C 
BRANCH  19  20
ATOM     20  C   UNL     1      22.248  -4.554  34.190  1.00  0.00     0.000 C 
BRANCH  20  21
ATOM     21  C   UNL     1      20.982  -3.775  34.587  1.00  0.00     0.000 C 
BRANCH  21  22
ATOM     22  C   UNL     1      20.345  -3.031  33.401  1.00  0.00     0.000 C 
BRANCH  22  23
ATOM     23  C   UNL     1      18.862  -3.392  33.199  1.00  0.00     0.000 C 
BRANCH  23  24
ATOM     24  C   UNL     1      17.947  -2.159  33.286  1.00  0.00    -0.000 C 
BRANCH  24  25
ATOM     25  C   UNL     1      16.857  -2.314  34.361  1.00  0.00    -0.000 C 
BRANCH  25  26
ATOM     26  C   UNL     1      17.065  -1.373  35.563  1.00  0.00    -0.000 C 
BRANCH  26  27
ATOM     27  C   UNL     1      18.345  -0.511  35.511  1.00  0.00    -0.000 C 
BRANCH  27  28
ATOM     28  C   UNL     1      19.417  -0.864  36.560  1.00  0.00    -0.000 C 
BRANCH  28  29
ATOM     29  C   UNL     1      20.702  -0.017  36.474  1.00  0.00    -0.000 C 
BRANCH  29  30
ATOM     30  C   UNL     1      21.369  -0.043  35.081  1.00  0.00    -0.000 C 
BRANCH  30  31
ATOM     31  C   UNL     1      22.271   1.174  34.839  1.00  0.00    -0.003 C 
ATOM     32  C   UNL     1      21.557   2.473  35.199  1.00  0.00     0.004 C 
ENDBRANCH  30  31
ENDBRANCH  29  30
ENDBRANCH  28  29
ENDBRANCH  27  28
ENDBRANCH  26  27
ENDBRANCH  25  26
ENDBRANCH  24  25
ENDBRANCH  23  24
ENDBRANCH  22  23
ENDBRANCH  21  22
ENDBRANCH  20  21
ENDBRANCH  19  20
ENDBRANCH  18  19
ENDBRANCH   1  18
TORSDOF 28
ENDMDL
MODEL 5
REMARK VINA RESULT:    -5.270      2.863      6.687
REMARK INTER + INTRA:         -18.830
REMARK INTER:                 -13.305
REMARK INTRA:                  -5.525
REMARK UNBOUND:                -4.932
REMARK SMILES CCCCCCCCCCCCCCCCCCCCCCCCCCCCCC(=O)[O-]
REMARK SMILES IDX 16 1 17 2 18 3 19 4 20 5 21 6 22 7 23 8 24 9 25 10 26 11
REMARK SMILES IDX 27 12 28 13 29 14 30 15 31 16 32 17 15 18 14 19 13 20 12 21
REMARK SMILES IDX 11 22 10 23 9 24 8 25 7 26 6 27 5 28 4 29 3 30 2 31 1 32
REMARK H PARENT
REMARK Flexibility Score: inf
ROOT
ATOM      1  C   UNL     1      18.437  -5.781  38.410  1.00  0.00     0.000 C 
ENDROOT
BRANCH   1   2
ATOM      2  C   UNL     1      19.699  -6.146  39.221  1.00  0.00     0.000 C 
BRANCH   2   3
ATOM      3  C   UNL     1      19.488  -7.297  40.225  1.00  0.00     0.000 C 
BRANCH   3   4
ATOM      4  C   UNL     1      20.790  -8.012  40.646  1.00  0.00     0.000 C 
BRANCH   4   5
ATOM      5  C   UNL     1      21.670  -8.442  39.460  1.00  0.00     0.000 C 
BRANCH   5   6
ATOM      6  C   UNL     1      22.965  -7.620  39.359  1.00  0.00     0.000 C 
BRANCH   6   7
ATOM      7  C   UNL     1      23.034  -6.867  38.023  1.00  0.00     0.000 C 
BRANCH   7   8
ATOM      8  C   UNL     1      24.142  -5.800  37.993  1.00  0.00     0.000 C 
BRANCH   8   9
ATOM      9  C   UNL     1      23.613  -4.356  38.140  1.00  0.00     0.000 C 
BRANCH   9  10
ATOM     10  C   UNL     1      23.685  -3.575  36.816  1.00  0.00     0.000 C 
BRANCH  10  11
ATOM     11  C   UNL     1      23.050  -2.171  36.925  1.00  0.00     0.000 C 
BRANCH  11  12
ATOM     12  C   UNL     1      22.832  -1.475  35.567  1.00  0.00     0.000 C 
BRANCH  12  13
ATOM     13  C   UNL     1      21.799  -0.337  35.575  1.00  0.00     0.006 C 
BRANCH  13  14
ATOM     14  C   UNL     1      21.053  -0.218  36.912  1.00  0.00     0.053 C 
BRANCH  14  15
ATOM     15  C   UNL     1      19.609  -0.588  36.756  1.00  0.00     0.041 C 
ATOM     16  O   UNL     1      19.148  -0.863  35.615  1.00  0.00    -0.550 OA
ATOM     17  O   UNL     1      18.764  -0.602  37.863  1.00  0.00    -0.550 OA
ENDBRANCH  14  15
ENDBRANCH  13  14
ENDBRANCH  12  13
ENDBRANCH  11  12
ENDBRANCH  10  11
ENDBRANCH   9  10
ENDBRANCH   8   9
ENDBRANCH   7   8
ENDBRANCH   6   7
ENDBRANCH   5   6
ENDBRANCH   4   5
ENDBRANCH   3   4
ENDBRANCH   2   3
ENDBRANCH   1   2
BRANCH   1  18
ATOM     18  C   UNL     1      18.586  -4.516  37.540  1.00  0.00     0.000 C 
BRANCH  18  19
ATOM     19  C   UNL     1      20.026  -4.196  37.078  1.00  0.00     0.000 C 
BRANCH  19  20
ATOM     20  C   UNL     1      20.257  -4.223  35.556  1.00  0.00     0.000 C 
BRANCH  20  21
ATOM     21  C   UNL     1      20.976  -5.496  35.078  1.00  0.00     0.000 C 
BRANCH  21  22
ATOM     22  C   UNL     1      21.815  -5.264  33.810  1.00  0.00     0.000 C 
BRANCH  22  23
ATOM     23  C   UNL     1      21.384  -6.166  32.638  1.00  0.00     0.000 C 
BRANCH  23  24
ATOM     24  C   UNL     1      21.248  -5.382  31.322  1.00  0.00    -0.000 C 
BRANCH  24  25
ATOM     25  C   UNL     1      19.792  -4.985  31.025  1.00  0.00    -0.000 C 
BRANCH  25  26
ATOM     26  C   UNL     1      19.490  -3.515  31.371  1.00  0.00    -0.000 C 
BRANCH  26  27
ATOM     27  C   UNL     1      18.522  -3.302  32.554  1.00  0.00    -0.000 C 
BRANCH  27  28
ATOM     28  C   UNL     1      17.350  -4.301  32.632  1.00  0.00    -0.000 C 
BRANCH  28  29
ATOM     29  C   UNL     1      17.027  -4.801  34.054  1.00  0.00    -0.000 C 
BRANCH  29  30
ATOM     30  C   UNL     1      17.382  -6.287  34.283  1.00  0.00    -0.000 C 
BRANCH  30  31
ATOM     31  C   UNL     1      17.487  -7.074  32.971  1.00  0.00    -0.003 C 
ATOM     32  C   UNL     1      18.476  -8.229  33.095  1.00  0.00     0.004 C 
ENDBRANCH  30  31
ENDBRANCH  29  30
ENDBRANCH  28  29
ENDBRANCH  27  28
ENDBRANCH  26  27
ENDBRANCH  25  26
ENDBRANCH  24  25
ENDBRANCH  23  24
ENDBRANCH  22  23
ENDBRANCH  21  22
ENDBRANCH  20  21
ENDBRANCH  19  20
ENDBRANCH  18  19
ENDBRANCH   1  18
TORSDOF 28
ENDMDL
MODEL 6
REMARK VINA RESULT:    -5.265      1.400      4.457
REMARK INTER + INTRA:         -18.815
REMARK INTER:                 -13.695
REMARK INTRA:                  -5.120
REMARK UNBOUND:                -4.932
REMARK SMILES CCCCCCCCCCCCCCCCCCCCCCCCCCCCCC(=O)[O-]
REMARK SMILES IDX 16 1 17 2 18 3 19 4 20 5 21 6 22 7 23 8 24 9 25 10 26 11
REMARK SMILES IDX 27 12 28 13 29 14 30 15 31 16 32 17 15 18 14 19 13 20 12 21
REMARK SMILES IDX 11 22 10 23 9 24 8 25 7 26 6 27 5 28 4 29 3 30 2 31 1 32
REMARK H PARENT
REMARK Flexibility Score: inf
ROOT
ATOM      1  C   UNL     1      20.233  -2.802  33.628  1.00  0.00     0.000 C 
ENDROOT
BRANCH   1   2
ATOM      2  C   UNL     1      20.317  -1.490  34.436  1.00  0.00     0.000 C 
BRANCH   2   3
ATOM      3  C   UNL     1      20.180  -1.681  35.959  1.00  0.00     0.000 C 
BRANCH   3   4
ATOM      4  C   UNL     1      21.493  -1.471  36.743  1.00  0.00     0.000 C 
BRANCH   4   5
ATOM      5  C   UNL     1      22.756  -1.809  35.932  1.00  0.00     0.000 C 
BRANCH   5   6
ATOM      6  C   UNL     1      23.389  -3.144  36.357  1.00  0.00     0.000 C 
BRANCH   6   7
ATOM      7  C   UNL     1      22.659  -4.328  35.706  1.00  0.00     0.000 C 
BRANCH   7   8
ATOM      8  C   UNL     1      22.340  -5.456  36.703  1.00  0.00     0.000 C 
BRANCH   8   9
ATOM      9  C   UNL     1      21.280  -5.069  37.757  1.00  0.00     0.000 C 
BRANCH   9  10
ATOM     10  C   UNL     1      21.140  -6.134  38.858  1.00  0.00     0.000 C 
BRANCH  10  11
ATOM     11  C   UNL     1      22.009  -7.381  38.585  1.00  0.00     0.000 C 
BRANCH  11  12
ATOM     12  C   UNL     1      23.051  -7.672  39.683  1.00  0.00     0.000 C 
BRANCH  12  13
ATOM     13  C   UNL     1      24.148  -6.607  39.840  1.00  0.00     0.006 C 
BRANCH  13  14
ATOM     14  C   UNL     1      25.550  -7.214  40.001  1.00  0.00     0.053 C 
BRANCH  14  15
ATOM     15  C   UNL     1      26.563  -6.151  40.300  1.00  0.00     0.041 C 
ATOM     16  O   UNL     1      27.210  -5.613  39.361  1.00  0.00    -0.550 OA
ATOM     17  O   UNL     1      26.817  -5.773  41.617  1.00  0.00    -0.550 OA
ENDBRANCH  14  15
ENDBRANCH  13  14
ENDBRANCH  12  13
ENDBRANCH  11  12
ENDBRANCH  10  11
ENDBRANCH   9  10
ENDBRANCH   8   9
ENDBRANCH   7   8
ENDBRANCH   6   7
ENDBRANCH   5   6
ENDBRANCH   4   5
ENDBRANCH   3   4
ENDBRANCH   2   3
ENDBRANCH   1   2
BRANCH   1  18
ATOM     18  C   UNL     1      19.144  -2.806  32.536  1.00  0.00     0.000 C 
BRANCH  18  19
ATOM     19  C   UNL     1      19.619  -3.226  31.127  1.00  0.00     0.000 C 
BRANCH  19  20
ATOM     20  C   UNL     1      19.416  -4.711  30.773  1.00  0.00     0.000 C 
BRANCH  20  21
ATOM     21  C   UNL     1      20.740  -5.485  30.639  1.00  0.00     0.000 C 
BRANCH  21  22
ATOM     22  C   UNL     1      21.547  -5.512  31.948  1.00  0.00     0.000 C 
BRANCH  22  23
ATOM     23  C   UNL     1      21.518  -6.889  32.636  1.00  0.00     0.000 C 
BRANCH  23  24
ATOM     24  C   UNL     1      20.539  -6.925  33.822  1.00  0.00    -0.000 C 
BRANCH  24  25
ATOM     25  C   UNL     1      19.086  -7.160  33.374  1.00  0.00    -0.000 C 
BRANCH  25  26
ATOM     26  C   UNL     1      18.091  -6.191  34.041  1.00  0.00    -0.000 C 
BRANCH  26  27
ATOM     27  C   UNL     1      18.658  -5.376  35.224  1.00  0.00    -0.000 C 
BRANCH  27  28
ATOM     28  C   UNL     1      17.627  -4.525  35.990  1.00  0.00    -0.000 C 
BRANCH  28  29
ATOM     29  C   UNL     1      16.676  -3.709  35.092  1.00  0.00    -0.000 C 
BRANCH  29  30
ATOM     30  C   UNL     1      16.329  -2.315  35.662  1.00  0.00    -0.000 C 
BRANCH  30  31
ATOM     31  C   UNL     1      16.656  -1.182  34.680  1.00  0.00    -0.003 C 
ATOM     32  C   UNL     1      15.881  -1.340  33.375  1.00  0.00     0.004 C 
ENDBRANCH  30  31
ENDBRANCH  29  30
ENDBRANCH  28  29
ENDBRANCH  27  28
ENDBRANCH  26  27
ENDBRANCH  25  26
ENDBRANCH  24  25
ENDBRANCH  23  24
ENDBRANCH  22  23
ENDBRANCH  21  22
ENDBRANCH  20  21
ENDBRANCH  19  20
ENDBRANCH  18  19
ENDBRANCH   1  18
TORSDOF 28
ENDMDL
MODEL 7
REMARK VINA RESULT:    -5.256      2.637      6.799
REMARK INTER + INTRA:         -18.790
REMARK INTER:                 -13.519
REMARK INTRA:                  -5.272
REMARK UNBOUND:                -4.932
REMARK SMILES CCCCCCCCCCCCCCCCCCCCCCCCCCCCCC(=O)[O-]
REMARK SMILES IDX 16 1 17 2 18 3 19 4 20 5 21 6 22 7 23 8 24 9 25 10 26 11
REMARK SMILES IDX 27 12 28 13 29 14 30 15 31 16 32 17 15 18 14 19 13 20 12 21
REMARK SMILES IDX 11 22 10 23 9 24 8 25 7 26 6 27 5 28 4 29 3 30 2 31 1 32
REMARK H PARENT
REMARK Flexibility Score: inf
ROOT
ATOM      1  C   UNL     1      23.125  -3.934  36.779  1.00  0.00     0.000 C 
ENDROOT
BRANCH   1   2
ATOM      2  C   UNL     1      21.969  -4.743  36.152  1.00  0.00     0.000 C 
BRANCH   2   3
ATOM      3  C   UNL     1      22.265  -5.264  34.732  1.00  0.00     0.000 C 
BRANCH   3   4
ATOM      4  C   UNL     1      21.332  -6.405  34.271  1.00  0.00     0.000 C 
BRANCH   4   5
ATOM      5  C   UNL     1      21.557  -6.833  32.810  1.00  0.00     0.000 C 
BRANCH   5   6
ATOM      6  C   UNL     1      22.410  -5.823  32.025  1.00  0.00     0.000 C 
BRANCH   6   7
ATOM      7  C   UNL     1      22.059  -5.855  30.531  1.00  0.00     0.000 C 
BRANCH   7   8
ATOM      8  C   UNL     1      20.559  -5.636  30.264  1.00  0.00     0.000 C 
BRANCH   8   9
ATOM      9  C   UNL     1      20.053  -4.240  30.691  1.00  0.00     0.000 C 
BRANCH   9  10
ATOM     10  C   UNL     1      18.690  -4.310  31.400  1.00  0.00     0.000 C 
BRANCH  10  11
ATOM     11  C   UNL     1      18.739  -3.730  32.831  1.00  0.00     0.000 C 
BRANCH  11  12
ATOM     12  C   UNL     1      20.008  -2.909  33.131  1.00  0.00     0.000 C 
BRANCH  12  13
ATOM     13  C   UNL     1      20.031  -2.222  34.506  1.00  0.00     0.006 C 
BRANCH  13  14
ATOM     14  C   UNL     1      21.171  -1.202  34.643  1.00  0.00     0.053 C 
BRANCH  14  15
ATOM     15  C   UNL     1      20.937  -0.290  35.809  1.00  0.00     0.041 C 
ATOM     16  O   UNL     1      21.710  -0.326  36.804  1.00  0.00    -0.550 OA
ATOM     17  O   UNL     1      19.849   0.581  35.813  1.00  0.00    -0.550 OA
ENDBRANCH  14  15
ENDBRANCH  13  14
ENDBRANCH  12  13
ENDBRANCH  11  12
ENDBRANCH  10  11
ENDBRANCH   9  10
ENDBRANCH   8   9
ENDBRANCH   7   8
ENDBRANCH   6   7
ENDBRANCH   5   6
ENDBRANCH   4   5
ENDBRANCH   3   4
ENDBRANCH   2   3
ENDBRANCH   1   2
BRANCH   1  18
ATOM     18  C   UNL     1      23.604  -4.467  38.144  1.00  0.00     0.000 C 
BRANCH  18  19
ATOM     19  C   UNL     1      24.125  -5.922  38.142  1.00  0.00     0.000 C 
BRANCH  19  20
ATOM     20  C   UNL     1      23.545  -6.838  39.236  1.00  0.00     0.000 C 
BRANCH  20  21
ATOM     21  C   UNL     1      22.251  -7.548  38.802  1.00  0.00     0.000 C 
BRANCH  21  22
ATOM     22  C   UNL     1      21.312  -7.848  39.983  1.00  0.00     0.000 C 
BRANCH  22  23
ATOM     23  C   UNL     1      19.935  -7.175  39.835  1.00  0.00     0.000 C 
BRANCH  23  24
ATOM     24  C   UNL     1      20.005  -5.889  38.993  1.00  0.00    -0.000 C 
BRANCH  24  25
ATOM     25  C   UNL     1      18.653  -5.540  38.347  1.00  0.00    -0.000 C 
BRANCH  25  26
ATOM     26  C   UNL     1      18.735  -5.424  36.813  1.00  0.00    -0.000 C 
BRANCH  26  27
ATOM     27  C   UNL     1      17.572  -4.658  36.147  1.00  0.00    -0.000 C 
BRANCH  27  28
ATOM     28  C   UNL     1      16.328  -5.506  35.820  1.00  0.00    -0.000 C 
BRANCH  28  29
ATOM     29  C   UNL     1      16.635  -6.894  35.224  1.00  0.00    -0.000 C 
BRANCH  29  30
ATOM     30  C   UNL     1      17.100  -6.846  33.752  1.00  0.00    -0.000 C 
BRANCH  30  31
ATOM     31  C   UNL     1      17.746  -8.161  33.297  1.00  0.00    -0.003 C 
ATOM     32  C   UNL     1      18.348  -8.030  31.902  1.00  0.00     0.004 C 
ENDBRANCH  30  31
ENDBRANCH  29  30
ENDBRANCH  28  29
ENDBRANCH  27  28
ENDBRANCH  26  27
ENDBRANCH  25  26
ENDBRANCH  24  25
ENDBRANCH  23  24
ENDBRANCH  22  23
ENDBRANCH  21  22
ENDBRANCH  20  21
ENDBRANCH  19  20
ENDBRANCH  18  19
ENDBRANCH   1  18
TORSDOF 28
ENDMDL
MODEL 8
REMARK VINA RESULT:    -5.240      1.757      3.250
REMARK INTER + INTRA:         -18.751
REMARK INTER:                 -13.024
REMARK INTRA:                  -5.726
REMARK UNBOUND:                -4.932
REMARK SMILES CCCCCCCCCCCCCCCCCCCCCCCCCCCCCC(=O)[O-]
REMARK SMILES IDX 16 1 17 2 18 3 19 4 20 5 21 6 22 7 23 8 24 9 25 10 26 11
REMARK SMILES IDX 27 12 28 13 29 14 30 15 31 16 32 17 15 18 14 19 13 20 12 21
REMARK SMILES IDX 11 22 10 23 9 24 8 25 7 26 6 27 5 28 4 29 3 30 2 31 1 32
REMARK H PARENT
REMARK Flexibility Score: inf
ROOT
ATOM      1  C   UNL     1      22.312  -6.959  32.582  1.00  0.00     0.000 C 
ENDROOT
BRANCH   1   2
ATOM      2  C   UNL     1      22.056  -5.678  31.760  1.00  0.00     0.000 C 
BRANCH   2   3
ATOM      3  C   UNL     1      21.385  -5.931  30.396  1.00  0.00     0.000 C 
BRANCH   3   4
ATOM      4  C   UNL     1      19.993  -5.280  30.246  1.00  0.00     0.000 C 
BRANCH   4   5
ATOM      5  C   UNL     1      19.853  -3.943  30.994  1.00  0.00     0.000 C 
BRANCH   5   6
ATOM      6  C   UNL     1      18.576  -3.877  31.848  1.00  0.00     0.000 C 
BRANCH   6   7
ATOM      7  C   UNL     1      18.867  -3.258  33.222  1.00  0.00     0.000 C 
BRANCH   7   8
ATOM      8  C   UNL     1      20.299  -2.705  33.338  1.00  0.00     0.000 C 
BRANCH   8   9
ATOM      9  C   UNL     1      21.118  -3.345  34.481  1.00  0.00     0.000 C 
BRANCH   9  10
ATOM     10  C   UNL     1      22.003  -2.317  35.206  1.00  0.00     0.000 C 
BRANCH  10  11
ATOM     11  C   UNL     1      23.235  -2.966  35.874  1.00  0.00     0.000 C 
BRANCH  11  12
ATOM     12  C   UNL     1      22.937  -4.314  36.560  1.00  0.00     0.000 C 
BRANCH  12  13
ATOM     13  C   UNL     1      22.621  -4.225  38.062  1.00  0.00     0.006 C 
BRANCH  13  14
ATOM     14  C   UNL     1      23.676  -4.919  38.936  1.00  0.00     0.053 C 
BRANCH  14  15
ATOM     15  C   UNL     1      23.194  -6.260  39.397  1.00  0.00     0.041 C 
ATOM     16  O   UNL     1      21.986  -6.586  39.237  1.00  0.00    -0.550 OA
ATOM     17  O   UNL     1      24.068  -7.142  40.030  1.00  0.00    -0.550 OA
ENDBRANCH  14  15
ENDBRANCH  13  14
ENDBRANCH  12  13
ENDBRANCH  11  12
ENDBRANCH  10  11
ENDBRANCH   9  10
ENDBRANCH   8   9
ENDBRANCH   7   8
ENDBRANCH   6   7
ENDBRANCH   5   6
ENDBRANCH   4   5
ENDBRANCH   3   4
ENDBRANCH   2   3
ENDBRANCH   1   2
BRANCH   1  18
ATOM     18  C   UNL     1      21.471  -7.065  33.871  1.00  0.00     0.000 C 
BRANCH  18  19
ATOM     19  C   UNL     1      19.983  -6.679  33.723  1.00  0.00     0.000 C 
BRANCH  19  20
ATOM     20  C   UNL     1      19.107  -7.686  32.955  1.00  0.00     0.000 C 
BRANCH  20  21
ATOM     21  C   UNL     1      17.600  -7.449  33.154  1.00  0.00     0.000 C 
BRANCH  21  22
ATOM     22  C   UNL     1      16.917  -8.589  33.928  1.00  0.00     0.000 C 
BRANCH  22  23
ATOM     23  C   UNL     1      15.898  -8.078  34.964  1.00  0.00     0.000 C 
BRANCH  23  24
ATOM     24  C   UNL     1      15.970  -6.552  35.145  1.00  0.00    -0.000 C 
BRANCH  24  25
ATOM     25  C   UNL     1      16.799  -6.148  36.377  1.00  0.00    -0.000 C 
BRANCH  25  26
ATOM     26  C   UNL     1      17.556  -4.821  36.179  1.00  0.00    -0.000 C 
BRANCH  26  27
ATOM     27  C   UNL     1      18.856  -4.676  37.000  1.00  0.00    -0.000 C 
BRANCH  27  28
ATOM     28  C   UNL     1      19.133  -3.263  37.548  1.00  0.00    -0.000 C 
BRANCH  28  29
ATOM     29  C   UNL     1      18.078  -2.208  37.164  1.00  0.00    -0.000 C 
BRANCH  29  30
ATOM     30  C   UNL     1      18.615  -1.110  36.220  1.00  0.00    -0.000 C 
BRANCH  30  31
ATOM     31  C   UNL     1      19.652  -0.206  36.900  1.00  0.00    -0.003 C 
ATOM     32  C   UNL     1      19.918   1.050  36.076  1.00  0.00     0.004 C 
ENDBRANCH  30  31
ENDBRANCH  29  30
ENDBRANCH  28  29
ENDBRANCH  27  28
ENDBRANCH  26  27
ENDBRANCH  25  26
ENDBRANCH  24  25
ENDBRANCH  23  24
ENDBRANCH  22  23
ENDBRANCH  21  22
ENDBRANCH  20  21
ENDBRANCH  19  20
ENDBRANCH  18  19
ENDBRANCH   1  18
TORSDOF 28
ENDMDL
MODEL 9
REMARK VINA RESULT:    -5.213      3.052      5.362
REMARK INTER + INTRA:         -18.679
REMARK INTER:                 -13.779
REMARK INTRA:                  -4.900
REMARK UNBOUND:                -4.932
REMARK SMILES CCCCCCCCCCCCCCCCCCCCCCCCCCCCCC(=O)[O-]
REMARK SMILES IDX 16 1 17 2 18 3 19 4 20 5 21 6 22 7 23 8 24 9 25 10 26 11
REMARK SMILES IDX 27 12 28 13 29 14 30 15 31 16 32 17 15 18 14 19 13 20 12 21
REMARK SMILES IDX 11 22 10 23 9 24 8 25 7 26 6 27 5 28 4 29 3 30 2 31 1 32
REMARK H PARENT
REMARK Flexibility Score: inf
ROOT
ATOM      1  C   UNL     1      21.272  -5.382  34.991  1.00  0.00     0.000 C 
ENDROOT
BRANCH   1   2
ATOM      2  C   UNL     1      21.971  -5.762  36.315  1.00  0.00     0.000 C 
BRANCH   2   3
ATOM      3  C   UNL     1      21.998  -4.628  37.358  1.00  0.00     0.000 C 
BRANCH   3   4
ATOM      4  C   UNL     1      23.416  -4.241  37.833  1.00  0.00     0.000 C 
BRANCH   4   5
ATOM      5  C   UNL     1      23.778  -4.805  39.217  1.00  0.00     0.000 C 
BRANCH   5   6
ATOM      6  C   UNL     1      24.710  -6.026  39.130  1.00  0.00     0.000 C 
BRANCH   6   7
ATOM      7  C   UNL     1      24.165  -7.191  39.968  1.00  0.00     0.000 C 
BRANCH   7   8
ATOM      8  C   UNL     1      23.769  -8.409  39.114  1.00  0.00     0.000 C 
BRANCH   8   9
ATOM      9  C   UNL     1      22.242  -8.579  38.951  1.00  0.00     0.000 C 
BRANCH   9  10
ATOM     10  C   UNL     1      21.459  -7.914  40.097  1.00  0.00     0.000 C 
BRANCH  10  11
ATOM     11  C   UNL     1      20.483  -6.830  39.591  1.00  0.00     0.000 C 
BRANCH  11  12
ATOM     12  C   UNL     1      19.065  -6.937  40.185  1.00  0.00     0.000 C 
BRANCH  12  13
ATOM     13  C   UNL     1      18.093  -5.823  39.762  1.00  0.00     0.006 C 
BRANCH  13  14
ATOM     14  C   UNL     1      18.415  -5.246  38.376  1.00  0.00     0.053 C 
BRANCH  14  15
ATOM     15  C   UNL     1      17.256  -5.414  37.442  1.00  0.00     0.041 C 
ATOM     16  O   UNL     1      17.412  -6.009  36.342  1.00  0.00    -0.550 OA
ATOM     17  O   UNL     1      16.007  -4.890  37.771  1.00  0.00    -0.550 OA
ENDBRANCH  14  15
ENDBRANCH  13  14
ENDBRANCH  12  13
ENDBRANCH  11  12
ENDBRANCH  10  11
ENDBRANCH   9  10
ENDBRANCH   8   9
ENDBRANCH   7   8
ENDBRANCH   6   7
ENDBRANCH   5   6
ENDBRANCH   4   5
ENDBRANCH   3   4
ENDBRANCH   2   3
ENDBRANCH   1   2
BRANCH   1  18
ATOM     18  C   UNL     1      22.226  -4.863  33.897  1.00  0.00     0.000 C 
BRANCH  18  19
ATOM     19  C   UNL     1      22.533  -5.860  32.758  1.00  0.00     0.000 C 
BRANCH  19  20
ATOM     20  C   UNL     1      21.303  -6.495  32.081  1.00  0.00     0.000 C 
BRANCH  20  21
ATOM     21  C   UNL     1      21.162  -6.101  30.600  1.00  0.00     0.000 C 
BRANCH  21  22
ATOM     22  C   UNL     1      19.711  -5.777  30.207  1.00  0.00     0.000 C 
BRANCH  22  23
ATOM     23  C   UNL     1      19.012  -4.853  31.222  1.00  0.00     0.000 C 
BRANCH  23  24
ATOM     24  C   UNL     1      19.578  -3.422  31.189  1.00  0.00    -0.000 C 
BRANCH  24  25
ATOM     25  C   UNL     1      19.503  -2.732  32.562  1.00  0.00    -0.000 C 
BRANCH  25  26
ATOM     26  C   UNL     1      18.543  -3.442  33.536  1.00  0.00    -0.000 C 
BRANCH  26  27
ATOM     27  C   UNL     1      18.577  -2.922  34.990  1.00  0.00    -0.000 C 
BRANCH  27  28
ATOM     28  C   UNL     1      19.172  -1.512  35.170  1.00  0.00    -0.000 C 
BRANCH  28  29
ATOM     29  C   UNL     1      20.403  -1.449  36.095  1.00  0.00    -0.000 C 
BRANCH  29  30
ATOM     30  C   UNL     1      21.749  -1.546  35.344  1.00  0.00    -0.000 C 
BRANCH  30  31
ATOM     31  C   UNL     1      22.623  -0.300  35.541  1.00  0.00    -0.003 C 
ATOM     32  C   UNL     1      21.980   0.932  34.911  1.00  0.00     0.004 C 
ENDBRANCH  30  31
ENDBRANCH  29  30
ENDBRANCH  28  29
ENDBRANCH  27  28
ENDBRANCH  26  27
ENDBRANCH  25  26
ENDBRANCH  24  25
ENDBRANCH  23  24
ENDBRANCH  22  23
ENDBRANCH  21  22
ENDBRANCH  20  21
ENDBRANCH  19  20
ENDBRANCH  18  19
ENDBRANCH   1  18
TORSDOF 28
ENDMDL
