MODEL 1
REMARK VINA RESULT:    -3.178      0.000      0.000
REMARK INTER + INTRA:         -10.415
REMARK INTER:                  -6.894
REMARK INTRA:                  -3.521
REMARK UNBOUND:                -3.521
REMARK SMILES CCCCCCCCCCCCCCCCCCCCCC(=O)[O-]
REMARK SMILES IDX 12 1 11 2 10 3 9 4 8 5 7 6 6 7 5 8 4 9 3 10 2 11 1 12 13 13
REMARK SMILES IDX 14 14 15 15 16 16 17 17 18 18 19 19 20 20 21 21 22 22 23 23
REMARK SMILES IDX 24 24
REMARK H PARENT
REMARK Flexibility Score: inf
ROOT
ATOM      1  C   UNL     1      41.551   2.753   3.239  1.00  0.00     0.000 C 
ENDROOT
BRANCH   1   2
ATOM      2  C   UNL     1      42.389   1.702   3.980  1.00  0.00     0.000 C 
BRANCH   2   3
ATOM      3  C   UNL     1      42.399   1.921   5.503  1.00  0.00     0.000 C 
BRANCH   3   4
ATOM      4  C   UNL     1      41.574   3.147   5.938  1.00  0.00    -0.000 C 
BRANCH   4   5
ATOM      5  C   UNL     1      40.385   2.835   6.864  1.00  0.00    -0.000 C 
BRANCH   5   6
ATOM      6  C   UNL     1      39.735   1.471   6.568  1.00  0.00    -0.000 C 
BRANCH   6   7
ATOM      7  C   UNL     1      38.341   1.607   5.935  1.00  0.00    -0.000 C 
BRANCH   7   8
ATOM      8  C   UNL     1      37.758   3.025   6.078  1.00  0.00    -0.000 C 
BRANCH   8   9
ATOM      9  C   UNL     1      37.464   3.685   4.722  1.00  0.00    -0.000 C 
BRANCH   9  10
ATOM     10  C   UNL     1      38.434   4.837   4.404  1.00  0.00    -0.000 C 
BRANCH  10  11
ATOM     11  C   UNL     1      37.817   6.217   4.679  1.00  0.00    -0.003 C 
ATOM     12  C   UNL     1      36.320   6.271   4.370  1.00  0.00     0.004 C 
ENDBRANCH  10  11
ENDBRANCH   9  10
ENDBRANCH   8   9
ENDBRANCH   7   8
ENDBRANCH   6   7
ENDBRANCH   5   6
ENDBRANCH   4   5
ENDBRANCH   3   4
ENDBRANCH   2   3
ENDBRANCH   1   2
BRANCH   1  13
ATOM     13  C   UNL     1      40.247   2.170   2.663  1.00  0.00     0.000 C 
BRANCH  13  14
ATOM     14  C   UNL     1      40.154   0.646   2.835  1.00  0.00     0.000 C 
BRANCH  14  15
ATOM     15  C   UNL     1      38.749   0.102   2.539  1.00  0.00     0.000 C 
BRANCH  15  16
ATOM     16  C   UNL     1      37.827   1.213   2.020  1.00  0.00     0.000 C 
BRANCH  16  17
ATOM     17  C   UNL     1      36.392   0.697   1.838  1.00  0.00     0.000 C 
BRANCH  17  18
ATOM     18  C   UNL     1      35.588   0.708   3.148  1.00  0.00     0.000 C 
BRANCH  18  19
ATOM     19  C   UNL     1      34.663   1.928   3.267  1.00  0.00     0.000 C 
BRANCH  19  20
ATOM     20  C   UNL     1      33.188   1.501   3.229  1.00  0.00     0.006 C 
BRANCH  20  21
ATOM     21  C   UNL     1      32.679   1.290   1.797  1.00  0.00     0.053 C 
BRANCH  21  22
ATOM     22  C   UNL     1      32.415   2.592   1.103  1.00  0.00     0.041 C 
ATOM     23  O   UNL     1      31.367   3.242   1.353  1.00  0.00    -0.550 OA
ATOM     24  O   UNL     1      33.311   3.068   0.153  1.00  0.00    -0.550 OA
ENDBRANCH  21  22
ENDBRANCH  20  21
ENDBRANCH  19  20
ENDBRANCH  18  19
ENDBRANCH  17  18
ENDBRANCH  16  17
ENDBRANCH  15  16
ENDBRANCH  14  15
ENDBRANCH  13  14
ENDBRANCH   1  13
TORSDOF 20
ENDMDL
MODEL 2
REMARK VINA RESULT:    -3.093     10.974     15.246
REMARK INTER + INTRA:         -10.231
REMARK INTER:                  -7.321
REMARK INTRA:                  -2.910
REMARK UNBOUND:                -3.521
REMARK SMILES CCCCCCCCCCCCCCCCCCCCCC(=O)[O-]
REMARK SMILES IDX 12 1 11 2 10 3 9 4 8 5 7 6 6 7 5 8 4 9 3 10 2 11 1 12 13 13
REMARK SMILES IDX 14 14 15 15 16 16 17 17 18 18 19 19 20 20 21 21 22 22 23 23
REMARK SMILES IDX 24 24
REMARK H PARENT
REMARK Flexibility Score: inf
ROOT
ATOM      1  C   UNL     1      29.938   6.484 -11.940  1.00  0.00     0.000 C 
ENDROOT
BRANCH   1   2
ATOM      2  C   UNL     1      30.987   6.252 -10.842  1.00  0.00     0.000 C 
BRANCH   2   3
ATOM      3  C   UNL     1      32.030   7.382 -10.774  1.00  0.00     0.000 C 
BRANCH   3   4
ATOM      4  C   UNL     1      33.477   6.872 -10.909  1.00  0.00    -0.000 C 
BRANCH   4   5
ATOM      5  C   UNL     1      33.688   5.402 -10.508  1.00  0.00    -0.000 C 
BRANCH   5   6
ATOM      6  C   UNL     1      35.067   4.858 -10.923  1.00  0.00    -0.000 C 
BRANCH   6   7
ATOM      7  C   UNL     1      36.226   5.676 -10.329  1.00  0.00    -0.000 C 
BRANCH   7   8
ATOM      8  C   UNL     1      36.681   5.151  -8.955  1.00  0.00    -0.000 C 
BRANCH   8   9
ATOM      9  C   UNL     1      37.219   3.713  -9.019  1.00  0.00    -0.000 C 
BRANCH   9  10
ATOM     10  C   UNL     1      36.539   2.783  -7.998  1.00  0.00    -0.000 C 
BRANCH  10  11
ATOM     11  C   UNL     1      35.803   1.613  -8.668  1.00  0.00    -0.003 C 
ATOM     12  C   UNL     1      36.735   0.459  -9.038  1.00  0.00     0.004 C 
ENDBRANCH  10  11
ENDBRANCH   9  10
ENDBRANCH   8   9
ENDBRANCH   7   8
ENDBRANCH   6   7
ENDBRANCH   5   6
ENDBRANCH   4   5
ENDBRANCH   3   4
ENDBRANCH   2   3
ENDBRANCH   1   2
BRANCH   1  13
ATOM     13  C   UNL     1      28.753   7.339 -11.454  1.00  0.00     0.000 C 
BRANCH  13  14
ATOM     14  C   UNL     1      28.512   7.211  -9.942  1.00  0.00     0.000 C 
BRANCH  14  15
ATOM     15  C   UNL     1      28.342   8.572  -9.252  1.00  0.00     0.000 C 
BRANCH  15  16
ATOM     16  C   UNL     1      28.890   8.534  -7.819  1.00  0.00     0.000 C 
BRANCH  16  17
ATOM     17  C   UNL     1      29.467   7.149  -7.487  1.00  0.00     0.000 C 
BRANCH  17  18
ATOM     18  C   UNL     1      30.921   7.216  -6.992  1.00  0.00     0.000 C 
BRANCH  18  19
ATOM     19  C   UNL     1      31.700   5.921  -7.263  1.00  0.00     0.000 C 
BRANCH  19  20
ATOM     20  C   UNL     1      33.211   6.150  -7.110  1.00  0.00     0.006 C 
BRANCH  20  21
ATOM     21  C   UNL     1      33.944   4.893  -6.623  1.00  0.00     0.053 C 
BRANCH  21  22
ATOM     22  C   UNL     1      34.650   5.130  -5.321  1.00  0.00     0.041 C 
ATOM     23  O   UNL     1      35.735   5.766  -5.296  1.00  0.00    -0.550 OA
ATOM     24  O   UNL     1      34.125   4.616  -4.142  1.00  0.00    -0.550 OA
ENDBRANCH  21  22
ENDBRANCH  20  21
ENDBRANCH  19  20
ENDBRANCH  18  19
ENDBRANCH  17  18
ENDBRANCH  16  17
ENDBRANCH  15  16
ENDBRANCH  14  15
ENDBRANCH  13  14
ENDBRANCH   1  13
TORSDOF 20
ENDMDL
MODEL 3
REMARK VINA RESULT:    -3.053     10.657     13.464
REMARK INTER + INTRA:         -10.144
REMARK INTER:                  -6.255
REMARK INTRA:                  -3.889
REMARK UNBOUND:                -3.521
REMARK SMILES CCCCCCCCCCCCCCCCCCCCCC(=O)[O-]
REMARK SMILES IDX 12 1 11 2 10 3 9 4 8 5 7 6 6 7 5 8 4 9 3 10 2 11 1 12 13 13
REMARK SMILES IDX 14 14 15 15 16 16 17 17 18 18 19 19 20 20 21 21 22 22 23 23
REMARK SMILES IDX 24 24
REMARK H PARENT
REMARK Flexibility Score: inf
ROOT
ATOM      1  C   UNL     1      36.129   3.671  -7.996  1.00  0.00     0.000 C 
ENDROOT
BRANCH   1   2
ATOM      2  C   UNL     1      37.329   4.369  -7.338  1.00  0.00     0.000 C 
BRANCH   2   3
ATOM      3  C   UNL     1      37.970   5.428  -8.253  1.00  0.00     0.000 C 
BRANCH   3   4
ATOM      4  C   UNL     1      36.970   6.504  -8.717  1.00  0.00    -0.000 C 
BRANCH   4   5
ATOM      5  C   UNL     1      36.458   6.336 -10.159  1.00  0.00    -0.000 C 
BRANCH   5   6
ATOM      6  C   UNL     1      34.921   6.355 -10.255  1.00  0.00    -0.000 C 
BRANCH   6   7
ATOM      7  C   UNL     1      34.258   6.903  -8.982  1.00  0.00    -0.000 C 
BRANCH   7   8
ATOM      8  C   UNL     1      33.192   5.952  -8.409  1.00  0.00    -0.000 C 
BRANCH   8   9
ATOM      9  C   UNL     1      33.032   6.089  -6.887  1.00  0.00    -0.000 C 
BRANCH   9  10
ATOM     10  C   UNL     1      33.772   4.983  -6.114  1.00  0.00    -0.000 C 
BRANCH  10  11
ATOM     11  C   UNL     1      34.604   5.538  -4.947  1.00  0.00    -0.003 C 
ATOM     12  C   UNL     1      35.365   6.813  -5.313  1.00  0.00     0.004 C 
ENDBRANCH  10  11
ENDBRANCH   9  10
ENDBRANCH   8   9
ENDBRANCH   7   8
ENDBRANCH   6   7
ENDBRANCH   5   6
ENDBRANCH   4   5
ENDBRANCH   3   4
ENDBRANCH   2   3
ENDBRANCH   1   2
BRANCH   1  13
ATOM     13  C   UNL     1      36.244   2.136  -7.955  1.00  0.00     0.000 C 
BRANCH  13  14
ATOM     14  C   UNL     1      36.032   1.489  -9.332  1.00  0.00     0.000 C 
BRANCH  14  15
ATOM     15  C   UNL     1      36.012   2.518 -10.472  1.00  0.00     0.000 C 
BRANCH  15  16
ATOM     16  C   UNL     1      37.174   2.283 -11.445  1.00  0.00     0.000 C 
BRANCH  16  17
ATOM     17  C   UNL     1      38.398   3.123 -11.053  1.00  0.00     0.000 C 
BRANCH  17  18
ATOM     18  C   UNL     1      39.617   2.261 -10.686  1.00  0.00     0.000 C 
BRANCH  18  19
ATOM     19  C   UNL     1      40.382   2.801  -9.470  1.00  0.00     0.000 C 
BRANCH  19  20
ATOM     20  C   UNL     1      39.943   2.083  -8.184  1.00  0.00     0.006 C 
BRANCH  20  21
ATOM     21  C   UNL     1      40.487   2.765  -6.922  1.00  0.00     0.053 C 
BRANCH  21  22
ATOM     22  C   UNL     1      40.867   1.765  -5.871  1.00  0.00     0.041 C 
ATOM     23  O   UNL     1      42.042   1.735  -5.420  1.00  0.00    -0.550 OA
ATOM     24  O   UNL     1      39.932   0.844  -5.417  1.00  0.00    -0.550 OA
ENDBRANCH  21  22
ENDBRANCH  20  21
ENDBRANCH  19  20
ENDBRANCH  18  19
ENDBRANCH  17  18
ENDBRANCH  16  17
ENDBRANCH  15  16
ENDBRANCH  14  15
ENDBRANCH  13  14
ENDBRANCH   1  13
TORSDOF 20
ENDMDL
MODEL 4
REMARK VINA RESULT:    -3.035      1.682      4.161
REMARK INTER + INTRA:         -10.104
REMARK INTER:                  -6.205
REMARK INTRA:                  -3.899
REMARK UNBOUND:                -3.521
REMARK SMILES CCCCCCCCCCCCCCCCCCCCCC(=O)[O-]
REMARK SMILES IDX 12 1 11 2 10 3 9 4 8 5 7 6 6 7 5 8 4 9 3 10 2 11 1 12 13 13
REMARK SMILES IDX 14 14 15 15 16 16 17 17 18 18 19 19 20 20 21 21 22 22 23 23
REMARK SMILES IDX 24 24
REMARK H PARENT
REMARK Flexibility Score: inf
ROOT
ATOM      1  C   UNL     1      40.425   3.135   3.373  1.00  0.00     0.000 C 
ENDROOT
BRANCH   1   2
ATOM      2  C   UNL     1      41.402   2.134   2.739  1.00  0.00     0.000 C 
BRANCH   2   3
ATOM      3  C   UNL     1      41.365   0.757   3.426  1.00  0.00     0.000 C 
BRANCH   3   4
ATOM      4  C   UNL     1      41.195  -0.406   2.430  1.00  0.00    -0.000 C 
BRANCH   4   5
ATOM      5  C   UNL     1      41.209   0.002   0.946  1.00  0.00    -0.000 C 
BRANCH   5   6
ATOM      6  C   UNL     1      39.999  -0.540   0.164  1.00  0.00    -0.000 C 
BRANCH   6   7
ATOM      7  C   UNL     1      38.844  -0.966   1.085  1.00  0.00    -0.000 C 
BRANCH   7   8
ATOM      8  C   UNL     1      37.619  -0.040   0.972  1.00  0.00    -0.000 C 
BRANCH   8   9
ATOM      9  C   UNL     1      37.695   1.162   1.926  1.00  0.00    -0.000 C 
BRANCH   9  10
ATOM     10  C   UNL     1      36.908   0.932   3.228  1.00  0.00    -0.000 C 
BRANCH  10  11
ATOM     11  C   UNL     1      37.806   0.453   4.380  1.00  0.00    -0.003 C 
ATOM     12  C   UNL     1      37.093   0.462   5.733  1.00  0.00     0.004 C 
ENDBRANCH  10  11
ENDBRANCH   9  10
ENDBRANCH   8   9
ENDBRANCH   7   8
ENDBRANCH   6   7
ENDBRANCH   5   6
ENDBRANCH   4   5
ENDBRANCH   3   4
ENDBRANCH   2   3
ENDBRANCH   1   2
BRANCH   1  13
ATOM     13  C   UNL     1      40.560   3.203   4.906  1.00  0.00     0.000 C 
BRANCH  13  14
ATOM     14  C   UNL     1      39.225   3.501   5.605  1.00  0.00     0.000 C 
BRANCH  14  15
ATOM     15  C   UNL     1      38.247   4.274   4.709  1.00  0.00     0.000 C 
BRANCH  15  16
ATOM     16  C   UNL     1      36.918   4.525   5.434  1.00  0.00     0.000 C 
BRANCH  16  17
ATOM     17  C   UNL     1      35.725   4.166   4.536  1.00  0.00     0.000 C 
BRANCH  17  18
ATOM     18  C   UNL     1      34.702   3.263   5.242  1.00  0.00     0.000 C 
BRANCH  18  19
ATOM     19  C   UNL     1      33.712   2.611   4.266  1.00  0.00     0.000 C 
BRANCH  19  20
ATOM     20  C   UNL     1      33.792   3.274   2.883  1.00  0.00     0.006 C 
BRANCH  20  21
ATOM     21  C   UNL     1      33.740   2.249   1.742  1.00  0.00     0.053 C 
BRANCH  21  22
ATOM     22  C   UNL     1      32.398   1.586   1.651  1.00  0.00     0.041 C 
ATOM     23  O   UNL     1      31.354   2.281   1.543  1.00  0.00    -0.550 OA
ATOM     24  O   UNL     1      32.301   0.202   1.722  1.00  0.00    -0.550 OA
ENDBRANCH  21  22
ENDBRANCH  20  21
ENDBRANCH  19  20
ENDBRANCH  18  19
ENDBRANCH  17  18
ENDBRANCH  16  17
ENDBRANCH  15  16
ENDBRANCH  14  15
ENDBRANCH  13  14
ENDBRANCH   1  13
TORSDOF 20
ENDMDL
MODEL 5
REMARK VINA RESULT:    -3.020      2.512      5.401
REMARK INTER + INTRA:         -10.071
REMARK INTER:                  -6.614
REMARK INTRA:                  -3.457
REMARK UNBOUND:                -3.521
REMARK SMILES CCCCCCCCCCCCCCCCCCCCCC(=O)[O-]
REMARK SMILES IDX 12 1 11 2 10 3 9 4 8 5 7 6 6 7 5 8 4 9 3 10 2 11 1 12 13 13
REMARK SMILES IDX 14 14 15 15 16 16 17 17 18 18 19 19 20 20 21 21 22 22 23 23
REMARK SMILES IDX 24 24
REMARK H PARENT
REMARK Flexibility Score: inf
ROOT
ATOM      1  C   UNL     1      39.037   1.777   2.117  1.00  0.00     0.000 C 
ENDROOT
BRANCH   1   2
ATOM      2  C   UNL     1      39.746   3.052   2.595  1.00  0.00     0.000 C 
BRANCH   2   3
ATOM      3  C   UNL     1      41.169   2.777   3.113  1.00  0.00     0.000 C 
BRANCH   3   4
ATOM      4  C   UNL     1      41.294   2.938   4.639  1.00  0.00    -0.000 C 
BRANCH   4   5
ATOM      5  C   UNL     1      41.523   1.629   5.415  1.00  0.00    -0.000 C 
BRANCH   5   6
ATOM      6  C   UNL     1      42.140   0.517   4.547  1.00  0.00    -0.000 C 
BRANCH   6   7
ATOM      7  C   UNL     1      41.294  -0.767   4.545  1.00  0.00    -0.000 C 
BRANCH   7   8
ATOM      8  C   UNL     1      40.896  -1.216   3.128  1.00  0.00    -0.000 C 
BRANCH   8   9
ATOM      9  C   UNL     1      42.024  -1.016   2.104  1.00  0.00    -0.000 C 
BRANCH   9  10
ATOM     10  C   UNL     1      41.554  -0.258   0.849  1.00  0.00    -0.000 C 
BRANCH  10  11
ATOM     11  C   UNL     1      41.665  -1.108  -0.426  1.00  0.00    -0.003 C 
ATOM     12  C   UNL     1      42.775  -2.157  -0.347  1.00  0.00     0.004 C 
ENDBRANCH  10  11
ENDBRANCH   9  10
ENDBRANCH   8   9
ENDBRANCH   7   8
ENDBRANCH   6   7
ENDBRANCH   5   6
ENDBRANCH   4   5
ENDBRANCH   3   4
ENDBRANCH   2   3
ENDBRANCH   1   2
BRANCH   1  13
ATOM     13  C   UNL     1      37.750   1.484   2.911  1.00  0.00     0.000 C 
BRANCH  13  14
ATOM     14  C   UNL     1      38.032   1.079   4.366  1.00  0.00     0.000 C 
BRANCH  14  15
ATOM     15  C   UNL     1      36.893   1.468   5.320  1.00  0.00     0.000 C 
BRANCH  15  16
ATOM     16  C   UNL     1      36.679   2.987   5.329  1.00  0.00     0.000 C 
BRANCH  16  17
ATOM     17  C   UNL     1      37.918   3.715   5.871  1.00  0.00     0.000 C 
BRANCH  17  18
ATOM     18  C   UNL     1      37.803   5.244   5.761  1.00  0.00     0.000 C 
BRANCH  18  19
ATOM     19  C   UNL     1      37.885   5.742   4.312  1.00  0.00     0.000 C 
BRANCH  19  20
ATOM     20  C   UNL     1      36.759   6.743   4.013  1.00  0.00     0.006 C 
BRANCH  20  21
ATOM     21  C   UNL     1      35.491   6.453   4.829  1.00  0.00     0.053 C 
BRANCH  21  22
ATOM     22  C   UNL     1      34.360   5.999   3.956  1.00  0.00     0.041 C 
ATOM     23  O   UNL     1      33.834   4.871   4.137  1.00  0.00    -0.550 OA
ATOM     24  O   UNL     1      33.913   6.810   2.920  1.00  0.00    -0.550 OA
ENDBRANCH  21  22
ENDBRANCH  20  21
ENDBRANCH  19  20
ENDBRANCH  18  19
ENDBRANCH  17  18
ENDBRANCH  16  17
ENDBRANCH  15  16
ENDBRANCH  14  15
ENDBRANCH  13  14
ENDBRANCH   1  13
TORSDOF 20
ENDMDL
MODEL 6
REMARK VINA RESULT:    -3.017     10.491     13.412
REMARK INTER + INTRA:         -10.066
REMARK INTER:                  -7.165
REMARK INTRA:                  -2.901
REMARK UNBOUND:                -3.521
REMARK SMILES CCCCCCCCCCCCCCCCCCCCCC(=O)[O-]
REMARK SMILES IDX 12 1 11 2 10 3 9 4 8 5 7 6 6 7 5 8 4 9 3 10 2 11 1 12 13 13
REMARK SMILES IDX 14 14 15 15 16 16 17 17 18 18 19 19 20 20 21 21 22 22 23 23
REMARK SMILES IDX 24 24
REMARK H PARENT
REMARK Flexibility Score: inf
ROOT
ATOM      1  C   UNL     1      35.262   4.852  -7.982  1.00  0.00     0.000 C 
ENDROOT
BRANCH   1   2
ATOM      2  C   UNL     1      35.580   5.105  -6.501  1.00  0.00     0.000 C 
BRANCH   2   3
ATOM      3  C   UNL     1      36.448   6.358  -6.290  1.00  0.00     0.000 C 
BRANCH   3   4
ATOM      4  C   UNL     1      35.830   7.356  -5.293  1.00  0.00    -0.000 C 
BRANCH   4   5
ATOM      5  C   UNL     1      34.292   7.338  -5.224  1.00  0.00    -0.000 C 
BRANCH   5   6
ATOM      6  C   UNL     1      33.641   8.456  -6.057  1.00  0.00    -0.000 C 
BRANCH   6   7
ATOM      7  C   UNL     1      32.808   7.909  -7.227  1.00  0.00    -0.000 C 
BRANCH   7   8
ATOM      8  C   UNL     1      32.179   6.537  -6.921  1.00  0.00    -0.000 C 
BRANCH   8   9
ATOM      9  C   UNL     1      30.762   6.393  -7.497  1.00  0.00    -0.000 C 
BRANCH   9  10
ATOM     10  C   UNL     1      29.724   7.226  -6.725  1.00  0.00    -0.000 C 
BRANCH  10  11
ATOM     11  C   UNL     1      28.980   8.222  -7.628  1.00  0.00    -0.003 C 
ATOM     12  C   UNL     1      28.632   7.637  -8.997  1.00  0.00     0.004 C 
ENDBRANCH  10  11
ENDBRANCH   9  10
ENDBRANCH   8   9
ENDBRANCH   7   8
ENDBRANCH   6   7
ENDBRANCH   5   6
ENDBRANCH   4   5
ENDBRANCH   3   4
ENDBRANCH   2   3
ENDBRANCH   1   2
BRANCH   1  13
ATOM     13  C   UNL     1      35.532   6.085  -8.863  1.00  0.00     0.000 C 
BRANCH  13  14
ATOM     14  C   UNL     1      36.720   5.881  -9.817  1.00  0.00     0.000 C 
BRANCH  14  15
ATOM     15  C   UNL     1      36.803   4.447 -10.361  1.00  0.00     0.000 C 
BRANCH  15  16
ATOM     16  C   UNL     1      38.154   3.807 -10.018  1.00  0.00     0.000 C 
BRANCH  16  17
ATOM     17  C   UNL     1      38.874   4.598  -8.915  1.00  0.00     0.000 C 
BRANCH  17  18
ATOM     18  C   UNL     1      38.943   3.832  -7.585  1.00  0.00     0.000 C 
BRANCH  18  19
ATOM     19  C   UNL     1      38.448   2.384  -7.707  1.00  0.00     0.000 C 
BRANCH  19  20
ATOM     20  C   UNL     1      39.348   1.428  -6.909  1.00  0.00     0.006 C 
BRANCH  20  21
ATOM     21  C   UNL     1      40.673   2.084  -6.498  1.00  0.00     0.053 C 
BRANCH  21  22
ATOM     22  C   UNL     1      41.642   1.082  -5.947  1.00  0.00     0.041 C 
ATOM     23  O   UNL     1      42.807   1.001  -6.417  1.00  0.00    -0.550 OA
ATOM     24  O   UNL     1      41.244   0.212  -4.939  1.00  0.00    -0.550 OA
ENDBRANCH  21  22
ENDBRANCH  20  21
ENDBRANCH  19  20
ENDBRANCH  18  19
ENDBRANCH  17  18
ENDBRANCH  16  17
ENDBRANCH  15  16
ENDBRANCH  14  15
ENDBRANCH  13  14
ENDBRANCH   1  13
TORSDOF 20
ENDMDL
MODEL 7
REMARK VINA RESULT:    -3.002      3.368      5.539
REMARK INTER + INTRA:         -10.033
REMARK INTER:                  -5.610
REMARK INTRA:                  -4.423
REMARK UNBOUND:                -3.521
REMARK SMILES CCCCCCCCCCCCCCCCCCCCCC(=O)[O-]
REMARK SMILES IDX 12 1 11 2 10 3 9 4 8 5 7 6 6 7 5 8 4 9 3 10 2 11 1 12 13 13
REMARK SMILES IDX 14 14 15 15 16 16 17 17 18 18 19 19 20 20 21 21 22 22 23 23
REMARK SMILES IDX 24 24
REMARK H PARENT
REMARK Flexibility Score: inf
ROOT
ATOM      1  C   UNL     1      38.431   0.706   2.444  1.00  0.00     0.000 C 
ENDROOT
BRANCH   1   2
ATOM      2  C   UNL     1      39.409   1.835   2.084  1.00  0.00     0.000 C 
BRANCH   2   3
ATOM      3  C   UNL     1      40.875   1.455   2.355  1.00  0.00     0.000 C 
BRANCH   3   4
ATOM      4  C   UNL     1      41.602   2.473   3.254  1.00  0.00    -0.000 C 
BRANCH   4   5
ATOM      5  C   UNL     1      42.889   1.952   3.919  1.00  0.00    -0.000 C 
BRANCH   5   6
ATOM      6  C   UNL     1      42.612   1.008   5.104  1.00  0.00    -0.000 C 
BRANCH   6   7
ATOM      7  C   UNL     1      41.786   1.681   6.212  1.00  0.00    -0.000 C 
BRANCH   7   8
ATOM      8  C   UNL     1      40.589   0.826   6.665  1.00  0.00    -0.000 C 
BRANCH   8   9
ATOM      9  C   UNL     1      39.292   1.640   6.786  1.00  0.00    -0.000 C 
BRANCH   9  10
ATOM     10  C   UNL     1      39.404   3.030   6.135  1.00  0.00    -0.000 C 
BRANCH  10  11
ATOM     11  C   UNL     1      38.198   3.359   5.241  1.00  0.00    -0.003 C 
ATOM     12  C   UNL     1      38.416   4.608   4.386  1.00  0.00     0.004 C 
ENDBRANCH  10  11
ENDBRANCH   9  10
ENDBRANCH   8   9
ENDBRANCH   7   8
ENDBRANCH   6   7
ENDBRANCH   5   6
ENDBRANCH   4   5
ENDBRANCH   3   4
ENDBRANCH   2   3
ENDBRANCH   1   2
BRANCH   1  13
ATOM     13  C   UNL     1      38.965  -0.201   3.567  1.00  0.00     0.000 C 
BRANCH  13  14
ATOM     14  C   UNL     1      38.563  -1.672   3.381  1.00  0.00     0.000 C 
BRANCH  14  15
ATOM     15  C   UNL     1      39.761  -2.629   3.459  1.00  0.00     0.000 C 
BRANCH  15  16
ATOM     16  C   UNL     1      40.957  -1.957   4.147  1.00  0.00     0.000 C 
BRANCH  16  17
ATOM     17  C   UNL     1      42.212  -2.029   3.264  1.00  0.00     0.000 C 
BRANCH  17  18
ATOM     18  C   UNL     1      41.904  -2.509   1.836  1.00  0.00     0.000 C 
BRANCH  18  19
ATOM     19  C   UNL     1      42.636  -1.688   0.764  1.00  0.00     0.000 C 
BRANCH  19  20
ATOM     20  C   UNL     1      41.634  -0.929  -0.121  1.00  0.00     0.006 C 
BRANCH  20  21
ATOM     21  C   UNL     1      40.206  -1.472   0.020  1.00  0.00     0.053 C 
BRANCH  21  22
ATOM     22  C   UNL     1      39.409  -1.271  -1.234  1.00  0.00     0.041 C 
ATOM     23  O   UNL     1      39.989  -0.982  -2.314  1.00  0.00    -0.550 OA
ATOM     24  O   UNL     1      38.024  -1.368  -1.201  1.00  0.00    -0.550 OA
ENDBRANCH  21  22
ENDBRANCH  20  21
ENDBRANCH  19  20
ENDBRANCH  18  19
ENDBRANCH  17  18
ENDBRANCH  16  17
ENDBRANCH  15  16
ENDBRANCH  14  15
ENDBRANCH  13  14
ENDBRANCH   1  13
TORSDOF 20
ENDMDL
MODEL 8
REMARK VINA RESULT:    -2.967      1.198      4.721
REMARK INTER + INTRA:          -9.957
REMARK INTER:                  -6.451
REMARK INTRA:                  -3.506
REMARK UNBOUND:                -3.521
REMARK SMILES CCCCCCCCCCCCCCCCCCCCCC(=O)[O-]
REMARK SMILES IDX 12 1 11 2 10 3 9 4 8 5 7 6 6 7 5 8 4 9 3 10 2 11 1 12 13 13
REMARK SMILES IDX 14 14 15 15 16 16 17 17 18 18 19 19 20 20 21 21 22 22 23 23
REMARK SMILES IDX 24 24
REMARK H PARENT
REMARK Flexibility Score: inf
ROOT
ATOM      1  C   UNL     1      38.041   3.148   4.342  1.00  0.00     0.000 C 
ENDROOT
BRANCH   1   2
ATOM      2  C   UNL     1      37.962   1.827   5.121  1.00  0.00     0.000 C 
BRANCH   2   3
ATOM      3  C   UNL     1      37.860   0.601   4.197  1.00  0.00     0.000 C 
BRANCH   3   4
ATOM      4  C   UNL     1      37.464   0.969   2.754  1.00  0.00    -0.000 C 
BRANCH   4   5
ATOM      5  C   UNL     1      38.575   0.777   1.706  1.00  0.00    -0.000 C 
BRANCH   5   6
ATOM      6  C   UNL     1      39.658  -0.221   2.155  1.00  0.00    -0.000 C 
BRANCH   6   7
ATOM      7  C   UNL     1      41.040   0.436   2.299  1.00  0.00    -0.000 C 
BRANCH   7   8
ATOM      8  C   UNL     1      40.963   1.971   2.397  1.00  0.00    -0.000 C 
BRANCH   8   9
ATOM      9  C   UNL     1      41.652   2.520   3.656  1.00  0.00    -0.000 C 
BRANCH   9  10
ATOM     10  C   UNL     1      41.845   1.444   4.740  1.00  0.00    -0.000 C 
BRANCH  10  11
ATOM     11  C   UNL     1      41.549   1.974   6.152  1.00  0.00    -0.003 C 
ATOM     12  C   UNL     1      41.645   3.497   6.247  1.00  0.00     0.004 C 
ENDBRANCH  10  11
ENDBRANCH   9  10
ENDBRANCH   8   9
ENDBRANCH   7   8
ENDBRANCH   6   7
ENDBRANCH   5   6
ENDBRANCH   4   5
ENDBRANCH   3   4
ENDBRANCH   2   3
ENDBRANCH   1   2
BRANCH   1  13
ATOM     13  C   UNL     1      38.204   4.370   5.265  1.00  0.00     0.000 C 
BRANCH  13  14
ATOM     14  C   UNL     1      38.097   5.702   4.507  1.00  0.00     0.000 C 
BRANCH  14  15
ATOM     15  C   UNL     1      37.151   6.699   5.192  1.00  0.00     0.000 C 
BRANCH  15  16
ATOM     16  C   UNL     1      35.739   6.113   5.326  1.00  0.00     0.000 C 
BRANCH  16  17
ATOM     17  C   UNL     1      34.913   6.374   4.058  1.00  0.00     0.000 C 
BRANCH  17  18
ATOM     18  C   UNL     1      34.135   5.133   3.592  1.00  0.00     0.000 C 
BRANCH  18  19
ATOM     19  C   UNL     1      34.559   3.855   4.330  1.00  0.00     0.000 C 
BRANCH  19  20
ATOM     20  C   UNL     1      34.265   2.609   3.480  1.00  0.00     0.006 C 
BRANCH  20  21
ATOM     21  C   UNL     1      32.766   2.440   3.195  1.00  0.00     0.053 C 
BRANCH  21  22
ATOM     22  C   UNL     1      32.487   2.347   1.725  1.00  0.00     0.041 C 
ATOM     23  O   UNL     1      33.322   2.787   0.892  1.00  0.00    -0.550 OA
ATOM     24  O   UNL     1      31.287   1.807   1.278  1.00  0.00    -0.550 OA
ENDBRANCH  21  22
ENDBRANCH  20  21
ENDBRANCH  19  20
ENDBRANCH  18  19
ENDBRANCH  17  18
ENDBRANCH  16  17
ENDBRANCH  15  16
ENDBRANCH  14  15
ENDBRANCH  13  14
ENDBRANCH   1  13
TORSDOF 20
ENDMDL
MODEL 9
REMARK VINA RESULT:    -2.964      1.874      4.787
REMARK INTER + INTRA:          -9.950
REMARK INTER:                  -6.663
REMARK INTRA:                  -3.288
REMARK UNBOUND:                -3.521
REMARK SMILES CCCCCCCCCCCCCCCCCCCCCC(=O)[O-]
REMARK SMILES IDX 12 1 11 2 10 3 9 4 8 5 7 6 6 7 5 8 4 9 3 10 2 11 1 12 13 13
REMARK SMILES IDX 14 14 15 15 16 16 17 17 18 18 19 19 20 20 21 21 22 22 23 23
REMARK SMILES IDX 24 24
REMARK H PARENT
REMARK Flexibility Score: inf
ROOT
ATOM      1  C   UNL     1      37.261   2.376   4.027  1.00  0.00     0.000 C 
ENDROOT
BRANCH   1   2
ATOM      2  C   UNL     1      38.413   2.904   4.895  1.00  0.00     0.000 C 
BRANCH   2   3
ATOM      3  C   UNL     1      39.511   3.592   4.063  1.00  0.00     0.000 C 
BRANCH   3   4
ATOM      4  C   UNL     1      40.920   3.052   4.367  1.00  0.00    -0.000 C 
BRANCH   4   5
ATOM      5  C   UNL     1      41.628   2.377   3.179  1.00  0.00    -0.000 C 
BRANCH   5   6
ATOM      6  C   UNL     1      41.066   0.979   2.861  1.00  0.00    -0.000 C 
BRANCH   6   7
ATOM      7  C   UNL     1      40.724   0.807   1.372  1.00  0.00    -0.000 C 
BRANCH   7   8
ATOM      8  C   UNL     1      41.506  -0.344   0.711  1.00  0.00    -0.000 C 
BRANCH   8   9
ATOM      9  C   UNL     1      40.762  -0.953  -0.487  1.00  0.00    -0.000 C 
BRANCH   9  10
ATOM     10  C   UNL     1      39.243  -1.045  -0.255  1.00  0.00    -0.000 C 
BRANCH  10  11
ATOM     11  C   UNL     1      38.804  -2.440   0.215  1.00  0.00    -0.003 C 
ATOM     12  C   UNL     1      39.043  -2.666   1.709  1.00  0.00     0.004 C 
ENDBRANCH  10  11
ENDBRANCH   9  10
ENDBRANCH   8   9
ENDBRANCH   7   8
ENDBRANCH   6   7
ENDBRANCH   5   6
ENDBRANCH   4   5
ENDBRANCH   3   4
ENDBRANCH   2   3
ENDBRANCH   1   2
BRANCH   1  13
ATOM     13  C   UNL     1      37.401   0.875   3.710  1.00  0.00     0.000 C 
BRANCH  13  14
ATOM     14  C   UNL     1      37.052   0.544   2.251  1.00  0.00     0.000 C 
BRANCH  14  15
ATOM     15  C   UNL     1      36.032  -0.599   2.131  1.00  0.00     0.000 C 
BRANCH  15  16
ATOM     16  C   UNL     1      35.240  -0.767   3.434  1.00  0.00     0.000 C 
BRANCH  16  17
ATOM     17  C   UNL     1      33.752  -1.017   3.145  1.00  0.00     0.000 C 
BRANCH  17  18
ATOM     18  C   UNL     1      32.944   0.286   3.035  1.00  0.00     0.000 C 
BRANCH  18  19
ATOM     19  C   UNL     1      33.567   1.441   3.832  1.00  0.00     0.000 C 
BRANCH  19  20
ATOM     20  C   UNL     1      33.690   2.702   2.963  1.00  0.00     0.006 C 
BRANCH  20  21
ATOM     21  C   UNL     1      33.770   2.371   1.466  1.00  0.00     0.053 C 
BRANCH  21  22
ATOM     22  C   UNL     1      32.715   3.091   0.681  1.00  0.00     0.041 C 
ATOM     23  O   UNL     1      32.974   3.537  -0.467  1.00  0.00    -0.550 OA
ATOM     24  O   UNL     1      31.458   3.300   1.234  1.00  0.00    -0.550 OA
ENDBRANCH  21  22
ENDBRANCH  20  21
ENDBRANCH  19  20
ENDBRANCH  18  19
ENDBRANCH  17  18
ENDBRANCH  16  17
ENDBRANCH  15  16
ENDBRANCH  14  15
ENDBRANCH  13  14
ENDBRANCH   1  13
TORSDOF 20
ENDMDL
