MODEL 1
REMARK VINA RESULT:    -2.776      0.000      0.000
REMARK INTER + INTRA:          -9.743
REMARK INTER:                  -6.022
REMARK INTRA:                  -3.722
REMARK UNBOUND:                -3.722
REMARK SMILES CCCCCCCCCCCCCCCCCCCCCC(=O)[O-]
REMARK SMILES IDX 12 1 11 2 10 3 9 4 8 5 7 6 6 7 5 8 4 9 3 10 2 11 1 12 13 13
REMARK SMILES IDX 14 14 15 15 16 16 17 17 18 18 19 19 20 20 21 21 22 22 23 23
REMARK SMILES IDX 24 24
REMARK H PARENT
REMARK Flexibility Score: inf
ROOT
ATOM      1  C   UNL     1     145.043 141.011 146.874  1.00  0.00     0.000 C 
ENDROOT
BRANCH   1   2
ATOM      2  C   UNL     1     146.103 140.651 147.927  1.00  0.00     0.000 C 
BRANCH   2   3
ATOM      3  C   UNL     1     145.513 140.472 149.340  1.00  0.00     0.000 C 
BRANCH   3   4
ATOM      4  C   UNL     1     144.094 139.875 149.389  1.00  0.00    -0.000 C 
BRANCH   4   5
ATOM      5  C   UNL     1     143.158 140.630 150.345  1.00  0.00    -0.000 C 
BRANCH   5   6
ATOM      6  C   UNL     1     142.069 141.428 149.606  1.00  0.00    -0.000 C 
BRANCH   6   7
ATOM      7  C   UNL     1     141.026 142.070 150.545  1.00  0.00    -0.000 C 
BRANCH   7   8
ATOM      8  C   UNL     1     141.623 143.216 151.375  1.00  0.00    -0.000 C 
BRANCH   8   9
ATOM      9  C   UNL     1     141.450 144.562 150.663  1.00  0.00    -0.000 C 
BRANCH   9  10
ATOM     10  C   UNL     1     142.796 145.279 150.503  1.00  0.00    -0.000 C 
BRANCH  10  11
ATOM     11  C   UNL     1     143.470 144.893 149.181  1.00  0.00    -0.003 C 
ATOM     12  C   UNL     1     144.740 144.083 149.426  1.00  0.00     0.004 C 
ENDBRANCH  10  11
ENDBRANCH   9  10
ENDBRANCH   8   9
ENDBRANCH   7   8
ENDBRANCH   6   7
ENDBRANCH   5   6
ENDBRANCH   4   5
ENDBRANCH   3   4
ENDBRANCH   2   3
ENDBRANCH   1   2
BRANCH   1  13
ATOM     13  C   UNL     1     144.932 139.914 145.809  1.00  0.00     0.000 C 
BRANCH  13  14
ATOM     14  C   UNL     1     143.549 139.931 145.146  1.00  0.00     0.000 C 
BRANCH  14  15
ATOM     15  C   UNL     1     142.455 140.286 146.160  1.00  0.00     0.000 C 
BRANCH  15  16
ATOM     16  C   UNL     1     141.283 141.002 145.473  1.00  0.00     0.000 C 
BRANCH  16  17
ATOM     17  C   UNL     1     140.993 142.388 146.075  1.00  0.00     0.000 C 
BRANCH  17  18
ATOM     18  C   UNL     1     142.239 143.245 146.371  1.00  0.00     0.000 C 
BRANCH  18  19
ATOM     19  C   UNL     1     142.739 144.103 145.190  1.00  0.00     0.000 C 
BRANCH  19  20
ATOM     20  C   UNL     1     144.213 143.880 144.800  1.00  0.00     0.006 C 
BRANCH  20  21
ATOM     21  C   UNL     1     144.417 142.944 143.600  1.00  0.00     0.053 C 
BRANCH  21  22
ATOM     22  C   UNL     1     144.832 143.692 142.371  1.00  0.00     0.041 C 
ATOM     23  O   UNL     1     145.856 143.339 141.729  1.00  0.00    -0.550 OA
ATOM     24  O   UNL     1     144.104 144.799 141.953  1.00  0.00    -0.550 OA
ENDBRANCH  21  22
ENDBRANCH  20  21
ENDBRANCH  19  20
ENDBRANCH  18  19
ENDBRANCH  17  18
ENDBRANCH  16  17
ENDBRANCH  15  16
ENDBRANCH  14  15
ENDBRANCH  13  14
ENDBRANCH   1  13
TORSDOF 20
ENDMDL
MODEL 2
REMARK VINA RESULT:    -2.712      1.281      3.282
REMARK INTER + INTRA:          -9.605
REMARK INTER:                  -5.929
REMARK INTRA:                  -3.676
REMARK UNBOUND:                -3.722
REMARK SMILES CCCCCCCCCCCCCCCCCCCCCC(=O)[O-]
REMARK SMILES IDX 12 1 11 2 10 3 9 4 8 5 7 6 6 7 5 8 4 9 3 10 2 11 1 12 13 13
REMARK SMILES IDX 14 14 15 15 16 16 17 17 18 18 19 19 20 20 21 21 22 22 23 23
REMARK SMILES IDX 24 24
REMARK H PARENT
REMARK Flexibility Score: inf
ROOT
ATOM      1  C   UNL     1     144.211 143.633 148.367  1.00  0.00     0.000 C 
ENDROOT
BRANCH   1   2
ATOM      2  C   UNL     1     145.197 143.594 149.545  1.00  0.00     0.000 C 
BRANCH   2   3
ATOM      3  C   UNL     1     146.220 142.446 149.437  1.00  0.00     0.000 C 
BRANCH   3   4
ATOM      4  C   UNL     1     145.909 141.387 148.363  1.00  0.00    -0.000 C 
BRANCH   4   5
ATOM      5  C   UNL     1     145.385 140.069 148.953  1.00  0.00    -0.000 C 
BRANCH   5   6
ATOM      6  C   UNL     1     143.866 139.900 148.778  1.00  0.00    -0.000 C 
BRANCH   6   7
ATOM      7  C   UNL     1     143.049 140.320 150.018  1.00  0.00    -0.000 C 
BRANCH   7   8
ATOM      8  C   UNL     1     143.902 140.333 151.296  1.00  0.00    -0.000 C 
BRANCH   8   9
ATOM      9  C   UNL     1     143.312 141.283 152.343  1.00  0.00    -0.000 C 
BRANCH   9  10
ATOM     10  C   UNL     1     142.341 142.280 151.699  1.00  0.00    -0.000 C 
BRANCH  10  11
ATOM     11  C   UNL     1     141.318 142.789 152.721  1.00  0.00    -0.003 C 
ATOM     12  C   UNL     1     140.970 141.706 153.738  1.00  0.00     0.004 C 
ENDBRANCH  10  11
ENDBRANCH   9  10
ENDBRANCH   8   9
ENDBRANCH   7   8
ENDBRANCH   6   7
ENDBRANCH   5   6
ENDBRANCH   4   5
ENDBRANCH   3   4
ENDBRANCH   2   3
ENDBRANCH   1   2
BRANCH   1  13
ATOM     13  C   UNL     1     143.054 144.597 148.650  1.00  0.00     0.000 C 
BRANCH  13  14
ATOM     14  C   UNL     1     141.785 144.167 147.903  1.00  0.00     0.000 C 
BRANCH  14  15
ATOM     15  C   UNL     1     141.823 142.671 147.568  1.00  0.00     0.000 C 
BRANCH  15  16
ATOM     16  C   UNL     1     141.232 142.407 146.176  1.00  0.00     0.000 C 
BRANCH  16  17
ATOM     17  C   UNL     1     141.394 140.944 145.725  1.00  0.00     0.000 C 
BRANCH  17  18
ATOM     18  C   UNL     1     142.583 140.679 144.782  1.00  0.00     0.000 C 
BRANCH  18  19
ATOM     19  C   UNL     1     143.976 140.825 145.427  1.00  0.00     0.000 C 
BRANCH  19  20
ATOM     20  C   UNL     1     144.954 141.743 144.668  1.00  0.00     0.006 C 
BRANCH  20  21
ATOM     21  C   UNL     1     144.394 143.136 144.343  1.00  0.00     0.053 C 
BRANCH  21  22
ATOM     22  C   UNL     1     144.658 143.528 142.922  1.00  0.00     0.041 C 
ATOM     23  O   UNL     1     145.577 142.967 142.270  1.00  0.00    -0.550 OA
ATOM     24  O   UNL     1     143.909 144.536 142.329  1.00  0.00    -0.550 OA
ENDBRANCH  21  22
ENDBRANCH  20  21
ENDBRANCH  19  20
ENDBRANCH  18  19
ENDBRANCH  17  18
ENDBRANCH  16  17
ENDBRANCH  15  16
ENDBRANCH  14  15
ENDBRANCH  13  14
ENDBRANCH   1  13
TORSDOF 20
ENDMDL
MODEL 3
REMARK VINA RESULT:    -2.663      2.951      6.644
REMARK INTER + INTRA:          -9.499
REMARK INTER:                  -5.676
REMARK INTRA:                  -3.823
REMARK UNBOUND:                -3.722
REMARK SMILES CCCCCCCCCCCCCCCCCCCCCC(=O)[O-]
REMARK SMILES IDX 12 1 11 2 10 3 9 4 8 5 7 6 6 7 5 8 4 9 3 10 2 11 1 12 13 13
REMARK SMILES IDX 14 14 15 15 16 16 17 17 18 18 19 19 20 20 21 21 22 22 23 23
REMARK SMILES IDX 24 24
REMARK H PARENT
REMARK Flexibility Score: inf
ROOT
ATOM      1  C   UNL     1     141.543 143.261 146.727  1.00  0.00     0.000 C 
ENDROOT
BRANCH   1   2
ATOM      2  C   UNL     1     141.989 144.296 145.682  1.00  0.00     0.000 C 
BRANCH   2   3
ATOM      3  C   UNL     1     143.205 145.125 146.137  1.00  0.00     0.000 C 
BRANCH   3   4
ATOM      4  C   UNL     1     144.027 144.511 147.286  1.00  0.00    -0.000 C 
BRANCH   4   5
ATOM      5  C   UNL     1     145.461 144.146 146.870  1.00  0.00    -0.000 C 
BRANCH   5   6
ATOM      6  C   UNL     1     145.776 144.534 145.415  1.00  0.00    -0.000 C 
BRANCH   6   7
ATOM      7  C   UNL     1     146.624 143.486 144.663  1.00  0.00    -0.000 C 
BRANCH   7   8
ATOM      8  C   UNL     1     145.761 142.572 143.778  1.00  0.00    -0.000 C 
BRANCH   8   9
ATOM      9  C   UNL     1     144.542 143.323 143.234  1.00  0.00    -0.000 C 
BRANCH   9  10
ATOM     10  C   UNL     1     144.875 144.034 141.916  1.00  0.00    -0.000 C 
BRANCH  10  11
ATOM     11  C   UNL     1     144.682 145.550 142.046  1.00  0.00    -0.003 C 
ATOM     12  C   UNL     1     143.250 145.891 142.449  1.00  0.00     0.004 C 
ENDBRANCH  10  11
ENDBRANCH   9  10
ENDBRANCH   8   9
ENDBRANCH   7   8
ENDBRANCH   6   7
ENDBRANCH   5   6
ENDBRANCH   4   5
ENDBRANCH   3   4
ENDBRANCH   2   3
ENDBRANCH   1   2
BRANCH   1  13
ATOM     13  C   UNL     1     141.008 141.993 146.050  1.00  0.00     0.000 C 
BRANCH  13  14
ATOM     14  C   UNL     1     142.096 141.324 145.200  1.00  0.00     0.000 C 
BRANCH  14  15
ATOM     15  C   UNL     1     142.779 140.188 145.971  1.00  0.00     0.000 C 
BRANCH  15  16
ATOM     16  C   UNL     1     144.202 140.587 146.387  1.00  0.00     0.000 C 
BRANCH  16  17
ATOM     17  C   UNL     1     144.339 140.816 147.903  1.00  0.00     0.000 C 
BRANCH  17  18
ATOM     18  C   UNL     1     143.457 139.909 148.783  1.00  0.00     0.000 C 
BRANCH  18  19
ATOM     19  C   UNL     1     142.810 140.604 149.998  1.00  0.00     0.000 C 
BRANCH  19  20
ATOM     20  C   UNL     1     141.513 141.379 149.692  1.00  0.00     0.006 C 
BRANCH  20  21
ATOM     21  C   UNL     1     140.982 142.216 150.865  1.00  0.00     0.053 C 
BRANCH  21  22
ATOM     22  C   UNL     1     141.291 143.672 150.699  1.00  0.00     0.041 C 
ATOM     23  O   UNL     1     140.368 144.526 150.754  1.00  0.00    -0.550 OA
ATOM     24  O   UNL     1     142.595 144.081 150.453  1.00  0.00    -0.550 OA
ENDBRANCH  21  22
ENDBRANCH  20  21
ENDBRANCH  19  20
ENDBRANCH  18  19
ENDBRANCH  17  18
ENDBRANCH  16  17
ENDBRANCH  15  16
ENDBRANCH  14  15
ENDBRANCH  13  14
ENDBRANCH   1  13
TORSDOF 20
ENDMDL
MODEL 4
REMARK VINA RESULT:    -2.602      2.762      4.568
REMARK INTER + INTRA:          -9.365
REMARK INTER:                  -6.522
REMARK INTRA:                  -2.843
REMARK UNBOUND:                -3.722
REMARK SMILES CCCCCCCCCCCCCCCCCCCCCC(=O)[O-]
REMARK SMILES IDX 12 1 11 2 10 3 9 4 8 5 7 6 6 7 5 8 4 9 3 10 2 11 1 12 13 13
REMARK SMILES IDX 14 14 15 15 16 16 17 17 18 18 19 19 20 20 21 21 22 22 23 23
REMARK SMILES IDX 24 24
REMARK H PARENT
REMARK Flexibility Score: inf
ROOT
ATOM      1  C   UNL     1     145.173 141.022 152.123  1.00  0.00     0.000 C 
ENDROOT
BRANCH   1   2
ATOM      2  C   UNL     1     144.722 141.537 153.498  1.00  0.00     0.000 C 
BRANCH   2   3
ATOM      3  C   UNL     1     145.761 142.456 154.169  1.00  0.00     0.000 C 
BRANCH   3   4
ATOM      4  C   UNL     1     145.183 143.506 155.136  1.00  0.00    -0.000 C 
BRANCH   4   5
ATOM      5  C   UNL     1     143.750 143.930 154.775  1.00  0.00    -0.000 C 
BRANCH   5   6
ATOM      6  C   UNL     1     143.696 145.278 154.036  1.00  0.00    -0.000 C 
BRANCH   6   7
ATOM      7  C   UNL     1     142.511 145.400 153.055  1.00  0.00    -0.000 C 
BRANCH   7   8
ATOM      8  C   UNL     1     142.530 144.296 151.986  1.00  0.00    -0.000 C 
BRANCH   8   9
ATOM      9  C   UNL     1     141.246 143.462 152.031  1.00  0.00    -0.000 C 
BRANCH   9  10
ATOM     10  C   UNL     1     140.337 143.911 153.182  1.00  0.00    -0.000 C 
BRANCH  10  11
ATOM     11  C   UNL     1     140.161 142.790 154.212  1.00  0.00    -0.003 C 
ATOM     12  C   UNL     1     141.020 141.579 153.861  1.00  0.00     0.004 C 
ENDBRANCH  10  11
ENDBRANCH   9  10
ENDBRANCH   8   9
ENDBRANCH   7   8
ENDBRANCH   6   7
ENDBRANCH   5   6
ENDBRANCH   4   5
ENDBRANCH   3   4
ENDBRANCH   2   3
ENDBRANCH   1   2
BRANCH   1  13
ATOM     13  C   UNL     1     144.008 141.023 151.126  1.00  0.00     0.000 C 
BRANCH  13  14
ATOM     14  C   UNL     1     144.421 140.375 149.799  1.00  0.00     0.000 C 
BRANCH  14  15
ATOM     15  C   UNL     1     143.205 140.158 148.889  1.00  0.00     0.000 C 
BRANCH  15  16
ATOM     16  C   UNL     1     142.013 141.005 149.358  1.00  0.00     0.000 C 
BRANCH  16  17
ATOM     17  C   UNL     1     141.350 141.790 148.212  1.00  0.00     0.000 C 
BRANCH  17  18
ATOM     18  C   UNL     1     142.328 142.509 147.262  1.00  0.00     0.000 C 
BRANCH  18  19
ATOM     19  C   UNL     1     142.218 142.103 145.778  1.00  0.00     0.000 C 
BRANCH  19  20
ATOM     20  C   UNL     1     141.950 140.606 145.531  1.00  0.00     0.006 C 
BRANCH  20  21
ATOM     21  C   UNL     1     143.073 139.875 144.780  1.00  0.00     0.053 C 
BRANCH  21  22
ATOM     22  C   UNL     1     144.355 140.649 144.801  1.00  0.00     0.041 C 
ATOM     23  O   UNL     1     144.706 141.321 143.796  1.00  0.00    -0.550 OA
ATOM     24  O   UNL     1     145.176 140.602 145.920  1.00  0.00    -0.550 OA
ENDBRANCH  21  22
ENDBRANCH  20  21
ENDBRANCH  19  20
ENDBRANCH  18  19
ENDBRANCH  17  18
ENDBRANCH  16  17
ENDBRANCH  15  16
ENDBRANCH  14  15
ENDBRANCH  13  14
ENDBRANCH   1  13
TORSDOF 20
ENDMDL
MODEL 5
REMARK VINA RESULT:    -2.587      3.129      5.915
REMARK INTER + INTRA:          -9.334
REMARK INTER:                  -5.036
REMARK INTRA:                  -4.298
REMARK UNBOUND:                -3.722
REMARK SMILES CCCCCCCCCCCCCCCCCCCCCC(=O)[O-]
REMARK SMILES IDX 12 1 11 2 10 3 9 4 8 5 7 6 6 7 5 8 4 9 3 10 2 11 1 12 13 13
REMARK SMILES IDX 14 14 15 15 16 16 17 17 18 18 19 19 20 20 21 21 22 22 23 23
REMARK SMILES IDX 24 24
REMARK H PARENT
REMARK Flexibility Score: inf
ROOT
ATOM      1  C   UNL     1     147.808 144.074 143.459  1.00  0.00     0.000 C 
ENDROOT
BRANCH   1   2
ATOM      2  C   UNL     1     146.803 144.586 142.415  1.00  0.00     0.000 C 
BRANCH   2   3
ATOM      3  C   UNL     1     145.606 143.636 142.216  1.00  0.00     0.000 C 
BRANCH   3   4
ATOM      4  C   UNL     1     144.221 144.264 142.462  1.00  0.00    -0.000 C 
BRANCH   4   5
ATOM      5  C   UNL     1     144.212 145.256 143.636  1.00  0.00    -0.000 C 
BRANCH   5   6
ATOM      6  C   UNL     1     143.262 144.829 144.769  1.00  0.00    -0.000 C 
BRANCH   6   7
ATOM      7  C   UNL     1     143.991 144.314 146.028  1.00  0.00    -0.000 C 
BRANCH   7   8
ATOM      8  C   UNL     1     145.353 144.998 146.228  1.00  0.00    -0.000 C 
BRANCH   8   9
ATOM      9  C   UNL     1     146.359 144.042 146.876  1.00  0.00    -0.000 C 
BRANCH   9  10
ATOM     10  C   UNL     1     145.654 143.044 147.803  1.00  0.00    -0.000 C 
BRANCH  10  11
ATOM     11  C   UNL     1     146.558 141.843 148.105  1.00  0.00    -0.003 C 
ATOM     12  C   UNL     1     145.733 140.594 148.405  1.00  0.00     0.004 C 
ENDBRANCH  10  11
ENDBRANCH   9  10
ENDBRANCH   8   9
ENDBRANCH   7   8
ENDBRANCH   6   7
ENDBRANCH   5   6
ENDBRANCH   4   5
ENDBRANCH   3   4
ENDBRANCH   2   3
ENDBRANCH   1   2
BRANCH   1  13
ATOM     13  C   UNL     1     148.790 143.077 142.833  1.00  0.00     0.000 C 
BRANCH  13  14
ATOM     14  C   UNL     1     149.157 141.969 143.829  1.00  0.00     0.000 C 
BRANCH  14  15
ATOM     15  C   UNL     1     147.953 141.589 144.699  1.00  0.00     0.000 C 
BRANCH  15  16
ATOM     16  C   UNL     1     147.550 140.125 144.466  1.00  0.00     0.000 C 
BRANCH  16  17
ATOM     17  C   UNL     1     146.029 139.904 144.547  1.00  0.00     0.000 C 
BRANCH  17  18
ATOM     18  C   UNL     1     145.195 141.180 144.771  1.00  0.00     0.000 C 
BRANCH  18  19
ATOM     19  C   UNL     1     143.709 141.070 144.372  1.00  0.00     0.000 C 
BRANCH  19  20
ATOM     20  C   UNL     1     142.844 140.207 145.313  1.00  0.00     0.006 C 
BRANCH  20  21
ATOM     21  C   UNL     1     142.440 140.904 146.621  1.00  0.00     0.053 C 
BRANCH  21  22
ATOM     22  C   UNL     1     141.230 141.768 146.444  1.00  0.00     0.041 C 
ATOM     23  O   UNL     1     140.360 141.472 145.584  1.00  0.00    -0.550 OA
ATOM     24  O   UNL     1     141.079 142.917 147.210  1.00  0.00    -0.550 OA
ENDBRANCH  21  22
ENDBRANCH  20  21
ENDBRANCH  19  20
ENDBRANCH  18  19
ENDBRANCH  17  18
ENDBRANCH  16  17
ENDBRANCH  15  16
ENDBRANCH  14  15
ENDBRANCH  13  14
ENDBRANCH   1  13
TORSDOF 20
ENDMDL
MODEL 6
REMARK VINA RESULT:    -2.583      1.871      3.191
REMARK INTER + INTRA:          -9.325
REMARK INTER:                  -6.169
REMARK INTRA:                  -3.156
REMARK UNBOUND:                -3.722
REMARK SMILES CCCCCCCCCCCCCCCCCCCCCC(=O)[O-]
REMARK SMILES IDX 12 1 11 2 10 3 9 4 8 5 7 6 6 7 5 8 4 9 3 10 2 11 1 12 13 13
REMARK SMILES IDX 14 14 15 15 16 16 17 17 18 18 19 19 20 20 21 21 22 22 23 23
REMARK SMILES IDX 24 24
REMARK H PARENT
REMARK Flexibility Score: inf
ROOT
ATOM      1  C   UNL     1     143.047 142.245 148.845  1.00  0.00     0.000 C 
ENDROOT
BRANCH   1   2
ATOM      2  C   UNL     1     143.675 140.942 149.364  1.00  0.00     0.000 C 
BRANCH   2   3
ATOM      3  C   UNL     1     143.269 140.613 150.813  1.00  0.00     0.000 C 
BRANCH   3   4
ATOM      4  C   UNL     1     143.883 141.525 151.892  1.00  0.00    -0.000 C 
BRANCH   4   5
ATOM      5  C   UNL     1     142.839 142.400 152.603  1.00  0.00    -0.000 C 
BRANCH   5   6
ATOM      6  C   UNL     1     141.396 142.052 152.200  1.00  0.00    -0.000 C 
BRANCH   6   7
ATOM      7  C   UNL     1     140.609 143.247 151.620  1.00  0.00    -0.000 C 
BRANCH   7   8
ATOM      8  C   UNL     1     141.452 144.531 151.584  1.00  0.00    -0.000 C 
BRANCH   8   9
ATOM      9  C   UNL     1     140.878 145.594 152.527  1.00  0.00    -0.000 C 
BRANCH   9  10
ATOM     10  C   UNL     1     141.828 145.862 153.701  1.00  0.00    -0.000 C 
BRANCH  10  11
ATOM     11  C   UNL     1     141.449 145.012 154.919  1.00  0.00    -0.003 C 
ATOM     12  C   UNL     1     142.690 144.463 155.616  1.00  0.00     0.004 C 
ENDBRANCH  10  11
ENDBRANCH   9  10
ENDBRANCH   8   9
ENDBRANCH   7   8
ENDBRANCH   6   7
ENDBRANCH   5   6
ENDBRANCH   4   5
ENDBRANCH   3   4
ENDBRANCH   2   3
ENDBRANCH   1   2
BRANCH   1  13
ATOM     13  C   UNL     1     141.655 141.987 148.257  1.00  0.00     0.000 C 
BRANCH  13  14
ATOM     14  C   UNL     1     141.378 142.921 147.072  1.00  0.00     0.000 C 
BRANCH  14  15
ATOM     15  C   UNL     1     140.805 142.145 145.880  1.00  0.00     0.000 C 
BRANCH  15  16
ATOM     16  C   UNL     1     141.271 140.681 145.905  1.00  0.00     0.000 C 
BRANCH  16  17
ATOM     17  C   UNL     1     142.510 140.433 145.026  1.00  0.00     0.000 C 
BRANCH  17  18
ATOM     18  C   UNL     1     143.807 140.123 145.799  1.00  0.00     0.000 C 
BRANCH  18  19
ATOM     19  C   UNL     1     144.971 141.103 145.545  1.00  0.00     0.000 C 
BRANCH  19  20
ATOM     20  C   UNL     1     144.546 142.534 145.162  1.00  0.00     0.006 C 
BRANCH  20  21
ATOM     21  C   UNL     1     144.466 142.789 143.649  1.00  0.00     0.053 C 
BRANCH  21  22
ATOM     22  C   UNL     1     145.784 143.220 143.084  1.00  0.00     0.041 C 
ATOM     23  O   UNL     1     146.675 143.690 143.840  1.00  0.00    -0.550 OA
ATOM     24  O   UNL     1     146.016 143.132 141.717  1.00  0.00    -0.550 OA
ENDBRANCH  21  22
ENDBRANCH  20  21
ENDBRANCH  19  20
ENDBRANCH  18  19
ENDBRANCH  17  18
ENDBRANCH  16  17
ENDBRANCH  15  16
ENDBRANCH  14  15
ENDBRANCH  13  14
ENDBRANCH   1  13
TORSDOF 20
ENDMDL
MODEL 7
REMARK VINA RESULT:    -2.576      2.704      4.500
REMARK INTER + INTRA:          -9.310
REMARK INTER:                  -5.172
REMARK INTRA:                  -4.138
REMARK UNBOUND:                -3.722
REMARK SMILES CCCCCCCCCCCCCCCCCCCCCC(=O)[O-]
REMARK SMILES IDX 12 1 11 2 10 3 9 4 8 5 7 6 6 7 5 8 4 9 3 10 2 11 1 12 13 13
REMARK SMILES IDX 14 14 15 15 16 16 17 17 18 18 19 19 20 20 21 21 22 22 23 23
REMARK SMILES IDX 24 24
REMARK H PARENT
REMARK Flexibility Score: inf
ROOT
ATOM      1  C   UNL     1     145.170 142.239 146.630  1.00  0.00     0.000 C 
ENDROOT
BRANCH   1   2
ATOM      2  C   UNL     1     145.142 140.792 146.111  1.00  0.00     0.000 C 
BRANCH   2   3
ATOM      3  C   UNL     1     143.765 140.120 146.276  1.00  0.00     0.000 C 
BRANCH   3   4
ATOM      4  C   UNL     1     142.787 140.331 145.106  1.00  0.00    -0.000 C 
BRANCH   4   5
ATOM      5  C   UNL     1     141.464 140.983 145.540  1.00  0.00    -0.000 C 
BRANCH   5   6
ATOM      6  C   UNL     1     141.634 142.455 145.953  1.00  0.00    -0.000 C 
BRANCH   6   7
ATOM      7  C   UNL     1     141.017 142.789 147.327  1.00  0.00    -0.000 C 
BRANCH   7   8
ATOM      8  C   UNL     1     141.993 142.509 148.482  1.00  0.00    -0.000 C 
BRANCH   8   9
ATOM      9  C   UNL     1     141.532 141.308 149.314  1.00  0.00    -0.000 C 
BRANCH   9  10
ATOM     10  C   UNL     1     142.707 140.375 149.635  1.00  0.00    -0.000 C 
BRANCH  10  11
ATOM     11  C   UNL     1     143.945 141.176 150.055  1.00  0.00    -0.003 C 
ATOM     12  C   UNL     1     145.219 140.357 149.876  1.00  0.00     0.004 C 
ENDBRANCH  10  11
ENDBRANCH   9  10
ENDBRANCH   8   9
ENDBRANCH   7   8
ENDBRANCH   6   7
ENDBRANCH   5   6
ENDBRANCH   4   5
ENDBRANCH   3   4
ENDBRANCH   2   3
ENDBRANCH   1   2
BRANCH   1  13
ATOM     13  C   UNL     1     145.636 143.206 145.536  1.00  0.00     0.000 C 
BRANCH  13  14
ATOM     14  C   UNL     1     145.776 142.485 144.189  1.00  0.00     0.000 C 
BRANCH  14  15
ATOM     15  C   UNL     1     145.146 143.304 143.057  1.00  0.00     0.000 C 
BRANCH  15  16
ATOM     16  C   UNL     1     143.929 144.092 143.563  1.00  0.00     0.000 C 
BRANCH  16  17
ATOM     17  C   UNL     1     143.925 145.556 143.086  1.00  0.00     0.000 C 
BRANCH  17  18
ATOM     18  C   UNL     1     142.703 146.383 143.532  1.00  0.00     0.000 C 
BRANCH  18  19
ATOM     19  C   UNL     1     141.954 145.834 144.763  1.00  0.00     0.000 C 
BRANCH  19  20
ATOM     20  C   UNL     1     142.282 146.539 146.094  1.00  0.00     0.006 C 
BRANCH  20  21
ATOM     21  C   UNL     1     143.317 145.806 146.961  1.00  0.00     0.053 C 
BRANCH  21  22
ATOM     22  C   UNL     1     143.077 146.026 148.423  1.00  0.00     0.041 C 
ATOM     23  O   UNL     1     144.049 146.126 149.217  1.00  0.00    -0.550 OA
ATOM     24  O   UNL     1     141.779 146.089 148.912  1.00  0.00    -0.550 OA
ENDBRANCH  21  22
ENDBRANCH  20  21
ENDBRANCH  19  20
ENDBRANCH  18  19
ENDBRANCH  17  18
ENDBRANCH  16  17
ENDBRANCH  15  16
ENDBRANCH  14  15
ENDBRANCH  13  14
ENDBRANCH   1  13
TORSDOF 20
ENDMDL
MODEL 8
REMARK VINA RESULT:    -2.574      3.323      6.904
REMARK INTER + INTRA:          -9.305
REMARK INTER:                  -5.515
REMARK INTRA:                  -3.790
REMARK UNBOUND:                -3.722
REMARK SMILES CCCCCCCCCCCCCCCCCCCCCC(=O)[O-]
REMARK SMILES IDX 12 1 11 2 10 3 9 4 8 5 7 6 6 7 5 8 4 9 3 10 2 11 1 12 13 13
REMARK SMILES IDX 14 14 15 15 16 16 17 17 18 18 19 19 20 20 21 21 22 22 23 23
REMARK SMILES IDX 24 24
REMARK H PARENT
REMARK Flexibility Score: inf
ROOT
ATOM      1  C   UNL     1     145.134 142.719 145.887  1.00  0.00     0.000 C 
ENDROOT
BRANCH   1   2
ATOM      2  C   UNL     1     144.423 144.081 145.917  1.00  0.00     0.000 C 
BRANCH   2   3
ATOM      3  C   UNL     1     143.452 144.280 144.737  1.00  0.00     0.000 C 
BRANCH   3   4
ATOM      4  C   UNL     1     142.697 145.622 144.727  1.00  0.00    -0.000 C 
BRANCH   4   5
ATOM      5  C   UNL     1     143.120 146.541 143.570  1.00  0.00    -0.000 C 
BRANCH   5   6
ATOM      6  C   UNL     1     143.337 145.776 142.252  1.00  0.00    -0.000 C 
BRANCH   6   7
ATOM      7  C   UNL     1     144.770 145.902 141.692  1.00  0.00    -0.000 C 
BRANCH   7   8
ATOM      8  C   UNL     1     145.245 144.602 141.023  1.00  0.00    -0.000 C 
BRANCH   8   9
ATOM      9  C   UNL     1     145.885 143.658 142.045  1.00  0.00    -0.000 C 
BRANCH   9  10
ATOM     10  C   UNL     1     146.795 144.426 143.012  1.00  0.00    -0.000 C 
BRANCH  10  11
ATOM     11  C   UNL     1     147.981 143.562 143.455  1.00  0.00    -0.003 C 
ATOM     12  C   UNL     1     147.754 142.094 143.106  1.00  0.00     0.004 C 
ENDBRANCH  10  11
ENDBRANCH   9  10
ENDBRANCH   8   9
ENDBRANCH   7   8
ENDBRANCH   6   7
ENDBRANCH   5   6
ENDBRANCH   4   5
ENDBRANCH   3   4
ENDBRANCH   2   3
ENDBRANCH   1   2
BRANCH   1  13
ATOM     13  C   UNL     1     144.441 141.759 144.912  1.00  0.00     0.000 C 
BRANCH  13  14
ATOM     14  C   UNL     1     144.319 140.355 145.517  1.00  0.00     0.000 C 
BRANCH  14  15
ATOM     15  C   UNL     1     142.859 139.886 145.533  1.00  0.00     0.000 C 
BRANCH  15  16
ATOM     16  C   UNL     1     141.915 141.019 145.107  1.00  0.00     0.000 C 
BRANCH  16  17
ATOM     17  C   UNL     1     140.908 141.404 146.206  1.00  0.00     0.000 C 
BRANCH  17  18
ATOM     18  C   UNL     1     141.426 142.427 147.236  1.00  0.00     0.000 C 
BRANCH  18  19
ATOM     19  C   UNL     1     141.388 141.955 148.704  1.00  0.00     0.000 C 
BRANCH  19  20
ATOM     20  C   UNL     1     142.271 140.731 149.017  1.00  0.00     0.006 C 
BRANCH  20  21
ATOM     21  C   UNL     1     143.772 141.039 149.115  1.00  0.00     0.053 C 
BRANCH  21  22
ATOM     22  C   UNL     1     144.222 141.188 150.535  1.00  0.00     0.041 C 
ATOM     23  O   UNL     1     143.458 140.859 151.480  1.00  0.00    -0.550 OA
ATOM     24  O   UNL     1     145.475 141.718 150.815  1.00  0.00    -0.550 OA
ENDBRANCH  21  22
ENDBRANCH  20  21
ENDBRANCH  19  20
ENDBRANCH  18  19
ENDBRANCH  17  18
ENDBRANCH  16  17
ENDBRANCH  15  16
ENDBRANCH  14  15
ENDBRANCH  13  14
ENDBRANCH   1  13
TORSDOF 20
ENDMDL
MODEL 9
REMARK VINA RESULT:    -2.551      3.666      7.171
REMARK INTER + INTRA:          -9.256
REMARK INTER:                  -5.900
REMARK INTRA:                  -3.356
REMARK UNBOUND:                -3.722
REMARK SMILES CCCCCCCCCCCCCCCCCCCCCC(=O)[O-]
REMARK SMILES IDX 12 1 11 2 10 3 9 4 8 5 7 6 6 7 5 8 4 9 3 10 2 11 1 12 13 13
REMARK SMILES IDX 14 14 15 15 16 16 17 17 18 18 19 19 20 20 21 21 22 22 23 23
REMARK SMILES IDX 24 24
REMARK H PARENT
REMARK Flexibility Score: inf
ROOT
ATOM      1  C   UNL     1     141.235 143.367 147.765  1.00  0.00     0.000 C 
ENDROOT
BRANCH   1   2
ATOM      2  C   UNL     1     141.978 142.753 146.569  1.00  0.00     0.000 C 
BRANCH   2   3
ATOM      3  C   UNL     1     141.081 141.848 145.702  1.00  0.00     0.000 C 
BRANCH   3   4
ATOM      4  C   UNL     1     141.683 140.478 145.341  1.00  0.00    -0.000 C 
BRANCH   4   5
ATOM      5  C   UNL     1     143.113 140.291 145.872  1.00  0.00    -0.000 C 
BRANCH   5   6
ATOM      6  C   UNL     1     144.106 139.875 144.774  1.00  0.00    -0.000 C 
BRANCH   6   7
ATOM      7  C   UNL     1     145.396 140.722 144.752  1.00  0.00    -0.000 C 
BRANCH   7   8
ATOM      8  C   UNL     1     145.104 142.214 144.531  1.00  0.00    -0.000 C 
BRANCH   8   9
ATOM      9  C   UNL     1     146.076 143.090 145.329  1.00  0.00    -0.000 C 
BRANCH   9  10
ATOM     10  C   UNL     1     145.360 143.791 146.491  1.00  0.00    -0.000 C 
BRANCH  10  11
ATOM     11  C   UNL     1     145.396 142.928 147.758  1.00  0.00    -0.003 C 
ATOM     12  C   UNL     1     146.728 142.195 147.888  1.00  0.00     0.004 C 
ENDBRANCH  10  11
ENDBRANCH   9  10
ENDBRANCH   8   9
ENDBRANCH   7   8
ENDBRANCH   6   7
ENDBRANCH   5   6
ENDBRANCH   4   5
ENDBRANCH   3   4
ENDBRANCH   2   3
ENDBRANCH   1   2
BRANCH   1  13
ATOM     13  C   UNL     1     141.865 142.923 149.091  1.00  0.00     0.000 C 
BRANCH  13  14
ATOM     14  C   UNL     1     141.506 141.466 149.408  1.00  0.00     0.000 C 
BRANCH  14  15
ATOM     15  C   UNL     1     142.761 140.647 149.733  1.00  0.00     0.000 C 
BRANCH  15  16
ATOM     16  C   UNL     1     143.751 141.471 150.569  1.00  0.00     0.000 C 
BRANCH  16  17
ATOM     17  C   UNL     1     144.183 140.755 151.861  1.00  0.00     0.000 C 
BRANCH  17  18
ATOM     18  C   UNL     1     143.572 141.322 153.157  1.00  0.00     0.000 C 
BRANCH  18  19
ATOM     19  C   UNL     1     142.081 140.990 153.378  1.00  0.00     0.000 C 
BRANCH  19  20
ATOM     20  C   UNL     1     141.212 142.175 153.845  1.00  0.00     0.006 C 
BRANCH  20  21
ATOM     21  C   UNL     1     140.628 143.021 152.704  1.00  0.00     0.053 C 
BRANCH  21  22
ATOM     22  C   UNL     1     140.981 144.469 152.845  1.00  0.00     0.041 C 
ATOM     23  O   UNL     1     140.569 145.129 153.835  1.00  0.00    -0.550 OA
ATOM     24  O   UNL     1     141.739 145.097 151.865  1.00  0.00    -0.550 OA
ENDBRANCH  21  22
ENDBRANCH  20  21
ENDBRANCH  19  20
ENDBRANCH  18  19
ENDBRANCH  17  18
ENDBRANCH  16  17
ENDBRANCH  15  16
ENDBRANCH  14  15
ENDBRANCH  13  14
ENDBRANCH   1  13
TORSDOF 20
ENDMDL
