MODEL 1
REMARK VINA RESULT:    -1.780      0.000      0.000
REMARK INTER + INTRA:          -6.769
REMARK INTER:                  -3.340
REMARK INTRA:                  -3.428
REMARK UNBOUND:                -3.428
REMARK SMILES CCCCCCCCC=CCCCCCCCC(=O)[O-]
REMARK SMILES IDX 10 1 9 2 11 3 12 4 13 5 14 6 15 7 16 8 17 9 18 10 19 11
REMARK SMILES IDX 20 12 8 13 7 14 6 15 5 16 4 17 3 18 2 19 1 20
REMARK H PARENT
REMARK Flexibility Score: inf
ROOT
ATOM      1  C   UNL     1       1.599   7.743  17.489  1.00  0.00    -0.031 C 
ATOM      2  C   UNL     1       2.699   8.042  18.196  1.00  0.00    -0.031 C 
ENDROOT
BRANCH   1   3
ATOM      3  C   UNL     1       0.222   8.102  17.982  1.00  0.00     0.027 C 
BRANCH   3   4
ATOM      4  C   UNL     1      -0.852   7.850  16.915  1.00  0.00     0.004 C 
BRANCH   4   5
ATOM      5  C   UNL     1      -0.282   7.928  15.488  1.00  0.00     0.000 C 
BRANCH   5   6
ATOM      6  C   UNL     1      -0.427   6.601  14.723  1.00  0.00     0.000 C 
BRANCH   6   7
ATOM      7  C   UNL     1       0.932   5.980  14.353  1.00  0.00     0.000 C 
BRANCH   7   8
ATOM      8  C   UNL     1       1.297   4.783  15.246  1.00  0.00     0.006 C 
BRANCH   8   9
ATOM      9  C   UNL     1       0.097   4.253  16.043  1.00  0.00     0.053 C 
BRANCH   9  10
ATOM     10  C   UNL     1       0.415   4.226  17.505  1.00  0.00     0.041 C 
ATOM     11  O   UNL     1       1.564   3.895  17.899  1.00  0.00    -0.550 OA
ATOM     12  O   UNL     1      -0.546   4.610  18.432  1.00  0.00    -0.550 OA
ENDBRANCH   9  10
ENDBRANCH   8   9
ENDBRANCH   7   8
ENDBRANCH   6   7
ENDBRANCH   5   6
ENDBRANCH   4   5
ENDBRANCH   3   4
ENDBRANCH   1   3
BRANCH   2  13
ATOM     13  C   UNL     1       4.076   7.696  17.694  1.00  0.00     0.027 C 
BRANCH  13  14
ATOM     14  C   UNL     1       4.052   7.147  16.259  1.00  0.00     0.004 C 
BRANCH  14  15
ATOM     15  C   UNL     1       4.491   8.204  15.230  1.00  0.00     0.000 C 
BRANCH  15  16
ATOM     16  C   UNL     1       3.322   8.721  14.377  1.00  0.00     0.000 C 
BRANCH  16  17
ATOM     17  C   UNL     1       3.228  10.258  14.373  1.00  0.00    -0.000 C 
BRANCH  17  18
ATOM     18  C   UNL     1       2.159  10.786  15.343  1.00  0.00    -0.000 C 
BRANCH  18  19
ATOM     19  C   UNL     1       2.763  11.343  16.640  1.00  0.00    -0.003 C 
ATOM     20  C   UNL     1       1.682  11.578  17.692  1.00  0.00     0.004 C 
ENDBRANCH  18  19
ENDBRANCH  17  18
ENDBRANCH  16  17
ENDBRANCH  15  16
ENDBRANCH  14  15
ENDBRANCH  13  14
ENDBRANCH   2  13
TORSDOF 15
ENDMDL
MODEL 2
REMARK VINA RESULT:    -1.671      1.401      3.210
REMARK INTER + INTRA:          -6.565
REMARK INTER:                  -3.286
REMARK INTRA:                  -3.279
REMARK UNBOUND:                -3.428
REMARK SMILES CCCCCCCCC=CCCCCCCCC(=O)[O-]
REMARK SMILES IDX 10 1 9 2 11 3 12 4 13 5 14 6 15 7 16 8 17 9 18 10 19 11
REMARK SMILES IDX 20 12 8 13 7 14 6 15 5 16 4 17 3 18 2 19 1 20
REMARK H PARENT
REMARK Flexibility Score: inf
ROOT
ATOM      1  C   UNL     1       1.995   5.911  17.958  1.00  0.00    -0.031 C 
ATOM      2  C   UNL     1       2.262   7.207  17.734  1.00  0.00    -0.031 C 
ENDROOT
BRANCH   1   3
ATOM      3  C   UNL     1       1.959   4.907  16.837  1.00  0.00     0.027 C 
BRANCH   3   4
ATOM      4  C   UNL     1       2.233   5.561  15.475  1.00  0.00     0.004 C 
BRANCH   4   5
ATOM      5  C   UNL     1       0.943   5.776  14.664  1.00  0.00     0.000 C 
BRANCH   5   6
ATOM      6  C   UNL     1       0.764   7.238  14.221  1.00  0.00     0.000 C 
BRANCH   6   7
ATOM      7  C   UNL     1      -0.176   8.027  15.152  1.00  0.00     0.000 C 
BRANCH   7   8
ATOM      8  C   UNL     1      -1.082   7.111  15.991  1.00  0.00     0.006 C 
BRANCH   8   9
ATOM      9  C   UNL     1      -1.424   7.713  17.360  1.00  0.00     0.053 C 
BRANCH   9  10
ATOM     10  C   UNL     1      -1.687   6.627  18.355  1.00  0.00     0.041 C 
ATOM     11  O   UNL     1      -2.140   6.907  19.496  1.00  0.00    -0.550 OA
ATOM     12  O   UNL     1      -1.475   5.298  18.006  1.00  0.00    -0.550 OA
ENDBRANCH   9  10
ENDBRANCH   8   9
ENDBRANCH   7   8
ENDBRANCH   6   7
ENDBRANCH   5   6
ENDBRANCH   4   5
ENDBRANCH   3   4
ENDBRANCH   1   3
BRANCH   2  13
ATOM     13  C   UNL     1       2.313   8.207  18.859  1.00  0.00     0.027 C 
BRANCH  13  14
ATOM     14  C   UNL     1       2.729   9.605  18.377  1.00  0.00     0.004 C 
BRANCH  14  15
ATOM     15  C   UNL     1       1.610  10.293  17.574  1.00  0.00     0.000 C 
BRANCH  15  16
ATOM     16  C   UNL     1       2.152  11.316  16.563  1.00  0.00     0.000 C 
BRANCH  16  17
ATOM     17  C   UNL     1       2.241  10.746  15.135  1.00  0.00    -0.000 C 
BRANCH  17  18
ATOM     18  C   UNL     1       3.680  10.386  14.734  1.00  0.00    -0.000 C 
BRANCH  18  19
ATOM     19  C   UNL     1       3.906   8.869  14.644  1.00  0.00    -0.003 C 
ATOM     20  C   UNL     1       5.006   8.421  15.602  1.00  0.00     0.004 C 
ENDBRANCH  18  19
ENDBRANCH  17  18
ENDBRANCH  16  17
ENDBRANCH  15  16
ENDBRANCH  14  15
ENDBRANCH  13  14
ENDBRANCH   2  13
TORSDOF 15
ENDMDL
MODEL 3
REMARK VINA RESULT:    -1.664      2.039      2.801
REMARK INTER + INTRA:          -6.551
REMARK INTER:                  -3.110
REMARK INTRA:                  -3.440
REMARK UNBOUND:                -3.428
REMARK SMILES CCCCCCCCC=CCCCCCCCC(=O)[O-]
REMARK SMILES IDX 10 1 9 2 11 3 12 4 13 5 14 6 15 7 16 8 17 9 18 10 19 11
REMARK SMILES IDX 20 12 8 13 7 14 6 15 5 16 4 17 3 18 2 19 1 20
REMARK H PARENT
REMARK Flexibility Score: inf
ROOT
ATOM      1  C   UNL     1       1.580   6.695  18.141  1.00  0.00    -0.031 C 
ATOM      2  C   UNL     1       1.969   5.641  17.408  1.00  0.00    -0.031 C 
ENDROOT
BRANCH   1   3
ATOM      3  C   UNL     1       0.196   6.782  18.727  1.00  0.00     0.027 C 
BRANCH   3   4
ATOM      4  C   UNL     1      -0.573   8.002  18.201  1.00  0.00     0.004 C 
BRANCH   4   5
ATOM      5  C   UNL     1      -1.492   7.645  17.020  1.00  0.00     0.000 C 
BRANCH   5   6
ATOM      6  C   UNL     1      -1.924   6.169  17.036  1.00  0.00     0.000 C 
BRANCH   6   7
ATOM      7  C   UNL     1      -1.577   5.438  15.725  1.00  0.00     0.000 C 
BRANCH   7   8
ATOM      8  C   UNL     1      -1.070   4.007  15.963  1.00  0.00     0.006 C 
BRANCH   8   9
ATOM      9  C   UNL     1      -1.270   3.542  17.412  1.00  0.00     0.053 C 
BRANCH   9  10
ATOM     10  C   UNL     1      -1.920   2.194  17.441  1.00  0.00     0.041 C 
ATOM     11  O   UNL     1      -2.494   1.744  16.415  1.00  0.00    -0.550 OA
ATOM     12  O   UNL     1      -1.850   1.414  18.589  1.00  0.00    -0.550 OA
ENDBRANCH   9  10
ENDBRANCH   8   9
ENDBRANCH   7   8
ENDBRANCH   6   7
ENDBRANCH   5   6
ENDBRANCH   4   5
ENDBRANCH   3   4
ENDBRANCH   1   3
BRANCH   2  13
ATOM     13  C   UNL     1       3.359   5.549  16.835  1.00  0.00     0.027 C 
BRANCH  13  14
ATOM     14  C   UNL     1       3.357   5.070  15.375  1.00  0.00     0.004 C 
BRANCH  14  15
ATOM     15  C   UNL     1       2.010   5.343  14.681  1.00  0.00     0.000 C 
BRANCH  15  16
ATOM     16  C   UNL     1       2.015   6.651  13.875  1.00  0.00     0.000 C 
BRANCH  16  17
ATOM     17  C   UNL     1       0.927   7.636  14.342  1.00  0.00    -0.000 C 
BRANCH  17  18
ATOM     18  C   UNL     1       1.507   8.833  15.113  1.00  0.00    -0.000 C 
BRANCH  18  19
ATOM     19  C   UNL     1       3.036   8.919  15.003  1.00  0.00    -0.003 C 
ATOM     20  C   UNL     1       3.664   9.277  16.348  1.00  0.00     0.004 C 
ENDBRANCH  18  19
ENDBRANCH  17  18
ENDBRANCH  16  17
ENDBRANCH  15  16
ENDBRANCH  14  15
ENDBRANCH  13  14
ENDBRANCH   2  13
TORSDOF 15
ENDMDL
MODEL 4
REMARK VINA RESULT:    -1.648      1.562      3.457
REMARK INTER + INTRA:          -6.521
REMARK INTER:                  -3.232
REMARK INTRA:                  -3.289
REMARK UNBOUND:                -3.428
REMARK SMILES CCCCCCCCC=CCCCCCCCC(=O)[O-]
REMARK SMILES IDX 10 1 9 2 11 3 12 4 13 5 14 6 15 7 16 8 17 9 18 10 19 11
REMARK SMILES IDX 20 12 8 13 7 14 6 15 5 16 4 17 3 18 2 19 1 20
REMARK H PARENT
REMARK Flexibility Score: inf
ROOT
ATOM      1  C   UNL     1       0.580   8.477  14.947  1.00  0.00    -0.031 C 
ATOM      2  C   UNL     1       1.872   8.212  14.704  1.00  0.00    -0.031 C 
ENDROOT
BRANCH   1   3
ATOM      3  C   UNL     1      -0.471   7.401  14.889  1.00  0.00     0.027 C 
BRANCH   3   4
ATOM      4  C   UNL     1      -1.198   7.237  16.231  1.00  0.00     0.004 C 
BRANCH   4   5
ATOM      5  C   UNL     1      -1.275   5.766  16.674  1.00  0.00     0.000 C 
BRANCH   5   6
ATOM      6  C   UNL     1      -0.635   4.810  15.654  1.00  0.00     0.000 C 
BRANCH   6   7
ATOM      7  C   UNL     1       0.743   4.296  16.109  1.00  0.00     0.000 C 
BRANCH   7   8
ATOM      8  C   UNL     1       1.813   4.424  15.013  1.00  0.00     0.006 C 
BRANCH   8   9
ATOM      9  C   UNL     1       3.188   4.814  15.573  1.00  0.00     0.053 C 
BRANCH   9  10
ATOM     10  C   UNL     1       3.691   3.755  16.503  1.00  0.00     0.041 C 
ATOM     11  O   UNL     1       3.985   2.612  16.065  1.00  0.00    -0.550 OA
ATOM     12  O   UNL     1       3.878   4.045  17.849  1.00  0.00    -0.550 OA
ENDBRANCH   9  10
ENDBRANCH   8   9
ENDBRANCH   7   8
ENDBRANCH   6   7
ENDBRANCH   5   6
ENDBRANCH   4   5
ENDBRANCH   3   4
ENDBRANCH   1   3
BRANCH   2  13
ATOM     13  C   UNL     1       2.925   9.287  14.778  1.00  0.00     0.027 C 
BRANCH  13  14
ATOM     14  C   UNL     1       2.333  10.657  15.142  1.00  0.00     0.004 C 
BRANCH  14  15
ATOM     15  C   UNL     1       2.757  11.113  16.549  1.00  0.00     0.000 C 
BRANCH  15  16
ATOM     16  C   UNL     1       1.694  10.807  17.616  1.00  0.00     0.000 C 
BRANCH  16  17
ATOM     17  C   UNL     1       2.178   9.779  18.655  1.00  0.00    -0.000 C 
BRANCH  17  18
ATOM     18  C   UNL     1       1.305   8.514  18.683  1.00  0.00    -0.000 C 
BRANCH  18  19
ATOM     19  C   UNL     1       2.060   7.266  18.204  1.00  0.00    -0.003 C 
ATOM     20  C   UNL     1       3.554   7.546  18.071  1.00  0.00     0.004 C 
ENDBRANCH  18  19
ENDBRANCH  17  18
ENDBRANCH  16  17
ENDBRANCH  15  16
ENDBRANCH  14  15
ENDBRANCH  13  14
ENDBRANCH   2  13
TORSDOF 15
ENDMDL
MODEL 5
REMARK VINA RESULT:    -1.647      1.683      1.922
REMARK INTER + INTRA:          -6.519
REMARK INTER:                  -3.360
REMARK INTRA:                  -3.159
REMARK UNBOUND:                -3.428
REMARK SMILES CCCCCCCCC=CCCCCCCCC(=O)[O-]
REMARK SMILES IDX 10 1 9 2 11 3 12 4 13 5 14 6 15 7 16 8 17 9 18 10 19 11
REMARK SMILES IDX 20 12 8 13 7 14 6 15 5 16 4 17 3 18 2 19 1 20
REMARK H PARENT
REMARK Flexibility Score: inf
ROOT
ATOM      1  C   UNL     1       1.620   7.010  18.492  1.00  0.00    -0.031 C 
ATOM      2  C   UNL     1       2.408   7.476  17.512  1.00  0.00    -0.031 C 
ENDROOT
BRANCH   1   3
ATOM      3  C   UNL     1       0.172   7.411  18.600  1.00  0.00     0.027 C 
BRANCH   3   4
ATOM      4  C   UNL     1      -0.384   7.910  17.259  1.00  0.00     0.004 C 
BRANCH   4   5
ATOM      5  C   UNL     1      -1.553   7.044  16.757  1.00  0.00     0.000 C 
BRANCH   5   6
ATOM      6  C   UNL     1      -1.201   6.264  15.479  1.00  0.00     0.000 C 
BRANCH   6   7
ATOM      7  C   UNL     1      -0.109   6.958  14.645  1.00  0.00     0.000 C 
BRANCH   7   8
ATOM      8  C   UNL     1       1.052   6.016  14.289  1.00  0.00     0.006 C 
BRANCH   8   9
ATOM      9  C   UNL     1       1.221   4.878  15.305  1.00  0.00     0.053 C 
BRANCH   9  10
ATOM     10  C   UNL     1       2.372   4.003  14.920  1.00  0.00     0.041 C 
ATOM     11  O   UNL     1       3.550   4.333  15.220  1.00  0.00    -0.550 OA
ATOM     12  O   UNL     1       2.141   2.797  14.268  1.00  0.00    -0.550 OA
ENDBRANCH   9  10
ENDBRANCH   8   9
ENDBRANCH   7   8
ENDBRANCH   6   7
ENDBRANCH   5   6
ENDBRANCH   4   5
ENDBRANCH   3   4
ENDBRANCH   1   3
BRANCH   2  13
ATOM     13  C   UNL     1       3.851   7.062  17.397  1.00  0.00     0.027 C 
BRANCH  13  14
ATOM     14  C   UNL     1       4.586   7.817  16.279  1.00  0.00     0.004 C 
BRANCH  14  15
ATOM     15  C   UNL     1       3.734   7.926  15.001  1.00  0.00     0.000 C 
BRANCH  15  16
ATOM     16  C   UNL     1       3.523   9.381  14.553  1.00  0.00     0.000 C 
BRANCH  16  17
ATOM     17  C   UNL     1       2.148   9.934  14.971  1.00  0.00    -0.000 C 
BRANCH  17  18
ATOM     18  C   UNL     1       2.259  11.209  15.822  1.00  0.00    -0.000 C 
BRANCH  18  19
ATOM     19  C   UNL     1       1.876  10.973  17.290  1.00  0.00    -0.003 C 
ATOM     20  C   UNL     1       3.104  11.035  18.194  1.00  0.00     0.004 C 
ENDBRANCH  18  19
ENDBRANCH  17  18
ENDBRANCH  16  17
ENDBRANCH  15  16
ENDBRANCH  14  15
ENDBRANCH  13  14
ENDBRANCH   2  13
TORSDOF 15
ENDMDL
MODEL 6
REMARK VINA RESULT:    -1.638      1.768      3.408
REMARK INTER + INTRA:          -6.502
REMARK INTER:                  -3.400
REMARK INTRA:                  -3.102
REMARK UNBOUND:                -3.428
REMARK SMILES CCCCCCCCC=CCCCCCCCC(=O)[O-]
REMARK SMILES IDX 10 1 9 2 11 3 12 4 13 5 14 6 15 7 16 8 17 9 18 10 19 11
REMARK SMILES IDX 20 12 8 13 7 14 6 15 5 16 4 17 3 18 2 19 1 20
REMARK H PARENT
REMARK Flexibility Score: inf
ROOT
ATOM      1  C   UNL     1      -1.609   7.783  16.968  1.00  0.00    -0.031 C 
ATOM      2  C   UNL     1      -1.558   6.487  16.624  1.00  0.00    -0.031 C 
ENDROOT
BRANCH   1   3
ATOM      3  C   UNL     1      -2.111   8.222  18.319  1.00  0.00     0.027 C 
BRANCH   3   4
ATOM      4  C   UNL     1      -1.050   8.033  19.412  1.00  0.00     0.004 C 
BRANCH   4   5
ATOM      5  C   UNL     1       0.241   8.813  19.109  1.00  0.00     0.000 C 
BRANCH   5   6
ATOM      6  C   UNL     1       1.496   7.928  19.190  1.00  0.00     0.000 C 
BRANCH   6   7
ATOM      7  C   UNL     1       1.163   6.425  19.144  1.00  0.00     0.000 C 
BRANCH   7   8
ATOM      8  C   UNL     1       1.879   5.696  17.995  1.00  0.00     0.006 C 
BRANCH   8   9
ATOM      9  C   UNL     1       1.274   4.317  17.703  1.00  0.00     0.053 C 
BRANCH   9  10
ATOM     10  C   UNL     1       1.786   3.788  16.400  1.00  0.00     0.041 C 
ATOM     11  O   UNL     1       1.025   3.138  15.636  1.00  0.00    -0.550 OA
ATOM     12  O   UNL     1       3.092   4.055  16.007  1.00  0.00    -0.550 OA
ENDBRANCH   9  10
ENDBRANCH   8   9
ENDBRANCH   7   8
ENDBRANCH   6   7
ENDBRANCH   5   6
ENDBRANCH   4   5
ENDBRANCH   3   4
ENDBRANCH   1   3
BRANCH   2  13
ATOM     13  C   UNL     1      -1.042   6.048  15.279  1.00  0.00     0.027 C 
BRANCH  13  14
ATOM     14  C   UNL     1      -0.220   7.145  14.585  1.00  0.00     0.004 C 
BRANCH  14  15
ATOM     15  C   UNL     1       1.206   6.672  14.251  1.00  0.00     0.000 C 
BRANCH  15  16
ATOM     16  C   UNL     1       2.288   7.541  14.912  1.00  0.00     0.000 C 
BRANCH  16  17
ATOM     17  C   UNL     1       1.701   8.776  15.621  1.00  0.00    -0.000 C 
BRANCH  17  18
ATOM     18  C   UNL     1       2.182  10.097  14.999  1.00  0.00    -0.000 C 
BRANCH  18  19
ATOM     19  C   UNL     1       2.268  11.235  16.025  1.00  0.00    -0.003 C 
ATOM     20  C   UNL     1       3.022  10.791  17.276  1.00  0.00     0.004 C 
ENDBRANCH  18  19
ENDBRANCH  17  18
ENDBRANCH  16  17
ENDBRANCH  15  16
ENDBRANCH  14  15
ENDBRANCH  13  14
ENDBRANCH   2  13
TORSDOF 15
ENDMDL
MODEL 7
REMARK VINA RESULT:    -1.635      2.992      5.916
REMARK INTER + INTRA:          -6.497
REMARK INTER:                  -3.462
REMARK INTRA:                  -3.035
REMARK UNBOUND:                -3.428
REMARK SMILES CCCCCCCCC=CCCCCCCCC(=O)[O-]
REMARK SMILES IDX 10 1 9 2 11 3 12 4 13 5 14 6 15 7 16 8 17 9 18 10 19 11
REMARK SMILES IDX 20 12 8 13 7 14 6 15 5 16 4 17 3 18 2 19 1 20
REMARK H PARENT
REMARK Flexibility Score: inf
ROOT
ATOM      1  C   UNL     1      -0.869   6.800  15.327  1.00  0.00    -0.031 C 
ATOM      2  C   UNL     1      -0.569   5.512  15.554  1.00  0.00    -0.031 C 
ENDROOT
BRANCH   1   3
ATOM      3  C   UNL     1       0.075   7.712  14.589  1.00  0.00     0.027 C 
BRANCH   3   4
ATOM      4  C   UNL     1       1.385   7.002  14.219  1.00  0.00     0.004 C 
BRANCH   4   5
ATOM      5  C   UNL     1       2.607   7.650  14.893  1.00  0.00     0.000 C 
BRANCH   5   6
ATOM      6  C   UNL     1       2.625   7.432  16.415  1.00  0.00     0.000 C 
BRANCH   6   7
ATOM      7  C   UNL     1       2.893   8.732  17.195  1.00  0.00     0.000 C 
BRANCH   7   8
ATOM      8  C   UNL     1       1.850   9.823  16.902  1.00  0.00     0.006 C 
BRANCH   8   9
ATOM      9  C   UNL     1       2.490  11.174  16.556  1.00  0.00     0.053 C 
BRANCH   9  10
ATOM     10  C   UNL     1       2.893  11.207  15.115  1.00  0.00     0.041 C 
ATOM     11  O   UNL     1       2.063  11.549  14.232  1.00  0.00    -0.550 OA
ATOM     12  O   UNL     1       4.199  10.902  14.752  1.00  0.00    -0.550 OA
ENDBRANCH   9  10
ENDBRANCH   8   9
ENDBRANCH   7   8
ENDBRANCH   6   7
ENDBRANCH   5   6
ENDBRANCH   4   5
ENDBRANCH   3   4
ENDBRANCH   1   3
BRANCH   2  13
ATOM     13  C   UNL     1      -1.520   4.597  16.279  1.00  0.00     0.027 C 
BRANCH  13  14
ATOM     14  C   UNL     1      -0.973   4.151  17.643  1.00  0.00     0.004 C 
BRANCH  14  15
ATOM     15  C   UNL     1       0.526   4.466  17.794  1.00  0.00     0.000 C 
BRANCH  15  16
ATOM     16  C   UNL     1       0.817   5.413  18.969  1.00  0.00     0.000 C 
BRANCH  16  17
ATOM     17  C   UNL     1      -0.409   6.258  19.364  1.00  0.00    -0.000 C 
BRANCH  17  18
ATOM     18  C   UNL     1      -0.331   7.696  18.829  1.00  0.00    -0.000 C 
BRANCH  18  19
ATOM     19  C   UNL     1      -1.706   8.374  18.756  1.00  0.00    -0.003 C 
ATOM     20  C   UNL     1      -2.805   7.356  18.462  1.00  0.00     0.004 C 
ENDBRANCH  18  19
ENDBRANCH  17  18
ENDBRANCH  16  17
ENDBRANCH  15  16
ENDBRANCH  14  15
ENDBRANCH  13  14
ENDBRANCH   2  13
TORSDOF 15
ENDMDL
MODEL 8
REMARK VINA RESULT:    -1.622      1.134      3.433
REMARK INTER + INTRA:          -6.473
REMARK INTER:                  -3.525
REMARK INTRA:                  -2.948
REMARK UNBOUND:                -3.428
REMARK SMILES CCCCCCCCC=CCCCCCCCC(=O)[O-]
REMARK SMILES IDX 10 1 9 2 11 3 12 4 13 5 14 6 15 7 16 8 17 9 18 10 19 11
REMARK SMILES IDX 20 12 8 13 7 14 6 15 5 16 4 17 3 18 2 19 1 20
REMARK H PARENT
REMARK Flexibility Score: inf
ROOT
ATOM      1  C   UNL     1       2.426   8.425  14.546  1.00  0.00    -0.031 C 
ATOM      2  C   UNL     1       3.560   9.114  14.743  1.00  0.00    -0.031 C 
ENDROOT
BRANCH   1   3
ATOM      3  C   UNL     1       2.439   6.946  14.265  1.00  0.00     0.027 C 
BRANCH   3   4
ATOM      4  C   UNL     1       1.026   6.347  14.289  1.00  0.00     0.004 C 
BRANCH   4   5
ATOM      5  C   UNL     1      -0.040   7.389  14.670  1.00  0.00     0.000 C 
BRANCH   5   6
ATOM      6  C   UNL     1      -1.035   6.858  15.715  1.00  0.00     0.000 C 
BRANCH   6   7
ATOM      7  C   UNL     1      -1.446   5.398  15.452  1.00  0.00     0.000 C 
BRANCH   7   8
ATOM      8  C   UNL     1      -1.238   4.495  16.680  1.00  0.00     0.006 C 
BRANCH   8   9
ATOM      9  C   UNL     1       0.036   3.646  16.578  1.00  0.00     0.053 C 
BRANCH   9  10
ATOM     10  C   UNL     1       1.108   4.208  17.457  1.00  0.00     0.041 C 
ATOM     11  O   UNL     1       0.862   4.487  18.660  1.00  0.00    -0.550 OA
ATOM     12  O   UNL     1       2.394   4.382  16.961  1.00  0.00    -0.550 OA
ENDBRANCH   9  10
ENDBRANCH   8   9
ENDBRANCH   7   8
ENDBRANCH   6   7
ENDBRANCH   5   6
ENDBRANCH   4   5
ENDBRANCH   3   4
ENDBRANCH   1   3
BRANCH   2  13
ATOM     13  C   UNL     1       3.545  10.590  15.039  1.00  0.00     0.027 C 
BRANCH  13  14
ATOM     14  C   UNL     1       2.170  11.071  15.527  1.00  0.00     0.004 C 
BRANCH  14  15
ATOM     15  C   UNL     1       2.205  11.516  17.000  1.00  0.00     0.000 C 
BRANCH  15  16
ATOM     16  C   UNL     1       2.273  10.330  17.975  1.00  0.00     0.000 C 
BRANCH  16  17
ATOM     17  C   UNL     1       1.049   9.402  17.863  1.00  0.00    -0.000 C 
BRANCH  17  18
ATOM     18  C   UNL     1       1.407   7.925  18.088  1.00  0.00    -0.000 C 
BRANCH  18  19
ATOM     19  C   UNL     1       2.923   7.685  18.131  1.00  0.00    -0.003 C 
ATOM     20  C   UNL     1       3.329   6.968  19.416  1.00  0.00     0.004 C 
ENDBRANCH  18  19
ENDBRANCH  17  18
ENDBRANCH  16  17
ENDBRANCH  15  16
ENDBRANCH  14  15
ENDBRANCH  13  14
ENDBRANCH   2  13
TORSDOF 15
ENDMDL
MODEL 9
REMARK VINA RESULT:    -1.611      2.032      3.830
REMARK INTER + INTRA:          -6.452
REMARK INTER:                  -3.396
REMARK INTRA:                  -3.056
REMARK UNBOUND:                -3.428
REMARK SMILES CCCCCCCCC=CCCCCCCCC(=O)[O-]
REMARK SMILES IDX 10 1 9 2 11 3 12 4 13 5 14 6 15 7 16 8 17 9 18 10 19 11
REMARK SMILES IDX 20 12 8 13 7 14 6 15 5 16 4 17 3 18 2 19 1 20
REMARK H PARENT
REMARK Flexibility Score: inf
ROOT
ATOM      1  C   UNL     1       0.957   6.163  18.212  1.00  0.00    -0.031 C 
ATOM      2  C   UNL     1       0.304   7.334  18.168  1.00  0.00    -0.031 C 
ENDROOT
BRANCH   1   3
ATOM      3  C   UNL     1       2.140   5.951  19.121  1.00  0.00     0.027 C 
BRANCH   3   4
ATOM      4  C   UNL     1       3.283   5.214  18.410  1.00  0.00     0.004 C 
BRANCH   4   5
ATOM      5  C   UNL     1       3.600   5.825  17.034  1.00  0.00     0.000 C 
BRANCH   5   6
ATOM      6  C   UNL     1       3.570   4.781  15.905  1.00  0.00     0.000 C 
BRANCH   6   7
ATOM      7  C   UNL     1       2.772   3.521  16.286  1.00  0.00     0.000 C 
BRANCH   7   8
ATOM      8  C   UNL     1       1.363   3.506  15.672  1.00  0.00     0.006 C 
BRANCH   8   9
ATOM      9  C   UNL     1       0.323   2.856  16.594  1.00  0.00     0.053 C 
BRANCH   9  10
ATOM     10  C   UNL     1      -0.759   2.211  15.786  1.00  0.00     0.041 C 
ATOM     11  O   UNL     1      -1.745   2.888  15.391  1.00  0.00    -0.550 OA
ATOM     12  O   UNL     1      -0.656   0.873  15.429  1.00  0.00    -0.550 OA
ENDBRANCH   9  10
ENDBRANCH   8   9
ENDBRANCH   7   8
ENDBRANCH   6   7
ENDBRANCH   5   6
ENDBRANCH   4   5
ENDBRANCH   3   4
ENDBRANCH   1   3
BRANCH   2  13
ATOM     13  C   UNL     1      -0.887   7.538  17.270  1.00  0.00     0.027 C 
BRANCH  13  14
ATOM     14  C   UNL     1      -1.300   6.247  16.548  1.00  0.00     0.004 C 
BRANCH  14  15
ATOM     15  C   UNL     1      -1.004   6.310  15.039  1.00  0.00     0.000 C 
BRANCH  15  16
ATOM     16  C   UNL     1      -0.136   7.520  14.657  1.00  0.00     0.000 C 
BRANCH  16  17
ATOM     17  C   UNL     1       1.297   7.118  14.261  1.00  0.00    -0.000 C 
BRANCH  17  18
ATOM     18  C   UNL     1       2.333   8.192  14.627  1.00  0.00    -0.000 C 
BRANCH  18  19
ATOM     19  C   UNL     1       1.710   9.384  15.368  1.00  0.00    -0.003 C 
ATOM     20  C   UNL     1       2.259  10.707  14.840  1.00  0.00     0.004 C 
ENDBRANCH  18  19
ENDBRANCH  17  18
ENDBRANCH  16  17
ENDBRANCH  15  16
ENDBRANCH  14  15
ENDBRANCH  13  14
ENDBRANCH   2  13
TORSDOF 15
ENDMDL
