MODEL 1
REMARK VINA RESULT:    11.077      0.000      0.000
REMARK INTER + INTRA:          18.262
REMARK INTER:                  18.847
REMARK INTRA:                  -0.585
REMARK UNBOUND:                -0.585
REMARK SMILES CCCCCCCCCCCCCC(=O)[O-]
REMARK SMILES IDX 8 1 9 2 10 3 11 4 12 5 13 6 14 7 15 8 16 9 7 10 6 11 5 12
REMARK SMILES IDX 4 13 3 14 2 15 1 16
REMARK H PARENT
REMARK Flexibility Score: inf
ROOT
ATOM      1  C   UNL     1     -13.059   1.610 -18.068  1.00  0.00     0.000 C 
ENDROOT
BRANCH   1   2
ATOM      2  C   UNL     1     -12.614   3.072 -17.906  1.00  0.00     0.000 C 
BRANCH   2   3
ATOM      3  C   UNL     1     -11.617   3.269 -16.750  1.00  0.00     0.000 C 
BRANCH   3   4
ATOM      4  C   UNL     1     -11.328   4.738 -16.378  1.00  0.00     0.000 C 
BRANCH   4   5
ATOM      5  C   UNL     1     -12.556   5.671 -16.391  1.00  0.00     0.006 C 
BRANCH   5   6
ATOM      6  C   UNL     1     -12.337   7.016 -15.684  1.00  0.00     0.053 C 
BRANCH   6   7
ATOM      7  C   UNL     1     -13.340   8.043 -16.112  1.00  0.00     0.041 C 
ATOM      8  O   UNL     1     -13.250   8.584 -17.246  1.00  0.00    -0.550 OA
ATOM      9  O   UNL     1     -14.394   8.377 -15.271  1.00  0.00    -0.550 OA
ENDBRANCH   6   7
ENDBRANCH   5   6
ENDBRANCH   4   5
ENDBRANCH   3   4
ENDBRANCH   2   3
ENDBRANCH   1   2
BRANCH   1  10
ATOM     10  C   UNL     1     -12.234   0.682 -17.165  1.00  0.00     0.000 C 
BRANCH  10  11
ATOM     11  C   UNL     1     -12.085  -0.731 -17.749  1.00  0.00    -0.000 C 
BRANCH  11  12
ATOM     12  C   UNL     1     -10.649  -1.031 -18.214  1.00  0.00    -0.000 C 
BRANCH  12  13
ATOM     13  C   UNL     1      -9.597  -0.664 -17.156  1.00  0.00    -0.000 C 
BRANCH  13  14
ATOM     14  C   UNL     1      -8.261  -1.388 -17.374  1.00  0.00    -0.000 C 
BRANCH  14  15
ATOM     15  C   UNL     1      -7.132  -0.705 -16.595  1.00  0.00    -0.003 C 
ATOM     16  C   UNL     1      -7.058  -1.222 -15.162  1.00  0.00     0.004 C 
ENDBRANCH  14  15
ENDBRANCH  13  14
ENDBRANCH  12  13
ENDBRANCH  11  12
ENDBRANCH  10  11
ENDBRANCH   1  10
TORSDOF 12
ENDMDL
MODEL 2
REMARK VINA RESULT:    11.156      2.372      2.833
REMARK INTER + INTRA:          18.397
REMARK INTER:                  18.915
REMARK INTRA:                  -0.518
REMARK UNBOUND:                -0.585
REMARK SMILES CCCCCCCCCCCCCC(=O)[O-]
REMARK SMILES IDX 8 1 9 2 10 3 11 4 12 5 13 6 14 7 15 8 16 9 7 10 6 11 5 12
REMARK SMILES IDX 4 13 3 14 2 15 1 16
REMARK H PARENT
REMARK Flexibility Score: inf
ROOT
ATOM      1  C   UNL     1     -12.738   0.206 -17.930  1.00  0.00     0.000 C 
ENDROOT
BRANCH   1   2
ATOM      2  C   UNL     1     -12.339   1.387 -17.032  1.00  0.00     0.000 C 
BRANCH   2   3
ATOM      3  C   UNL     1     -12.297   2.726 -17.790  1.00  0.00     0.000 C 
BRANCH   3   4
ATOM      4  C   UNL     1     -13.631   3.156 -18.435  1.00  0.00     0.000 C 
BRANCH   4   5
ATOM      5  C   UNL     1     -13.658   4.595 -18.988  1.00  0.00     0.006 C 
BRANCH   5   6
ATOM      6  C   UNL     1     -15.064   5.202 -19.108  1.00  0.00     0.053 C 
BRANCH   6   7
ATOM      7  C   UNL     1     -15.066   6.447 -19.942  1.00  0.00     0.041 C 
ATOM      8  O   UNL     1     -14.693   6.406 -21.144  1.00  0.00    -0.550 OA
ATOM      9  O   UNL     1     -15.512   7.645 -19.399  1.00  0.00    -0.550 OA
ENDBRANCH   6   7
ENDBRANCH   5   6
ENDBRANCH   4   5
ENDBRANCH   3   4
ENDBRANCH   2   3
ENDBRANCH   1   2
BRANCH   1  10
ATOM     10  C   UNL     1     -11.932  -1.051 -17.574  1.00  0.00     0.000 C 
BRANCH  10  11
ATOM     11  C   UNL     1     -10.555  -1.083 -18.257  1.00  0.00    -0.000 C 
BRANCH  11  12
ATOM     12  C   UNL     1      -9.399  -0.843 -17.270  1.00  0.00    -0.000 C 
BRANCH  12  13
ATOM     13  C   UNL     1      -8.022  -0.884 -17.952  1.00  0.00    -0.000 C 
BRANCH  13  14
ATOM     14  C   UNL     1      -6.875  -0.547 -16.988  1.00  0.00    -0.000 C 
BRANCH  14  15
ATOM     15  C   UNL     1      -7.355  -0.570 -15.534  1.00  0.00    -0.003 C 
ATOM     16  C   UNL     1      -6.883  -1.830 -14.815  1.00  0.00     0.004 C 
ENDBRANCH  14  15
ENDBRANCH  13  14
ENDBRANCH  12  13
ENDBRANCH  11  12
ENDBRANCH  10  11
ENDBRANCH   1  10
TORSDOF 12
ENDMDL
MODEL 3
REMARK VINA RESULT:    11.394      4.549      8.289
REMARK INTER + INTRA:          18.802
REMARK INTER:                  19.227
REMARK INTRA:                  -0.426
REMARK UNBOUND:                -0.585
REMARK SMILES CCCCCCCCCCCCCC(=O)[O-]
REMARK SMILES IDX 8 1 9 2 10 3 11 4 12 5 13 6 14 7 15 8 16 9 7 10 6 11 5 12
REMARK SMILES IDX 4 13 3 14 2 15 1 16
REMARK H PARENT
REMARK Flexibility Score: inf
ROOT
ATOM      1  C   UNL     1     -12.808   0.606 -17.776  1.00  0.00     0.000 C 
ENDROOT
BRANCH   1   2
ATOM      2  C   UNL     1     -12.144  -0.751 -17.495  1.00  0.00     0.000 C 
BRANCH   2   3
ATOM      3  C   UNL     1     -10.747  -0.876 -18.131  1.00  0.00     0.000 C 
BRANCH   3   4
ATOM      4  C   UNL     1      -9.566  -0.730 -17.150  1.00  0.00     0.000 C 
BRANCH   4   5
ATOM      5  C   UNL     1      -8.203  -1.207 -17.692  1.00  0.00     0.006 C 
BRANCH   5   6
ATOM      6  C   UNL     1      -6.993  -0.713 -16.884  1.00  0.00     0.053 C 
BRANCH   6   7
ATOM      7  C   UNL     1      -7.156  -0.973 -15.418  1.00  0.00     0.041 C 
ATOM      8  O   UNL     1      -6.875  -2.103 -14.938  1.00  0.00    -0.550 OA
ATOM      9  O   UNL     1      -7.587   0.046 -14.577  1.00  0.00    -0.550 OA
ENDBRANCH   6   7
ENDBRANCH   5   6
ENDBRANCH   4   5
ENDBRANCH   3   4
ENDBRANCH   2   3
ENDBRANCH   1   2
BRANCH   1  10
ATOM     10  C   UNL     1     -12.150   1.720 -16.950  1.00  0.00     0.000 C 
BRANCH  10  11
ATOM     11  C   UNL     1     -12.163   3.077 -17.672  1.00  0.00    -0.000 C 
BRANCH  11  12
ATOM     12  C   UNL     1     -13.476   3.327 -18.436  1.00  0.00    -0.000 C 
BRANCH  12  13
ATOM     13  C   UNL     1     -13.734   4.821 -18.693  1.00  0.00    -0.000 C 
BRANCH  13  14
ATOM     14  C   UNL     1     -15.126   5.087 -19.284  1.00  0.00    -0.000 C 
BRANCH  14  15
ATOM     15  C   UNL     1     -15.088   6.256 -20.273  1.00  0.00    -0.003 C 
ATOM     16  C   UNL     1     -15.333   7.586 -19.567  1.00  0.00     0.004 C 
ENDBRANCH  14  15
ENDBRANCH  13  14
ENDBRANCH  12  13
ENDBRANCH  11  12
ENDBRANCH  10  11
ENDBRANCH   1  10
TORSDOF 12
ENDMDL
MODEL 4
REMARK VINA RESULT:    11.651      4.032      8.175
REMARK INTER + INTRA:          19.238
REMARK INTER:                  19.781
REMARK INTRA:                  -0.543
REMARK UNBOUND:                -0.585
REMARK SMILES CCCCCCCCCCCCCC(=O)[O-]
REMARK SMILES IDX 8 1 9 2 10 3 11 4 12 5 13 6 14 7 15 8 16 9 7 10 6 11 5 12
REMARK SMILES IDX 4 13 3 14 2 15 1 16
REMARK H PARENT
REMARK Flexibility Score: inf
ROOT
ATOM      1  C   UNL     1     -13.100   1.743 -17.753  1.00  0.00     0.000 C 
ENDROOT
BRANCH   1   2
ATOM      2  C   UNL     1     -12.043   0.767 -17.215  1.00  0.00     0.000 C 
BRANCH   2   3
ATOM      3  C   UNL     1     -12.223  -0.665 -17.750  1.00  0.00     0.000 C 
BRANCH   3   4
ATOM      4  C   UNL     1     -10.914  -1.448 -17.979  1.00  0.00     0.000 C 
BRANCH   4   5
ATOM      5  C   UNL     1      -9.631  -0.730 -17.512  1.00  0.00     0.006 C 
BRANCH   5   6
ATOM      6  C   UNL     1      -8.485  -1.673 -17.116  1.00  0.00     0.053 C 
BRANCH   6   7
ATOM      7  C   UNL     1      -7.390  -0.950 -16.394  1.00  0.00     0.041 C 
ATOM      8  O   UNL     1      -6.875   0.085 -16.894  1.00  0.00    -0.550 OA
ATOM      9  O   UNL     1      -6.961  -1.401 -15.152  1.00  0.00    -0.550 OA
ENDBRANCH   6   7
ENDBRANCH   5   6
ENDBRANCH   4   5
ENDBRANCH   3   4
ENDBRANCH   2   3
ENDBRANCH   1   2
BRANCH   1  10
ATOM     10  C   UNL     1     -12.521   3.159 -17.887  1.00  0.00     0.000 C 
BRANCH  10  11
ATOM     11  C   UNL     1     -11.567   3.518 -16.737  1.00  0.00    -0.000 C 
BRANCH  11  12
ATOM     12  C   UNL     1     -11.411   5.038 -16.551  1.00  0.00    -0.000 C 
BRANCH  12  13
ATOM     13  C   UNL     1     -12.690   5.702 -16.015  1.00  0.00    -0.000 C 
BRANCH  13  14
ATOM     14  C   UNL     1     -12.487   7.185 -15.673  1.00  0.00    -0.000 C 
BRANCH  14  15
ATOM     15  C   UNL     1     -13.279   8.082 -16.629  1.00  0.00    -0.003 C 
ATOM     16  C   UNL     1     -14.439   8.766 -15.912  1.00  0.00     0.004 C 
ENDBRANCH  14  15
ENDBRANCH  13  14
ENDBRANCH  12  13
ENDBRANCH  11  12
ENDBRANCH  10  11
ENDBRANCH   1  10
TORSDOF 12
ENDMDL
MODEL 5
REMARK VINA RESULT:    11.941      4.176      7.614
REMARK INTER + INTRA:          19.733
REMARK INTER:                  20.046
REMARK INTRA:                  -0.313
REMARK UNBOUND:                -0.585
REMARK SMILES CCCCCCCCCCCCCC(=O)[O-]
REMARK SMILES IDX 8 1 9 2 10 3 11 4 12 5 13 6 14 7 15 8 16 9 7 10 6 11 5 12
REMARK SMILES IDX 4 13 3 14 2 15 1 16
REMARK H PARENT
REMARK Flexibility Score: inf
ROOT
ATOM      1  C   UNL     1     -12.761  -0.366 -17.052  1.00  0.00     0.000 C 
ENDROOT
BRANCH   1   2
ATOM      2  C   UNL     1     -12.078  -1.488 -17.849  1.00  0.00     0.000 C 
BRANCH   2   3
ATOM      3  C   UNL     1     -10.692  -1.084 -18.384  1.00  0.00     0.000 C 
BRANCH   3   4
ATOM      4  C   UNL     1      -9.620  -0.835 -17.303  1.00  0.00     0.000 C 
BRANCH   4   5
ATOM      5  C   UNL     1      -8.192  -1.278 -17.683  1.00  0.00     0.006 C 
BRANCH   5   6
ATOM      6  C   UNL     1      -7.082  -0.629 -16.844  1.00  0.00     0.053 C 
BRANCH   6   7
ATOM      7  C   UNL     1      -7.181  -1.008 -15.397  1.00  0.00     0.041 C 
ATOM      8  O   UNL     1      -6.879  -2.172 -15.025  1.00  0.00    -0.550 OA
ATOM      9  O   UNL     1      -7.575  -0.063 -14.458  1.00  0.00    -0.550 OA
ENDBRANCH   6   7
ENDBRANCH   5   6
ENDBRANCH   4   5
ENDBRANCH   3   4
ENDBRANCH   2   3
ENDBRANCH   1   2
BRANCH   1  10
ATOM     10  C   UNL     1     -12.112   0.993 -17.352  1.00  0.00     0.000 C 
BRANCH  10  11
ATOM     11  C   UNL     1     -13.081   1.972 -18.033  1.00  0.00    -0.000 C 
BRANCH  11  12
ATOM     12  C   UNL     1     -12.666   3.442 -17.845  1.00  0.00    -0.000 C 
BRANCH  12  13
ATOM     13  C   UNL     1     -11.660   3.630 -16.698  1.00  0.00    -0.000 C 
BRANCH  13  14
ATOM     14  C   UNL     1     -11.431   5.107 -16.349  1.00  0.00    -0.000 C 
BRANCH  14  15
ATOM     15  C   UNL     1     -12.759   5.868 -16.279  1.00  0.00    -0.003 C 
ATOM     16  C   UNL     1     -12.536   7.340 -15.947  1.00  0.00     0.004 C 
ENDBRANCH  14  15
ENDBRANCH  13  14
ENDBRANCH  12  13
ENDBRANCH  11  12
ENDBRANCH  10  11
ENDBRANCH   1  10
TORSDOF 12
ENDMDL
