MODEL 1
REMARK VINA RESULT:    -4.830      0.000      0.000
REMARK INTER + INTRA:         -15.416
REMARK INTER:                 -12.736
REMARK INTRA:                  -2.680
REMARK UNBOUND:                -2.680
REMARK SMILES CCCCCCCCCCCCCCCCCCCCCCCCCCCCCC(=O)[O-]
REMARK SMILES IDX 16 1 17 2 18 3 19 4 20 5 21 6 22 7 23 8 24 9 25 10 26 11
REMARK SMILES IDX 27 12 28 13 29 14 30 15 31 16 32 17 15 18 14 19 13 20 12 21
REMARK SMILES IDX 11 22 10 23 9 24 8 25 7 26 6 27 5 28 4 29 3 30 2 31 1 32
REMARK H PARENT
REMARK Flexibility Score: inf
ROOT
ATOM      1  C   UNL     1      -5.383  -5.421  29.055  1.00  0.00     0.000 C 
ENDROOT
BRANCH   1   2
ATOM      2  C   UNL     1      -4.295  -4.646  28.290  1.00  0.00     0.000 C 
BRANCH   2   3
ATOM      3  C   UNL     1      -3.295  -3.946  29.227  1.00  0.00     0.000 C 
BRANCH   3   4
ATOM      4  C   UNL     1      -1.853  -3.851  28.692  1.00  0.00     0.000 C 
BRANCH   4   5
ATOM      5  C   UNL     1      -1.217  -2.455  28.852  1.00  0.00     0.000 C 
BRANCH   5   6
ATOM      6  C   UNL     1       0.158  -2.352  28.168  1.00  0.00     0.000 C 
BRANCH   6   7
ATOM      7  C   UNL     1       0.065  -1.777  26.745  1.00  0.00     0.000 C 
BRANCH   7   8
ATOM      8  C   UNL     1      -0.820  -0.517  26.675  1.00  0.00     0.000 C 
BRANCH   8   9
ATOM      9  C   UNL     1      -0.108   0.735  27.230  1.00  0.00     0.000 C 
BRANCH   9  10
ATOM     10  C   UNL     1      -1.012   1.981  27.318  1.00  0.00     0.000 C 
BRANCH  10  11
ATOM     11  C   UNL     1      -1.387   2.410  28.746  1.00  0.00     0.000 C 
BRANCH  11  12
ATOM     12  C   UNL     1      -1.766   1.215  29.639  1.00  0.00     0.000 C 
BRANCH  12  13
ATOM     13  C   UNL     1      -3.285   1.025  29.762  1.00  0.00     0.006 C 
BRANCH  13  14
ATOM     14  C   UNL     1      -3.824  -0.061  28.818  1.00  0.00     0.053 C 
BRANCH  14  15
ATOM     15  C   UNL     1      -5.280  -0.308  29.069  1.00  0.00     0.041 C 
ATOM     16  O   UNL     1      -5.733  -1.485  29.077  1.00  0.00    -0.550 OA
ATOM     17  O   UNL     1      -6.141   0.761  29.274  1.00  0.00    -0.550 OA
ENDBRANCH  14  15
ENDBRANCH  13  14
ENDBRANCH  12  13
ENDBRANCH  11  12
ENDBRANCH  10  11
ENDBRANCH   9  10
ENDBRANCH   8   9
ENDBRANCH   7   8
ENDBRANCH   6   7
ENDBRANCH   5   6
ENDBRANCH   4   5
ENDBRANCH   3   4
ENDBRANCH   2   3
ENDBRANCH   1   2
BRANCH   1  18
ATOM     18  C   UNL     1      -5.749  -6.755  28.381  1.00  0.00     0.000 C 
BRANCH  18  19
ATOM     19  C   UNL     1      -6.090  -7.902  29.350  1.00  0.00     0.000 C 
BRANCH  19  20
ATOM     20  C   UNL     1      -5.911  -9.293  28.715  1.00  0.00     0.000 C 
BRANCH  20  21
ATOM     21  C   UNL     1      -4.913 -10.172  29.490  1.00  0.00     0.000 C 
BRANCH  21  22
ATOM     22  C   UNL     1      -4.290 -11.262  28.604  1.00  0.00     0.000 C 
BRANCH  22  23
ATOM     23  C   UNL     1      -4.504 -10.956  27.113  1.00  0.00     0.000 C 
BRANCH  23  24
ATOM     24  C   UNL     1      -4.832 -12.216  26.296  1.00  0.00    -0.000 C 
BRANCH  24  25
ATOM     25  C   UNL     1      -3.589 -12.839  25.635  1.00  0.00    -0.000 C 
BRANCH  25  26
ATOM     26  C   UNL     1      -3.250 -12.172  24.285  1.00  0.00    -0.000 C 
BRANCH  26  27
ATOM     27  C   UNL     1      -2.642 -13.135  23.246  1.00  0.00    -0.000 C 
BRANCH  27  28
ATOM     28  C   UNL     1      -1.231 -12.761  22.763  1.00  0.00    -0.000 C 
BRANCH  28  29
ATOM     29  C   UNL     1      -0.493 -11.838  23.749  1.00  0.00    -0.000 C 
BRANCH  29  30
ATOM     30  C   UNL     1       0.510 -12.602  24.628  1.00  0.00    -0.000 C 
BRANCH  30  31
ATOM     31  C   UNL     1       0.024 -12.750  26.076  1.00  0.00    -0.003 C 
ATOM     32  C   UNL     1      -0.086 -11.390  26.759  1.00  0.00     0.004 C 
ENDBRANCH  30  31
ENDBRANCH  29  30
ENDBRANCH  28  29
ENDBRANCH  27  28
ENDBRANCH  26  27
ENDBRANCH  25  26
ENDBRANCH  24  25
ENDBRANCH  23  24
ENDBRANCH  22  23
ENDBRANCH  21  22
ENDBRANCH  20  21
ENDBRANCH  19  20
ENDBRANCH  18  19
ENDBRANCH   1  18
TORSDOF 28
ENDMDL
MODEL 2
REMARK VINA RESULT:    -4.749      4.460     11.235
REMARK INTER + INTRA:         -15.204
REMARK INTER:                 -12.844
REMARK INTRA:                  -2.360
REMARK UNBOUND:                -2.680
REMARK SMILES CCCCCCCCCCCCCCCCCCCCCCCCCCCCCC(=O)[O-]
REMARK SMILES IDX 16 1 17 2 18 3 19 4 20 5 21 6 22 7 23 8 24 9 25 10 26 11
REMARK SMILES IDX 27 12 28 13 29 14 30 15 31 16 32 17 15 18 14 19 13 20 12 21
REMARK SMILES IDX 11 22 10 23 9 24 8 25 7 26 6 27 5 28 4 29 3 30 2 31 1 32
REMARK H PARENT
REMARK Flexibility Score: inf
ROOT
ATOM      1  C   UNL     1      -4.280 -11.362  27.533  1.00  0.00     0.000 C 
ENDROOT
BRANCH   1   2
ATOM      2  C   UNL     1      -4.671 -12.190  26.296  1.00  0.00     0.000 C 
BRANCH   2   3
ATOM      3  C   UNL     1      -4.162 -11.572  24.983  1.00  0.00     0.000 C 
BRANCH   3   4
ATOM      4  C   UNL     1      -3.079 -12.388  24.251  1.00  0.00     0.000 C 
BRANCH   4   5
ATOM      5  C   UNL     1      -2.577 -13.613  25.042  1.00  0.00     0.000 C 
BRANCH   5   6
ATOM      6  C   UNL     1      -1.149 -13.419  25.585  1.00  0.00     0.000 C 
BRANCH   6   7
ATOM      7  C   UNL     1      -1.134 -13.045  27.077  1.00  0.00     0.000 C 
BRANCH   7   8
ATOM      8  C   UNL     1      -0.442 -11.693  27.340  1.00  0.00     0.000 C 
BRANCH   8   9
ATOM      9  C   UNL     1       1.054 -11.854  27.683  1.00  0.00     0.000 C 
BRANCH   9  10
ATOM     10  C   UNL     1       2.005 -11.265  26.622  1.00  0.00     0.000 C 
BRANCH  10  11
ATOM     11  C   UNL     1       1.312 -10.490  25.489  1.00  0.00     0.000 C 
BRANCH  11  12
ATOM     12  C   UNL     1       1.850 -10.872  24.099  1.00  0.00     0.000 C 
BRANCH  12  13
ATOM     13  C   UNL     1       0.912 -11.822  23.340  1.00  0.00     0.006 C 
BRANCH  13  14
ATOM     14  C   UNL     1       0.618 -11.347  21.909  1.00  0.00     0.053 C 
BRANCH  14  15
ATOM     15  C   UNL     1       0.756 -12.475  20.935  1.00  0.00     0.041 C 
ATOM     16  O   UNL     1       1.582 -12.397  19.985  1.00  0.00    -0.550 OA
ATOM     17  O   UNL     1      -0.039 -13.606  21.063  1.00  0.00    -0.550 OA
ENDBRANCH  14  15
ENDBRANCH  13  14
ENDBRANCH  12  13
ENDBRANCH  11  12
ENDBRANCH  10  11
ENDBRANCH   9  10
ENDBRANCH   8   9
ENDBRANCH   7   8
ENDBRANCH   6   7
ENDBRANCH   5   6
ENDBRANCH   4   5
ENDBRANCH   3   4
ENDBRANCH   2   3
ENDBRANCH   1   2
BRANCH   1  18
ATOM     18  C   UNL     1      -5.271 -10.221  27.823  1.00  0.00     0.000 C 
BRANCH  18  19
ATOM     19  C   UNL     1      -5.321  -9.760  29.292  1.00  0.00     0.000 C 
BRANCH  19  20
ATOM     20  C   UNL     1      -6.339  -8.630  29.528  1.00  0.00     0.000 C 
BRANCH  20  21
ATOM     21  C   UNL     1      -5.687  -7.236  29.512  1.00  0.00     0.000 C 
BRANCH  21  22
ATOM     22  C   UNL     1      -5.973  -6.477  28.206  1.00  0.00     0.000 C 
BRANCH  22  23
ATOM     23  C   UNL     1      -5.361  -5.068  28.236  1.00  0.00     0.000 C 
BRANCH  23  24
ATOM     24  C   UNL     1      -5.623  -4.342  29.565  1.00  0.00    -0.000 C 
BRANCH  24  25
ATOM     25  C   UNL     1      -5.020  -2.926  29.601  1.00  0.00    -0.000 C 
BRANCH  25  26
ATOM     26  C   UNL     1      -4.967  -2.278  28.200  1.00  0.00    -0.000 C 
BRANCH  26  27
ATOM     27  C   UNL     1      -4.237  -0.921  28.164  1.00  0.00    -0.000 C 
BRANCH  27  28
ATOM     28  C   UNL     1      -2.712  -1.000  28.334  1.00  0.00    -0.000 C 
BRANCH  28  29
ATOM     29  C   UNL     1      -1.951  -0.445  27.116  1.00  0.00    -0.000 C 
BRANCH  29  30
ATOM     30  C   UNL     1      -0.459  -0.811  27.141  1.00  0.00    -0.000 C 
BRANCH  30  31
ATOM     31  C   UNL     1       0.193  -0.511  28.498  1.00  0.00    -0.003 C 
ATOM     32  C   UNL     1       0.965  -1.721  29.016  1.00  0.00     0.004 C 
ENDBRANCH  30  31
ENDBRANCH  29  30
ENDBRANCH  28  29
ENDBRANCH  27  28
ENDBRANCH  26  27
ENDBRANCH  25  26
ENDBRANCH  24  25
ENDBRANCH  23  24
ENDBRANCH  22  23
ENDBRANCH  21  22
ENDBRANCH  20  21
ENDBRANCH  19  20
ENDBRANCH  18  19
ENDBRANCH   1  18
TORSDOF 28
ENDMDL
MODEL 3
REMARK VINA RESULT:    -4.714      3.990     12.189
REMARK INTER + INTRA:         -15.111
REMARK INTER:                 -12.464
REMARK INTRA:                  -2.647
REMARK UNBOUND:                -2.680
REMARK SMILES CCCCCCCCCCCCCCCCCCCCCCCCCCCCCC(=O)[O-]
REMARK SMILES IDX 16 1 17 2 18 3 19 4 20 5 21 6 22 7 23 8 24 9 25 10 26 11
REMARK SMILES IDX 27 12 28 13 29 14 30 15 31 16 32 17 15 18 14 19 13 20 12 21
REMARK SMILES IDX 11 22 10 23 9 24 8 25 7 26 6 27 5 28 4 29 3 30 2 31 1 32
REMARK H PARENT
REMARK Flexibility Score: inf
ROOT
ATOM      1  C   UNL     1      -5.869  -3.906  28.161  1.00  0.00     0.000 C 
ENDROOT
BRANCH   1   2
ATOM      2  C   UNL     1      -5.413  -5.357  27.925  1.00  0.00     0.000 C 
BRANCH   2   3
ATOM      3  C   UNL     1      -5.727  -6.278  29.115  1.00  0.00     0.000 C 
BRANCH   3   4
ATOM      4  C   UNL     1      -6.120  -7.720  28.741  1.00  0.00     0.000 C 
BRANCH   4   5
ATOM      5  C   UNL     1      -6.131  -8.696  29.936  1.00  0.00     0.000 C 
BRANCH   5   6
ATOM      6  C   UNL     1      -5.345  -9.988  29.648  1.00  0.00     0.000 C 
BRANCH   6   7
ATOM      7  C   UNL     1      -5.148 -10.233  28.142  1.00  0.00     0.000 C 
BRANCH   7   8
ATOM      8  C   UNL     1      -4.283 -11.476  27.854  1.00  0.00     0.000 C 
BRANCH   8   9
ATOM      9  C   UNL     1      -4.483 -12.014  26.422  1.00  0.00     0.000 C 
BRANCH   9  10
ATOM     10  C   UNL     1      -3.173 -12.423  25.719  1.00  0.00     0.000 C 
BRANCH  10  11
ATOM     11  C   UNL     1      -3.129 -12.131  24.210  1.00  0.00     0.000 C 
BRANCH  11  12
ATOM     12  C   UNL     1      -3.185 -13.413  23.360  1.00  0.00     0.000 C 
BRANCH  12  13
ATOM     13  C   UNL     1      -1.794 -13.994  23.069  1.00  0.00     0.006 C 
BRANCH  13  14
ATOM     14  C   UNL     1      -1.050 -13.225  21.967  1.00  0.00     0.053 C 
BRANCH  14  15
ATOM     15  C   UNL     1       0.078 -12.428  22.544  1.00  0.00     0.041 C 
ATOM     16  O   UNL     1       0.505 -11.404  21.944  1.00  0.00    -0.550 OA
ATOM     17  O   UNL     1       0.672 -12.824  23.734  1.00  0.00    -0.550 OA
ENDBRANCH  14  15
ENDBRANCH  13  14
ENDBRANCH  12  13
ENDBRANCH  11  12
ENDBRANCH  10  11
ENDBRANCH   9  10
ENDBRANCH   8   9
ENDBRANCH   7   8
ENDBRANCH   6   7
ENDBRANCH   5   6
ENDBRANCH   4   5
ENDBRANCH   3   4
ENDBRANCH   2   3
ENDBRANCH   1   2
BRANCH   1  18
ATOM     18  C   UNL     1      -5.607  -3.426  29.599  1.00  0.00     0.000 C 
BRANCH  18  19
ATOM     19  C   UNL     1      -4.315  -2.608  29.787  1.00  0.00     0.000 C 
BRANCH  19  20
ATOM     20  C   UNL     1      -4.042  -1.646  28.617  1.00  0.00     0.000 C 
BRANCH  20  21
ATOM     21  C   UNL     1      -2.574  -1.189  28.559  1.00  0.00     0.000 C 
BRANCH  21  22
ATOM     22  C   UNL     1      -2.281  -0.332  27.317  1.00  0.00     0.000 C 
BRANCH  22  23
ATOM     23  C   UNL     1      -0.946  -0.729  26.670  1.00  0.00     0.000 C 
BRANCH  23  24
ATOM     24  C   UNL     1      -0.219  -1.834  27.452  1.00  0.00    -0.000 C 
BRANCH  24  25
ATOM     25  C   UNL     1       1.306  -1.631  27.496  1.00  0.00    -0.000 C 
BRANCH  25  26
ATOM     26  C   UNL     1       1.827  -1.427  28.935  1.00  0.00    -0.000 C 
BRANCH  26  27
ATOM     27  C   UNL     1       0.960  -0.480  29.788  1.00  0.00    -0.000 C 
BRANCH  27  28
ATOM     28  C   UNL     1       1.085   1.010  29.435  1.00  0.00    -0.000 C 
BRANCH  28  29
ATOM     29  C   UNL     1      -0.219   1.789  29.683  1.00  0.00    -0.000 C 
BRANCH  29  30
ATOM     30  C   UNL     1      -0.604   2.680  28.491  1.00  0.00    -0.000 C 
BRANCH  30  31
ATOM     31  C   UNL     1       0.502   2.747  27.429  1.00  0.00    -0.003 C 
ATOM     32  C   UNL     1      -0.077   3.052  26.051  1.00  0.00     0.004 C 
ENDBRANCH  30  31
ENDBRANCH  29  30
ENDBRANCH  28  29
ENDBRANCH  27  28
ENDBRANCH  26  27
ENDBRANCH  25  26
ENDBRANCH  24  25
ENDBRANCH  23  24
ENDBRANCH  22  23
ENDBRANCH  21  22
ENDBRANCH  20  21
ENDBRANCH  19  20
ENDBRANCH  18  19
ENDBRANCH   1  18
TORSDOF 28
ENDMDL
MODEL 4
REMARK VINA RESULT:    -4.684      3.461     11.524
REMARK INTER + INTRA:         -15.032
REMARK INTER:                 -12.644
REMARK INTRA:                  -2.388
REMARK UNBOUND:                -2.680
REMARK SMILES CCCCCCCCCCCCCCCCCCCCCCCCCCCCCC(=O)[O-]
REMARK SMILES IDX 16 1 17 2 18 3 19 4 20 5 21 6 22 7 23 8 24 9 25 10 26 11
REMARK SMILES IDX 27 12 28 13 29 14 30 15 31 16 32 17 15 18 14 19 13 20 12 21
REMARK SMILES IDX 11 22 10 23 9 24 8 25 7 26 6 27 5 28 4 29 3 30 2 31 1 32
REMARK H PARENT
REMARK Flexibility Score: inf
ROOT
ATOM      1  C   UNL     1      -5.814  -7.240  29.708  1.00  0.00     0.000 C 
ENDROOT
BRANCH   1   2
ATOM      2  C   UNL     1      -6.191  -8.730  29.802  1.00  0.00     0.000 C 
BRANCH   2   3
ATOM      3  C   UNL     1      -5.654  -9.553  28.619  1.00  0.00     0.000 C 
BRANCH   3   4
ATOM      4  C   UNL     1      -4.736 -10.729  29.003  1.00  0.00     0.000 C 
BRANCH   4   5
ATOM      5  C   UNL     1      -3.967 -11.338  27.813  1.00  0.00     0.000 C 
BRANCH   5   6
ATOM      6  C   UNL     1      -2.501 -11.659  28.161  1.00  0.00     0.000 C 
BRANCH   6   7
ATOM      7  C   UNL     1      -1.775 -12.394  27.022  1.00  0.00     0.000 C 
BRANCH   7   8
ATOM      8  C   UNL     1      -0.415 -12.971  27.465  1.00  0.00     0.000 C 
BRANCH   8   9
ATOM      9  C   UNL     1       0.757 -12.012  27.165  1.00  0.00     0.000 C 
BRANCH   9  10
ATOM     10  C   UNL     1       0.532 -11.118  25.928  1.00  0.00     0.000 C 
BRANCH  10  11
ATOM     11  C   UNL     1       0.952 -11.747  24.590  1.00  0.00     0.000 C 
BRANCH  11  12
ATOM     12  C   UNL     1       0.024 -11.342  23.431  1.00  0.00     0.000 C 
BRANCH  12  13
ATOM     13  C   UNL     1      -0.533 -12.550  22.665  1.00  0.00     0.006 C 
BRANCH  13  14
ATOM     14  C   UNL     1      -1.547 -13.358  23.490  1.00  0.00     0.053 C 
BRANCH  14  15
ATOM     15  C   UNL     1      -2.948 -12.940  23.167  1.00  0.00     0.041 C 
ATOM     16  O   UNL     1      -3.527 -13.394  22.143  1.00  0.00    -0.550 OA
ATOM     17  O   UNL     1      -3.609 -12.034  23.984  1.00  0.00    -0.550 OA
ENDBRANCH  14  15
ENDBRANCH  13  14
ENDBRANCH  12  13
ENDBRANCH  11  12
ENDBRANCH  10  11
ENDBRANCH   9  10
ENDBRANCH   8   9
ENDBRANCH   7   8
ENDBRANCH   6   7
ENDBRANCH   5   6
ENDBRANCH   4   5
ENDBRANCH   3   4
ENDBRANCH   2   3
ENDBRANCH   1   2
BRANCH   1  18
ATOM     18  C   UNL     1      -5.852  -6.706  28.266  1.00  0.00     0.000 C 
BRANCH  18  19
ATOM     19  C   UNL     1      -5.570  -5.198  28.123  1.00  0.00     0.000 C 
BRANCH  19  20
ATOM     20  C   UNL     1      -5.567  -4.460  29.473  1.00  0.00     0.000 C 
BRANCH  20  21
ATOM     21  C   UNL     1      -5.577  -2.930  29.310  1.00  0.00     0.000 C 
BRANCH  21  22
ATOM     22  C   UNL     1      -4.301  -2.411  28.629  1.00  0.00     0.000 C 
BRANCH  22  23
ATOM     23  C   UNL     1      -4.494  -0.980  28.103  1.00  0.00     0.000 C 
BRANCH  23  24
ATOM     24  C   UNL     1      -5.414  -0.142  29.005  1.00  0.00    -0.000 C 
BRANCH  24  25
ATOM     25  C   UNL     1      -4.687   1.046  29.660  1.00  0.00    -0.000 C 
BRANCH  25  26
ATOM     26  C   UNL     1      -3.159   0.833  29.722  1.00  0.00    -0.000 C 
BRANCH  26  27
ATOM     27  C   UNL     1      -2.337   2.056  29.273  1.00  0.00    -0.000 C 
BRANCH  27  28
ATOM     28  C   UNL     1      -1.121   1.732  28.390  1.00  0.00    -0.000 C 
BRANCH  28  29
ATOM     29  C   UNL     1      -1.356   0.508  27.487  1.00  0.00    -0.000 C 
BRANCH  29  30
ATOM     30  C   UNL     1      -0.087  -0.341  27.311  1.00  0.00    -0.000 C 
BRANCH  30  31
ATOM     31  C   UNL     1      -0.351  -1.838  27.526  1.00  0.00    -0.003 C 
ATOM     32  C   UNL     1       0.231  -2.313  28.854  1.00  0.00     0.004 C 
ENDBRANCH  30  31
ENDBRANCH  29  30
ENDBRANCH  28  29
ENDBRANCH  27  28
ENDBRANCH  26  27
ENDBRANCH  25  26
ENDBRANCH  24  25
ENDBRANCH  23  24
ENDBRANCH  22  23
ENDBRANCH  21  22
ENDBRANCH  20  21
ENDBRANCH  19  20
ENDBRANCH  18  19
ENDBRANCH   1  18
TORSDOF 28
ENDMDL
MODEL 5
REMARK VINA RESULT:    -4.669      2.391      3.910
REMARK INTER + INTRA:         -14.992
REMARK INTER:                 -12.181
REMARK INTRA:                  -2.811
REMARK UNBOUND:                -2.680
REMARK SMILES CCCCCCCCCCCCCCCCCCCCCCCCCCCCCC(=O)[O-]
REMARK SMILES IDX 16 1 17 2 18 3 19 4 20 5 21 6 22 7 23 8 24 9 25 10 26 11
REMARK SMILES IDX 27 12 28 13 29 14 30 15 31 16 32 17 15 18 14 19 13 20 12 21
REMARK SMILES IDX 11 22 10 23 9 24 8 25 7 26 6 27 5 28 4 29 3 30 2 31 1 32
REMARK H PARENT
REMARK Flexibility Score: inf
ROOT
ATOM      1  C   UNL     1      -6.056  -6.660  28.257  1.00  0.00     0.000 C 
ENDROOT
BRANCH   1   2
ATOM      2  C   UNL     1      -5.254  -5.362  28.047  1.00  0.00     0.000 C 
BRANCH   2   3
ATOM      3  C   UNL     1      -6.132  -4.103  28.133  1.00  0.00     0.000 C 
BRANCH   3   4
ATOM      4  C   UNL     1      -5.621  -3.012  29.095  1.00  0.00     0.000 C 
BRANCH   4   5
ATOM      5  C   UNL     1      -5.024  -1.780  28.384  1.00  0.00     0.000 C 
BRANCH   5   6
ATOM      6  C   UNL     1      -3.497  -1.682  28.559  1.00  0.00     0.000 C 
BRANCH   6   7
ATOM      7  C   UNL     1      -2.908  -2.908  29.276  1.00  0.00     0.000 C 
BRANCH   7   8
ATOM      8  C   UNL     1      -1.763  -3.564  28.479  1.00  0.00     0.000 C 
BRANCH   8   9
ATOM      9  C   UNL     1      -0.374  -3.243  29.072  1.00  0.00     0.000 C 
BRANCH   9  10
ATOM     10  C   UNL     1       0.252  -1.942  28.531  1.00  0.00     0.000 C 
BRANCH  10  11
ATOM     11  C   UNL     1      -0.042  -1.649  27.051  1.00  0.00     0.000 C 
BRANCH  11  12
ATOM     12  C   UNL     1      -0.778  -0.312  26.850  1.00  0.00     0.000 C 
BRANCH  12  13
ATOM     13  C   UNL     1       0.031   0.893  27.351  1.00  0.00     0.006 C 
BRANCH  13  14
ATOM     14  C   UNL     1      -0.680   2.231  27.098  1.00  0.00     0.053 C 
BRANCH  14  15
ATOM     15  C   UNL     1       0.262   3.228  26.497  1.00  0.00     0.041 C 
ATOM     16  O   UNL     1       1.110   2.863  25.638  1.00  0.00    -0.550 OA
ATOM     17  O   UNL     1       0.217   4.555  26.898  1.00  0.00    -0.550 OA
ENDBRANCH  14  15
ENDBRANCH  13  14
ENDBRANCH  12  13
ENDBRANCH  11  12
ENDBRANCH  10  11
ENDBRANCH   9  10
ENDBRANCH   8   9
ENDBRANCH   7   8
ENDBRANCH   6   7
ENDBRANCH   5   6
ENDBRANCH   4   5
ENDBRANCH   3   4
ENDBRANCH   2   3
ENDBRANCH   1   2
BRANCH   1  18
ATOM     18  C   UNL     1      -5.743  -7.341  29.601  1.00  0.00     0.000 C 
BRANCH  18  19
ATOM     19  C   UNL     1      -6.337  -8.753  29.768  1.00  0.00     0.000 C 
BRANCH  19  20
ATOM     20  C   UNL     1      -5.335  -9.867  29.417  1.00  0.00     0.000 C 
BRANCH  20  21
ATOM     21  C   UNL     1      -5.306 -10.181  27.910  1.00  0.00     0.000 C 
BRANCH  21  22
ATOM     22  C   UNL     1      -4.198 -11.183  27.548  1.00  0.00     0.000 C 
BRANCH  22  23
ATOM     23  C   UNL     1      -4.447 -11.811  26.168  1.00  0.00     0.000 C 
BRANCH  23  24
ATOM     24  C   UNL     1      -4.547 -13.344  26.228  1.00  0.00    -0.000 C 
BRANCH  24  25
ATOM     25  C   UNL     1      -3.666 -13.956  27.332  1.00  0.00    -0.000 C 
BRANCH  25  26
ATOM     26  C   UNL     1      -2.228 -14.236  26.844  1.00  0.00    -0.000 C 
BRANCH  26  27
ATOM     27  C   UNL     1      -1.177 -13.250  27.390  1.00  0.00    -0.000 C 
BRANCH  27  28
ATOM     28  C   UNL     1      -0.771 -12.131  26.418  1.00  0.00    -0.000 C 
BRANCH  28  29
ATOM     29  C   UNL     1      -0.403 -12.664  25.021  1.00  0.00    -0.000 C 
BRANCH  29  30
ATOM     30  C   UNL     1      -1.300 -12.082  23.917  1.00  0.00    -0.000 C 
BRANCH  30  31
ATOM     31  C   UNL     1      -1.750 -13.147  22.908  1.00  0.00    -0.003 C 
ATOM     32  C   UNL     1      -3.270 -13.176  22.781  1.00  0.00     0.004 C 
ENDBRANCH  30  31
ENDBRANCH  29  30
ENDBRANCH  28  29
ENDBRANCH  27  28
ENDBRANCH  26  27
ENDBRANCH  25  26
ENDBRANCH  24  25
ENDBRANCH  23  24
ENDBRANCH  22  23
ENDBRANCH  21  22
ENDBRANCH  20  21
ENDBRANCH  19  20
ENDBRANCH  18  19
ENDBRANCH   1  18
TORSDOF 28
ENDMDL
MODEL 6
REMARK VINA RESULT:    -4.659      3.904     11.456
REMARK INTER + INTRA:         -14.966
REMARK INTER:                 -12.051
REMARK INTRA:                  -2.915
REMARK UNBOUND:                -2.680
REMARK SMILES CCCCCCCCCCCCCCCCCCCCCCCCCCCCCC(=O)[O-]
REMARK SMILES IDX 16 1 17 2 18 3 19 4 20 5 21 6 22 7 23 8 24 9 25 10 26 11
REMARK SMILES IDX 27 12 28 13 29 14 30 15 31 16 32 17 15 18 14 19 13 20 12 21
REMARK SMILES IDX 11 22 10 23 9 24 8 25 7 26 6 27 5 28 4 29 3 30 2 31 1 32
REMARK H PARENT
REMARK Flexibility Score: inf
ROOT
ATOM      1  C   UNL     1      -5.791  -6.869  28.242  1.00  0.00     0.000 C 
ENDROOT
BRANCH   1   2
ATOM      2  C   UNL     1      -6.176  -7.569  29.558  1.00  0.00     0.000 C 
BRANCH   2   3
ATOM      3  C   UNL     1      -5.922  -9.085  29.520  1.00  0.00     0.000 C 
BRANCH   3   4
ATOM      4  C   UNL     1      -5.472  -9.639  28.154  1.00  0.00     0.000 C 
BRANCH   4   5
ATOM      5  C   UNL     1      -4.683 -10.961  28.245  1.00  0.00     0.000 C 
BRANCH   5   6
ATOM      6  C   UNL     1      -4.260 -11.298  29.687  1.00  0.00     0.000 C 
BRANCH   6   7
ATOM      7  C   UNL     1      -3.043 -12.237  29.738  1.00  0.00     0.000 C 
BRANCH   7   8
ATOM      8  C   UNL     1      -1.705 -11.471  29.708  1.00  0.00     0.000 C 
BRANCH   8   9
ATOM      9  C   UNL     1      -0.532 -12.353  29.230  1.00  0.00     0.000 C 
BRANCH   9  10
ATOM     10  C   UNL     1      -0.067 -12.049  27.791  1.00  0.00     0.000 C 
BRANCH  10  11
ATOM     11  C   UNL     1      -0.818 -12.817  26.692  1.00  0.00     0.000 C 
BRANCH  11  12
ATOM     12  C   UNL     1      -1.958 -11.991  26.070  1.00  0.00     0.000 C 
BRANCH  12  13
ATOM     13  C   UNL     1      -3.044 -12.866  25.429  1.00  0.00     0.006 C 
BRANCH  13  14
ATOM     14  C   UNL     1      -3.505 -12.334  24.064  1.00  0.00     0.053 C 
BRANCH  14  15
ATOM     15  C   UNL     1      -2.832 -13.075  22.950  1.00  0.00     0.041 C 
ATOM     16  O   UNL     1      -3.501 -13.836  22.197  1.00  0.00    -0.550 OA
ATOM     17  O   UNL     1      -1.465 -12.943  22.752  1.00  0.00    -0.550 OA
ENDBRANCH  14  15
ENDBRANCH  13  14
ENDBRANCH  12  13
ENDBRANCH  11  12
ENDBRANCH  10  11
ENDBRANCH   9  10
ENDBRANCH   8   9
ENDBRANCH   7   8
ENDBRANCH   6   7
ENDBRANCH   5   6
ENDBRANCH   4   5
ENDBRANCH   3   4
ENDBRANCH   2   3
ENDBRANCH   1   2
BRANCH   1  18
ATOM     18  C   UNL     1      -5.797  -5.334  28.360  1.00  0.00     0.000 C 
BRANCH  18  19
ATOM     19  C   UNL     1      -4.423  -4.698  28.647  1.00  0.00     0.000 C 
BRANCH  19  20
ATOM     20  C   UNL     1      -4.533  -3.299  29.277  1.00  0.00     0.000 C 
BRANCH  20  21
ATOM     21  C   UNL     1      -5.370  -2.330  28.423  1.00  0.00     0.000 C 
BRANCH  21  22
ATOM     22  C   UNL     1      -4.705  -0.951  28.290  1.00  0.00     0.000 C 
BRANCH  22  23
ATOM     23  C   UNL     1      -5.481   0.118  29.074  1.00  0.00     0.000 C 
BRANCH  23  24
ATOM     24  C   UNL     1      -4.554   1.148  29.739  1.00  0.00    -0.000 C 
BRANCH  24  25
ATOM     25  C   UNL     1      -3.094   0.670  29.823  1.00  0.00    -0.000 C 
BRANCH  25  26
ATOM     26  C   UNL     1      -2.135   1.578  29.023  1.00  0.00    -0.000 C 
BRANCH  26  27
ATOM     27  C   UNL     1      -0.889   0.851  28.482  1.00  0.00    -0.000 C 
BRANCH  27  28
ATOM     28  C   UNL     1      -1.061   0.214  27.093  1.00  0.00    -0.000 C 
BRANCH  28  29
ATOM     29  C   UNL     1      -0.695  -1.281  27.079  1.00  0.00    -0.000 C 
BRANCH  29  30
ATOM     30  C   UNL     1      -1.149  -2.007  28.355  1.00  0.00    -0.000 C 
BRANCH  30  31
ATOM     31  C   UNL     1      -0.086  -2.980  28.883  1.00  0.00    -0.003 C 
ATOM     32  C   UNL     1       1.252  -2.274  29.084  1.00  0.00     0.004 C 
ENDBRANCH  30  31
ENDBRANCH  29  30
ENDBRANCH  28  29
ENDBRANCH  27  28
ENDBRANCH  26  27
ENDBRANCH  25  26
ENDBRANCH  24  25
ENDBRANCH  23  24
ENDBRANCH  22  23
ENDBRANCH  21  22
ENDBRANCH  20  21
ENDBRANCH  19  20
ENDBRANCH  18  19
ENDBRANCH   1  18
TORSDOF 28
ENDMDL
MODEL 7
REMARK VINA RESULT:    -4.659      2.558      3.690
REMARK INTER + INTRA:         -14.966
REMARK INTER:                 -12.242
REMARK INTRA:                  -2.724
REMARK UNBOUND:                -2.680
REMARK SMILES CCCCCCCCCCCCCCCCCCCCCCCCCCCCCC(=O)[O-]
REMARK SMILES IDX 16 1 17 2 18 3 19 4 20 5 21 6 22 7 23 8 24 9 25 10 26 11
REMARK SMILES IDX 27 12 28 13 29 14 30 15 31 16 32 17 15 18 14 19 13 20 12 21
REMARK SMILES IDX 11 22 10 23 9 24 8 25 7 26 6 27 5 28 4 29 3 30 2 31 1 32
REMARK H PARENT
REMARK Flexibility Score: inf
ROOT
ATOM      1  C   UNL     1      -5.429  -5.735  29.318  1.00  0.00     0.000 C 
ENDROOT
BRANCH   1   2
ATOM      2  C   UNL     1      -4.913  -4.667  28.337  1.00  0.00     0.000 C 
BRANCH   2   3
ATOM      3  C   UNL     1      -5.860  -3.461  28.221  1.00  0.00     0.000 C 
BRANCH   3   4
ATOM      4  C   UNL     1      -5.413  -2.201  28.988  1.00  0.00     0.000 C 
BRANCH   4   5
ATOM      5  C   UNL     1      -4.597  -1.207  28.137  1.00  0.00     0.000 C 
BRANCH   5   6
ATOM      6  C   UNL     1      -3.923  -0.117  28.991  1.00  0.00     0.000 C 
BRANCH   6   7
ATOM      7  C   UNL     1      -2.388  -0.168  28.905  1.00  0.00     0.000 C 
BRANCH   7   8
ATOM      8  C   UNL     1      -1.890  -1.173  27.847  1.00  0.00     0.000 C 
BRANCH   8   9
ATOM      9  C   UNL     1      -0.609  -1.911  28.292  1.00  0.00     0.000 C 
BRANCH   9  10
ATOM     10  C   UNL     1       0.540  -0.971  28.710  1.00  0.00     0.000 C 
BRANCH  10  11
ATOM     11  C   UNL     1       1.112  -0.104  27.577  1.00  0.00     0.000 C 
BRANCH  11  12
ATOM     12  C   UNL     1       1.519   1.300  28.058  1.00  0.00     0.000 C 
BRANCH  12  13
ATOM     13  C   UNL     1       0.334   2.274  28.122  1.00  0.00     0.006 C 
BRANCH  13  14
ATOM     14  C   UNL     1      -0.335   2.484  26.755  1.00  0.00     0.053 C 
BRANCH  14  15
ATOM     15  C   UNL     1       0.242   3.677  26.059  1.00  0.00     0.041 C 
ATOM     16  O   UNL     1       0.645   3.585  24.867  1.00  0.00    -0.550 OA
ATOM     17  O   UNL     1       0.353   4.887  26.729  1.00  0.00    -0.550 OA
ENDBRANCH  14  15
ENDBRANCH  13  14
ENDBRANCH  12  13
ENDBRANCH  11  12
ENDBRANCH  10  11
ENDBRANCH   9  10
ENDBRANCH   8   9
ENDBRANCH   7   8
ENDBRANCH   6   7
ENDBRANCH   5   6
ENDBRANCH   4   5
ENDBRANCH   3   4
ENDBRANCH   2   3
ENDBRANCH   1   2
BRANCH   1  18
ATOM     18  C   UNL     1      -6.072  -6.937  28.604  1.00  0.00     0.000 C 
BRANCH  18  19
ATOM     19  C   UNL     1      -6.101  -8.242  29.423  1.00  0.00     0.000 C 
BRANCH  19  20
ATOM     20  C   UNL     1      -5.683  -9.473  28.601  1.00  0.00     0.000 C 
BRANCH  20  21
ATOM     21  C   UNL     1      -4.804 -10.449  29.404  1.00  0.00     0.000 C 
BRANCH  21  22
ATOM     22  C   UNL     1      -4.018 -11.406  28.493  1.00  0.00     0.000 C 
BRANCH  22  23
ATOM     23  C   UNL     1      -4.273 -11.096  27.010  1.00  0.00     0.000 C 
BRANCH  23  24
ATOM     24  C   UNL     1      -4.952 -12.262  26.274  1.00  0.00    -0.000 C 
BRANCH  24  25
ATOM     25  C   UNL     1      -4.027 -13.481  26.106  1.00  0.00    -0.000 C 
BRANCH  25  26
ATOM     26  C   UNL     1      -2.913 -13.230  25.067  1.00  0.00    -0.000 C 
BRANCH  26  27
ATOM     27  C   UNL     1      -1.486 -13.371  25.632  1.00  0.00    -0.000 C 
BRANCH  27  28
ATOM     28  C   UNL     1      -1.410 -13.659  27.140  1.00  0.00    -0.000 C 
BRANCH  28  29
ATOM     29  C   UNL     1      -0.443 -12.714  27.875  1.00  0.00    -0.000 C 
BRANCH  29  30
ATOM     30  C   UNL     1      -0.321 -11.347  27.183  1.00  0.00    -0.000 C 
BRANCH  30  31
ATOM     31  C   UNL     1       1.096 -11.084  26.654  1.00  0.00    -0.003 C 
ATOM     32  C   UNL     1       1.059 -10.570  25.218  1.00  0.00     0.004 C 
ENDBRANCH  30  31
ENDBRANCH  29  30
ENDBRANCH  28  29
ENDBRANCH  27  28
ENDBRANCH  26  27
ENDBRANCH  25  26
ENDBRANCH  24  25
ENDBRANCH  23  24
ENDBRANCH  22  23
ENDBRANCH  21  22
ENDBRANCH  20  21
ENDBRANCH  19  20
ENDBRANCH  18  19
ENDBRANCH   1  18
TORSDOF 28
ENDMDL
MODEL 8
REMARK VINA RESULT:    -4.630      4.114     11.877
REMARK INTER + INTRA:         -14.889
REMARK INTER:                 -12.379
REMARK INTRA:                  -2.510
REMARK UNBOUND:                -2.680
REMARK SMILES CCCCCCCCCCCCCCCCCCCCCCCCCCCCCC(=O)[O-]
REMARK SMILES IDX 16 1 17 2 18 3 19 4 20 5 21 6 22 7 23 8 24 9 25 10 26 11
REMARK SMILES IDX 27 12 28 13 29 14 30 15 31 16 32 17 15 18 14 19 13 20 12 21
REMARK SMILES IDX 11 22 10 23 9 24 8 25 7 26 6 27 5 28 4 29 3 30 2 31 1 32
REMARK H PARENT
REMARK Flexibility Score: inf
ROOT
ATOM      1  C   UNL     1      -5.943  -7.351  29.674  1.00  0.00     0.000 C 
ENDROOT
BRANCH   1   2
ATOM      2  C   UNL     1      -6.032  -8.885  29.774  1.00  0.00     0.000 C 
BRANCH   2   3
ATOM      3  C   UNL     1      -5.796  -9.582  28.424  1.00  0.00     0.000 C 
BRANCH   3   4
ATOM      4  C   UNL     1      -4.681 -10.646  28.422  1.00  0.00     0.000 C 
BRANCH   4   5
ATOM      5  C   UNL     1      -4.471 -11.331  27.057  1.00  0.00     0.000 C 
BRANCH   5   6
ATOM      6  C   UNL     1      -3.990 -12.787  27.196  1.00  0.00     0.000 C 
BRANCH   6   7
ATOM      7  C   UNL     1      -3.333 -13.061  28.559  1.00  0.00     0.000 C 
BRANCH   7   8
ATOM      8  C   UNL     1      -1.793 -13.068  28.482  1.00  0.00     0.000 C 
BRANCH   8   9
ATOM      9  C   UNL     1      -1.203 -11.646  28.371  1.00  0.00     0.000 C 
BRANCH   9  10
ATOM     10  C   UNL     1      -0.367 -11.414  27.096  1.00  0.00     0.000 C 
BRANCH  10  11
ATOM     11  C   UNL     1      -0.200 -12.650  26.197  1.00  0.00     0.000 C 
BRANCH  11  12
ATOM     12  C   UNL     1      -0.793 -12.441  24.793  1.00  0.00     0.000 C 
BRANCH  12  13
ATOM     13  C   UNL     1      -1.742 -13.574  24.375  1.00  0.00     0.006 C 
BRANCH  13  14
ATOM     14  C   UNL     1      -2.938 -13.071  23.552  1.00  0.00     0.053 C 
BRANCH  14  15
ATOM     15  C   UNL     1      -2.859 -13.568  22.141  1.00  0.00     0.041 C 
ATOM     16  O   UNL     1      -3.909 -13.702  21.455  1.00  0.00    -0.550 OA
ATOM     17  O   UNL     1      -1.631 -13.902  21.589  1.00  0.00    -0.550 OA
ENDBRANCH  14  15
ENDBRANCH  13  14
ENDBRANCH  12  13
ENDBRANCH  11  12
ENDBRANCH  10  11
ENDBRANCH   9  10
ENDBRANCH   8   9
ENDBRANCH   7   8
ENDBRANCH   6   7
ENDBRANCH   5   6
ENDBRANCH   4   5
ENDBRANCH   3   4
ENDBRANCH   2   3
ENDBRANCH   1   2
BRANCH   1  18
ATOM     18  C   UNL     1      -5.783  -6.858  28.224  1.00  0.00     0.000 C 
BRANCH  18  19
ATOM     19  C   UNL     1      -5.766  -5.327  28.056  1.00  0.00     0.000 C 
BRANCH  19  20
ATOM     20  C   UNL     1      -4.823  -4.627  29.051  1.00  0.00     0.000 C 
BRANCH  20  21
ATOM     21  C   UNL     1      -5.363  -3.264  29.518  1.00  0.00     0.000 C 
BRANCH  21  22
ATOM     22  C   UNL     1      -5.266  -2.194  28.418  1.00  0.00     0.000 C 
BRANCH  22  23
ATOM     23  C   UNL     1      -5.269  -0.779  29.018  1.00  0.00     0.000 C 
BRANCH  23  24
ATOM     24  C   UNL     1      -3.893  -0.101  28.929  1.00  0.00    -0.000 C 
BRANCH  24  25
ATOM     25  C   UNL     1      -2.785  -1.058  28.456  1.00  0.00    -0.000 C 
BRANCH  25  26
ATOM     26  C   UNL     1      -1.868  -0.411  27.395  1.00  0.00    -0.000 C 
BRANCH  26  27
ATOM     27  C   UNL     1      -0.629  -1.254  27.038  1.00  0.00    -0.000 C 
BRANCH  27  28
ATOM     28  C   UNL     1       0.721  -0.595  27.366  1.00  0.00    -0.000 C 
BRANCH  28  29
ATOM     29  C   UNL     1       0.567   0.677  28.218  1.00  0.00    -0.000 C 
BRANCH  29  30
ATOM     30  C   UNL     1       1.037   1.939  27.478  1.00  0.00    -0.000 C 
BRANCH  30  31
ATOM     31  C   UNL     1      -0.131   2.731  26.874  1.00  0.00    -0.003 C 
ATOM     32  C   UNL     1       0.253   3.333  25.526  1.00  0.00     0.004 C 
ENDBRANCH  30  31
ENDBRANCH  29  30
ENDBRANCH  28  29
ENDBRANCH  27  28
ENDBRANCH  26  27
ENDBRANCH  25  26
ENDBRANCH  24  25
ENDBRANCH  23  24
ENDBRANCH  22  23
ENDBRANCH  21  22
ENDBRANCH  20  21
ENDBRANCH  19  20
ENDBRANCH  18  19
ENDBRANCH   1  18
TORSDOF 28
ENDMDL
MODEL 9
REMARK VINA RESULT:    -4.621      1.857      3.300
REMARK INTER + INTRA:         -14.865
REMARK INTER:                 -12.582
REMARK INTRA:                  -2.283
REMARK UNBOUND:                -2.680
REMARK SMILES CCCCCCCCCCCCCCCCCCCCCCCCCCCCCC(=O)[O-]
REMARK SMILES IDX 16 1 17 2 18 3 19 4 20 5 21 6 22 7 23 8 24 9 25 10 26 11
REMARK SMILES IDX 27 12 28 13 29 14 30 15 31 16 32 17 15 18 14 19 13 20 12 21
REMARK SMILES IDX 11 22 10 23 9 24 8 25 7 26 6 27 5 28 4 29 3 30 2 31 1 32
REMARK H PARENT
REMARK Flexibility Score: inf
ROOT
ATOM      1  C   UNL     1      -6.137  -7.289  28.614  1.00  0.00     0.000 C 
ENDROOT
BRANCH   1   2
ATOM      2  C   UNL     1      -5.418  -6.097  29.271  1.00  0.00     0.000 C 
BRANCH   2   3
ATOM      3  C   UNL     1      -5.043  -5.000  28.261  1.00  0.00     0.000 C 
BRANCH   3   4
ATOM      4  C   UNL     1      -5.964  -3.765  28.264  1.00  0.00     0.000 C 
BRANCH   4   5
ATOM      5  C   UNL     1      -5.410  -2.573  29.072  1.00  0.00     0.000 C 
BRANCH   5   6
ATOM      6  C   UNL     1      -4.926  -1.423  28.169  1.00  0.00     0.000 C 
BRANCH   6   7
ATOM      7  C   UNL     1      -4.550  -0.166  28.971  1.00  0.00     0.000 C 
BRANCH   7   8
ATOM      8  C   UNL     1      -3.025   0.037  29.068  1.00  0.00     0.000 C 
BRANCH   8   9
ATOM      9  C   UNL     1      -2.650   1.411  29.665  1.00  0.00     0.000 C 
BRANCH   9  10
ATOM     10  C   UNL     1      -1.549   2.153  28.881  1.00  0.00     0.000 C 
BRANCH  10  11
ATOM     11  C   UNL     1      -1.144   1.495  27.552  1.00  0.00     0.000 C 
BRANCH  11  12
ATOM     12  C   UNL     1       0.331   1.056  27.537  1.00  0.00     0.000 C 
BRANCH  12  13
ATOM     13  C   UNL     1       0.720   0.239  28.777  1.00  0.00     0.006 C 
BRANCH  13  14
ATOM     14  C   UNL     1       1.360  -1.111  28.421  1.00  0.00     0.053 C 
BRANCH  14  15
ATOM     15  C   UNL     1       0.409  -2.237  28.685  1.00  0.00     0.041 C 
ATOM     16  O   UNL     1       0.692  -3.121  29.539  1.00  0.00    -0.550 OA
ATOM     17  O   UNL     1      -0.780  -2.323  27.976  1.00  0.00    -0.550 OA
ENDBRANCH  14  15
ENDBRANCH  13  14
ENDBRANCH  12  13
ENDBRANCH  11  12
ENDBRANCH  10  11
ENDBRANCH   9  10
ENDBRANCH   8   9
ENDBRANCH   7   8
ENDBRANCH   6   7
ENDBRANCH   5   6
ENDBRANCH   4   5
ENDBRANCH   3   4
ENDBRANCH   2   3
ENDBRANCH   1   2
BRANCH   1  18
ATOM     18  C   UNL     1      -6.146  -8.544  29.504  1.00  0.00     0.000 C 
BRANCH  18  19
ATOM     19  C   UNL     1      -5.417  -9.766  28.914  1.00  0.00     0.000 C 
BRANCH  19  20
ATOM     20  C   UNL     1      -4.724 -10.624  29.988  1.00  0.00     0.000 C 
BRANCH  20  21
ATOM     21  C   UNL     1      -4.038 -11.868  29.397  1.00  0.00     0.000 C 
BRANCH  21  22
ATOM     22  C   UNL     1      -2.633 -11.554  28.857  1.00  0.00     0.000 C 
BRANCH  22  23
ATOM     23  C   UNL     1      -2.428 -12.157  27.459  1.00  0.00     0.000 C 
BRANCH  23  24
ATOM     24  C   UNL     1      -3.574 -11.811  26.495  1.00  0.00    -0.000 C 
BRANCH  24  25
ATOM     25  C   UNL     1      -4.326 -13.055  25.991  1.00  0.00    -0.000 C 
BRANCH  25  26
ATOM     26  C   UNL     1      -3.615 -13.722  24.793  1.00  0.00    -0.000 C 
BRANCH  26  27
ATOM     27  C   UNL     1      -3.058 -12.725  23.759  1.00  0.00    -0.000 C 
BRANCH  27  28
ATOM     28  C   UNL     1      -2.065 -13.323  22.750  1.00  0.00    -0.000 C 
BRANCH  28  29
ATOM     29  C   UNL     1      -0.714 -12.586  22.741  1.00  0.00    -0.000 C 
BRANCH  29  30
ATOM     30  C   UNL     1      -0.572 -11.610  23.920  1.00  0.00    -0.000 C 
BRANCH  30  31
ATOM     31  C   UNL     1       0.558 -12.012  24.879  1.00  0.00    -0.003 C 
ATOM     32  C   UNL     1       0.684 -11.015  26.027  1.00  0.00     0.004 C 
ENDBRANCH  30  31
ENDBRANCH  29  30
ENDBRANCH  28  29
ENDBRANCH  27  28
ENDBRANCH  26  27
ENDBRANCH  25  26
ENDBRANCH  24  25
ENDBRANCH  23  24
ENDBRANCH  22  23
ENDBRANCH  21  22
ENDBRANCH  20  21
ENDBRANCH  19  20
ENDBRANCH  18  19
ENDBRANCH   1  18
TORSDOF 28
ENDMDL
