MODEL 1
REMARK VINA RESULT:    -5.538      0.000      0.000
REMARK INTER + INTRA:          -6.718
REMARK INTER:                  -6.671
REMARK INTRA:                  -0.048
REMARK UNBOUND:                -0.048
REMARK SMILES O=c1c(O)c(-c2ccc(O)c(O)c2)oc2cc(O)cc(O)c12
REMARK SMILES IDX 5 1 3 2 2 3 1 4 22 5 20 6 19 7 17 8 16 9 15 10 14 11 6 12
REMARK SMILES IDX 7 13 8 14 9 15 13 16 11 17 10 18 12 20 4 22 21 24 18 26
REMARK H PARENT 10 19 12 21 4 23 21 25 18 27
REMARK Flexibility Score: inf
ROOT
ATOM      1  C   UNL     1     109.762 108.491 101.433  1.00  0.00     0.180 A 
ATOM      2  C   UNL     1     109.108 109.447 102.228  1.00  0.00     0.208 A 
ATOM      3  C   UNL     1     108.675 109.082 103.513  1.00  0.00     0.238 A 
ATOM      4  O   UNL     1     108.138 109.959 104.242  1.00  0.00    -0.285 OA
ATOM      5  C   UNL     1     108.886 107.763 103.980  1.00  0.00     0.111 A 
ATOM      6  C   UNL     1     108.453 107.273 105.249  1.00  0.00     0.134 A 
ATOM      7  C   UNL     1     108.830 105.988 105.658  1.00  0.00     0.093 A 
ATOM      8  C   UNL     1     109.568 105.153 104.821  1.00  0.00     0.123 A 
ATOM      9  C   UNL     1     109.946 105.601 103.554  1.00  0.00     0.094 A 
ATOM     10  C   UNL     1     109.615 106.891 103.132  1.00  0.00     0.146 A 
ATOM     11  O   UNL     1     110.003 107.281 101.924  1.00  0.00    -0.452 OA
ENDROOT
BRANCH   1  12
ATOM     12  C   UNL     1     110.226 108.793 100.059  1.00  0.00     0.025 A 
ATOM     13  C   UNL     1     111.080 109.879  99.798  1.00  0.00     0.016 A 
ATOM     14  C   UNL     1     111.485 110.160  98.490  1.00  0.00     0.051 A 
ATOM     15  C   UNL     1     111.035 109.374  97.426  1.00  0.00     0.157 A 
ATOM     16  C   UNL     1     109.758 108.018  98.986  1.00  0.00     0.062 A 
ATOM     17  C   UNL     1     110.164 108.299  97.672  1.00  0.00     0.158 A 
BRANCH  15  18
ATOM     18  O   UNL     1     111.457 109.678  96.133  1.00  0.00    -0.504 OA
ATOM     19  H   UNL     1     112.216 110.325  95.952  1.00  0.00     0.293 HD
ENDBRANCH  15  18
BRANCH  17  20
ATOM     20  O   UNL     1     109.706 107.515  96.614  1.00  0.00    -0.504 OA
ATOM     21  H   UNL     1     109.928 106.528  96.549  1.00  0.00     0.293 HD
ENDBRANCH  17  20
ENDBRANCH   1  12
BRANCH   2  22
ATOM     22  O   UNL     1     108.929 110.751 101.757  1.00  0.00    -0.502 OA
ATOM     23  H   UNL     1     109.433 111.115 100.957  1.00  0.00     0.293 HD
ENDBRANCH   2  22
BRANCH   6  24
ATOM     24  O   UNL     1     107.633 107.992 106.125  1.00  0.00    -0.507 OA
ATOM     25  H   UNL     1     107.956 108.705 106.760  1.00  0.00     0.293 HD
ENDBRANCH   6  24
BRANCH   8  26
ATOM     26  O   UNL     1     109.913 103.876 105.255  1.00  0.00    -0.508 OA
ATOM     27  H   UNL     1     109.893 103.079 104.629  1.00  0.00     0.293 HD
ENDBRANCH   8  26
TORSDOF 6
ENDMDL
MODEL 2
REMARK VINA RESULT:    -5.373      5.642     10.599
REMARK INTER + INTRA:          -6.520
REMARK INTER:                  -6.215
REMARK INTRA:                  -0.305
REMARK UNBOUND:                -0.048
REMARK SMILES O=c1c(O)c(-c2ccc(O)c(O)c2)oc2cc(O)cc(O)c12
REMARK SMILES IDX 5 1 3 2 2 3 1 4 22 5 20 6 19 7 17 8 16 9 15 10 14 11 6 12
REMARK SMILES IDX 7 13 8 14 9 15 13 16 11 17 10 18 12 20 4 22 21 24 18 26
REMARK H PARENT 10 19 12 21 4 23 21 25 18 27
REMARK Flexibility Score: inf
ROOT
ATOM      1  C   UNL     1     111.808 106.072  94.537  1.00  0.00     0.180 A 
ATOM      2  C   UNL     1     113.213 106.089  94.499  1.00  0.00     0.208 A 
ATOM      3  C   UNL     1     113.867 105.663  93.332  1.00  0.00     0.238 A 
ATOM      4  O   UNL     1     115.124 105.732  93.285  1.00  0.00    -0.285 OA
ATOM      5  C   UNL     1     113.111 105.212  92.225  1.00  0.00     0.111 A 
ATOM      6  C   UNL     1     113.671 104.721  91.006  1.00  0.00     0.134 A 
ATOM      7  C   UNL     1     112.827 104.423  89.929  1.00  0.00     0.093 A 
ATOM      8  C   UNL     1     111.442 104.537  90.046  1.00  0.00     0.123 A 
ATOM      9  C   UNL     1     110.881 104.960  91.253  1.00  0.00     0.094 A 
ATOM     10  C   UNL     1     111.699 105.298  92.333  1.00  0.00     0.146 A 
ATOM     11  O   UNL     1     111.125 105.705  93.459  1.00  0.00    -0.452 OA
ENDROOT
BRANCH   1  12
ATOM     12  C   UNL     1     111.048 106.482  95.740  1.00  0.00     0.025 A 
ATOM     13  C   UNL     1     110.539 107.785  95.874  1.00  0.00     0.016 A 
ATOM     14  C   UNL     1     109.846 108.157  97.030  1.00  0.00     0.051 A 
ATOM     15  C   UNL     1     109.663 107.242  98.071  1.00  0.00     0.157 A 
ATOM     16  C   UNL     1     110.881 105.571  96.796  1.00  0.00     0.062 A 
ATOM     17  C   UNL     1     110.186 105.943  97.956  1.00  0.00     0.158 A 
BRANCH  15  18
ATOM     18  O   UNL     1     108.966 107.641  99.210  1.00  0.00    -0.504 OA
ATOM     19  H   UNL     1     108.148 108.237  99.160  1.00  0.00     0.293 HD
ENDBRANCH  15  18
BRANCH  17  20
ATOM     20  O   UNL     1     110.013 105.026  98.993  1.00  0.00    -0.504 OA
ATOM     21  H   UNL     1     109.304 105.158  99.705  1.00  0.00     0.293 HD
ENDBRANCH  17  20
ENDBRANCH   1  12
BRANCH   2  22
ATOM     22  O   UNL     1     113.941 106.558  95.596  1.00  0.00    -0.502 OA
ATOM     23  H   UNL     1     113.508 106.775  96.485  1.00  0.00     0.293 HD
ENDBRANCH   2  22
BRANCH   6  24
ATOM     24  O   UNL     1     115.035 104.482  90.814  1.00  0.00    -0.507 OA
ATOM     25  H   UNL     1     115.669 104.166  91.532  1.00  0.00     0.293 HD
ENDBRANCH   6  24
BRANCH   8  26
ATOM     26  O   UNL     1     110.632 104.218  88.959  1.00  0.00    -0.508 OA
ATOM     27  H   UNL     1     109.622 104.198  89.039  1.00  0.00     0.293 HD
ENDBRANCH   8  26
TORSDOF 6
ENDMDL
MODEL 3
REMARK VINA RESULT:    -5.220      5.929     10.937
REMARK INTER + INTRA:          -6.336
REMARK INTER:                  -6.021
REMARK INTRA:                  -0.315
REMARK UNBOUND:                -0.048
REMARK SMILES O=c1c(O)c(-c2ccc(O)c(O)c2)oc2cc(O)cc(O)c12
REMARK SMILES IDX 5 1 3 2 2 3 1 4 22 5 20 6 19 7 17 8 16 9 15 10 14 11 6 12
REMARK SMILES IDX 7 13 8 14 9 15 13 16 11 17 10 18 12 20 4 22 21 24 18 26
REMARK H PARENT 10 19 12 21 4 23 21 25 18 27
REMARK Flexibility Score: inf
ROOT
ATOM      1  C   UNL     1     111.009 105.920  93.745  1.00  0.00     0.180 A 
ATOM      2  C   UNL     1     110.049 105.341  92.898  1.00  0.00     0.208 A 
ATOM      3  C   UNL     1     110.459 104.819  91.660  1.00  0.00     0.238 A 
ATOM      4  O   UNL     1     109.603 104.254  90.929  1.00  0.00    -0.285 OA
ATOM      5  C   UNL     1     111.819 104.897  91.279  1.00  0.00     0.111 A 
ATOM      6  C   UNL     1     112.339 104.436  90.031  1.00  0.00     0.134 A 
ATOM      7  C   UNL     1     113.722 104.446  89.813  1.00  0.00     0.093 A 
ATOM      8  C   UNL     1     114.598 104.957  90.770  1.00  0.00     0.123 A 
ATOM      9  C   UNL     1     114.096 105.464  91.969  1.00  0.00     0.094 A 
ATOM     10  C   UNL     1     112.723 105.435  92.230  1.00  0.00     0.146 A 
ATOM     11  O   UNL     1     112.288 105.918  93.387  1.00  0.00    -0.452 OA
ENDROOT
BRANCH   1  12
ATOM     12  C   UNL     1     110.650 106.512  95.054  1.00  0.00     0.025 A 
ATOM     13  C   UNL     1     110.432 107.894  95.196  1.00  0.00     0.016 A 
ATOM     14  C   UNL     1     110.118 108.433  96.446  1.00  0.00     0.051 A 
ATOM     15  C   UNL     1     110.031 107.609  97.572  1.00  0.00     0.157 A 
ATOM     16  C   UNL     1     110.583 105.690  96.190  1.00  0.00     0.062 A 
ATOM     17  C   UNL     1     110.268 106.230  97.445  1.00  0.00     0.158 A 
BRANCH  15  18
ATOM     18  O   UNL     1     109.714 108.177  98.805  1.00  0.00    -0.504 OA
ATOM     19  H   UNL     1     108.846 107.970  99.286  1.00  0.00     0.293 HD
ENDBRANCH  15  18
BRANCH  17  20
ATOM     20  O   UNL     1     110.189 105.402  98.565  1.00  0.00    -0.504 OA
ATOM     21  H   UNL     1     110.427 104.419  98.515  1.00  0.00     0.293 HD
ENDBRANCH  17  20
ENDBRANCH   1  12
BRANCH   2  22
ATOM     22  O   UNL     1     108.714 105.254  93.303  1.00  0.00    -0.502 OA
ATOM     23  H   UNL     1     108.313 105.876  93.995  1.00  0.00     0.293 HD
ENDBRANCH   2  22
BRANCH   6  24
ATOM     24  O   UNL     1     111.543 103.991  88.970  1.00  0.00    -0.507 OA
ATOM     25  H   UNL     1     110.536 103.955  88.984  1.00  0.00     0.293 HD
ENDBRANCH   6  24
BRANCH   8  26
ATOM     26  O   UNL     1     115.967 104.964  90.514  1.00  0.00    -0.508 OA
ATOM     27  H   UNL     1     116.482 105.829  90.407  1.00  0.00     0.293 HD
ENDBRANCH   8  26
TORSDOF 6
ENDMDL
MODEL 4
REMARK VINA RESULT:    -5.054      8.634     10.484
REMARK INTER + INTRA:          -6.136
REMARK INTER:                  -6.019
REMARK INTRA:                  -0.117
REMARK UNBOUND:                -0.048
REMARK SMILES O=c1c(O)c(-c2ccc(O)c(O)c2)oc2cc(O)cc(O)c12
REMARK SMILES IDX 5 1 3 2 2 3 1 4 22 5 20 6 19 7 17 8 16 9 15 10 14 11 6 12
REMARK SMILES IDX 7 13 8 14 9 15 13 16 11 17 10 18 12 20 4 22 21 24 18 26
REMARK H PARENT 10 19 12 21 4 23 21 25 18 27
REMARK Flexibility Score: inf
ROOT
ATOM      1  C   UNL     1     111.023 106.672  91.689  1.00  0.00     0.180 A 
ATOM      2  C   UNL     1     110.137 105.995  92.544  1.00  0.00     0.208 A 
ATOM      3  C   UNL     1     110.646 105.358  93.687  1.00  0.00     0.238 A 
ATOM      4  O   UNL     1     109.841 104.799  94.478  1.00  0.00    -0.285 OA
ATOM      5  C   UNL     1     112.036 105.392  93.952  1.00  0.00     0.111 A 
ATOM      6  C   UNL     1     112.666 104.747  95.060  1.00  0.00     0.134 A 
ATOM      7  C   UNL     1     114.031 104.956  95.295  1.00  0.00     0.093 A 
ATOM      8  C   UNL     1     114.800 105.733  94.430  1.00  0.00     0.123 A 
ATOM      9  C   UNL     1     114.206 106.320  93.312  1.00  0.00     0.094 A 
ATOM     10  C   UNL     1     112.840 106.159  93.070  1.00  0.00     0.146 A 
ATOM     11  O   UNL     1     112.312 106.742  92.000  1.00  0.00    -0.452 OA
ENDROOT
BRANCH   1  12
ATOM     12  C   UNL     1     110.565 107.346  90.453  1.00  0.00     0.025 A 
ATOM     13  C   UNL     1     111.052 106.968  89.190  1.00  0.00     0.016 A 
ATOM     14  C   UNL     1     110.623 107.636  88.040  1.00  0.00     0.051 A 
ATOM     15  C   UNL     1     109.716 108.695  88.132  1.00  0.00     0.157 A 
ATOM     16  C   UNL     1     109.670 108.424  90.546  1.00  0.00     0.062 A 
ATOM     17  C   UNL     1     109.238 109.095  89.392  1.00  0.00     0.158 A 
BRANCH  15  18
ATOM     18  O   UNL     1     109.305 109.340  86.967  1.00  0.00    -0.504 OA
ATOM     19  H   UNL     1     109.657 109.078  86.053  1.00  0.00     0.293 HD
ENDBRANCH  15  18
BRANCH  17  20
ATOM     20  O   UNL     1     108.338 110.156  89.493  1.00  0.00    -0.504 OA
ATOM     21  H   UNL     1     107.672 110.216  90.255  1.00  0.00     0.293 HD
ENDBRANCH  17  20
ENDBRANCH   1  12
BRANCH   2  22
ATOM     22  O   UNL     1     108.765 105.991  92.276  1.00  0.00    -0.502 OA
ATOM     23  H   UNL     1     108.190 106.820  92.365  1.00  0.00     0.293 HD
ENDBRANCH   2  22
BRANCH   6  24
ATOM     24  O   UNL     1     112.009 103.875  95.933  1.00  0.00    -0.507 OA
ATOM     25  H   UNL     1     112.415 103.038  96.322  1.00  0.00     0.293 HD
ENDBRANCH   6  24
BRANCH   8  26
ATOM     26  O   UNL     1     116.158 105.908  94.687  1.00  0.00    -0.508 OA
ATOM     27  H   UNL     1     116.686 106.658  94.258  1.00  0.00     0.293 HD
ENDBRANCH   8  26
TORSDOF 6
ENDMDL
MODEL 5
REMARK VINA RESULT:    -5.032      4.758      7.240
REMARK INTER + INTRA:          -6.109
REMARK INTER:                  -5.787
REMARK INTRA:                  -0.322
REMARK UNBOUND:                -0.048
REMARK SMILES O=c1c(O)c(-c2ccc(O)c(O)c2)oc2cc(O)cc(O)c12
REMARK SMILES IDX 5 1 3 2 2 3 1 4 22 5 20 6 19 7 17 8 16 9 15 10 14 11 6 12
REMARK SMILES IDX 7 13 8 14 9 15 13 16 11 17 10 18 12 20 4 22 21 24 18 26
REMARK H PARENT 10 19 12 21 4 23 21 25 18 27
REMARK Flexibility Score: inf
ROOT
ATOM      1  C   UNL     1     111.267 106.024  94.823  1.00  0.00     0.180 A 
ATOM      2  C   UNL     1     110.946 107.377  95.027  1.00  0.00     0.208 A 
ATOM      3  C   UNL     1     110.492 107.786  96.291  1.00  0.00     0.238 A 
ATOM      4  O   UNL     1     110.257 109.009  96.483  1.00  0.00    -0.285 OA
ATOM      5  C   UNL     1     110.351 106.836  97.330  1.00  0.00     0.111 A 
ATOM      6  C   UNL     1     109.863 107.132  98.639  1.00  0.00     0.134 A 
ATOM      7  C   UNL     1     109.888 106.139  99.626  1.00  0.00     0.093 A 
ATOM      8  C   UNL     1     110.323 104.846  99.337  1.00  0.00     0.123 A 
ATOM      9  C   UNL     1     110.747 104.531  98.045  1.00  0.00     0.094 A 
ATOM     10  C   UNL     1     110.767 105.509  97.048  1.00  0.00     0.146 A 
ATOM     11  O   UNL     1     111.187 105.170  95.836  1.00  0.00    -0.452 OA
ENDROOT
BRANCH   1  12
ATOM     12  C   UNL     1     111.728 105.514  93.511  1.00  0.00     0.025 A 
ATOM     13  C   UNL     1     113.094 105.471  93.183  1.00  0.00     0.016 A 
ATOM     14  C   UNL     1     113.504 105.008  91.929  1.00  0.00     0.051 A 
ATOM     15  C   UNL     1     112.561 104.596  90.983  1.00  0.00     0.157 A 
ATOM     16  C   UNL     1     110.782 105.119  92.552  1.00  0.00     0.062 A 
ATOM     17  C   UNL     1     111.192 104.654  91.294  1.00  0.00     0.158 A 
BRANCH  15  18
ATOM     18  O   UNL     1     113.000 104.137  89.743  1.00  0.00    -0.504 OA
ATOM     19  H   UNL     1     112.950 104.709  88.908  1.00  0.00     0.293 HD
ENDBRANCH  15  18
BRANCH  17  20
ATOM     20  O   UNL     1     110.244 104.250  90.354  1.00  0.00    -0.504 OA
ATOM     21  H   UNL     1     109.756 104.920  89.771  1.00  0.00     0.293 HD
ENDBRANCH  17  20
ENDBRANCH   1  12
BRANCH   2  22
ATOM     22  O   UNL     1     111.112 108.304  93.994  1.00  0.00    -0.502 OA
ATOM     23  H   UNL     1     110.367 108.916  93.685  1.00  0.00     0.293 HD
ENDBRANCH   2  22
BRANCH   6  24
ATOM     24  O   UNL     1     109.319 108.366  99.009  1.00  0.00    -0.507 OA
ATOM     25  H   UNL     1     108.569 108.488  99.672  1.00  0.00     0.293 HD
ENDBRANCH   6  24
BRANCH   8  26
ATOM     26  O   UNL     1     110.321 103.880 100.340  1.00  0.00    -0.508 OA
ATOM     27  H   UNL     1     111.092 103.233 100.454  1.00  0.00     0.293 HD
ENDBRANCH   8  26
TORSDOF 6
ENDMDL
MODEL 6
REMARK VINA RESULT:    -4.916      6.896      9.807
REMARK INTER + INTRA:          -5.969
REMARK INTER:                  -5.649
REMARK INTRA:                  -0.321
REMARK UNBOUND:                -0.048
REMARK SMILES O=c1c(O)c(-c2ccc(O)c(O)c2)oc2cc(O)cc(O)c12
REMARK SMILES IDX 5 1 3 2 2 3 1 4 22 5 20 6 19 7 17 8 16 9 15 10 14 11 6 12
REMARK SMILES IDX 7 13 8 14 9 15 13 16 11 17 10 18 12 20 4 22 21 24 18 26
REMARK H PARENT 10 19 12 21 4 23 21 25 18 27
REMARK Flexibility Score: inf
ROOT
ATOM      1  C   UNL     1     110.605 106.923  92.137  1.00  0.00     0.180 A 
ATOM      2  C   UNL     1     110.052 105.710  92.585  1.00  0.00     0.208 A 
ATOM      3  C   UNL     1     110.372 105.252  93.873  1.00  0.00     0.238 A 
ATOM      4  O   UNL     1     109.831 104.193  94.289  1.00  0.00    -0.285 OA
ATOM      5  C   UNL     1     111.251 106.001  94.691  1.00  0.00     0.111 A 
ATOM      6  C   UNL     1     111.674 105.611  95.998  1.00  0.00     0.134 A 
ATOM      7  C   UNL     1     112.443 106.493  96.766  1.00  0.00     0.093 A 
ATOM      8  C   UNL     1     112.856 107.723  96.254  1.00  0.00     0.123 A 
ATOM      9  C   UNL     1     112.497 108.089  94.956  1.00  0.00     0.094 A 
ATOM     10  C   UNL     1     111.701 107.245  94.178  1.00  0.00     0.146 A 
ATOM     11  O   UNL     1     111.374 107.636  92.952  1.00  0.00    -0.452 OA
ENDROOT
BRANCH   1  12
ATOM     12  C   UNL     1     110.335 107.459  90.783  1.00  0.00     0.025 A 
ATOM     13  C   UNL     1     111.051 107.006  89.662  1.00  0.00     0.016 A 
ATOM     14  C   UNL     1     110.796 107.545  88.397  1.00  0.00     0.051 A 
ATOM     15  C   UNL     1     109.836 108.548  88.236  1.00  0.00     0.157 A 
ATOM     16  C   UNL     1     109.386 108.481  90.622  1.00  0.00     0.062 A 
ATOM     17  C   UNL     1     109.128 109.021  89.353  1.00  0.00     0.158 A 
BRANCH  15  18
ATOM     18  O   UNL     1     109.602 109.063  86.962  1.00  0.00    -0.504 OA
ATOM     19  H   UNL     1     110.344 109.460  86.396  1.00  0.00     0.293 HD
ENDBRANCH  15  18
BRANCH  17  20
ATOM     20  O   UNL     1     108.173 110.026  89.201  1.00  0.00    -0.504 OA
ATOM     21  H   UNL     1     107.191 109.811  89.079  1.00  0.00     0.293 HD
ENDBRANCH  17  20
ENDBRANCH   1  12
BRANCH   2  22
ATOM     22  O   UNL     1     109.170 104.996  91.771  1.00  0.00    -0.502 OA
ATOM     23  H   UNL     1     109.343 104.039  91.488  1.00  0.00     0.293 HD
ENDBRANCH   2  22
BRANCH   6  24
ATOM     24  O   UNL     1     111.394 104.366  96.569  1.00  0.00    -0.507 OA
ATOM     25  H   UNL     1     111.681 103.480  96.184  1.00  0.00     0.293 HD
ENDBRANCH   6  24
BRANCH   8  26
ATOM     26  O   UNL     1     113.632 108.570  97.042  1.00  0.00    -0.508 OA
ATOM     27  H   UNL     1     114.395 109.108  96.649  1.00  0.00     0.293 HD
ENDBRANCH   8  26
TORSDOF 6
ENDMDL
MODEL 7
REMARK VINA RESULT:    -4.890      4.493      7.803
REMARK INTER + INTRA:          -5.938
REMARK INTER:                  -5.652
REMARK INTRA:                  -0.285
REMARK UNBOUND:                -0.048
REMARK SMILES O=c1c(O)c(-c2ccc(O)c(O)c2)oc2cc(O)cc(O)c12
REMARK SMILES IDX 5 1 3 2 2 3 1 4 22 5 20 6 19 7 17 8 16 9 15 10 14 11 6 12
REMARK SMILES IDX 7 13 8 14 9 15 13 16 11 17 10 18 12 20 4 22 21 24 18 26
REMARK H PARENT 10 19 12 21 4 23 21 25 18 27
REMARK Flexibility Score: inf
ROOT
ATOM      1  C   UNL     1     110.698 107.078  94.139  1.00  0.00     0.180 A 
ATOM      2  C   UNL     1     111.061 105.726  94.260  1.00  0.00     0.208 A 
ATOM      3  C   UNL     1     111.000 105.115  95.522  1.00  0.00     0.238 A 
ATOM      4  O   UNL     1     111.275 103.889  95.615  1.00  0.00    -0.285 OA
ATOM      5  C   UNL     1     110.592 105.866  96.650  1.00  0.00     0.111 A 
ATOM      6  C   UNL     1     110.531 105.358  97.984  1.00  0.00     0.134 A 
ATOM      7  C   UNL     1     109.989 106.154  99.001  1.00  0.00     0.093 A 
ATOM      8  C   UNL     1     109.565 107.458  98.747  1.00  0.00     0.123 A 
ATOM      9  C   UNL     1     109.674 107.984  97.459  1.00  0.00     0.094 A 
ATOM     10  C   UNL     1     110.178 107.203  96.416  1.00  0.00     0.146 A 
ATOM     11  O   UNL     1     110.257 107.738  95.204  1.00  0.00    -0.452 OA
ENDROOT
BRANCH   1  12
ATOM     12  C   UNL     1     110.760 107.798  92.847  1.00  0.00     0.025 A 
ATOM     13  C   UNL     1     111.986 108.220  92.303  1.00  0.00     0.016 A 
ATOM     14  C   UNL     1     112.017 108.920  91.094  1.00  0.00     0.051 A 
ATOM     15  C   UNL     1     110.831 109.220  90.418  1.00  0.00     0.157 A 
ATOM     16  C   UNL     1     109.569 108.119  92.176  1.00  0.00     0.062 A 
ATOM     17  C   UNL     1     109.599 108.821  90.962  1.00  0.00     0.158 A 
BRANCH  15  18
ATOM     18  O   UNL     1     110.895 109.917  89.212  1.00  0.00    -0.504 OA
ATOM     19  H   UNL     1     111.764 110.037  88.704  1.00  0.00     0.293 HD
ENDBRANCH  15  18
BRANCH  17  20
ATOM     20  O   UNL     1     108.411 109.122  90.297  1.00  0.00    -0.504 OA
ATOM     21  H   UNL     1     107.507 108.898  90.697  1.00  0.00     0.293 HD
ENDBRANCH  17  20
ENDBRANCH   1  12
BRANCH   2  22
ATOM     22  O   UNL     1     111.441 104.996  93.130  1.00  0.00    -0.502 OA
ATOM     23  H   UNL     1     112.405 104.752  92.938  1.00  0.00     0.293 HD
ENDBRANCH   2  22
BRANCH   6  24
ATOM     24  O   UNL     1     111.013 104.102  98.364  1.00  0.00    -0.507 OA
ATOM     25  H   UNL     1     110.573 103.225  98.134  1.00  0.00     0.293 HD
ENDBRANCH   6  24
BRANCH   8  26
ATOM     26  O   UNL     1     109.044 108.226  99.786  1.00  0.00    -0.508 OA
ATOM     27  H   UNL     1     108.972 109.234  99.716  1.00  0.00     0.293 HD
ENDBRANCH   8  26
TORSDOF 6
ENDMDL
MODEL 8
REMARK VINA RESULT:    -4.865      7.709     12.322
REMARK INTER + INTRA:          -5.909
REMARK INTER:                  -5.605
REMARK INTRA:                  -0.303
REMARK UNBOUND:                -0.048
REMARK SMILES O=c1c(O)c(-c2ccc(O)c(O)c2)oc2cc(O)cc(O)c12
REMARK SMILES IDX 5 1 3 2 2 3 1 4 22 5 20 6 19 7 17 8 16 9 15 10 14 11 6 12
REMARK SMILES IDX 7 13 8 14 9 15 13 16 11 17 10 18 12 20 4 22 21 24 18 26
REMARK H PARENT 10 19 12 21 4 23 21 25 18 27
REMARK Flexibility Score: inf
ROOT
ATOM      1  C   UNL     1     110.558 106.709  91.944  1.00  0.00     0.180 A 
ATOM      2  C   UNL     1     109.542 107.680  91.900  1.00  0.00     0.208 A 
ATOM      3  C   UNL     1     109.315 108.373  90.700  1.00  0.00     0.238 A 
ATOM      4  O   UNL     1     108.369 109.203  90.651  1.00  0.00    -0.285 OA
ATOM      5  C   UNL     1     110.115 108.098  89.565  1.00  0.00     0.111 A 
ATOM      6  C   UNL     1     109.998 108.768  88.309  1.00  0.00     0.134 A 
ATOM      7  C   UNL     1     110.755 108.325  87.218  1.00  0.00     0.093 A 
ATOM      8  C   UNL     1     111.669 107.280  87.351  1.00  0.00     0.123 A 
ATOM      9  C   UNL     1     111.833 106.657  88.589  1.00  0.00     0.094 A 
ATOM     10  C   UNL     1     111.067 107.054  89.688  1.00  0.00     0.146 A 
ATOM     11  O   UNL     1     111.248 106.428  90.845  1.00  0.00    -0.452 OA
ENDROOT
BRANCH   1  12
ATOM     12  C   UNL     1     110.873 105.956  93.179  1.00  0.00     0.025 A 
ATOM     13  C   UNL     1     110.338 104.676  93.412  1.00  0.00     0.016 A 
ATOM     14  C   UNL     1     110.630 103.995  94.597  1.00  0.00     0.051 A 
ATOM     15  C   UNL     1     111.444 104.581  95.569  1.00  0.00     0.157 A 
ATOM     16  C   UNL     1     111.674 106.551  94.167  1.00  0.00     0.062 A 
ATOM     17  C   UNL     1     111.968 105.867  95.356  1.00  0.00     0.158 A 
BRANCH  15  18
ATOM     18  O   UNL     1     111.719 103.875  96.739  1.00  0.00    -0.504 OA
ATOM     19  H   UNL     1     112.456 104.154  97.377  1.00  0.00     0.293 HD
ENDBRANCH  15  18
BRANCH  17  20
ATOM     20  O   UNL     1     112.776 106.462  96.325  1.00  0.00    -0.504 OA
ATOM     21  H   UNL     1     112.916 106.036  97.233  1.00  0.00     0.293 HD
ENDBRANCH  17  20
ENDBRANCH   1  12
BRANCH   2  22
ATOM     22  O   UNL     1     108.749 107.921  93.025  1.00  0.00    -0.502 OA
ATOM     23  H   UNL     1     108.831 108.765  93.579  1.00  0.00     0.293 HD
ENDBRANCH   2  22
BRANCH   6  24
ATOM     24  O   UNL     1     109.183 109.883  88.092  1.00  0.00    -0.507 OA
ATOM     25  H   UNL     1     108.201 109.928  88.314  1.00  0.00     0.293 HD
ENDBRANCH   6  24
BRANCH   8  26
ATOM     26  O   UNL     1     112.416 106.875  86.247  1.00  0.00    -0.508 OA
ATOM     27  H   UNL     1     113.215 106.261  86.345  1.00  0.00     0.293 HD
ENDBRANCH   8  26
TORSDOF 6
ENDMDL
MODEL 9
REMARK VINA RESULT:    -4.844      4.012      9.332
REMARK INTER + INTRA:          -5.883
REMARK INTER:                  -5.721
REMARK INTRA:                  -0.162
REMARK UNBOUND:                -0.048
REMARK SMILES O=c1c(O)c(-c2ccc(O)c(O)c2)oc2cc(O)cc(O)c12
REMARK SMILES IDX 5 1 3 2 2 3 1 4 22 5 20 6 19 7 17 8 16 9 15 10 14 11 6 12
REMARK SMILES IDX 7 13 8 14 9 15 13 16 11 17 10 18 12 20 4 22 21 24 18 26
REMARK H PARENT 10 19 12 21 4 23 21 25 18 27
REMARK Flexibility Score: inf
ROOT
ATOM      1  C   UNL     1     110.521 106.998  96.036  1.00  0.00     0.180 A 
ATOM      2  C   UNL     1     110.956 105.666  95.928  1.00  0.00     0.208 A 
ATOM      3  C   UNL     1     110.999 105.065  94.659  1.00  0.00     0.238 A 
ATOM      4  O   UNL     1     111.441 103.889  94.562  1.00  0.00    -0.285 OA
ATOM      5  C   UNL     1     110.593 105.797  93.519  1.00  0.00     0.111 A 
ATOM      6  C   UNL     1     110.558 105.274  92.190  1.00  0.00     0.134 A 
ATOM      7  C   UNL     1     110.263 106.128  91.120  1.00  0.00     0.093 A 
ATOM      8  C   UNL     1     109.938 107.467  91.335  1.00  0.00     0.123 A 
ATOM      9  C   UNL     1     109.912 107.973  92.635  1.00  0.00     0.094 A 
ATOM     10  C   UNL     1     110.237 107.155  93.720  1.00  0.00     0.146 A 
ATOM     11  O   UNL     1     110.209 107.679  94.939  1.00  0.00    -0.452 OA
ENDROOT
BRANCH   1  12
ATOM     12  C   UNL     1     110.425 107.692  97.341  1.00  0.00     0.025 A 
ATOM     13  C   UNL     1     109.567 107.229  98.353  1.00  0.00     0.016 A 
ATOM     14  C   UNL     1     109.474 107.915  99.568  1.00  0.00     0.051 A 
ATOM     15  C   UNL     1     110.223 109.074  99.785  1.00  0.00     0.157 A 
ATOM     16  C   UNL     1     111.160 108.869  97.553  1.00  0.00     0.062 A 
ATOM     17  C   UNL     1     111.069 109.557  98.772  1.00  0.00     0.158 A 
BRANCH  15  18
ATOM     18  O   UNL     1     110.111 109.735 101.007  1.00  0.00    -0.504 OA
ATOM     19  H   UNL     1     109.433 110.471 101.162  1.00  0.00     0.293 HD
ENDBRANCH  15  18
BRANCH  17  20
ATOM     20  O   UNL     1     111.814 110.718  98.979  1.00  0.00    -0.504 OA
ATOM     21  H   UNL     1     111.410 111.538  99.416  1.00  0.00     0.293 HD
ENDBRANCH  17  20
ENDBRANCH   1  12
BRANCH   2  22
ATOM     22  O   UNL     1     111.374 104.968  97.064  1.00  0.00    -0.502 OA
ATOM     23  H   UNL     1     111.944 105.392  97.785  1.00  0.00     0.293 HD
ENDBRANCH   2  22
BRANCH   6  24
ATOM     24  O   UNL     1     110.776 103.930  91.874  1.00  0.00    -0.507 OA
ATOM     25  H   UNL     1     111.424 103.325  92.353  1.00  0.00     0.293 HD
ENDBRANCH   6  24
BRANCH   8  26
ATOM     26  O   UNL     1     109.636 108.284  90.248  1.00  0.00    -0.508 OA
ATOM     27  H   UNL     1     110.217 109.076  90.002  1.00  0.00     0.293 HD
ENDBRANCH   8  26
TORSDOF 6
ENDMDL
