MODEL 1
REMARK VINA RESULT:    -6.830      0.000      0.000
REMARK INTER + INTRA:          -8.553
REMARK INTER:                  -8.228
REMARK INTRA:                  -0.325
REMARK UNBOUND:                -0.325
REMARK SMILES O=c1c(O)c(-c2ccc(O)c(O)c2)oc2cc(O)cc(O)c12
REMARK SMILES IDX 5 1 3 2 2 3 1 4 22 5 20 6 19 7 17 8 16 9 15 10 14 11 6 12
REMARK SMILES IDX 7 13 8 14 9 15 13 16 11 17 10 18 12 20 4 22 21 24 18 26
REMARK H PARENT 10 19 12 21 4 23 21 25 18 27
REMARK Flexibility Score: inf
ROOT
ATOM      1  C   UNL     1       4.958  -3.906   4.706  1.00  0.00     0.180 A 
ATOM      2  C   UNL     1       5.410  -5.078   4.070  1.00  0.00     0.208 A 
ATOM      3  C   UNL     1       6.772  -5.196   3.753  1.00  0.00     0.238 A 
ATOM      4  O   UNL     1       7.191  -6.246   3.194  1.00  0.00    -0.285 OA
ATOM      5  C   UNL     1       7.653  -4.137   4.058  1.00  0.00     0.111 A 
ATOM      6  C   UNL     1       9.037  -4.175   3.767  1.00  0.00     0.134 A 
ATOM      7  C   UNL     1       9.846  -3.075   4.093  1.00  0.00     0.093 A 
ATOM      8  C   UNL     1       9.298  -1.942   4.700  1.00  0.00     0.123 A 
ATOM      9  C   UNL     1       7.930  -1.899   4.988  1.00  0.00     0.094 A 
ATOM     10  C   UNL     1       7.109  -2.986   4.673  1.00  0.00     0.146 A 
ATOM     11  O   UNL     1       5.814  -2.921   4.963  1.00  0.00    -0.452 OA
ENDROOT
BRANCH   1  12
ATOM     12  C   UNL     1       3.540  -3.715   5.088  1.00  0.00     0.025 A 
ATOM     13  C   UNL     1       3.094  -4.176   6.337  1.00  0.00     0.016 A 
ATOM     14  C   UNL     1       1.756  -4.025   6.711  1.00  0.00     0.051 A 
ATOM     15  C   UNL     1       0.841  -3.426   5.835  1.00  0.00     0.157 A 
ATOM     16  C   UNL     1       2.614  -3.133   4.204  1.00  0.00     0.062 A 
ATOM     17  C   UNL     1       1.272  -2.983   4.574  1.00  0.00     0.158 A 
BRANCH  15  18
ATOM     18  O   UNL     1      -0.493  -3.276   6.210  1.00  0.00    -0.504 OA
ATOM     19  H   UNL     1      -1.083  -2.564   5.798  1.00  0.00     0.293 HD
ENDBRANCH  15  18
BRANCH  17  20
ATOM     20  O   UNL     1       0.384  -2.395   3.674  1.00  0.00    -0.504 OA
ATOM     21  H   UNL     1      -0.549  -2.109   3.947  1.00  0.00     0.293 HD
ENDBRANCH  17  20
ENDBRANCH   1  12
BRANCH   2  22
ATOM     22  O   UNL     1       4.509  -6.093   3.735  1.00  0.00    -0.502 OA
ATOM     23  H   UNL     1       4.184  -6.774   4.410  1.00  0.00     0.293 HD
ENDBRANCH   2  22
BRANCH   6  24
ATOM     24  O   UNL     1       9.615  -5.291   3.161  1.00  0.00    -0.507 OA
ATOM     25  H   UNL     1       9.606  -5.416   2.155  1.00  0.00     0.293 HD
ENDBRANCH   6  24
BRANCH   8  26
ATOM     26  O   UNL     1      10.124  -0.864   5.011  1.00  0.00    -0.508 OA
ATOM     27  H   UNL     1      11.134  -0.953   5.010  1.00  0.00     0.293 HD
ENDBRANCH   8  26
TORSDOF 6
ENDMDL
MODEL 2
REMARK VINA RESULT:    -6.796     11.155     12.275
REMARK INTER + INTRA:          -8.512
REMARK INTER:                  -8.193
REMARK INTRA:                  -0.319
REMARK UNBOUND:                -0.325
REMARK SMILES O=c1c(O)c(-c2ccc(O)c(O)c2)oc2cc(O)cc(O)c12
REMARK SMILES IDX 5 1 3 2 2 3 1 4 22 5 20 6 19 7 17 8 16 9 15 10 14 11 6 12
REMARK SMILES IDX 7 13 8 14 9 15 13 16 11 17 10 18 12 20 4 22 21 24 18 26
REMARK H PARENT 10 19 12 21 4 23 21 25 18 27
REMARK Flexibility Score: inf
ROOT
ATOM      1  C   UNL     1       4.986   3.808  -4.831  1.00  0.00     0.180 A 
ATOM      2  C   UNL     1       5.430   4.988  -4.203  1.00  0.00     0.208 A 
ATOM      3  C   UNL     1       6.782   5.097  -3.845  1.00  0.00     0.238 A 
ATOM      4  O   UNL     1       7.195   6.153  -3.292  1.00  0.00    -0.285 OA
ATOM      5  C   UNL     1       7.661   4.023  -4.101  1.00  0.00     0.111 A 
ATOM      6  C   UNL     1       9.036   4.052  -3.767  1.00  0.00     0.134 A 
ATOM      7  C   UNL     1       9.843   2.938  -4.045  1.00  0.00     0.093 A 
ATOM      8  C   UNL     1       9.302   1.800  -4.648  1.00  0.00     0.123 A 
ATOM      9  C   UNL     1       7.943   1.765  -4.979  1.00  0.00     0.094 A 
ATOM     10  C   UNL     1       7.124   2.866  -4.712  1.00  0.00     0.146 A 
ATOM     11  O   UNL     1       5.838   2.810  -5.042  1.00  0.00    -0.452 OA
ENDROOT
BRANCH   1  12
ATOM     12  C   UNL     1       3.579   3.625  -5.256  1.00  0.00     0.025 A 
ATOM     13  C   UNL     1       3.162   4.125  -6.499  1.00  0.00     0.016 A 
ATOM     14  C   UNL     1       1.835   3.983  -6.912  1.00  0.00     0.051 A 
ATOM     15  C   UNL     1       0.901   3.351  -6.080  1.00  0.00     0.157 A 
ATOM     16  C   UNL     1       2.634   3.010  -4.415  1.00  0.00     0.062 A 
ATOM     17  C   UNL     1       1.302   2.868  -4.824  1.00  0.00     0.158 A 
BRANCH  15  18
ATOM     18  O   UNL     1      -0.422   3.209  -6.494  1.00  0.00    -0.504 OA
ATOM     19  H   UNL     1      -0.663   2.696  -7.334  1.00  0.00     0.293 HD
ENDBRANCH  15  18
BRANCH  17  20
ATOM     20  O   UNL     1       0.394   2.247  -3.966  1.00  0.00    -0.504 OA
ATOM     21  H   UNL     1      -0.226   2.777  -3.365  1.00  0.00     0.293 HD
ENDBRANCH  17  20
ENDBRANCH   1  12
BRANCH   2  22
ATOM     22  O   UNL     1       4.530   6.017  -3.917  1.00  0.00    -0.502 OA
ATOM     23  H   UNL     1       4.336   6.321  -2.970  1.00  0.00     0.293 HD
ENDBRANCH   2  22
BRANCH   6  24
ATOM     24  O   UNL     1       9.606   5.174  -3.163  1.00  0.00    -0.507 OA
ATOM     25  H   UNL     1       9.906   5.164  -2.195  1.00  0.00     0.293 HD
ENDBRANCH   6  24
BRANCH   8  26
ATOM     26  O   UNL     1      10.125   0.707  -4.912  1.00  0.00    -0.508 OA
ATOM     27  H   UNL     1       9.863  -0.003  -5.587  1.00  0.00     0.293 HD
ENDBRANCH   8  26
TORSDOF 6
ENDMDL
MODEL 3
REMARK VINA RESULT:    -6.740     12.090     12.846
REMARK INTER + INTRA:          -8.445
REMARK INTER:                  -8.129
REMARK INTRA:                  -0.315
REMARK UNBOUND:                -0.325
REMARK SMILES O=c1c(O)c(-c2ccc(O)c(O)c2)oc2cc(O)cc(O)c12
REMARK SMILES IDX 5 1 3 2 2 3 1 4 22 5 20 6 19 7 17 8 16 9 15 10 14 11 6 12
REMARK SMILES IDX 7 13 8 14 9 15 13 16 11 17 10 18 12 20 4 22 21 24 18 26
REMARK H PARENT 10 19 12 21 4 23 21 25 18 27
REMARK Flexibility Score: inf
ROOT
ATOM      1  C   UNL     1       4.080   2.540  -6.669  1.00  0.00     0.180 A 
ATOM      2  C   UNL     1       5.053   1.745  -7.304  1.00  0.00     0.208 A 
ATOM      3  C   UNL     1       6.293   1.560  -6.676  1.00  0.00     0.238 A 
ATOM      4  O   UNL     1       7.169   0.841  -7.229  1.00  0.00    -0.285 OA
ATOM      5  C   UNL     1       6.548   2.186  -5.438  1.00  0.00     0.111 A 
ATOM      6  C   UNL     1       7.773   2.055  -4.742  1.00  0.00     0.134 A 
ATOM      7  C   UNL     1       7.953   2.718  -3.518  1.00  0.00     0.093 A 
ATOM      8  C   UNL     1       6.934   3.509  -2.980  1.00  0.00     0.123 A 
ATOM      9  C   UNL     1       5.722   3.644  -3.664  1.00  0.00     0.094 A 
ATOM     10  C   UNL     1       5.523   2.989  -4.883  1.00  0.00     0.146 A 
ATOM     11  O   UNL     1       4.360   3.128  -5.510  1.00  0.00    -0.452 OA
ENDROOT
BRANCH   1  12
ATOM     12  C   UNL     1       2.741   2.767  -7.260  1.00  0.00     0.025 A 
ATOM     13  C   UNL     1       2.563   3.802  -8.192  1.00  0.00     0.016 A 
ATOM     14  C   UNL     1       1.305   4.047  -8.747  1.00  0.00     0.051 A 
ATOM     15  C   UNL     1       0.201   3.272  -8.365  1.00  0.00     0.157 A 
ATOM     16  C   UNL     1       1.626   2.005  -6.864  1.00  0.00     0.062 A 
ATOM     17  C   UNL     1       0.363   2.250  -7.417  1.00  0.00     0.158 A 
BRANCH  15  18
ATOM     18  O   UNL     1      -1.053   3.518  -8.922  1.00  0.00    -0.504 OA
ATOM     19  H   UNL     1      -1.321   3.131  -9.818  1.00  0.00     0.293 HD
ENDBRANCH  15  18
BRANCH  17  20
ATOM     20  O   UNL     1      -0.717   1.470  -7.006  1.00  0.00    -0.504 OA
ATOM     21  H   UNL     1      -1.424   1.822  -6.370  1.00  0.00     0.293 HD
ENDBRANCH  17  20
ENDBRANCH   1  12
BRANCH   2  22
ATOM     22  O   UNL     1       4.793   1.175  -8.553  1.00  0.00    -0.502 OA
ATOM     23  H   UNL     1       5.501   0.680  -9.081  1.00  0.00     0.293 HD
ENDBRANCH   2  22
BRANCH   6  24
ATOM     24  O   UNL     1       8.810   1.273  -5.252  1.00  0.00    -0.507 OA
ATOM     25  H   UNL     1       9.782   1.531  -5.130  1.00  0.00     0.293 HD
ENDBRANCH   6  24
BRANCH   8  26
ATOM     26  O   UNL     1       7.140   4.159  -1.765  1.00  0.00    -0.508 OA
ATOM     27  H   UNL     1       7.795   3.802  -1.078  1.00  0.00     0.293 HD
ENDBRANCH   8  26
TORSDOF 6
ENDMDL
MODEL 4
REMARK VINA RESULT:    -6.721     11.516     12.849
REMARK INTER + INTRA:          -8.422
REMARK INTER:                  -8.097
REMARK INTRA:                  -0.325
REMARK UNBOUND:                -0.325
REMARK SMILES O=c1c(O)c(-c2ccc(O)c(O)c2)oc2cc(O)cc(O)c12
REMARK SMILES IDX 5 1 3 2 2 3 1 4 22 5 20 6 19 7 17 8 16 9 15 10 14 11 6 12
REMARK SMILES IDX 7 13 8 14 9 15 13 16 11 17 10 18 12 20 4 22 21 24 18 26
REMARK H PARENT 10 19 12 21 4 23 21 25 18 27
REMARK Flexibility Score: inf
ROOT
ATOM      1  C   UNL     1       2.932   4.309  -4.782  1.00  0.00     0.180 A 
ATOM      2  C   UNL     1       2.704   5.361  -3.874  1.00  0.00     0.208 A 
ATOM      3  C   UNL     1       3.729   5.725  -2.988  1.00  0.00     0.238 A 
ATOM      4  O   UNL     1       3.541   6.674  -2.178  1.00  0.00    -0.285 OA
ATOM      5  C   UNL     1       4.952   5.023  -3.009  1.00  0.00     0.111 A 
ATOM      6  C   UNL     1       6.033   5.325  -2.147  1.00  0.00     0.134 A 
ATOM      7  C   UNL     1       7.215   4.573  -2.223  1.00  0.00     0.093 A 
ATOM      8  C   UNL     1       7.336   3.527  -3.141  1.00  0.00     0.123 A 
ATOM      9  C   UNL     1       6.271   3.224  -3.996  1.00  0.00     0.094 A 
ATOM     10  C   UNL     1       5.086   3.963  -3.936  1.00  0.00     0.146 A 
ATOM     11  O   UNL     1       4.092   3.658  -4.763  1.00  0.00    -0.452 OA
ENDROOT
BRANCH   1  12
ATOM     12  C   UNL     1       1.907   3.878  -5.761  1.00  0.00     0.025 A 
ATOM     13  C   UNL     1       1.835   4.515  -7.010  1.00  0.00     0.016 A 
ATOM     14  C   UNL     1       0.863   4.139  -7.941  1.00  0.00     0.051 A 
ATOM     15  C   UNL     1      -0.061   3.133  -7.630  1.00  0.00     0.157 A 
ATOM     16  C   UNL     1       0.964   2.883  -5.445  1.00  0.00     0.062 A 
ATOM     17  C   UNL     1      -0.012   2.507  -6.375  1.00  0.00     0.158 A 
BRANCH  15  18
ATOM     18  O   UNL     1      -1.029   2.760  -8.561  1.00  0.00    -0.504 OA
ATOM     19  H   UNL     1      -1.268   1.788  -8.717  1.00  0.00     0.293 HD
ENDBRANCH  15  18
BRANCH  17  20
ATOM     20  O   UNL     1      -0.927   1.512  -6.029  1.00  0.00    -0.504 OA
ATOM     21  H   UNL     1      -1.635   1.656  -5.318  1.00  0.00     0.293 HD
ENDBRANCH  17  20
ENDBRANCH   1  12
BRANCH   2  22
ATOM     22  O   UNL     1       1.467   6.009  -3.840  1.00  0.00    -0.502 OA
ATOM     23  H   UNL     1       0.801   5.948  -4.601  1.00  0.00     0.293 HD
ENDBRANCH   2  22
BRANCH   6  24
ATOM     24  O   UNL     1       5.944   6.363  -1.218  1.00  0.00    -0.507 OA
ATOM     25  H   UNL     1       5.073   6.584  -0.747  1.00  0.00     0.293 HD
ENDBRANCH   6  24
BRANCH   8  26
ATOM     26  O   UNL     1       8.520   2.794  -3.195  1.00  0.00    -0.508 OA
ATOM     27  H   UNL     1       8.568   1.900  -3.671  1.00  0.00     0.293 HD
ENDBRANCH   8  26
TORSDOF 6
ENDMDL
MODEL 5
REMARK VINA RESULT:    -6.684      1.936      2.814
REMARK INTER + INTRA:          -8.376
REMARK INTER:                  -8.056
REMARK INTRA:                  -0.320
REMARK UNBOUND:                -0.325
REMARK SMILES O=c1c(O)c(-c2ccc(O)c(O)c2)oc2cc(O)cc(O)c12
REMARK SMILES IDX 5 1 3 2 2 3 1 4 22 5 20 6 19 7 17 8 16 9 15 10 14 11 6 12
REMARK SMILES IDX 7 13 8 14 9 15 13 16 11 17 10 18 12 20 4 22 21 24 18 26
REMARK H PARENT 10 19 12 21 4 23 21 25 18 27
REMARK Flexibility Score: inf
ROOT
ATOM      1  C   UNL     1       2.920  -4.633   4.705  1.00  0.00     0.180 A 
ATOM      2  C   UNL     1       2.706  -5.665   3.770  1.00  0.00     0.208 A 
ATOM      3  C   UNL     1       3.745  -6.010   2.893  1.00  0.00     0.238 A 
ATOM      4  O   UNL     1       3.569  -6.941   2.059  1.00  0.00    -0.285 OA
ATOM      5  C   UNL     1       4.968  -5.310   2.948  1.00  0.00     0.111 A 
ATOM      6  C   UNL     1       6.061  -5.593   2.096  1.00  0.00     0.134 A 
ATOM      7  C   UNL     1       7.242  -4.843   2.207  1.00  0.00     0.093 A 
ATOM      8  C   UNL     1       7.349  -3.818   3.151  1.00  0.00     0.123 A 
ATOM      9  C   UNL     1       6.271  -3.533   3.995  1.00  0.00     0.094 A 
ATOM     10  C   UNL     1       5.087  -4.270   3.900  1.00  0.00     0.146 A 
ATOM     11  O   UNL     1       4.080  -3.983   4.718  1.00  0.00    -0.452 OA
ENDROOT
BRANCH   1  12
ATOM     12  C   UNL     1       1.880  -4.223   5.676  1.00  0.00     0.025 A 
ATOM     13  C   UNL     1       1.753  -4.922   6.887  1.00  0.00     0.016 A 
ATOM     14  C   UNL     1       0.766  -4.567   7.810  1.00  0.00     0.051 A 
ATOM     15  C   UNL     1      -0.120  -3.518   7.528  1.00  0.00     0.157 A 
ATOM     16  C   UNL     1       0.976  -3.184   5.388  1.00  0.00     0.062 A 
ATOM     17  C   UNL     1      -0.016  -2.828   6.310  1.00  0.00     0.158 A 
BRANCH  15  18
ATOM     18  O   UNL     1      -1.103  -3.165   8.451  1.00  0.00    -0.504 OA
ATOM     19  H   UNL     1      -0.926  -2.485   9.181  1.00  0.00     0.293 HD
ENDBRANCH  15  18
BRANCH  17  20
ATOM     20  O   UNL     1      -0.890  -1.788   5.993  1.00  0.00    -0.504 OA
ATOM     21  H   UNL     1      -1.819  -1.960   5.627  1.00  0.00     0.293 HD
ENDBRANCH  17  20
ENDBRANCH   1  12
BRANCH   2  22
ATOM     22  O   UNL     1       1.469  -6.311   3.703  1.00  0.00    -0.502 OA
ATOM     23  H   UNL     1       1.083  -6.826   4.485  1.00  0.00     0.293 HD
ENDBRANCH   2  22
BRANCH   6  24
ATOM     24  O   UNL     1       5.986  -6.610   1.144  1.00  0.00    -0.507 OA
ATOM     25  H   UNL     1       6.723  -7.299   1.040  1.00  0.00     0.293 HD
ENDBRANCH   6  24
BRANCH   8  26
ATOM     26  O   UNL     1       8.532  -3.088   3.239  1.00  0.00    -0.508 OA
ATOM     27  H   UNL     1       9.082  -3.071   4.090  1.00  0.00     0.293 HD
ENDBRANCH   8  26
TORSDOF 6
ENDMDL
MODEL 6
REMARK VINA RESULT:    -6.674      2.050      3.610
REMARK INTER + INTRA:          -8.365
REMARK INTER:                  -8.044
REMARK INTRA:                  -0.321
REMARK UNBOUND:                -0.325
REMARK SMILES O=c1c(O)c(-c2ccc(O)c(O)c2)oc2cc(O)cc(O)c12
REMARK SMILES IDX 5 1 3 2 2 3 1 4 22 5 20 6 19 7 17 8 16 9 15 10 14 11 6 12
REMARK SMILES IDX 7 13 8 14 9 15 13 16 11 17 10 18 12 20 4 22 21 24 18 26
REMARK H PARENT 10 19 12 21 4 23 21 25 18 27
REMARK Flexibility Score: inf
ROOT
ATOM      1  C   UNL     1       4.050  -2.876   6.656  1.00  0.00     0.180 A 
ATOM      2  C   UNL     1       5.013  -2.072   7.296  1.00  0.00     0.208 A 
ATOM      3  C   UNL     1       6.252  -1.871   6.670  1.00  0.00     0.238 A 
ATOM      4  O   UNL     1       7.119  -1.144   7.227  1.00  0.00    -0.285 OA
ATOM      5  C   UNL     1       6.516  -2.490   5.430  1.00  0.00     0.111 A 
ATOM      6  C   UNL     1       7.741  -2.342   4.736  1.00  0.00     0.134 A 
ATOM      7  C   UNL     1       7.930  -2.999   3.510  1.00  0.00     0.093 A 
ATOM      8  C   UNL     1       6.921  -3.799   2.968  1.00  0.00     0.123 A 
ATOM      9  C   UNL     1       5.709  -3.949   3.650  1.00  0.00     0.094 A 
ATOM     10  C   UNL     1       5.501  -3.301   4.871  1.00  0.00     0.146 A 
ATOM     11  O   UNL     1       4.339  -3.456   5.495  1.00  0.00    -0.452 OA
ENDROOT
BRANCH   1  12
ATOM     12  C   UNL     1       2.713  -3.120   7.244  1.00  0.00     0.025 A 
ATOM     13  C   UNL     1       2.538  -4.181   8.146  1.00  0.00     0.016 A 
ATOM     14  C   UNL     1       1.282  -4.442   8.698  1.00  0.00     0.051 A 
ATOM     15  C   UNL     1       0.177  -3.657   8.342  1.00  0.00     0.157 A 
ATOM     16  C   UNL     1       1.598  -2.346   6.874  1.00  0.00     0.062 A 
ATOM     17  C   UNL     1       0.336  -2.608   7.423  1.00  0.00     0.158 A 
BRANCH  15  18
ATOM     18  O   UNL     1      -1.076  -3.919   8.895  1.00  0.00    -0.504 OA
ATOM     19  H   UNL     1      -1.177  -4.252   9.846  1.00  0.00     0.293 HD
ENDBRANCH  15  18
BRANCH  17  20
ATOM     20  O   UNL     1      -0.746  -1.816   7.038  1.00  0.00    -0.504 OA
ATOM     21  H   UNL     1      -0.638  -0.836   6.801  1.00  0.00     0.293 HD
ENDBRANCH  17  20
ENDBRANCH   1  12
BRANCH   2  22
ATOM     22  O   UNL     1       4.746  -1.510   8.547  1.00  0.00    -0.502 OA
ATOM     23  H   UNL     1       4.518  -2.073   9.357  1.00  0.00     0.293 HD
ENDBRANCH   2  22
BRANCH   6  24
ATOM     24  O   UNL     1       8.768  -1.550   5.251  1.00  0.00    -0.507 OA
ATOM     25  H   UNL     1       9.737  -1.699   4.992  1.00  0.00     0.293 HD
ENDBRANCH   6  24
BRANCH   8  26
ATOM     26  O   UNL     1       7.135  -4.441   1.751  1.00  0.00    -0.508 OA
ATOM     27  H   UNL     1       6.431  -4.441   1.020  1.00  0.00     0.293 HD
ENDBRANCH   8  26
TORSDOF 6
ENDMDL
MODEL 7
REMARK VINA RESULT:    -6.633     11.373     13.634
REMARK INTER + INTRA:          -8.315
REMARK INTER:                  -8.605
REMARK INTRA:                   0.289
REMARK UNBOUND:                -0.325
REMARK SMILES O=c1c(O)c(-c2ccc(O)c(O)c2)oc2cc(O)cc(O)c12
REMARK SMILES IDX 5 1 3 2 2 3 1 4 22 5 20 6 19 7 17 8 16 9 15 10 14 11 6 12
REMARK SMILES IDX 7 13 8 14 9 15 13 16 11 17 10 18 12 20 4 22 21 24 18 26
REMARK H PARENT 10 19 12 21 4 23 21 25 18 27
REMARK Flexibility Score: inf
ROOT
ATOM      1  C   UNL     1       5.121   2.342  -5.604  1.00  0.00     0.180 A 
ATOM      2  C   UNL     1       5.065   1.931  -6.950  1.00  0.00     0.208 A 
ATOM      3  C   UNL     1       3.818   1.885  -7.593  1.00  0.00     0.238 A 
ATOM      4  O   UNL     1       3.756   1.529  -8.801  1.00  0.00    -0.285 OA
ATOM      5  C   UNL     1       2.652   2.228  -6.878  1.00  0.00     0.111 A 
ATOM      6  C   UNL     1       1.358   2.203  -7.451  1.00  0.00     0.134 A 
ATOM      7  C   UNL     1       0.245   2.550  -6.670  1.00  0.00     0.093 A 
ATOM      8  C   UNL     1       0.400   2.919  -5.332  1.00  0.00     0.123 A 
ATOM      9  C   UNL     1       1.677   2.945  -4.760  1.00  0.00     0.094 A 
ATOM     10  C   UNL     1       2.798   2.605  -5.523  1.00  0.00     0.146 A 
ATOM     11  O   UNL     1       4.000   2.643  -4.957  1.00  0.00    -0.452 OA
ENDROOT
BRANCH   1  12
ATOM     12  C   UNL     1       6.400   2.435  -4.863  1.00  0.00     0.025 A 
ATOM     13  C   UNL     1       6.546   3.400  -3.855  1.00  0.00     0.016 A 
ATOM     14  C   UNL     1       7.750   3.520  -3.157  1.00  0.00     0.051 A 
ATOM     15  C   UNL     1       8.832   2.686  -3.468  1.00  0.00     0.157 A 
ATOM     16  C   UNL     1       7.496   1.614  -5.187  1.00  0.00     0.062 A 
ATOM     17  C   UNL     1       8.705   1.733  -4.491  1.00  0.00     0.158 A 
BRANCH  15  18
ATOM     18  O   UNL     1      10.032   2.807  -2.769  1.00  0.00    -0.504 OA
ATOM     19  H   UNL     1      10.924   2.604  -3.206  1.00  0.00     0.293 HD
ENDBRANCH  15  18
BRANCH  17  20
ATOM     20  O   UNL     1       9.768   0.897  -4.834  1.00  0.00    -0.504 OA
ATOM     21  H   UNL     1       9.661  -0.108  -4.905  1.00  0.00     0.293 HD
ENDBRANCH  17  20
ENDBRANCH   1  12
BRANCH   2  22
ATOM     22  O   UNL     1       6.229   1.549  -7.622  1.00  0.00    -0.502 OA
ATOM     23  H   UNL     1       6.339   0.633  -8.040  1.00  0.00     0.293 HD
ENDBRANCH   2  22
BRANCH   6  24
ATOM     24  O   UNL     1       1.169   1.838  -8.785  1.00  0.00    -0.507 OA
ATOM     25  H   UNL     1       1.930   1.849  -9.454  1.00  0.00     0.293 HD
ENDBRANCH   6  24
BRANCH   8  26
ATOM     26  O   UNL     1      -0.722   3.257  -4.579  1.00  0.00    -0.508 OA
ATOM     27  H   UNL     1      -0.724   4.063  -3.964  1.00  0.00     0.293 HD
ENDBRANCH   8  26
TORSDOF 6
ENDMDL
MODEL 8
REMARK VINA RESULT:    -6.628      1.917      7.347
REMARK INTER + INTRA:          -8.309
REMARK INTER:                  -8.583
REMARK INTRA:                   0.274
REMARK UNBOUND:                -0.325
REMARK SMILES O=c1c(O)c(-c2ccc(O)c(O)c2)oc2cc(O)cc(O)c12
REMARK SMILES IDX 5 1 3 2 2 3 1 4 22 5 20 6 19 7 17 8 16 9 15 10 14 11 6 12
REMARK SMILES IDX 7 13 8 14 9 15 13 16 11 17 10 18 12 20 4 22 21 24 18 26
REMARK H PARENT 10 19 12 21 4 23 21 25 18 27
REMARK Flexibility Score: inf
ROOT
ATOM      1  C   UNL     1       5.056  -2.669   5.629  1.00  0.00     0.180 A 
ATOM      2  C   UNL     1       4.967  -2.259   6.973  1.00  0.00     0.208 A 
ATOM      3  C   UNL     1       3.705  -2.215   7.585  1.00  0.00     0.238 A 
ATOM      4  O   UNL     1       3.613  -1.860   8.793  1.00  0.00    -0.285 OA
ATOM      5  C   UNL     1       2.557  -2.559   6.843  1.00  0.00     0.111 A 
ATOM      6  C   UNL     1       1.249  -2.535   7.385  1.00  0.00     0.134 A 
ATOM      7  C   UNL     1       0.155  -2.883   6.577  1.00  0.00     0.093 A 
ATOM      8  C   UNL     1       0.344  -3.251   5.242  1.00  0.00     0.123 A 
ATOM      9  C   UNL     1       1.633  -3.275   4.702  1.00  0.00     0.094 A 
ATOM     10  C   UNL     1       2.736  -2.934   5.491  1.00  0.00     0.146 A 
ATOM     11  O   UNL     1       3.951  -2.971   4.955  1.00  0.00    -0.452 OA
ENDROOT
BRANCH   1  12
ATOM     12  C   UNL     1       6.353  -2.760   4.919  1.00  0.00     0.025 A 
ATOM     13  C   UNL     1       6.535  -3.747   3.937  1.00  0.00     0.016 A 
ATOM     14  C   UNL     1       7.756  -3.865   3.269  1.00  0.00     0.051 A 
ATOM     15  C   UNL     1       8.819  -3.008   3.584  1.00  0.00     0.157 A 
ATOM     16  C   UNL     1       7.429  -1.915   5.246  1.00  0.00     0.062 A 
ATOM     17  C   UNL     1       8.655  -2.032   4.580  1.00  0.00     0.158 A 
BRANCH  15  18
ATOM     18  O   UNL     1      10.036  -3.127   2.915  1.00  0.00    -0.504 OA
ATOM     19  H   UNL     1      10.868  -3.466   3.383  1.00  0.00     0.293 HD
ENDBRANCH  15  18
BRANCH  17  20
ATOM     20  O   UNL     1       9.697  -1.173   4.927  1.00  0.00    -0.504 OA
ATOM     21  H   UNL     1      10.103  -1.167   5.856  1.00  0.00     0.293 HD
ENDBRANCH  17  20
ENDBRANCH   1  12
BRANCH   2  22
ATOM     22  O   UNL     1       6.114  -1.877   7.673  1.00  0.00    -0.502 OA
ATOM     23  H   UNL     1       6.576  -2.490   8.334  1.00  0.00     0.293 HD
ENDBRANCH   2  22
BRANCH   6  24
ATOM     24  O   UNL     1       1.028  -2.172   8.714  1.00  0.00    -0.507 OA
ATOM     25  H   UNL     1       0.985  -1.201   9.001  1.00  0.00     0.293 HD
ENDBRANCH   6  24
BRANCH   8  26
ATOM     26  O   UNL     1      -0.760  -3.589   4.462  1.00  0.00    -0.508 OA
ATOM     27  H   UNL     1      -1.221  -4.487   4.558  1.00  0.00     0.293 HD
ENDBRANCH   8  26
TORSDOF 6
ENDMDL
MODEL 9
REMARK VINA RESULT:    -6.232     11.920     12.802
REMARK INTER + INTRA:          -7.832
REMARK INTER:                  -7.529
REMARK INTRA:                  -0.303
REMARK UNBOUND:                -0.325
REMARK SMILES O=c1c(O)c(-c2ccc(O)c(O)c2)oc2cc(O)cc(O)c12
REMARK SMILES IDX 5 1 3 2 2 3 1 4 22 5 20 6 19 7 17 8 16 9 15 10 14 11 6 12
REMARK SMILES IDX 7 13 8 14 9 15 13 16 11 17 10 18 12 20 4 22 21 24 18 26
REMARK H PARENT 10 19 12 21 4 23 21 25 18 27
REMARK Flexibility Score: inf
ROOT
ATOM      1  C   UNL     1       5.675   2.627  -6.157  1.00  0.00     0.180 A 
ATOM      2  C   UNL     1       6.627   1.656  -5.791  1.00  0.00     0.208 A 
ATOM      3  C   UNL     1       7.627   2.001  -4.869  1.00  0.00     0.238 A 
ATOM      4  O   UNL     1       8.478   1.137  -4.524  1.00  0.00    -0.285 OA
ATOM      5  C   UNL     1       7.671   3.309  -4.345  1.00  0.00     0.111 A 
ATOM      6  C   UNL     1       8.649   3.738  -3.416  1.00  0.00     0.134 A 
ATOM      7  C   UNL     1       8.631   5.061  -2.948  1.00  0.00     0.093 A 
ATOM      8  C   UNL     1       7.659   5.961  -3.393  1.00  0.00     0.123 A 
ATOM      9  C   UNL     1       6.691   5.543  -4.312  1.00  0.00     0.094 A 
ATOM     10  C   UNL     1       6.691   4.228  -4.787  1.00  0.00     0.146 A 
ATOM     11  O   UNL     1       5.757   3.855  -5.656  1.00  0.00    -0.452 OA
ENDROOT
BRANCH   1  12
ATOM     12  C   UNL     1       4.579   2.334  -7.109  1.00  0.00     0.025 A 
ATOM     13  C   UNL     1       4.827   2.402  -8.489  1.00  0.00     0.016 A 
ATOM     14  C   UNL     1       3.803   2.150  -9.406  1.00  0.00     0.051 A 
ATOM     15  C   UNL     1       2.512   1.843  -8.956  1.00  0.00     0.157 A 
ATOM     16  C   UNL     1       3.277   2.045  -6.662  1.00  0.00     0.062 A 
ATOM     17  C   UNL     1       2.248   1.794  -7.578  1.00  0.00     0.158 A 
BRANCH  15  18
ATOM     18  O   UNL     1       1.493   1.590  -9.873  1.00  0.00    -0.504 OA
ATOM     19  H   UNL     1       0.531   1.841  -9.679  1.00  0.00     0.293 HD
ENDBRANCH  15  18
BRANCH  17  20
ATOM     20  O   UNL     1       0.971   1.504  -7.098  1.00  0.00    -0.504 OA
ATOM     21  H   UNL     1       0.669   1.785  -6.172  1.00  0.00     0.293 HD
ENDBRANCH  17  20
ENDBRANCH   1  12
BRANCH   2  22
ATOM     22  O   UNL     1       6.591   0.380  -6.361  1.00  0.00    -0.502 OA
ATOM     23  H   UNL     1       5.825  -0.263  -6.202  1.00  0.00     0.293 HD
ENDBRANCH   2  22
BRANCH   6  24
ATOM     24  O   UNL     1       9.633   2.864  -2.953  1.00  0.00    -0.507 OA
ATOM     25  H   UNL     1       9.934   2.064  -3.497  1.00  0.00     0.293 HD
ENDBRANCH   6  24
BRANCH   8  26
ATOM     26  O   UNL     1       7.666   7.269  -2.914  1.00  0.00    -0.508 OA
ATOM     27  H   UNL     1       6.946   7.607  -2.285  1.00  0.00     0.293 HD
ENDBRANCH   8  26
TORSDOF 6
ENDMDL
