MODEL 1
REMARK VINA RESULT:    -3.575      0.000      0.000
REMARK INTER + INTRA:          -4.239
REMARK INTER:                  -4.098
REMARK INTRA:                  -0.141
REMARK UNBOUND:                -0.141
REMARK SMILES O=C([O-])C=Cc1ccc(O)cc1
REMARK SMILES IDX 6 1 7 2 12 3 8 4 11 5 9 6 5 7 4 8 2 9 1 10 3 11 10 12
REMARK H PARENT 10 13
REMARK Flexibility Score: inf
ROOT
ATOM      1  C   UNL     1     -16.810 -22.353   6.033  1.00  0.00    -0.025 A 
ATOM      2  C   UNL     1     -16.967 -23.728   6.272  1.00  0.00     0.012 A 
ATOM      3  C   UNL     1     -17.312 -21.811   4.832  1.00  0.00     0.012 A 
ATOM      4  C   UNL     1     -17.633 -24.540   5.349  1.00  0.00     0.047 A 
ATOM      5  C   UNL     1     -17.976 -22.627   3.911  1.00  0.00     0.047 A 
ATOM      6  C   UNL     1     -18.141 -23.990   4.167  1.00  0.00     0.115 A 
ENDROOT
BRANCH   1   7
ATOM      7  C   UNL     1     -16.087 -21.535   7.038  1.00  0.00     0.010 C 
ATOM      8  C   UNL     1     -15.846 -20.223   6.898  1.00  0.00     0.025 C 
BRANCH   8   9
ATOM      9  C   UNL     1     -15.135 -19.440   7.922  1.00  0.00     0.064 C 
ATOM     10  O   UNL     1     -14.925 -19.910   9.072  1.00  0.00    -0.545 OA
ATOM     11  O   UNL     1     -14.687 -18.163   7.615  1.00  0.00    -0.545 OA
ENDBRANCH   8   9
ENDBRANCH   1   7
BRANCH   6  12
ATOM     12  O   UNL     1     -18.807 -24.790   3.239  1.00  0.00    -0.508 OA
ATOM     13  H   UNL     1     -19.798 -24.679   3.061  1.00  0.00     0.293 HD
ENDBRANCH   6  12
TORSDOF 3
ENDMDL
MODEL 2
REMARK VINA RESULT:    -3.574      2.273      3.300
REMARK INTER + INTRA:          -4.237
REMARK INTER:                  -4.105
REMARK INTRA:                  -0.133
REMARK UNBOUND:                -0.141
REMARK SMILES O=C([O-])C=Cc1ccc(O)cc1
REMARK SMILES IDX 6 1 7 2 12 3 8 4 11 5 9 6 5 7 4 8 2 9 1 10 3 11 10 12
REMARK H PARENT 10 13
REMARK Flexibility Score: inf
ROOT
ATOM      1  C   UNL     1     -17.338 -22.960   3.738  1.00  0.00    -0.025 A 
ATOM      2  C   UNL     1     -16.455 -22.494   2.749  1.00  0.00     0.012 A 
ATOM      3  C   UNL     1     -18.054 -24.151   3.500  1.00  0.00     0.012 A 
ATOM      4  C   UNL     1     -16.269 -23.211   1.564  1.00  0.00     0.047 A 
ATOM      5  C   UNL     1     -17.867 -24.865   2.312  1.00  0.00     0.047 A 
ATOM      6  C   UNL     1     -16.973 -24.400   1.344  1.00  0.00     0.115 A 
ENDROOT
BRANCH   1   7
ATOM      7  C   UNL     1     -17.508 -22.157   4.974  1.00  0.00     0.010 C 
ATOM      8  C   UNL     1     -16.922 -22.455   6.143  1.00  0.00     0.025 C 
BRANCH   8   9
ATOM      9  C   UNL     1     -17.104 -21.628   7.347  1.00  0.00     0.064 C 
ATOM     10  O   UNL     1     -16.471 -20.551   7.500  1.00  0.00    -0.545 OA
ATOM     11  O   UNL     1     -17.992 -22.043   8.330  1.00  0.00    -0.545 OA
ENDBRANCH   8   9
ENDBRANCH   1   7
BRANCH   6  12
ATOM     12  O   UNL     1     -16.797 -25.124   0.166  1.00  0.00    -0.508 OA
ATOM     13  H   UNL     1     -15.922 -25.591  -0.042  1.00  0.00     0.293 HD
ENDBRANCH   6  12
TORSDOF 3
ENDMDL
MODEL 3
REMARK VINA RESULT:    -3.561      2.252      3.086
REMARK INTER + INTRA:          -4.223
REMARK INTER:                  -4.088
REMARK INTRA:                  -0.135
REMARK UNBOUND:                -0.141
REMARK SMILES O=C([O-])C=Cc1ccc(O)cc1
REMARK SMILES IDX 6 1 7 2 12 3 8 4 11 5 9 6 5 7 4 8 2 9 1 10 3 11 10 12
REMARK H PARENT 10 13
REMARK Flexibility Score: inf
ROOT
ATOM      1  C   UNL     1     -17.335 -22.862   3.716  1.00  0.00    -0.025 A 
ATOM      2  C   UNL     1     -18.080 -24.038   3.524  1.00  0.00     0.012 A 
ATOM      3  C   UNL     1     -16.419 -22.468   2.719  1.00  0.00     0.012 A 
ATOM      4  C   UNL     1     -17.936 -24.790   2.354  1.00  0.00     0.047 A 
ATOM      5  C   UNL     1     -16.276 -23.225   1.552  1.00  0.00     0.047 A 
ATOM      6  C   UNL     1     -17.034 -24.383   1.364  1.00  0.00     0.115 A 
ENDROOT
BRANCH   1   7
ATOM      7  C   UNL     1     -17.517 -22.104   4.979  1.00  0.00     0.010 C 
ATOM      8  C   UNL     1     -16.889 -22.404   6.125  1.00  0.00     0.025 C 
BRANCH   8   9
ATOM      9  C   UNL     1     -17.085 -21.622   7.357  1.00  0.00     0.064 C 
ATOM     10  O   UNL     1     -16.429 -20.568   7.571  1.00  0.00    -0.545 OA
ATOM     11  O   UNL     1     -18.011 -22.052   8.298  1.00  0.00    -0.545 OA
ENDBRANCH   8   9
ENDBRANCH   1   7
BRANCH   6  12
ATOM     12  O   UNL     1     -16.880 -25.124   0.194  1.00  0.00    -0.508 OA
ATOM     13  H   UNL     1     -16.857 -26.137   0.209  1.00  0.00     0.293 HD
ENDBRANCH   6  12
TORSDOF 3
ENDMDL
MODEL 4
REMARK VINA RESULT:    -3.557      1.112      5.914
REMARK INTER + INTRA:          -4.217
REMARK INTER:                  -4.068
REMARK INTRA:                  -0.150
REMARK UNBOUND:                -0.141
REMARK SMILES O=C([O-])C=Cc1ccc(O)cc1
REMARK SMILES IDX 6 1 7 2 12 3 8 4 11 5 9 6 5 7 4 8 2 9 1 10 3 11 10 12
REMARK H PARENT 10 13
REMARK Flexibility Score: inf
ROOT
ATOM      1  C   UNL     1     -16.141 -21.901   6.899  1.00  0.00    -0.025 A 
ATOM      2  C   UNL     1     -16.456 -20.569   6.580  1.00  0.00     0.012 A 
ATOM      3  C   UNL     1     -15.187 -22.150   7.908  1.00  0.00     0.012 A 
ATOM      4  C   UNL     1     -15.856 -19.510   7.268  1.00  0.00     0.047 A 
ATOM      5  C   UNL     1     -14.588 -21.087   8.592  1.00  0.00     0.047 A 
ATOM      6  C   UNL     1     -14.922 -19.768   8.278  1.00  0.00     0.115 A 
ENDROOT
BRANCH   1   7
ATOM      7  C   UNL     1     -16.797 -22.989   6.133  1.00  0.00     0.010 C 
ATOM      8  C   UNL     1     -17.236 -22.854   4.873  1.00  0.00     0.025 C 
BRANCH   8   9
ATOM      9  C   UNL     1     -17.872 -23.961   4.139  1.00  0.00     0.064 C 
ATOM     10  O   UNL     1     -17.944 -23.953   2.882  1.00  0.00    -0.545 OA
ATOM     11  O   UNL     1     -18.400 -25.032   4.847  1.00  0.00    -0.545 OA
ENDBRANCH   8   9
ENDBRANCH   1   7
BRANCH   6  12
ATOM     12  O   UNL     1     -14.317 -18.721   8.971  1.00  0.00    -0.508 OA
ATOM     13  H   UNL     1     -13.726 -18.047   8.498  1.00  0.00     0.293 HD
ENDBRANCH   6  12
TORSDOF 3
ENDMDL
MODEL 5
REMARK VINA RESULT:    -3.553      2.562      5.909
REMARK INTER + INTRA:          -4.214
REMARK INTER:                  -4.078
REMARK INTRA:                  -0.136
REMARK UNBOUND:                -0.141
REMARK SMILES O=C([O-])C=Cc1ccc(O)cc1
REMARK SMILES IDX 6 1 7 2 12 3 8 4 11 5 9 6 5 7 4 8 2 9 1 10 3 11 10 12
REMARK H PARENT 10 13
REMARK Flexibility Score: inf
ROOT
ATOM      1  C   UNL     1     -15.783 -21.406   7.698  1.00  0.00    -0.025 A 
ATOM      2  C   UNL     1     -16.376 -20.259   7.144  1.00  0.00     0.012 A 
ATOM      3  C   UNL     1     -14.531 -21.284   8.334  1.00  0.00     0.012 A 
ATOM      4  C   UNL     1     -15.749 -19.014   7.245  1.00  0.00     0.047 A 
ATOM      5  C   UNL     1     -13.906 -20.036   8.431  1.00  0.00     0.047 A 
ATOM      6  C   UNL     1     -14.513 -18.900   7.891  1.00  0.00     0.115 A 
ENDROOT
BRANCH   1   7
ATOM      7  C   UNL     1     -16.484 -22.707   7.555  1.00  0.00     0.010 C 
ATOM      8  C   UNL     1     -17.448 -23.129   8.386  1.00  0.00     0.025 C 
BRANCH   8   9
ATOM      9  C   UNL     1     -18.130 -24.422   8.206  1.00  0.00     0.064 C 
ATOM     10  O   UNL     1     -18.831 -24.922   9.125  1.00  0.00    -0.545 OA
ATOM     11  O   UNL     1     -17.998 -25.100   7.002  1.00  0.00    -0.545 OA
ENDBRANCH   8   9
ENDBRANCH   1   7
BRANCH   6  12
ATOM     12  O   UNL     1     -13.878 -17.663   7.998  1.00  0.00    -0.508 OA
ATOM     13  H   UNL     1     -12.897 -17.552   7.768  1.00  0.00     0.293 HD
ENDBRANCH   6  12
TORSDOF 3
ENDMDL
MODEL 6
REMARK VINA RESULT:    -3.488      4.840      7.657
REMARK INTER + INTRA:          -4.139
REMARK INTER:                  -4.005
REMARK INTRA:                  -0.134
REMARK UNBOUND:                -0.141
REMARK SMILES O=C([O-])C=Cc1ccc(O)cc1
REMARK SMILES IDX 6 1 7 2 12 3 8 4 11 5 9 6 5 7 4 8 2 9 1 10 3 11 10 12
REMARK H PARENT 10 13
REMARK Flexibility Score: inf
ROOT
ATOM      1  C   UNL     1     -16.311 -24.106   0.943  1.00  0.00    -0.025 A 
ATOM      2  C   UNL     1     -16.137 -23.056   1.862  1.00  0.00     0.012 A 
ATOM      3  C   UNL     1     -17.300 -25.077   1.202  1.00  0.00     0.012 A 
ATOM      4  C   UNL     1     -16.948 -22.961   2.997  1.00  0.00     0.047 A 
ATOM      5  C   UNL     1     -18.107 -24.979   2.339  1.00  0.00     0.047 A 
ATOM      6  C   UNL     1     -17.937 -23.922   3.236  1.00  0.00     0.115 A 
ENDROOT
BRANCH   1   7
ATOM      7  C   UNL     1     -15.418 -24.168  -0.241  1.00  0.00     0.010 C 
ATOM      8  C   UNL     1     -15.859 -24.167  -1.507  1.00  0.00     0.025 C 
BRANCH   8   9
ATOM      9  C   UNL     1     -14.943 -24.218  -2.658  1.00  0.00     0.064 C 
ATOM     10  O   UNL     1     -13.895 -23.520  -2.689  1.00  0.00    -0.545 OA
ATOM     11  O   UNL     1     -15.238 -25.053  -3.728  1.00  0.00    -0.545 OA
ENDBRANCH   8   9
ENDBRANCH   1   7
BRANCH   6  12
ATOM     12  O   UNL     1     -18.752 -23.839   4.365  1.00  0.00    -0.508 OA
ATOM     13  H   UNL     1     -19.760 -23.916   4.295  1.00  0.00     0.293 HD
ENDBRANCH   6  12
TORSDOF 3
ENDMDL
MODEL 7
REMARK VINA RESULT:    -3.476      1.061      5.679
REMARK INTER + INTRA:          -4.125
REMARK INTER:                  -3.986
REMARK INTRA:                  -0.139
REMARK UNBOUND:                -0.141
REMARK SMILES O=C([O-])C=Cc1ccc(O)cc1
REMARK SMILES IDX 6 1 7 2 12 3 8 4 11 5 9 6 5 7 4 8 2 9 1 10 3 11 10 12
REMARK H PARENT 10 13
REMARK Flexibility Score: inf
ROOT
ATOM      1  C   UNL     1     -16.257 -21.863   6.617  1.00  0.00    -0.025 A 
ATOM      2  C   UNL     1     -15.487 -22.187   7.747  1.00  0.00     0.012 A 
ATOM      3  C   UNL     1     -16.499 -20.505   6.326  1.00  0.00     0.012 A 
ATOM      4  C   UNL     1     -14.948 -21.180   8.554  1.00  0.00     0.047 A 
ATOM      5  C   UNL     1     -15.959 -19.501   7.137  1.00  0.00     0.047 A 
ATOM      6  C   UNL     1     -15.181 -19.835   8.249  1.00  0.00     0.115 A 
ENDROOT
BRANCH   1   7
ATOM      7  C   UNL     1     -16.816 -22.968   5.798  1.00  0.00     0.010 C 
ATOM      8  C   UNL     1     -17.343 -22.797   4.576  1.00  0.00     0.025 C 
BRANCH   8   9
ATOM      9  C   UNL     1     -17.877 -23.919   3.788  1.00  0.00     0.064 C 
ATOM     10  O   UNL     1     -18.640 -24.776   4.307  1.00  0.00    -0.545 OA
ATOM     11  O   UNL     1     -17.536 -24.034   2.447  1.00  0.00    -0.545 OA
ENDBRANCH   8   9
ENDBRANCH   1   7
BRANCH   6  12
ATOM     12  O   UNL     1     -14.650 -18.822   9.045  1.00  0.00    -0.508 OA
ATOM     13  H   UNL     1     -14.934 -17.856   8.932  1.00  0.00     0.293 HD
ENDBRANCH   6  12
TORSDOF 3
ENDMDL
MODEL 8
REMARK VINA RESULT:    -3.372      3.669      6.313
REMARK INTER + INTRA:          -4.006
REMARK INTER:                  -3.861
REMARK INTRA:                  -0.145
REMARK UNBOUND:                -0.141
REMARK SMILES O=C([O-])C=Cc1ccc(O)cc1
REMARK SMILES IDX 6 1 7 2 12 3 8 4 11 5 9 6 5 7 4 8 2 9 1 10 3 11 10 12
REMARK H PARENT 10 13
REMARK Flexibility Score: inf
ROOT
ATOM      1  C   UNL     1     -16.549 -23.592   2.873  1.00  0.00    -0.025 A 
ATOM      2  C   UNL     1     -17.095 -22.338   3.192  1.00  0.00     0.012 A 
ATOM      3  C   UNL     1     -16.311 -24.514   3.914  1.00  0.00     0.012 A 
ATOM      4  C   UNL     1     -17.422 -22.018   4.514  1.00  0.00     0.047 A 
ATOM      5  C   UNL     1     -16.638 -24.189   5.234  1.00  0.00     0.047 A 
ATOM      6  C   UNL     1     -17.196 -22.945   5.537  1.00  0.00     0.115 A 
ENDROOT
BRANCH   1   7
ATOM      7  C   UNL     1     -16.209 -23.880   1.457  1.00  0.00     0.010 C 
ATOM      8  C   UNL     1     -15.664 -22.981   0.624  1.00  0.00     0.025 C 
BRANCH   8   9
ATOM      9  C   UNL     1     -15.329 -23.306  -0.772  1.00  0.00     0.064 C 
ATOM     10  O   UNL     1     -14.133 -23.343  -1.164  1.00  0.00    -0.545 OA
ATOM     11  O   UNL     1     -16.350 -23.578  -1.672  1.00  0.00    -0.545 OA
ENDBRANCH   8   9
ENDBRANCH   1   7
BRANCH   6  12
ATOM     12  O   UNL     1     -17.517 -22.638   6.858  1.00  0.00    -0.508 OA
ATOM     13  H   UNL     1     -16.811 -22.624   7.585  1.00  0.00     0.293 HD
ENDBRANCH   6  12
TORSDOF 3
ENDMDL
MODEL 9
REMARK VINA RESULT:    -3.341      3.747      6.216
REMARK INTER + INTRA:          -3.970
REMARK INTER:                  -3.835
REMARK INTRA:                  -0.135
REMARK UNBOUND:                -0.141
REMARK SMILES O=C([O-])C=Cc1ccc(O)cc1
REMARK SMILES IDX 6 1 7 2 12 3 8 4 11 5 9 6 5 7 4 8 2 9 1 10 3 11 10 12
REMARK H PARENT 10 13
REMARK Flexibility Score: inf
ROOT
ATOM      1  C   UNL     1     -16.533 -23.360   2.737  1.00  0.00    -0.025 A 
ATOM      2  C   UNL     1     -16.485 -24.350   3.734  1.00  0.00     0.012 A 
ATOM      3  C   UNL     1     -16.970 -22.066   3.086  1.00  0.00     0.012 A 
ATOM      4  C   UNL     1     -16.839 -24.050   5.053  1.00  0.00     0.047 A 
ATOM      5  C   UNL     1     -17.324 -21.771   4.406  1.00  0.00     0.047 A 
ATOM      6  C   UNL     1     -17.256 -22.758   5.392  1.00  0.00     0.115 A 
ENDROOT
BRANCH   1   7
ATOM      7  C   UNL     1     -16.158 -23.731   1.350  1.00  0.00     0.010 C 
ATOM      8  C   UNL     1     -15.569 -22.890   0.487  1.00  0.00     0.025 C 
BRANCH   8   9
ATOM      9  C   UNL     1     -15.200 -23.297  -0.879  1.00  0.00     0.064 C 
ATOM     10  O   UNL     1     -14.005 -23.553  -1.182  1.00  0.00    -0.545 OA
ATOM     11  O   UNL     1     -16.187 -23.401  -1.849  1.00  0.00    -0.545 OA
ENDBRANCH   8   9
ENDBRANCH   1   7
BRANCH   6  12
ATOM     12  O   UNL     1     -17.612 -22.446   6.704  1.00  0.00    -0.508 OA
ATOM     13  H   UNL     1     -17.555 -23.136   7.444  1.00  0.00     0.293 HD
ENDBRANCH   6  12
TORSDOF 3
ENDMDL
