MODEL 1
REMARK VINA RESULT:    -4.258      0.000      0.000
REMARK INTER + INTRA:          -8.192
REMARK INTER:                  -7.246
REMARK INTRA:                  -0.946
REMARK UNBOUND:                -0.946
REMARK SMILES CCCCCCCCCCCCCC(=O)[O-]
REMARK SMILES IDX 8 1 9 2 10 3 11 4 12 5 13 6 14 7 15 8 16 9 7 10 6 11 5 12
REMARK SMILES IDX 4 13 3 14 2 15 1 16
REMARK H PARENT
REMARK Flexibility Score: inf
ROOT
ATOM      1  C   UNL     1     -99.056 -62.244 -69.144  1.00  0.00     0.000 C 
ENDROOT
BRANCH   1   2
ATOM      2  C   UNL     1     -97.664 -62.836 -69.412  1.00  0.00     0.000 C 
BRANCH   2   3
ATOM      3  C   UNL     1     -96.950 -62.155 -70.590  1.00  0.00     0.000 C 
BRANCH   3   4
ATOM      4  C   UNL     1     -96.137 -60.923 -70.154  1.00  0.00     0.000 C 
BRANCH   4   5
ATOM      5  C   UNL     1     -94.821 -60.762 -70.936  1.00  0.00     0.006 C 
BRANCH   5   6
ATOM      6  C   UNL     1     -93.944 -62.026 -70.946  1.00  0.00     0.053 C 
BRANCH   6   7
ATOM      7  C   UNL     1     -93.267 -62.266 -69.630  1.00  0.00     0.041 C 
ATOM      8  O   UNL     1     -93.021 -63.441 -69.250  1.00  0.00    -0.550 OA
ATOM      9  O   UNL     1     -92.877 -61.193 -68.839  1.00  0.00    -0.550 OA
ENDBRANCH   6   7
ENDBRANCH   5   6
ENDBRANCH   4   5
ENDBRANCH   3   4
ENDBRANCH   2   3
ENDBRANCH   1   2
BRANCH   1  10
ATOM     10  C   UNL     1     -99.562 -62.640 -67.751  1.00  0.00     0.000 C 
BRANCH  10  11
ATOM     11  C   UNL     1    -100.268 -61.464 -67.066  1.00  0.00    -0.000 C 
BRANCH  11  12
ATOM     12  C   UNL     1     -99.281 -60.640 -66.231  1.00  0.00    -0.000 C 
BRANCH  12  13
ATOM     13  C   UNL     1     -99.181 -59.200 -66.756  1.00  0.00    -0.000 C 
BRANCH  13  14
ATOM     14  C   UNL     1     -97.731 -58.805 -67.105  1.00  0.00    -0.000 C 
BRANCH  14  15
ATOM     15  C   UNL     1     -97.093 -57.845 -66.088  1.00  0.00    -0.003 C 
ATOM     16  C   UNL     1     -96.588 -58.552 -64.832  1.00  0.00     0.004 C 
ENDBRANCH  14  15
ENDBRANCH  13  14
ENDBRANCH  12  13
ENDBRANCH  11  12
ENDBRANCH  10  11
ENDBRANCH   1  10
TORSDOF 12
ENDMDL
MODEL 2
REMARK VINA RESULT:    -4.226      2.272      5.911
REMARK INTER + INTRA:          -8.137
REMARK INTER:                  -7.044
REMARK INTRA:                  -1.093
REMARK UNBOUND:                -0.946
REMARK SMILES CCCCCCCCCCCCCC(=O)[O-]
REMARK SMILES IDX 8 1 9 2 10 3 11 4 12 5 13 6 14 7 15 8 16 9 7 10 6 11 5 12
REMARK SMILES IDX 4 13 3 14 2 15 1 16
REMARK H PARENT
REMARK Flexibility Score: inf
ROOT
ATOM      1  C   UNL     1     -98.147 -61.920 -69.618  1.00  0.00     0.000 C 
ENDROOT
BRANCH   1   2
ATOM      2  C   UNL     1     -98.867 -62.901 -68.680  1.00  0.00     0.000 C 
BRANCH   2   3
ATOM      3  C   UNL     1     -99.937 -62.214 -67.817  1.00  0.00     0.000 C 
BRANCH   3   4
ATOM      4  C   UNL     1     -99.595 -62.245 -66.317  1.00  0.00     0.000 C 
BRANCH   4   5
ATOM      5  C   UNL     1     -99.366 -60.844 -65.722  1.00  0.00     0.006 C 
BRANCH   5   6
ATOM      6  C   UNL     1     -99.424 -59.710 -66.761  1.00  0.00     0.053 C 
BRANCH   6   7
ATOM      7  C   UNL     1     -98.138 -58.945 -66.847  1.00  0.00     0.041 C 
ATOM      8  O   UNL     1     -97.743 -58.258 -65.868  1.00  0.00    -0.550 OA
ATOM      9  O   UNL     1     -97.357 -59.017 -67.993  1.00  0.00    -0.550 OA
ENDBRANCH   6   7
ENDBRANCH   5   6
ENDBRANCH   4   5
ENDBRANCH   3   4
ENDBRANCH   2   3
ENDBRANCH   1   2
BRANCH   1  10
ATOM     10  C   UNL     1     -96.974 -62.603 -70.331  1.00  0.00     0.000 C 
BRANCH  10  11
ATOM     11  C   UNL     1     -96.491 -61.766 -71.523  1.00  0.00    -0.000 C 
BRANCH  11  12
ATOM     12  C   UNL     1     -95.592 -60.615 -71.059  1.00  0.00    -0.000 C 
BRANCH  12  13
ATOM     13  C   UNL     1     -94.115 -61.038 -71.048  1.00  0.00    -0.000 C 
BRANCH  13  14
ATOM     14  C   UNL     1     -93.583 -61.265 -69.617  1.00  0.00    -0.000 C 
BRANCH  14  15
ATOM     15  C   UNL     1     -93.154 -62.716 -69.343  1.00  0.00    -0.003 C 
ATOM     16  C   UNL     1     -93.191 -63.597 -70.590  1.00  0.00     0.004 C 
ENDBRANCH  14  15
ENDBRANCH  13  14
ENDBRANCH  12  13
ENDBRANCH  11  12
ENDBRANCH  10  11
ENDBRANCH   1  10
TORSDOF 12
ENDMDL
MODEL 3
REMARK VINA RESULT:    -4.116      1.597      2.038
REMARK INTER + INTRA:          -7.949
REMARK INTER:                  -7.097
REMARK INTRA:                  -0.852
REMARK UNBOUND:                -0.946
REMARK SMILES CCCCCCCCCCCCCC(=O)[O-]
REMARK SMILES IDX 8 1 9 2 10 3 11 4 12 5 13 6 14 7 15 8 16 9 7 10 6 11 5 12
REMARK SMILES IDX 4 13 3 14 2 15 1 16
REMARK H PARENT
REMARK Flexibility Score: inf
ROOT
ATOM      1  C   UNL     1     -98.255 -61.974 -69.170  1.00  0.00     0.000 C 
ENDROOT
BRANCH   1   2
ATOM      2  C   UNL     1     -97.181 -62.655 -70.030  1.00  0.00     0.000 C 
BRANCH   2   3
ATOM      3  C   UNL     1     -96.639 -61.735 -71.136  1.00  0.00     0.000 C 
BRANCH   3   4
ATOM      4  C   UNL     1     -95.630 -60.702 -70.603  1.00  0.00     0.000 C 
BRANCH   4   5
ATOM      5  C   UNL     1     -94.337 -61.343 -70.070  1.00  0.00     0.006 C 
BRANCH   5   6
ATOM      6  C   UNL     1     -93.098 -61.061 -70.938  1.00  0.00     0.053 C 
BRANCH   6   7
ATOM      7  C   UNL     1     -93.221 -61.633 -72.318  1.00  0.00     0.041 C 
ATOM      8  O   UNL     1     -93.169 -60.877 -73.323  1.00  0.00    -0.550 OA
ATOM      9  O   UNL     1     -93.357 -63.004 -72.497  1.00  0.00    -0.550 OA
ENDBRANCH   6   7
ENDBRANCH   5   6
ENDBRANCH   4   5
ENDBRANCH   3   4
ENDBRANCH   2   3
ENDBRANCH   1   2
BRANCH   1  10
ATOM     10  C   UNL     1     -99.246 -63.003 -68.613  1.00  0.00     0.000 C 
BRANCH  10  11
ATOM     11  C   UNL     1     -99.675 -62.640 -67.186  1.00  0.00    -0.000 C 
BRANCH  11  12
ATOM     12  C   UNL     1    -100.354 -61.266 -67.148  1.00  0.00    -0.000 C 
BRANCH  12  13
ATOM     13  C   UNL     1     -99.563 -60.285 -66.268  1.00  0.00    -0.000 C 
BRANCH  13  14
ATOM     14  C   UNL     1     -99.219 -58.979 -67.016  1.00  0.00    -0.000 C 
BRANCH  14  15
ATOM     15  C   UNL     1     -97.711 -58.777 -67.238  1.00  0.00    -0.003 C 
ATOM     16  C   UNL     1     -97.014 -58.114 -66.051  1.00  0.00     0.004 C 
ENDBRANCH  14  15
ENDBRANCH  13  14
ENDBRANCH  12  13
ENDBRANCH  11  12
ENDBRANCH  10  11
ENDBRANCH   1  10
TORSDOF 12
ENDMDL
MODEL 4
REMARK VINA RESULT:    -4.043      3.089      6.105
REMARK INTER + INTRA:          -7.825
REMARK INTER:                  -6.863
REMARK INTRA:                  -0.963
REMARK UNBOUND:                -0.946
REMARK SMILES CCCCCCCCCCCCCC(=O)[O-]
REMARK SMILES IDX 8 1 9 2 10 3 11 4 12 5 13 6 14 7 15 8 16 9 7 10 6 11 5 12
REMARK SMILES IDX 4 13 3 14 2 15 1 16
REMARK H PARENT
REMARK Flexibility Score: inf
ROOT
ATOM      1  C   UNL     1     -97.914 -61.939 -69.318  1.00  0.00     0.000 C 
ENDROOT
BRANCH   1   2
ATOM      2  C   UNL     1     -98.976 -62.945 -68.849  1.00  0.00     0.000 C 
BRANCH   2   3
ATOM      3  C   UNL     1     -99.975 -62.328 -67.857  1.00  0.00     0.000 C 
BRANCH   3   4
ATOM      4  C   UNL     1     -99.346 -61.217 -66.998  1.00  0.00     0.000 C 
BRANCH   4   5
ATOM      5  C   UNL     1     -99.906 -61.172 -65.566  1.00  0.00     0.006 C 
BRANCH   5   6
ATOM      6  C   UNL     1     -99.583 -62.425 -64.731  1.00  0.00     0.053 C 
BRANCH   6   7
ATOM      7  C   UNL     1     -98.255 -62.330 -64.043  1.00  0.00     0.041 C 
ATOM      8  O   UNL     1     -97.749 -63.348 -63.502  1.00  0.00    -0.550 OA
ATOM      9  O   UNL     1     -97.560 -61.128 -64.029  1.00  0.00    -0.550 OA
ENDBRANCH   6   7
ENDBRANCH   5   6
ENDBRANCH   4   5
ENDBRANCH   3   4
ENDBRANCH   2   3
ENDBRANCH   1   2
BRANCH   1  10
ATOM     10  C   UNL     1     -96.917 -62.601 -70.277  1.00  0.00     0.000 C 
BRANCH  10  11
ATOM     11  C   UNL     1     -96.637 -61.702 -71.488  1.00  0.00    -0.000 C 
BRANCH  11  12
ATOM     12  C   UNL     1     -95.673 -60.569 -71.122  1.00  0.00    -0.000 C 
BRANCH  12  13
ATOM     13  C   UNL     1     -94.219 -61.063 -71.111  1.00  0.00    -0.000 C 
BRANCH  13  14
ATOM     14  C   UNL     1     -93.632 -61.120 -69.684  1.00  0.00    -0.000 C 
BRANCH  14  15
ATOM     15  C   UNL     1     -93.148 -62.520 -69.273  1.00  0.00    -0.003 C 
ATOM     16  C   UNL     1     -93.225 -63.538 -70.410  1.00  0.00     0.004 C 
ENDBRANCH  14  15
ENDBRANCH  13  14
ENDBRANCH  12  13
ENDBRANCH  11  12
ENDBRANCH  10  11
ENDBRANCH   1  10
TORSDOF 12
ENDMDL
MODEL 5
REMARK VINA RESULT:    -3.468     13.283     15.520
REMARK INTER + INTRA:          -6.846
REMARK INTER:                  -5.408
REMARK INTRA:                  -1.438
REMARK UNBOUND:                -0.946
REMARK SMILES CCCCCCCCCCCCCC(=O)[O-]
REMARK SMILES IDX 8 1 9 2 10 3 11 4 12 5 13 6 14 7 15 8 16 9 7 10 6 11 5 12
REMARK SMILES IDX 4 13 3 14 2 15 1 16
REMARK H PARENT
REMARK Flexibility Score: inf
ROOT
ATOM      1  C   UNL     1     -96.135 -45.489 -69.196  1.00  0.00     0.000 C 
ENDROOT
BRANCH   1   2
ATOM      2  C   UNL     1     -97.606 -45.679 -68.797  1.00  0.00     0.000 C 
BRANCH   2   3
ATOM      3  C   UNL     1     -98.286 -46.818 -69.573  1.00  0.00     0.000 C 
BRANCH   3   4
ATOM      4  C   UNL     1     -97.870 -46.855 -71.054  1.00  0.00     0.000 C 
BRANCH   4   5
ATOM      5  C   UNL     1     -98.490 -48.034 -71.824  1.00  0.00     0.006 C 
BRANCH   5   6
ATOM      6  C   UNL     1     -99.282 -47.613 -73.075  1.00  0.00     0.053 C 
BRANCH   6   7
ATOM      7  C   UNL     1    -100.437 -46.715 -72.749  1.00  0.00     0.041 C 
ATOM      8  O   UNL     1    -100.487 -45.550 -73.224  1.00  0.00    -0.550 OA
ATOM      9  O   UNL     1    -101.476 -47.175 -71.950  1.00  0.00    -0.550 OA
ENDBRANCH   6   7
ENDBRANCH   5   6
ENDBRANCH   4   5
ENDBRANCH   3   4
ENDBRANCH   2   3
ENDBRANCH   1   2
BRANCH   1  10
ATOM     10  C   UNL     1     -95.199 -46.127 -68.162  1.00  0.00     0.000 C 
BRANCH  10  11
ATOM     11  C   UNL     1     -94.039 -46.861 -68.846  1.00  0.00    -0.000 C 
BRANCH  11  12
ATOM     12  C   UNL     1     -93.488 -46.045 -70.021  1.00  0.00    -0.000 C 
BRANCH  12  13
ATOM     13  C   UNL     1     -93.349 -46.915 -71.280  1.00  0.00    -0.000 C 
BRANCH  13  14
ATOM     14  C   UNL     1     -94.382 -48.062 -71.314  1.00  0.00    -0.000 C 
BRANCH  14  15
ATOM     15  C   UNL     1     -94.857 -48.420 -72.732  1.00  0.00    -0.003 C 
ATOM     16  C   UNL     1     -95.013 -49.924 -72.949  1.00  0.00     0.004 C 
ENDBRANCH  14  15
ENDBRANCH  13  14
ENDBRANCH  12  13
ENDBRANCH  11  12
ENDBRANCH  10  11
ENDBRANCH   1  10
TORSDOF 12
ENDMDL
MODEL 6
REMARK VINA RESULT:    -3.436      3.058      6.776
REMARK INTER + INTRA:          -6.792
REMARK INTER:                  -6.004
REMARK INTRA:                  -0.788
REMARK UNBOUND:                -0.946
REMARK SMILES CCCCCCCCCCCCCC(=O)[O-]
REMARK SMILES IDX 8 1 9 2 10 3 11 4 12 5 13 6 14 7 15 8 16 9 7 10 6 11 5 12
REMARK SMILES IDX 4 13 3 14 2 15 1 16
REMARK H PARENT
REMARK Flexibility Score: inf
ROOT
ATOM      1  C   UNL     1     -97.930 -61.864 -69.297  1.00  0.00     0.000 C 
ENDROOT
BRANCH   1   2
ATOM      2  C   UNL     1     -98.908 -62.993 -68.940  1.00  0.00     0.000 C 
BRANCH   2   3
ATOM      3  C   UNL     1     -99.664 -62.725 -67.628  1.00  0.00     0.000 C 
BRANCH   3   4
ATOM      4  C   UNL     1     -99.859 -61.223 -67.355  1.00  0.00     0.000 C 
BRANCH   4   5
ATOM      5  C   UNL     1     -99.529 -60.826 -65.905  1.00  0.00     0.006 C 
BRANCH   5   6
ATOM      6  C   UNL     1     -99.707 -61.970 -64.891  1.00  0.00     0.053 C 
BRANCH   6   7
ATOM      7  C   UNL     1     -98.473 -62.210 -64.074  1.00  0.00     0.041 C 
ATOM      8  O   UNL     1     -98.296 -63.321 -63.507  1.00  0.00    -0.550 OA
ATOM      9  O   UNL     1     -97.504 -61.222 -63.965  1.00  0.00    -0.550 OA
ENDBRANCH   6   7
ENDBRANCH   5   6
ENDBRANCH   4   5
ENDBRANCH   3   4
ENDBRANCH   2   3
ENDBRANCH   1   2
BRANCH   1  10
ATOM     10  C   UNL     1     -97.047 -62.260 -70.487  1.00  0.00     0.000 C 
BRANCH  10  11
ATOM     11  C   UNL     1     -95.785 -62.994 -70.018  1.00  0.00    -0.000 C 
BRANCH  11  12
ATOM     12  C   UNL     1     -94.527 -62.165 -70.302  1.00  0.00    -0.000 C 
BRANCH  12  13
ATOM     13  C   UNL     1     -93.282 -63.062 -70.381  1.00  0.00    -0.000 C 
BRANCH  13  14
ATOM     14  C   UNL     1     -93.206 -63.840 -71.711  1.00  0.00    -0.000 C 
BRANCH  14  15
ATOM     15  C   UNL     1     -93.736 -63.048 -72.918  1.00  0.00    -0.003 C 
ATOM     16  C   UNL     1     -94.768 -63.822 -73.737  1.00  0.00     0.004 C 
ENDBRANCH  14  15
ENDBRANCH  13  14
ENDBRANCH  12  13
ENDBRANCH  11  12
ENDBRANCH  10  11
ENDBRANCH   1  10
TORSDOF 12
ENDMDL
MODEL 7
REMARK VINA RESULT:    -3.426     14.268     15.856
REMARK INTER + INTRA:          -6.776
REMARK INTER:                  -5.218
REMARK INTRA:                  -1.558
REMARK UNBOUND:                -0.946
REMARK SMILES CCCCCCCCCCCCCC(=O)[O-]
REMARK SMILES IDX 8 1 9 2 10 3 11 4 12 5 13 6 14 7 15 8 16 9 7 10 6 11 5 12
REMARK SMILES IDX 4 13 3 14 2 15 1 16
REMARK H PARENT
REMARK Flexibility Score: inf
ROOT
ATOM      1  C   UNL     1     -98.436 -46.893 -69.590  1.00  0.00     0.000 C 
ENDROOT
BRANCH   1   2
ATOM      2  C   UNL     1     -97.946 -46.844 -71.045  1.00  0.00     0.000 C 
BRANCH   2   3
ATOM      3  C   UNL     1     -98.483 -48.010 -71.889  1.00  0.00     0.000 C 
BRANCH   3   4
ATOM      4  C   UNL     1     -99.408 -47.540 -73.025  1.00  0.00     0.000 C 
BRANCH   4   5
ATOM      5  C   UNL     1     -99.704 -46.031 -72.976  1.00  0.00     0.006 C 
BRANCH   5   6
ATOM      6  C   UNL     1    -101.186 -45.694 -72.734  1.00  0.00     0.053 C 
BRANCH   6   7
ATOM      7  C   UNL     1    -101.573 -45.808 -71.291  1.00  0.00     0.041 C 
ATOM      8  O   UNL     1    -102.098 -46.867 -70.858  1.00  0.00    -0.550 OA
ATOM      9  O   UNL     1    -101.324 -44.759 -70.415  1.00  0.00    -0.550 OA
ENDBRANCH   6   7
ENDBRANCH   5   6
ENDBRANCH   4   5
ENDBRANCH   3   4
ENDBRANCH   2   3
ENDBRANCH   1   2
BRANCH   1  10
ATOM     10  C   UNL     1     -97.594 -45.976 -68.695  1.00  0.00     0.000 C 
BRANCH  10  11
ATOM     11  C   UNL     1     -96.894 -44.890 -69.521  1.00  0.00    -0.000 C 
BRANCH  11  12
ATOM     12  C   UNL     1     -95.398 -44.828 -69.194  1.00  0.00    -0.000 C 
BRANCH  12  13
ATOM     13  C   UNL     1     -95.004 -45.934 -68.203  1.00  0.00    -0.000 C 
BRANCH  13  14
ATOM     14  C   UNL     1     -94.039 -46.963 -68.830  1.00  0.00    -0.000 C 
BRANCH  14  15
ATOM     15  C   UNL     1     -93.798 -46.742 -70.333  1.00  0.00    -0.003 C 
ATOM     16  C   UNL     1     -94.284 -47.906 -71.195  1.00  0.00     0.004 C 
ENDBRANCH  14  15
ENDBRANCH  13  14
ENDBRANCH  12  13
ENDBRANCH  11  12
ENDBRANCH  10  11
ENDBRANCH   1  10
TORSDOF 12
ENDMDL
MODEL 8
REMARK VINA RESULT:    -3.416     14.220     15.433
REMARK INTER + INTRA:          -6.759
REMARK INTER:                  -5.185
REMARK INTRA:                  -1.574
REMARK UNBOUND:                -0.946
REMARK SMILES CCCCCCCCCCCCCC(=O)[O-]
REMARK SMILES IDX 8 1 9 2 10 3 11 4 12 5 13 6 14 7 15 8 16 9 7 10 6 11 5 12
REMARK SMILES IDX 4 13 3 14 2 15 1 16
REMARK H PARENT
REMARK Flexibility Score: inf
ROOT
ATOM      1  C   UNL     1     -94.272 -47.950 -71.234  1.00  0.00     0.000 C 
ENDROOT
BRANCH   1   2
ATOM      2  C   UNL     1     -94.456 -48.548 -72.637  1.00  0.00     0.000 C 
BRANCH   2   3
ATOM      3  C   UNL     1     -95.889 -48.377 -73.168  1.00  0.00     0.000 C 
BRANCH   3   4
ATOM      4  C   UNL     1     -96.778 -47.560 -72.215  1.00  0.00     0.000 C 
BRANCH   4   5
ATOM      5  C   UNL     1     -98.120 -47.149 -72.847  1.00  0.00     0.006 C 
BRANCH   5   6
ATOM      6  C   UNL     1     -99.352 -47.641 -72.069  1.00  0.00     0.053 C 
BRANCH   6   7
ATOM      7  C   UNL     1    -100.229 -46.516 -71.610  1.00  0.00     0.041 C 
ATOM      8  O   UNL     1     -99.913 -45.323 -71.863  1.00  0.00    -0.550 OA
ATOM      9  O   UNL     1    -101.413 -46.783 -70.934  1.00  0.00    -0.550 OA
ENDBRANCH   6   7
ENDBRANCH   5   6
ENDBRANCH   4   5
ENDBRANCH   3   4
ENDBRANCH   2   3
ENDBRANCH   1   2
BRANCH   1  10
ATOM     10  C   UNL     1     -93.274 -46.786 -71.260  1.00  0.00     0.000 C 
BRANCH  10  11
ATOM     11  C   UNL     1     -93.228 -46.069 -69.905  1.00  0.00    -0.000 C 
BRANCH  11  12
ATOM     12  C   UNL     1     -94.048 -46.823 -68.854  1.00  0.00    -0.000 C 
BRANCH  12  13
ATOM     13  C   UNL     1     -95.126 -45.916 -68.240  1.00  0.00    -0.000 C 
BRANCH  13  14
ATOM     14  C   UNL     1     -95.655 -44.874 -69.248  1.00  0.00    -0.000 C 
BRANCH  14  15
ATOM     15  C   UNL     1     -97.166 -44.985 -69.512  1.00  0.00    -0.003 C 
ATOM     16  C   UNL     1     -97.802 -46.203 -68.846  1.00  0.00     0.004 C 
ENDBRANCH  14  15
ENDBRANCH  13  14
ENDBRANCH  12  13
ENDBRANCH  11  12
ENDBRANCH  10  11
ENDBRANCH   1  10
TORSDOF 12
ENDMDL
MODEL 9
REMARK VINA RESULT:    -3.343     13.040     15.515
REMARK INTER + INTRA:          -6.634
REMARK INTER:                  -5.109
REMARK INTRA:                  -1.525
REMARK UNBOUND:                -0.946
REMARK SMILES CCCCCCCCCCCCCC(=O)[O-]
REMARK SMILES IDX 8 1 9 2 10 3 11 4 12 5 13 6 14 7 15 8 16 9 7 10 6 11 5 12
REMARK SMILES IDX 4 13 3 14 2 15 1 16
REMARK H PARENT
REMARK Flexibility Score: inf
ROOT
ATOM      1  C   UNL     1     -94.264 -46.551 -68.710  1.00  0.00     0.000 C 
ENDROOT
BRANCH   1   2
ATOM      2  C   UNL     1     -94.693 -45.120 -69.068  1.00  0.00     0.000 C 
BRANCH   2   3
ATOM      3  C   UNL     1     -96.140 -45.048 -69.582  1.00  0.00     0.000 C 
BRANCH   3   4
ATOM      4  C   UNL     1     -97.133 -45.768 -68.652  1.00  0.00     0.000 C 
BRANCH   4   5
ATOM      5  C   UNL     1     -98.491 -46.044 -69.320  1.00  0.00     0.006 C 
BRANCH   5   6
ATOM      6  C   UNL     1     -98.497 -47.286 -70.228  1.00  0.00     0.053 C 
BRANCH   6   7
ATOM      7  C   UNL     1     -99.258 -47.064 -71.501  1.00  0.00     0.041 C 
ATOM      8  O   UNL     1     -99.059 -47.809 -72.496  1.00  0.00    -0.550 OA
ATOM      9  O   UNL     1    -100.211 -46.057 -71.578  1.00  0.00    -0.550 OA
ENDBRANCH   6   7
ENDBRANCH   5   6
ENDBRANCH   4   5
ENDBRANCH   3   4
ENDBRANCH   2   3
ENDBRANCH   1   2
BRANCH   1  10
ATOM     10  C   UNL     1     -94.194 -47.432 -69.963  1.00  0.00     0.000 C 
BRANCH  10  11
ATOM     11  C   UNL     1     -93.286 -46.806 -71.028  1.00  0.00    -0.000 C 
BRANCH  11  12
ATOM     12  C   UNL     1     -93.987 -46.759 -72.391  1.00  0.00    -0.000 C 
BRANCH  12  13
ATOM     13  C   UNL     1     -95.390 -47.380 -72.311  1.00  0.00    -0.000 C 
BRANCH  13  14
ATOM     14  C   UNL     1     -95.594 -48.495 -73.358  1.00  0.00    -0.000 C 
BRANCH  14  15
ATOM     15  C   UNL     1     -95.019 -49.855 -72.929  1.00  0.00    -0.003 C 
ATOM     16  C   UNL     1     -93.828 -50.296 -73.777  1.00  0.00     0.004 C 
ENDBRANCH  14  15
ENDBRANCH  13  14
ENDBRANCH  12  13
ENDBRANCH  11  12
ENDBRANCH  10  11
ENDBRANCH   1  10
TORSDOF 12
ENDMDL
