MODEL 1
REMARK VINA RESULT:    -5.459      0.000      0.000
REMARK INTER + INTRA:          -7.498
REMARK INTER:                  -7.214
REMARK INTRA:                  -0.284
REMARK UNBOUND:                -0.284
REMARK SMILES CC[C@@H](C=C[C@@H](C)[C@@H]1CC[C@H]2[C@@H]3CC=C4C[C@@H](O)CC[C@]4(C)[C@H]3CC[C@]21C)C(C)C
REMARK SMILES IDX 6 1 7 2 5 3 4 4 3 5 2 6 1 7 28 8 29 9 30 10 8 11 9 12 26 13
REMARK SMILES IDX 10 14 11 15 25 16 27 17 12 18 24 19 23 20 13 21 21 22 14 23
REMARK SMILES IDX 15 24 20 25 22 26 16 27 19 28 17 29 18 30
REMARK H PARENT 18 31
REMARK Flexibility Score: inf
ROOT
ATOM      1  C   UNL     1      -3.905  37.127  16.293  1.00  0.00     0.012 C 
ATOM      2  C   UNL     1      -3.447  35.681  16.011  1.00  0.00     0.012 C 
ENDROOT
BRANCH   1   3
ATOM      3  C   UNL     1      -2.712  38.057  16.178  1.00  0.00    -0.028 C 
ATOM      4  C   UNL     1      -1.446  37.607  16.149  1.00  0.00    -0.027 C 
BRANCH   4   5
ATOM      5  C   UNL     1      -0.237  38.496  15.930  1.00  0.00     0.014 C 
BRANCH   5   6
ATOM      6  C   UNL     1       1.086  37.735  16.194  1.00  0.00     0.004 C 
ATOM      7  C   UNL     1       0.869  36.240  16.455  1.00  0.00     0.004 C 
ENDBRANCH   5   6
BRANCH   5   8
ATOM      8  C   UNL     1      -0.359  39.870  16.658  1.00  0.00    -0.011 C 
ATOM      9  C   UNL     1      -0.085  39.724  18.164  1.00  0.00     0.008 C 
ATOM     10  C   UNL     1       0.531  40.979  16.072  1.00  0.00     0.008 C 
ENDBRANCH   5   8
ENDBRANCH   4   5
ENDBRANCH   1   3
BRANCH   1  11
ATOM     11  C   UNL     1      -4.688  37.372  17.634  1.00  0.00     0.002 C 
ATOM     12  C   UNL     1      -6.187  37.624  17.508  1.00  0.00     0.005 C 
ATOM     13  C   UNL     1      -4.172  38.486  18.605  1.00  0.00    -0.026 C 
ATOM     14  C   UNL     1      -6.599  38.046  18.905  1.00  0.00     0.005 C 
ATOM     15  C   UNL     1      -5.427  38.867  19.458  1.00  0.00    -0.001 C 
ATOM     16  C   UNL     1      -3.022  37.936  19.495  1.00  0.00     0.007 C 
ATOM     17  C   UNL     1      -3.679  39.748  17.853  1.00  0.00     0.012 C 
ATOM     18  C   UNL     1      -5.253  38.681  20.997  1.00  0.00     0.000 C 
ATOM     19  C   UNL     1      -2.686  38.868  20.668  1.00  0.00     0.005 C 
ATOM     20  C   UNL     1      -3.935  39.340  21.484  1.00  0.00     0.003 C 
ATOM     21  C   UNL     1      -6.468  39.288  21.730  1.00  0.00     0.031 C 
ATOM     22  C   UNL     1      -3.755  39.222  23.049  1.00  0.00    -0.008 C 
ATOM     23  C   UNL     1      -6.254  39.537  23.193  1.00  0.00    -0.027 C 
ATOM     24  C   UNL     1      -5.039  39.660  23.768  1.00  0.00    -0.065 C 
ATOM     25  C   UNL     1      -2.588  40.164  23.483  1.00  0.00     0.014 C 
ATOM     26  C   UNL     1      -3.444  37.764  23.496  1.00  0.00     0.016 C 
ATOM     27  C   UNL     1      -4.981  40.008  25.246  1.00  0.00     0.063 C 
ATOM     28  C   UNL     1      -2.499  40.370  25.001  1.00  0.00     0.033 C 
ATOM     29  C   UNL     1      -3.805  40.945  25.555  1.00  0.00     0.118 C 
BRANCH  29  30
ATOM     30  O   UNL     1      -3.670  41.119  26.941  1.00  0.00    -0.393 OA
ATOM     31  H   UNL     1      -2.770  40.775  27.191  1.00  0.00     0.210 HD
ENDBRANCH  29  30
ENDBRANCH   1  11
TORSDOF 6
ENDMDL
MODEL 2
REMARK VINA RESULT:    -5.307      3.735      9.596
REMARK INTER + INTRA:          -7.298
REMARK INTER:                  -7.498
REMARK INTRA:                   0.200
REMARK UNBOUND:                -0.284
REMARK SMILES CC[C@@H](C=C[C@@H](C)[C@@H]1CC[C@H]2[C@@H]3CC=C4C[C@@H](O)CC[C@]4(C)[C@H]3CC[C@]21C)C(C)C
REMARK SMILES IDX 6 1 7 2 5 3 4 4 3 5 2 6 1 7 28 8 29 9 30 10 8 11 9 12 26 13
REMARK SMILES IDX 10 14 11 15 25 16 27 17 12 18 24 19 23 20 13 21 21 22 14 23
REMARK SMILES IDX 15 24 20 25 22 26 16 27 19 28 17 29 18 30
REMARK H PARENT 18 31
REMARK Flexibility Score: inf
ROOT
ATOM      1  C   UNL     1      -4.471  40.046  27.097  1.00  0.00     0.012 C 
ATOM      2  C   UNL     1      -5.563  41.125  27.253  1.00  0.00     0.012 C 
ENDROOT
BRANCH   1   3
ATOM      3  C   UNL     1      -3.537  40.107  28.290  1.00  0.00    -0.028 C 
ATOM      4  C   UNL     1      -3.870  39.612  29.494  1.00  0.00    -0.027 C 
BRANCH   4   5
ATOM      5  C   UNL     1      -2.926  39.560  30.679  1.00  0.00     0.014 C 
BRANCH   5   6
ATOM      6  C   UNL     1      -1.495  40.006  30.289  1.00  0.00     0.004 C 
ATOM      7  C   UNL     1      -0.667  38.871  29.673  1.00  0.00     0.004 C 
ENDBRANCH   5   6
BRANCH   5   8
ATOM      8  C   UNL     1      -3.003  38.207  31.452  1.00  0.00    -0.011 C 
ATOM      9  C   UNL     1      -4.070  38.261  32.557  1.00  0.00     0.008 C 
ATOM     10  C   UNL     1      -3.241  36.979  30.556  1.00  0.00     0.008 C 
ENDBRANCH   5   8
ENDBRANCH   4   5
ENDBRANCH   1   3
BRANCH   1  11
ATOM     11  C   UNL     1      -3.666  40.045  25.745  1.00  0.00     0.002 C 
ATOM     12  C   UNL     1      -2.596  41.121  25.592  1.00  0.00     0.005 C 
ATOM     13  C   UNL     1      -4.469  40.079  24.401  1.00  0.00    -0.026 C 
ATOM     14  C   UNL     1      -2.179  41.008  24.139  1.00  0.00     0.005 C 
ATOM     15  C   UNL     1      -3.455  40.662  23.361  1.00  0.00    -0.001 C 
ATOM     16  C   UNL     1      -4.929  38.647  24.011  1.00  0.00     0.007 C 
ATOM     17  C   UNL     1      -5.704  41.013  24.471  1.00  0.00     0.012 C 
ATOM     18  C   UNL     1      -3.166  39.734  22.140  1.00  0.00     0.000 C 
ATOM     19  C   UNL     1      -5.443  38.565  22.566  1.00  0.00     0.005 C 
ATOM     20  C   UNL     1      -4.491  39.223  21.514  1.00  0.00     0.003 C 
ATOM     21  C   UNL     1      -2.331  40.503  21.096  1.00  0.00     0.031 C 
ATOM     22  C   UNL     1      -4.237  38.327  20.237  1.00  0.00    -0.008 C 
ATOM     23  C   UNL     1      -2.321  39.887  19.728  1.00  0.00    -0.027 C 
ATOM     24  C   UNL     1      -3.259  39.026  19.281  1.00  0.00    -0.065 C 
ATOM     25  C   UNL     1      -5.599  38.121  19.502  1.00  0.00     0.014 C 
ATOM     26  C   UNL     1      -3.626  36.944  20.603  1.00  0.00     0.016 C 
ATOM     27  C   UNL     1      -3.170  38.560  17.838  1.00  0.00     0.063 C 
ATOM     28  C   UNL     1      -5.452  37.521  18.097  1.00  0.00     0.033 C 
ATOM     29  C   UNL     1      -4.564  38.401  17.214  1.00  0.00     0.118 C 
BRANCH  29  30
ATOM     30  O   UNL     1      -4.466  37.814  15.943  1.00  0.00    -0.393 OA
ATOM     31  H   UNL     1      -3.799  37.079  16.014  1.00  0.00     0.210 HD
ENDBRANCH  29  30
ENDBRANCH   1  11
TORSDOF 6
ENDMDL
MODEL 3
REMARK VINA RESULT:    -4.679      4.840      8.646
REMARK INTER + INTRA:          -6.467
REMARK INTER:                  -6.164
REMARK INTRA:                  -0.303
REMARK UNBOUND:                -0.284
REMARK SMILES CC[C@@H](C=C[C@@H](C)[C@@H]1CC[C@H]2[C@@H]3CC=C4C[C@@H](O)CC[C@]4(C)[C@H]3CC[C@]21C)C(C)C
REMARK SMILES IDX 6 1 7 2 5 3 4 4 3 5 2 6 1 7 28 8 29 9 30 10 8 11 9 12 26 13
REMARK SMILES IDX 10 14 11 15 25 16 27 17 12 18 24 19 23 20 13 21 21 22 14 23
REMARK SMILES IDX 15 24 20 25 22 26 16 27 19 28 17 29 18 30
REMARK H PARENT 18 31
REMARK Flexibility Score: inf
ROOT
ATOM      1  C   UNL     1      -3.468  39.505  24.748  1.00  0.00     0.012 C 
ATOM      2  C   UNL     1      -2.653  40.704  24.217  1.00  0.00     0.012 C 
ENDROOT
BRANCH   1   3
ATOM      3  C   UNL     1      -4.340  38.964  23.631  1.00  0.00    -0.028 C 
ATOM      4  C   UNL     1      -4.373  39.518  22.408  1.00  0.00    -0.027 C 
BRANCH   4   5
ATOM      5  C   UNL     1      -5.149  38.943  21.239  1.00  0.00     0.014 C 
BRANCH   5   6
ATOM      6  C   UNL     1      -4.332  39.003  19.925  1.00  0.00     0.004 C 
ATOM      7  C   UNL     1      -3.296  40.134  19.922  1.00  0.00     0.004 C 
ENDBRANCH   5   6
BRANCH   5   8
ATOM      8  C   UNL     1      -6.596  39.517  21.136  1.00  0.00    -0.011 C 
ATOM      9  C   UNL     1      -7.263  39.104  19.814  1.00  0.00     0.008 C 
ATOM     10  C   UNL     1      -7.509  39.147  22.318  1.00  0.00     0.008 C 
ENDBRANCH   5   8
ENDBRANCH   4   5
ENDBRANCH   1   3
BRANCH   1  11
ATOM     11  C   UNL     1      -4.306  39.745  26.057  1.00  0.00     0.002 C 
ATOM     12  C   UNL     1      -5.454  40.743  25.955  1.00  0.00     0.005 C 
ATOM     13  C   UNL     1      -3.543  40.138  27.367  1.00  0.00    -0.026 C 
ATOM     14  C   UNL     1      -5.900  40.926  27.392  1.00  0.00     0.005 C 
ATOM     15  C   UNL     1      -4.623  40.859  28.240  1.00  0.00    -0.001 C 
ATOM     16  C   UNL     1      -2.991  38.869  28.072  1.00  0.00     0.007 C 
ATOM     17  C   UNL     1      -2.377  41.125  27.101  1.00  0.00     0.012 C 
ATOM     18  C   UNL     1      -4.876  40.208  29.635  1.00  0.00     0.000 C 
ATOM     19  C   UNL     1      -2.511  39.150  29.504  1.00  0.00     0.005 C 
ATOM     20  C   UNL     1      -3.535  39.952  30.373  1.00  0.00     0.003 C 
ATOM     21  C   UNL     1      -5.792  41.125  30.473  1.00  0.00     0.031 C 
ATOM     22  C   UNL     1      -3.757  39.347  31.815  1.00  0.00    -0.008 C 
ATOM     23  C   UNL     1      -5.793  40.831  31.943  1.00  0.00    -0.027 C 
ATOM     24  C   UNL     1      -4.807  40.164  32.581  1.00  0.00    -0.065 C 
ATOM     25  C   UNL     1      -2.404  39.413  32.590  1.00  0.00     0.014 C 
ATOM     26  C   UNL     1      -4.257  37.874  31.763  1.00  0.00     0.016 C 
ATOM     27  C   UNL     1      -4.900  40.026  34.091  1.00  0.00     0.063 C 
ATOM     28  C   UNL     1      -2.543  39.132  34.093  1.00  0.00     0.033 C 
ATOM     29  C   UNL     1      -3.515  40.117  34.748  1.00  0.00     0.118 C 
BRANCH  29  30
ATOM     30  O   UNL     1      -3.604  39.823  36.117  1.00  0.00    -0.393 OA
ATOM     31  H   UNL     1      -3.463  40.678  36.607  1.00  0.00     0.210 HD
ENDBRANCH  29  30
ENDBRANCH   1  11
TORSDOF 6
ENDMDL
MODEL 4
REMARK VINA RESULT:    -4.488      3.057      4.999
REMARK INTER + INTRA:          -6.216
REMARK INTER:                  -5.640
REMARK INTRA:                  -0.576
REMARK UNBOUND:                -0.284
REMARK SMILES CC[C@@H](C=C[C@@H](C)[C@@H]1CC[C@H]2[C@@H]3CC=C4C[C@@H](O)CC[C@]4(C)[C@H]3CC[C@]21C)C(C)C
REMARK SMILES IDX 6 1 7 2 5 3 4 4 3 5 2 6 1 7 28 8 29 9 30 10 8 11 9 12 26 13
REMARK SMILES IDX 10 14 11 15 25 16 27 17 12 18 24 19 23 20 13 21 21 22 14 23
REMARK SMILES IDX 15 24 20 25 22 26 16 27 19 28 17 29 18 30
REMARK H PARENT 18 31
REMARK Flexibility Score: inf
ROOT
ATOM      1  C   UNL     1      -0.185  35.669  16.943  1.00  0.00     0.012 C 
ATOM      2  C   UNL     1       0.525  36.529  15.875  1.00  0.00     0.012 C 
ENDROOT
BRANCH   1   3
ATOM      3  C   UNL     1       0.091  34.204  16.666  1.00  0.00    -0.028 C 
ATOM      4  C   UNL     1       0.119  33.278  17.639  1.00  0.00    -0.027 C 
BRANCH   4   5
ATOM      5  C   UNL     1       0.286  31.792  17.390  1.00  0.00     0.014 C 
BRANCH   5   6
ATOM      6  C   UNL     1       0.753  31.505  15.941  1.00  0.00     0.004 C 
ATOM      7  C   UNL     1       1.887  30.476  15.876  1.00  0.00     0.004 C 
ENDBRANCH   5   6
BRANCH   5   8
ATOM      8  C   UNL     1      -0.948  30.960  17.857  1.00  0.00    -0.011 C 
ATOM      9  C   UNL     1      -0.692  29.453  17.697  1.00  0.00     0.008 C 
ATOM     10  C   UNL     1      -1.409  31.262  19.293  1.00  0.00     0.008 C 
ENDBRANCH   5   8
ENDBRANCH   4   5
ENDBRANCH   1   3
BRANCH   1  11
ATOM     11  C   UNL     1      -1.723  35.928  17.151  1.00  0.00     0.002 C 
ATOM     12  C   UNL     1      -2.559  36.097  15.887  1.00  0.00     0.005 C 
ATOM     13  C   UNL     1      -2.159  37.106  18.085  1.00  0.00    -0.026 C 
ATOM     14  C   UNL     1      -3.908  36.555  16.407  1.00  0.00     0.005 C 
ATOM     15  C   UNL     1      -3.608  37.458  17.611  1.00  0.00    -0.001 C 
ATOM     16  C   UNL     1      -2.137  36.654  19.571  1.00  0.00     0.007 C 
ATOM     17  C   UNL     1      -1.263  38.360  17.917  1.00  0.00     0.012 C 
ATOM     18  C   UNL     1      -4.703  37.344  18.717  1.00  0.00     0.000 C 
ATOM     19  C   UNL     1      -2.844  37.650  20.502  1.00  0.00     0.005 C 
ATOM     20  C   UNL     1      -4.261  38.090  20.005  1.00  0.00     0.003 C 
ATOM     21  C   UNL     1      -6.033  37.917  18.186  1.00  0.00     0.031 C 
ATOM     22  C   UNL     1      -5.371  38.046  21.127  1.00  0.00    -0.008 C 
ATOM     23  C   UNL     1      -7.043  38.237  19.248  1.00  0.00    -0.027 C 
ATOM     24  C   UNL     1      -6.735  38.447  20.545  1.00  0.00    -0.065 C 
ATOM     25  C   UNL     1      -4.982  39.064  22.245  1.00  0.00     0.014 C 
ATOM     26  C   UNL     1      -5.526  36.627  21.745  1.00  0.00     0.016 C 
ATOM     27  C   UNL     1      -7.853  38.858  21.487  1.00  0.00     0.063 C 
ATOM     28  C   UNL     1      -6.113  39.337  23.246  1.00  0.00     0.033 C 
ATOM     29  C   UNL     1      -7.361  39.867  22.535  1.00  0.00     0.118 C 
BRANCH  29  30
ATOM     30  O   UNL     1      -8.360  40.105  23.491  1.00  0.00    -0.393 OA
ATOM     31  H   UNL     1      -8.960  39.310  23.488  1.00  0.00     0.210 HD
ENDBRANCH  29  30
ENDBRANCH   1  11
TORSDOF 6
ENDMDL
MODEL 5
REMARK VINA RESULT:    -4.418      3.532      9.284
REMARK INTER + INTRA:          -6.122
REMARK INTER:                  -5.880
REMARK INTRA:                  -0.242
REMARK UNBOUND:                -0.284
REMARK SMILES CC[C@@H](C=C[C@@H](C)[C@@H]1CC[C@H]2[C@@H]3CC=C4C[C@@H](O)CC[C@]4(C)[C@H]3CC[C@]21C)C(C)C
REMARK SMILES IDX 6 1 7 2 5 3 4 4 3 5 2 6 1 7 28 8 29 9 30 10 8 11 9 12 26 13
REMARK SMILES IDX 10 14 11 15 25 16 27 17 12 18 24 19 23 20 13 21 21 22 14 23
REMARK SMILES IDX 15 24 20 25 22 26 16 27 19 28 17 29 18 30
REMARK H PARENT 18 31
REMARK Flexibility Score: inf
ROOT
ATOM      1  C   UNL     1      -3.355  41.124  26.200  1.00  0.00     0.012 C 
ATOM      2  C   UNL     1      -1.826  40.966  26.061  1.00  0.00     0.012 C 
ENDROOT
BRANCH   1   3
ATOM      3  C   UNL     1      -3.848  40.227  27.319  1.00  0.00    -0.028 C 
ATOM      4  C   UNL     1      -3.141  40.018  28.441  1.00  0.00    -0.027 C 
BRANCH   4   5
ATOM      5  C   UNL     1      -3.647  39.214  29.624  1.00  0.00     0.014 C 
BRANCH   5   6
ATOM      6  C   UNL     1      -3.763  40.085  30.899  1.00  0.00     0.004 C 
ATOM      7  C   UNL     1      -5.127  39.952  31.586  1.00  0.00     0.004 C 
ENDBRANCH   5   6
BRANCH   5   8
ATOM      8  C   UNL     1      -2.874  37.873  29.816  1.00  0.00    -0.011 C 
ATOM      9  C   UNL     1      -1.470  38.120  30.391  1.00  0.00     0.008 C 
ATOM     10  C   UNL     1      -3.614  36.833  30.675  1.00  0.00     0.008 C 
ENDBRANCH   5   8
ENDBRANCH   4   5
ENDBRANCH   1   3
BRANCH   1  11
ATOM     11  C   UNL     1      -4.208  40.924  24.894  1.00  0.00     0.002 C 
ATOM     12  C   UNL     1      -5.724  40.942  25.063  1.00  0.00     0.005 C 
ATOM     13  C   UNL     1      -3.916  39.673  23.999  1.00  0.00    -0.026 C 
ATOM     14  C   UNL     1      -6.242  40.499  23.709  1.00  0.00     0.005 C 
ATOM     15  C   UNL     1      -5.243  39.453  23.199  1.00  0.00    -0.001 C 
ATOM     16  C   UNL     1      -2.717  39.953  23.053  1.00  0.00     0.007 C 
ATOM     17  C   UNL     1      -3.623  38.401  24.836  1.00  0.00     0.012 C 
ATOM     18  C   UNL     1      -5.085  39.498  21.648  1.00  0.00     0.000 C 
ATOM     19  C   UNL     1      -2.578  38.897  21.946  1.00  0.00     0.005 C 
ATOM     20  C   UNL     1      -3.912  38.590  21.189  1.00  0.00     0.003 C 
ATOM     21  C   UNL     1      -6.406  39.058  20.982  1.00  0.00     0.031 C 
ATOM     22  C   UNL     1      -3.761  38.565  19.617  1.00  0.00    -0.008 C 
ATOM     23  C   UNL     1      -6.280  38.674  19.538  1.00  0.00    -0.027 C 
ATOM     24  C   UNL     1      -5.121  38.304  18.953  1.00  0.00    -0.065 C 
ATOM     25  C   UNL     1      -2.784  37.410  19.234  1.00  0.00     0.014 C 
ATOM     26  C   UNL     1      -3.220  39.913  19.058  1.00  0.00     0.016 C 
ATOM     27  C   UNL     1      -5.166  37.848  17.505  1.00  0.00     0.063 C 
ATOM     28  C   UNL     1      -2.775  37.085  17.734  1.00  0.00     0.033 C 
ATOM     29  C   UNL     1      -4.175  36.704  17.246  1.00  0.00     0.118 C 
BRANCH  29  30
ATOM     30  O   UNL     1      -4.113  36.412  15.875  1.00  0.00    -0.393 OA
ATOM     31  H   UNL     1      -3.151  36.426  15.619  1.00  0.00     0.210 HD
ENDBRANCH  29  30
ENDBRANCH   1  11
TORSDOF 6
ENDMDL
MODEL 6
REMARK VINA RESULT:    -4.226      2.705      7.631
REMARK INTER + INTRA:          -5.869
REMARK INTER:                  -5.123
REMARK INTRA:                  -0.746
REMARK UNBOUND:                -0.284
REMARK SMILES CC[C@@H](C=C[C@@H](C)[C@@H]1CC[C@H]2[C@@H]3CC=C4C[C@@H](O)CC[C@]4(C)[C@H]3CC[C@]21C)C(C)C
REMARK SMILES IDX 6 1 7 2 5 3 4 4 3 5 2 6 1 7 28 8 29 9 30 10 8 11 9 12 26 13
REMARK SMILES IDX 10 14 11 15 25 16 27 17 12 18 24 19 23 20 13 21 21 22 14 23
REMARK SMILES IDX 15 24 20 25 22 26 16 27 19 28 17 29 18 30
REMARK H PARENT 18 31
REMARK Flexibility Score: inf
ROOT
ATOM      1  C   UNL     1      -6.717  39.192  22.680  1.00  0.00     0.012 C 
ATOM      2  C   UNL     1      -8.219  39.505  22.847  1.00  0.00     0.012 C 
ENDROOT
BRANCH   1   3
ATOM      3  C   UNL     1      -5.905  40.271  23.372  1.00  0.00    -0.028 C 
ATOM      4  C   UNL     1      -4.973  39.990  24.299  1.00  0.00    -0.027 C 
BRANCH   4   5
ATOM      5  C   UNL     1      -4.071  41.030  24.933  1.00  0.00     0.014 C 
BRANCH   5   6
ATOM      6  C   UNL     1      -2.604  40.878  24.461  1.00  0.00     0.004 C 
ATOM      7  C   UNL     1      -2.311  39.494  23.870  1.00  0.00     0.004 C 
ENDBRANCH   5   6
BRANCH   5   8
ATOM      8  C   UNL     1      -4.254  41.124  26.480  1.00  0.00    -0.011 C 
ATOM      9  C   UNL     1      -5.742  41.080  26.865  1.00  0.00     0.008 C 
ATOM     10  C   UNL     1      -3.478  40.060  27.275  1.00  0.00     0.008 C 
ENDBRANCH   5   8
ENDBRANCH   4   5
ENDBRANCH   1   3
BRANCH   1  11
ATOM     11  C   UNL     1      -6.204  38.949  21.213  1.00  0.00     0.002 C 
ATOM     12  C   UNL     1      -7.205  38.341  20.236  1.00  0.00     0.005 C 
ATOM     13  C   UNL     1      -4.890  38.121  21.013  1.00  0.00    -0.026 C 
ATOM     14  C   UNL     1      -6.366  38.020  19.016  1.00  0.00     0.005 C 
ATOM     15  C   UNL     1      -5.000  37.572  19.551  1.00  0.00    -0.001 C 
ATOM     16  C   UNL     1      -3.645  39.032  21.189  1.00  0.00     0.007 C 
ATOM     17  C   UNL     1      -4.790  36.921  21.989  1.00  0.00     0.012 C 
ATOM     18  C   UNL     1      -3.832  37.991  18.607  1.00  0.00     0.000 C 
ATOM     19  C   UNL     1      -2.350  38.364  20.704  1.00  0.00     0.005 C 
ATOM     20  C   UNL     1      -2.459  37.725  19.280  1.00  0.00     0.003 C 
ATOM     21  C   UNL     1      -3.943  37.219  17.275  1.00  0.00     0.031 C 
ATOM     22  C   UNL     1      -1.251  38.083  18.327  1.00  0.00    -0.008 C 
ATOM     23  C   UNL     1      -2.693  37.218  16.447  1.00  0.00    -0.027 C 
ATOM     24  C   UNL     1      -1.460  37.456  16.941  1.00  0.00    -0.065 C 
ATOM     25  C   UNL     1       0.057  37.502  18.951  1.00  0.00     0.014 C 
ATOM     26  C   UNL     1      -1.097  39.618  18.127  1.00  0.00     0.016 C 
ATOM     27  C   UNL     1      -0.276  37.325  15.998  1.00  0.00     0.063 C 
ATOM     28  C   UNL     1       1.255  37.521  17.991  1.00  0.00     0.033 C 
ATOM     29  C   UNL     1       0.948  36.735  16.714  1.00  0.00     0.118 C 
BRANCH  29  30
ATOM     30  O   UNL     1       2.072  36.777  15.875  1.00  0.00    -0.393 OA
ATOM     31  H   UNL     1       2.554  37.624  16.079  1.00  0.00     0.210 HD
ENDBRANCH  29  30
ENDBRANCH   1  11
TORSDOF 6
ENDMDL
MODEL 7
REMARK VINA RESULT:    -4.215      2.451      4.983
REMARK INTER + INTRA:          -5.854
REMARK INTER:                  -5.645
REMARK INTRA:                  -0.209
REMARK UNBOUND:                -0.284
REMARK SMILES CC[C@@H](C=C[C@@H](C)[C@@H]1CC[C@H]2[C@@H]3CC=C4C[C@@H](O)CC[C@]4(C)[C@H]3CC[C@]21C)C(C)C
REMARK SMILES IDX 6 1 7 2 5 3 4 4 3 5 2 6 1 7 28 8 29 9 30 10 8 11 9 12 26 13
REMARK SMILES IDX 10 14 11 15 25 16 27 17 12 18 24 19 23 20 13 21 21 22 14 23
REMARK SMILES IDX 15 24 20 25 22 26 16 27 19 28 17 29 18 30
REMARK H PARENT 18 31
REMARK Flexibility Score: inf
ROOT
ATOM      1  C   UNL     1       1.027  37.281  16.851  1.00  0.00     0.012 C 
ATOM      2  C   UNL     1       2.151  37.784  15.920  1.00  0.00     0.012 C 
ENDROOT
BRANCH   1   3
ATOM      3  C   UNL     1       0.466  35.986  16.298  1.00  0.00    -0.028 C 
ATOM      4  C   UNL     1       0.120  34.954  17.087  1.00  0.00    -0.027 C 
BRANCH   4   5
ATOM      5  C   UNL     1      -0.541  33.686  16.581  1.00  0.00     0.014 C 
BRANCH   5   6
ATOM      6  C   UNL     1      -2.085  33.810  16.578  1.00  0.00     0.004 C 
ATOM      7  C   UNL     1      -2.564  35.255  16.395  1.00  0.00     0.004 C 
ENDBRANCH   5   6
BRANCH   5   8
ATOM      8  C   UNL     1       0.012  32.401  17.271  1.00  0.00    -0.011 C 
ATOM      9  C   UNL     1      -0.769  32.084  18.557  1.00  0.00     0.008 C 
ATOM     10  C   UNL     1       0.047  31.160  16.363  1.00  0.00     0.008 C 
ENDBRANCH   5   8
ENDBRANCH   4   5
ENDBRANCH   1   3
BRANCH   1  11
ATOM     11  C   UNL     1      -0.122  38.301  17.187  1.00  0.00     0.002 C 
ATOM     12  C   UNL     1       0.225  39.781  17.060  1.00  0.00     0.005 C 
ATOM     13  C   UNL     1      -0.851  38.174  18.566  1.00  0.00    -0.026 C 
ATOM     14  C   UNL     1      -0.976  40.484  17.660  1.00  0.00     0.005 C 
ATOM     15  C   UNL     1      -1.443  39.599  18.823  1.00  0.00    -0.001 C 
ATOM     16  C   UNL     1      -1.966  37.095  18.490  1.00  0.00     0.007 C 
ATOM     17  C   UNL     1       0.122  37.824  19.722  1.00  0.00     0.012 C 
ATOM     18  C   UNL     1      -2.992  39.639  19.007  1.00  0.00     0.000 C 
ATOM     19  C   UNL     1      -2.914  37.140  19.699  1.00  0.00     0.005 C 
ATOM     20  C   UNL     1      -3.450  38.571  20.035  1.00  0.00     0.003 C 
ATOM     21  C   UNL     1      -3.420  41.050  19.461  1.00  0.00     0.031 C 
ATOM     22  C   UNL     1      -5.008  38.622  20.291  1.00  0.00    -0.008 C 
ATOM     23  C   UNL     1      -4.796  41.125  20.053  1.00  0.00    -0.027 C 
ATOM     24  C   UNL     1      -5.456  40.065  20.566  1.00  0.00    -0.065 C 
ATOM     25  C   UNL     1      -5.331  37.747  21.542  1.00  0.00     0.014 C 
ATOM     26  C   UNL     1      -5.821  38.107  19.068  1.00  0.00     0.016 C 
ATOM     27  C   UNL     1      -6.805  40.313  21.220  1.00  0.00     0.063 C 
ATOM     28  C   UNL     1      -6.757  37.943  22.076  1.00  0.00     0.033 C 
ATOM     29  C   UNL     1      -7.010  39.407  22.443  1.00  0.00     0.118 C 
BRANCH  29  30
ATOM     30  O   UNL     1      -8.320  39.532  22.929  1.00  0.00    -0.393 OA
ATOM     31  H   UNL     1      -8.278  39.401  23.915  1.00  0.00     0.210 HD
ENDBRANCH  29  30
ENDBRANCH   1  11
TORSDOF 6
ENDMDL
MODEL 8
REMARK VINA RESULT:    -3.211      1.484      3.441
REMARK INTER + INTRA:          -4.528
REMARK INTER:                  -4.478
REMARK INTRA:                  -0.050
REMARK UNBOUND:                -0.284
REMARK SMILES CC[C@@H](C=C[C@@H](C)[C@@H]1CC[C@H]2[C@@H]3CC=C4C[C@@H](O)CC[C@]4(C)[C@H]3CC[C@]21C)C(C)C
REMARK SMILES IDX 6 1 7 2 5 3 4 4 3 5 2 6 1 7 28 8 29 9 30 10 8 11 9 12 26 13
REMARK SMILES IDX 10 14 11 15 25 16 27 17 12 18 24 19 23 20 13 21 21 22 14 23
REMARK SMILES IDX 15 24 20 25 22 26 16 27 19 28 17 29 18 30
REMARK H PARENT 18 31
REMARK Flexibility Score: inf
ROOT
ATOM      1  C   UNL     1      -5.241  38.234  18.294  1.00  0.00     0.012 C 
ATOM      2  C   UNL     1      -6.530  37.551  18.800  1.00  0.00     0.012 C 
ENDROOT
BRANCH   1   3
ATOM      3  C   UNL     1      -4.332  37.187  17.679  1.00  0.00    -0.028 C 
ATOM      4  C   UNL     1      -3.228  37.508  16.984  1.00  0.00    -0.027 C 
BRANCH   4   5
ATOM      5  C   UNL     1      -2.240  36.491  16.447  1.00  0.00     0.014 C 
BRANCH   5   6
ATOM      6  C   UNL     1      -2.793  35.048  16.550  1.00  0.00     0.004 C 
ATOM      7  C   UNL     1      -1.761  34.054  17.097  1.00  0.00     0.004 C 
ENDBRANCH   5   6
BRANCH   5   8
ATOM      8  C   UNL     1      -0.803  36.684  17.024  1.00  0.00    -0.011 C 
ATOM      9  C   UNL     1       0.189  37.076  15.917  1.00  0.00     0.008 C 
ATOM     10  C   UNL     1      -0.716  37.691  18.183  1.00  0.00     0.008 C 
ENDBRANCH   5   8
ENDBRANCH   4   5
ENDBRANCH   1   3
BRANCH   1  11
ATOM     11  C   UNL     1      -4.462  39.127  19.328  1.00  0.00     0.002 C 
ATOM     12  C   UNL     1      -3.125  39.694  18.862  1.00  0.00     0.005 C 
ATOM     13  C   UNL     1      -4.178  38.541  20.751  1.00  0.00    -0.026 C 
ATOM     14  C   UNL     1      -2.529  40.291  20.122  1.00  0.00     0.005 C 
ATOM     15  C   UNL     1      -2.945  39.357  21.265  1.00  0.00    -0.001 C 
ATOM     16  C   UNL     1      -5.415  38.733  21.671  1.00  0.00     0.007 C 
ATOM     17  C   UNL     1      -3.798  37.038  20.710  1.00  0.00     0.012 C 
ATOM     18  C   UNL     1      -3.185  40.130  22.599  1.00  0.00     0.000 C 
ATOM     19  C   UNL     1      -5.099  38.467  23.150  1.00  0.00     0.005 C 
ATOM     20  C   UNL     1      -3.816  39.199  23.668  1.00  0.00     0.003 C 
ATOM     21  C   UNL     1      -1.847  40.711  23.105  1.00  0.00     0.031 C 
ATOM     22  C   UNL     1      -4.018  39.934  25.051  1.00  0.00    -0.008 C 
ATOM     23  C   UNL     1      -1.852  41.124  24.546  1.00  0.00    -0.027 C 
ATOM     24  C   UNL     1      -2.730  40.662  25.462  1.00  0.00    -0.065 C 
ATOM     25  C   UNL     1      -4.357  38.862  26.134  1.00  0.00     0.014 C 
ATOM     26  C   UNL     1      -5.155  40.995  24.992  1.00  0.00     0.016 C 
ATOM     27  C   UNL     1      -2.550  41.097  26.906  1.00  0.00     0.063 C 
ATOM     28  C   UNL     1      -4.289  39.398  27.571  1.00  0.00     0.033 C 
ATOM     29  C   UNL     1      -2.900  39.964  27.881  1.00  0.00     0.118 C 
BRANCH  29  30
ATOM     30  O   UNL     1      -2.888  40.434  29.202  1.00  0.00    -0.393 OA
ATOM     31  H   UNL     1      -1.934  40.575  29.451  1.00  0.00     0.210 HD
ENDBRANCH  29  30
ENDBRANCH   1  11
TORSDOF 6
ENDMDL
MODEL 9
REMARK VINA RESULT:    -3.053      3.833      9.762
REMARK INTER + INTRA:          -4.319
REMARK INTER:                  -3.994
REMARK INTRA:                  -0.325
REMARK UNBOUND:                -0.284
REMARK SMILES CC[C@@H](C=C[C@@H](C)[C@@H]1CC[C@H]2[C@@H]3CC=C4C[C@@H](O)CC[C@]4(C)[C@H]3CC[C@]21C)C(C)C
REMARK SMILES IDX 6 1 7 2 5 3 4 4 3 5 2 6 1 7 28 8 29 9 30 10 8 11 9 12 26 13
REMARK SMILES IDX 10 14 11 15 25 16 27 17 12 18 24 19 23 20 13 21 21 22 14 23
REMARK SMILES IDX 15 24 20 25 22 26 16 27 19 28 17 29 18 30
REMARK H PARENT 18 31
REMARK Flexibility Score: inf
ROOT
ATOM      1  C   UNL     1      -3.250  41.125  27.674  1.00  0.00     0.012 C 
ATOM      2  C   UNL     1      -1.753  40.876  27.392  1.00  0.00     0.012 C 
ENDROOT
BRANCH   1   3
ATOM      3  C   UNL     1      -3.711  40.191  28.775  1.00  0.00    -0.028 C 
ATOM      4  C   UNL     1      -3.066  40.086  29.950  1.00  0.00    -0.027 C 
BRANCH   4   5
ATOM      5  C   UNL     1      -3.556  39.244  31.112  1.00  0.00     0.014 C 
BRANCH   5   6
ATOM      6  C   UNL     1      -3.327  39.955  32.469  1.00  0.00     0.004 C 
ATOM      7  C   UNL     1      -2.024  39.523  33.153  1.00  0.00     0.004 C 
ENDBRANCH   5   6
BRANCH   5   8
ATOM      8  C   UNL     1      -3.042  37.773  31.049  1.00  0.00    -0.011 C 
ATOM      9  C   UNL     1      -4.130  36.828  30.514  1.00  0.00     0.008 C 
ATOM     10  C   UNL     1      -1.747  37.588  30.238  1.00  0.00     0.008 C 
ENDBRANCH   5   8
ENDBRANCH   4   5
ENDBRANCH   1   3
BRANCH   1  11
ATOM     11  C   UNL     1      -4.220  41.067  26.437  1.00  0.00     0.002 C 
ATOM     12  C   UNL     1      -5.713  41.125  26.743  1.00  0.00     0.005 C 
ATOM     13  C   UNL     1      -4.061  39.886  25.421  1.00  0.00    -0.026 C 
ATOM     14  C   UNL     1      -6.365  40.818  25.409  1.00  0.00     0.005 C 
ATOM     15  C   UNL     1      -5.460  39.783  24.728  1.00  0.00    -0.001 C 
ATOM     16  C   UNL     1      -2.937  40.203  24.397  1.00  0.00     0.007 C 
ATOM     17  C   UNL     1      -3.752  38.538  26.121  1.00  0.00     0.012 C 
ATOM     18  C   UNL     1      -5.435  39.954  23.177  1.00  0.00     0.000 C 
ATOM     19  C   UNL     1      -2.940  39.241  23.200  1.00  0.00     0.005 C 
ATOM     20  C   UNL     1      -4.347  39.047  22.543  1.00  0.00     0.003 C 
ATOM     21  C   UNL     1      -6.827  39.620  22.600  1.00  0.00     0.031 C 
ATOM     22  C   UNL     1      -4.333  39.150  20.967  1.00  0.00    -0.008 C 
ATOM     23  C   UNL     1      -6.843  39.356  21.124  1.00  0.00    -0.027 C 
ATOM     24  C   UNL     1      -5.756  38.995  20.409  1.00  0.00    -0.065 C 
ATOM     25  C   UNL     1      -3.444  37.996  20.405  1.00  0.00     0.014 C 
ATOM     26  C   UNL     1      -3.785  40.520  20.473  1.00  0.00     0.016 C 
ATOM     27  C   UNL     1      -5.946  38.666  18.938  1.00  0.00     0.063 C 
ATOM     28  C   UNL     1      -3.579  37.800  18.889  1.00  0.00     0.033 C 
ATOM     29  C   UNL     1      -5.031  37.513  18.500  1.00  0.00     0.118 C 
BRANCH  29  30
ATOM     30  O   UNL     1      -5.101  37.336  17.109  1.00  0.00    -0.393 OA
ATOM     31  H   UNL     1      -5.892  36.759  16.929  1.00  0.00     0.210 HD
ENDBRANCH  29  30
ENDBRANCH   1  11
TORSDOF 6
ENDMDL
