MODEL 1
REMARK VINA RESULT:    30.980      0.000      0.000
REMARK INTER + INTRA:          36.913
REMARK INTER:                  37.319
REMARK INTRA:                  -0.406
REMARK UNBOUND:                -0.406
REMARK SMILES O=c1c(O)c(-c2ccc(O)cc2O)oc2cc(O)cc(O)c12
REMARK SMILES IDX 5 1 3 2 2 3 1 4 22 5 20 6 19 7 17 8 16 9 15 10 14 11 6 12
REMARK SMILES IDX 8 13 7 14 9 15 11 16 12 17 10 18 13 20 4 22 21 24 18 26
REMARK H PARENT 10 19 13 21 4 23 21 25 18 27
REMARK Flexibility Score: inf
ROOT
ATOM      1  C   UNL     1       9.350   1.487   8.856  1.00  0.00     0.184 A 
ATOM      2  C   UNL     1      10.079   0.387   8.372  1.00  0.00     0.208 A 
ATOM      3  C   UNL     1      11.071   0.603   7.403  1.00  0.00     0.238 A 
ATOM      4  O   UNL     1      11.739  -0.375   6.969  1.00  0.00    -0.285 OA
ATOM      5  C   UNL     1      11.303   1.910   6.924  1.00  0.00     0.111 A 
ATOM      6  C   UNL     1      12.282   2.213   5.947  1.00  0.00     0.134 A 
ATOM      7  C   UNL     1      12.444   3.538   5.514  1.00  0.00     0.093 A 
ATOM      8  C   UNL     1      11.649   4.562   6.040  1.00  0.00     0.123 A 
ATOM      9  C   UNL     1      10.683   4.267   7.004  1.00  0.00     0.094 A 
ATOM     10  C   UNL     1      10.506   2.955   7.449  1.00  0.00     0.146 A 
ATOM     11  O   UNL     1       9.583   2.704   8.371  1.00  0.00    -0.451 OA
ENDROOT
BRANCH   1  12
ATOM     12  C   UNL     1       8.300   1.331   9.884  1.00  0.00     0.063 A 
ATOM     13  C   UNL     1       7.710   1.074  12.228  1.00  0.00     0.047 A 
ATOM     14  C   UNL     1       8.678   1.226  11.232  1.00  0.00     0.020 A 
ATOM     15  C   UNL     1       6.357   1.009  11.889  1.00  0.00     0.119 A 
ATOM     16  C   UNL     1       5.972   1.088  10.546  1.00  0.00     0.093 A 
ATOM     17  C   UNL     1       6.936   1.237   9.538  1.00  0.00     0.130 A 
BRANCH  15  18
ATOM     18  O   UNL     1       5.403   0.860  12.895  1.00  0.00    -0.508 OA
ATOM     19  H   UNL     1       4.428   1.083  12.736  1.00  0.00     0.293 HD
ENDBRANCH  15  18
BRANCH  17  20
ATOM     20  O   UNL     1       6.544   1.265   8.200  1.00  0.00    -0.507 OA
ATOM     21  H   UNL     1       5.870   0.605   7.829  1.00  0.00     0.293 HD
ENDBRANCH  17  20
ENDBRANCH   1  12
BRANCH   2  22
ATOM     22  O   UNL     1       9.795  -0.901   8.834  1.00  0.00    -0.502 OA
ATOM     23  H   UNL     1       9.216  -1.069   9.648  1.00  0.00     0.293 HD
ENDBRANCH   2  22
BRANCH   6  24
ATOM     24  O   UNL     1      13.089   1.213   5.405  1.00  0.00    -0.507 OA
ATOM     25  H   UNL     1      14.031   1.048   5.741  1.00  0.00     0.293 HD
ENDBRANCH   6  24
BRANCH   8  26
ATOM     26  O   UNL     1      11.810   5.877   5.610  1.00  0.00    -0.508 OA
ATOM     27  H   UNL     1      11.154   6.310   4.971  1.00  0.00     0.293 HD
ENDBRANCH   8  26
TORSDOF 6
ENDMDL
MODEL 2
REMARK VINA RESULT:    31.335      1.172      2.808
REMARK INTER + INTRA:          37.341
REMARK INTER:                  37.651
REMARK INTRA:                  -0.310
REMARK UNBOUND:                -0.406
REMARK SMILES O=c1c(O)c(-c2ccc(O)cc2O)oc2cc(O)cc(O)c12
REMARK SMILES IDX 5 1 3 2 2 3 1 4 22 5 20 6 19 7 17 8 16 9 15 10 14 11 6 12
REMARK SMILES IDX 8 13 7 14 9 15 11 16 12 17 10 18 13 20 4 22 21 24 18 26
REMARK H PARENT 10 19 13 21 4 23 21 25 18 27
REMARK Flexibility Score: inf
ROOT
ATOM      1  C   UNL     1       9.336   2.137   8.689  1.00  0.00     0.184 A 
ATOM      2  C   UNL     1       9.280   3.455   8.203  1.00  0.00     0.208 A 
ATOM      3  C   UNL     1      10.198   3.856   7.221  1.00  0.00     0.238 A 
ATOM      4  O   UNL     1      10.150   5.033   6.770  1.00  0.00    -0.285 OA
ATOM      5  C   UNL     1      11.165   2.941   6.757  1.00  0.00     0.111 A 
ATOM      6  C   UNL     1      12.129   3.266   5.772  1.00  0.00     0.134 A 
ATOM      7  C   UNL     1      13.065   2.301   5.370  1.00  0.00     0.093 A 
ATOM      8  C   UNL     1      13.056   1.020   5.935  1.00  0.00     0.123 A 
ATOM      9  C   UNL     1      12.108   0.696   6.906  1.00  0.00     0.094 A 
ATOM     10  C   UNL     1      11.166   1.641   7.319  1.00  0.00     0.146 A 
ATOM     11  O   UNL     1      10.272   1.304   8.242  1.00  0.00    -0.451 OA
ENDROOT
BRANCH   1  12
ATOM     12  C   UNL     1       8.392   1.646   9.714  1.00  0.00     0.063 A 
ATOM     13  C   UNL     1       7.994   0.967  12.015  1.00  0.00     0.047 A 
ATOM     14  C   UNL     1       8.859   1.434  11.022  1.00  0.00     0.020 A 
ATOM     15  C   UNL     1       6.659   0.690  11.711  1.00  0.00     0.119 A 
ATOM     16  C   UNL     1       6.191   0.875  10.404  1.00  0.00     0.093 A 
ATOM     17  C   UNL     1       7.052   1.340   9.400  1.00  0.00     0.130 A 
BRANCH  15  18
ATOM     18  O   UNL     1       5.808   0.228  12.713  1.00  0.00    -0.508 OA
ATOM     19  H   UNL     1       5.455   0.845  13.434  1.00  0.00     0.293 HD
ENDBRANCH  15  18
BRANCH  17  20
ATOM     20  O   UNL     1       6.587   1.473   8.092  1.00  0.00    -0.507 OA
ATOM     21  H   UNL     1       5.644   1.204   7.833  1.00  0.00     0.293 HD
ENDBRANCH  17  20
ENDBRANCH   1  12
BRANCH   2  22
ATOM     22  O   UNL     1       8.337   4.351   8.716  1.00  0.00    -0.502 OA
ATOM     23  H   UNL     1       8.577   5.302   8.969  1.00  0.00     0.293 HD
ENDBRANCH   2  22
BRANCH   6  24
ATOM     24  O   UNL     1      12.163   4.534   5.191  1.00  0.00    -0.507 OA
ATOM     25  H   UNL     1      11.530   5.270   5.482  1.00  0.00     0.293 HD
ENDBRANCH   6  24
BRANCH   8  26
ATOM     26  O   UNL     1      13.986   0.063   5.536  1.00  0.00    -0.508 OA
ATOM     27  H   UNL     1      14.524   0.169   4.684  1.00  0.00     0.293 HD
ENDBRANCH   8  26
TORSDOF 6
ENDMDL
MODEL 3
REMARK VINA RESULT:    31.749      4.972      7.775
REMARK INTER + INTRA:          37.840
REMARK INTER:                  38.248
REMARK INTRA:                  -0.409
REMARK UNBOUND:                -0.406
REMARK SMILES O=c1c(O)c(-c2ccc(O)cc2O)oc2cc(O)cc(O)c12
REMARK SMILES IDX 5 1 3 2 2 3 1 4 22 5 20 6 19 7 17 8 16 9 15 10 14 11 6 12
REMARK SMILES IDX 8 13 7 14 9 15 11 16 12 17 10 18 13 20 4 22 21 24 18 26
REMARK H PARENT 10 19 13 21 4 23 21 25 18 27
REMARK Flexibility Score: inf
ROOT
ATOM      1  C   UNL     1      15.070   3.723   8.785  1.00  0.00     0.184 A 
ATOM      2  C   UNL     1      14.323   4.832   8.351  1.00  0.00     0.208 A 
ATOM      3  C   UNL     1      13.308   4.637   7.402  1.00  0.00     0.238 A 
ATOM      4  O   UNL     1      12.623   5.622   7.013  1.00  0.00    -0.285 OA
ATOM      5  C   UNL     1      13.072   3.343   6.890  1.00  0.00     0.111 A 
ATOM      6  C   UNL     1      12.072   3.062   5.929  1.00  0.00     0.134 A 
ATOM      7  C   UNL     1      11.907   1.749   5.462  1.00  0.00     0.093 A 
ATOM      8  C   UNL     1      12.722   0.715   5.938  1.00  0.00     0.123 A 
ATOM      9  C   UNL     1      13.709   0.989   6.886  1.00  0.00     0.094 A 
ATOM     10  C   UNL     1      13.889   2.289   7.365  1.00  0.00     0.146 A 
ATOM     11  O   UNL     1      14.833   2.520   8.270  1.00  0.00    -0.451 OA
ENDROOT
BRANCH   1  12
ATOM     12  C   UNL     1      16.145   3.856   9.791  1.00  0.00     0.063 A 
ATOM     13  C   UNL     1      16.790   4.061  12.126  1.00  0.00     0.047 A 
ATOM     14  C   UNL     1      15.799   3.930  11.149  1.00  0.00     0.020 A 
ATOM     15  C   UNL     1      18.135   4.134  11.756  1.00  0.00     0.119 A 
ATOM     16  C   UNL     1      18.488   4.086  10.402  1.00  0.00     0.093 A 
ATOM     17  C   UNL     1      17.500   3.959   9.415  1.00  0.00     0.130 A 
BRANCH  15  18
ATOM     18  O   UNL     1      19.112   4.261  12.742  1.00  0.00    -0.508 OA
ATOM     19  H   UNL     1      19.479   3.453  13.231  1.00  0.00     0.293 HD
ENDBRANCH  15  18
BRANCH  17  20
ATOM     20  O   UNL     1      17.860   3.961   8.068  1.00  0.00    -0.507 OA
ATOM     21  H   UNL     1      17.263   4.373   7.359  1.00  0.00     0.293 HD
ENDBRANCH  17  20
ENDBRANCH   1  12
BRANCH   2  22
ATOM     22  O   UNL     1      14.610   6.108   8.844  1.00  0.00    -0.502 OA
ATOM     23  H   UNL     1      15.277   6.262   9.590  1.00  0.00     0.293 HD
ENDBRANCH   2  22
BRANCH   6  24
ATOM     24  O   UNL     1      11.245   4.071   5.436  1.00  0.00    -0.507 OA
ATOM     25  H   UNL     1      10.297   3.882   5.133  1.00  0.00     0.293 HD
ENDBRANCH   6  24
BRANCH   8  26
ATOM     26  O   UNL     1      12.558  -0.588   5.473  1.00  0.00    -0.508 OA
ATOM     27  H   UNL     1      13.248  -1.029   4.876  1.00  0.00     0.293 HD
ENDBRANCH   8  26
TORSDOF 6
ENDMDL
MODEL 4
REMARK VINA RESULT:    31.953      4.822      7.144
REMARK INTER + INTRA:          38.085
REMARK INTER:                  38.397
REMARK INTRA:                  -0.312
REMARK UNBOUND:                -0.406
REMARK SMILES O=c1c(O)c(-c2ccc(O)cc2O)oc2cc(O)cc(O)c12
REMARK SMILES IDX 5 1 3 2 2 3 1 4 22 5 20 6 19 7 17 8 16 9 15 10 14 11 6 12
REMARK SMILES IDX 8 13 7 14 9 15 11 16 12 17 10 18 13 20 4 22 21 24 18 26
REMARK H PARENT 10 19 13 21 4 23 21 25 18 27
REMARK Flexibility Score: inf
ROOT
ATOM      1  C   UNL     1      15.095   3.059   8.620  1.00  0.00     0.184 A 
ATOM      2  C   UNL     1      15.181   1.774   8.057  1.00  0.00     0.208 A 
ATOM      3  C   UNL     1      14.239   1.393   7.089  1.00  0.00     0.238 A 
ATOM      4  O   UNL     1      14.313   0.247   6.568  1.00  0.00    -0.285 OA
ATOM      5  C   UNL     1      13.220   2.295   6.717  1.00  0.00     0.111 A 
ATOM      6  C   UNL     1      12.230   1.988   5.752  1.00  0.00     0.134 A 
ATOM      7  C   UNL     1      11.242   2.936   5.445  1.00  0.00     0.093 A 
ATOM      8  C   UNL     1      11.227   4.182   6.082  1.00  0.00     0.123 A 
ATOM      9  C   UNL     1      12.202   4.488   7.034  1.00  0.00     0.094 A 
ATOM     10  C   UNL     1      13.194   3.559   7.354  1.00  0.00     0.146 A 
ATOM     11  O   UNL     1      14.112   3.878   8.260  1.00  0.00    -0.451 OA
ENDROOT
BRANCH   1  12
ATOM     12  C   UNL     1      16.061   3.527   9.636  1.00  0.00     0.063 A 
ATOM     13  C   UNL     1      16.504   4.181  11.935  1.00  0.00     0.047 A 
ATOM     14  C   UNL     1      15.617   3.735  10.952  1.00  0.00     0.020 A 
ATOM     15  C   UNL     1      17.838   4.440  11.614  1.00  0.00     0.119 A 
ATOM     16  C   UNL     1      18.284   4.259  10.299  1.00  0.00     0.093 A 
ATOM     17  C   UNL     1      17.401   3.816   9.304  1.00  0.00     0.130 A 
BRANCH  15  18
ATOM     18  O   UNL     1      18.710   4.882  12.607  1.00  0.00    -0.508 OA
ATOM     19  H   UNL     1      18.796   5.866  12.836  1.00  0.00     0.293 HD
ENDBRANCH  15  18
BRANCH  17  20
ATOM     20  O   UNL     1      17.845   3.687   7.989  1.00  0.00    -0.507 OA
ATOM     21  H   UNL     1      18.789   3.939   7.719  1.00  0.00     0.293 HD
ENDBRANCH  17  20
ENDBRANCH   1  12
BRANCH   2  22
ATOM     22  O   UNL     1      16.176   0.888   8.479  1.00  0.00    -0.502 OA
ATOM     23  H   UNL     1      16.929   1.172   9.093  1.00  0.00     0.293 HD
ENDBRANCH   2  22
BRANCH   6  24
ATOM     24  O   UNL     1      12.220   0.755   5.100  1.00  0.00    -0.507 OA
ATOM     25  H   UNL     1      12.068   0.682   4.101  1.00  0.00     0.293 HD
ENDBRANCH   6  24
BRANCH   8  26
ATOM     26  O   UNL     1      10.246   5.123   5.777  1.00  0.00    -0.508 OA
ATOM     27  H   UNL     1       9.986   5.326   4.819  1.00  0.00     0.293 HD
ENDBRANCH   8  26
TORSDOF 6
ENDMDL
