MODEL 1
REMARK VINA RESULT:    -4.901      0.000      0.000
REMARK INTER + INTRA:         -10.070
REMARK INTER:                  -8.340
REMARK INTRA:                  -1.730
REMARK UNBOUND:                -1.730
REMARK SMILES CCCCCCCCCCCCCC(=O)[O-]
REMARK SMILES IDX 8 1 9 2 10 3 11 4 12 5 13 6 14 7 15 8 16 9 7 10 6 11 5 12
REMARK SMILES IDX 4 13 3 14 2 15 1 16
REMARK H PARENT
REMARK Flexibility Score: inf
ROOT
ATOM      1  C   UNL     1     137.874 130.215 129.364  1.00  0.00     0.000 C 
ENDROOT
BRANCH   1   2
ATOM      2  C   UNL     1     138.066 130.875 127.988  1.00  0.00     0.000 C 
BRANCH   2   3
ATOM      3  C   UNL     1     136.869 131.748 127.569  1.00  0.00     0.000 C 
BRANCH   3   4
ATOM      4  C   UNL     1     136.943 133.222 128.006  1.00  0.00     0.000 C 
BRANCH   4   5
ATOM      5  C   UNL     1     135.755 133.650 128.880  1.00  0.00     0.006 C 
BRANCH   5   6
ATOM      6  C   UNL     1     136.048 133.401 130.363  1.00  0.00     0.053 C 
BRANCH   6   7
ATOM      7  C   UNL     1     135.047 132.452 130.943  1.00  0.00     0.041 C 
ATOM      8  O   UNL     1     134.560 131.533 130.233  1.00  0.00    -0.550 OA
ATOM      9  O   UNL     1     134.690 132.552 132.281  1.00  0.00    -0.550 OA
ENDBRANCH   6   7
ENDBRANCH   5   6
ENDBRANCH   4   5
ENDBRANCH   3   4
ENDBRANCH   2   3
ENDBRANCH   1   2
BRANCH   1  10
ATOM     10  C   UNL     1     139.018 130.531 130.345  1.00  0.00     0.000 C 
BRANCH  10  11
ATOM     11  C   UNL     1     139.909 131.724 129.950  1.00  0.00    -0.000 C 
BRANCH  11  12
ATOM     12  C   UNL     1     139.700 133.004 130.783  1.00  0.00    -0.000 C 
BRANCH  12  13
ATOM     13  C   UNL     1     139.832 134.307 129.968  1.00  0.00    -0.000 C 
BRANCH  13  14
ATOM     14  C   UNL     1     140.109 135.532 130.858  1.00  0.00    -0.000 C 
BRANCH  14  15
ATOM     15  C   UNL     1     139.485 136.820 130.298  1.00  0.00    -0.003 C 
ATOM     16  C   UNL     1     138.033 137.011 130.735  1.00  0.00     0.004 C 
ENDBRANCH  14  15
ENDBRANCH  13  14
ENDBRANCH  12  13
ENDBRANCH  11  12
ENDBRANCH  10  11
ENDBRANCH   1  10
TORSDOF 12
ENDMDL
MODEL 2
REMARK VINA RESULT:    -4.879      2.119      4.506
REMARK INTER + INTRA:         -10.032
REMARK INTER:                  -8.259
REMARK INTRA:                  -1.773
REMARK UNBOUND:                -1.730
REMARK SMILES CCCCCCCCCCCCCC(=O)[O-]
REMARK SMILES IDX 8 1 9 2 10 3 11 4 12 5 13 6 14 7 15 8 16 9 7 10 6 11 5 12
REMARK SMILES IDX 4 13 3 14 2 15 1 16
REMARK H PARENT
REMARK Flexibility Score: inf
ROOT
ATOM      1  C   UNL     1     139.191 130.684 130.311  1.00  0.00     0.000 C 
ENDROOT
BRANCH   1   2
ATOM      2  C   UNL     1     139.708 132.077 129.913  1.00  0.00     0.000 C 
BRANCH   2   3
ATOM      3  C   UNL     1     139.591 133.108 131.050  1.00  0.00     0.000 C 
BRANCH   3   4
ATOM      4  C   UNL     1     140.312 134.445 130.803  1.00  0.00     0.000 C 
BRANCH   4   5
ATOM      5  C   UNL     1     139.643 135.296 129.713  1.00  0.00     0.006 C 
BRANCH   5   6
ATOM      6  C   UNL     1     139.487 136.750 130.170  1.00  0.00     0.053 C 
BRANCH   6   7
ATOM      7  C   UNL     1     138.059 137.044 130.505  1.00  0.00     0.041 C 
ATOM      8  O   UNL     1     137.313 136.135 130.955  1.00  0.00    -0.550 OA
ATOM      9  O   UNL     1     137.565 138.334 130.366  1.00  0.00    -0.550 OA
ENDBRANCH   6   7
ENDBRANCH   5   6
ENDBRANCH   4   5
ENDBRANCH   3   4
ENDBRANCH   2   3
ENDBRANCH   1   2
BRANCH   1  10
ATOM     10  C   UNL     1     138.174 130.113 129.305  1.00  0.00     0.000 C 
BRANCH  10  11
ATOM     11  C   UNL     1     138.095 130.858 127.958  1.00  0.00    -0.000 C 
BRANCH  11  12
ATOM     12  C   UNL     1     136.768 131.596 127.694  1.00  0.00    -0.000 C 
BRANCH  12  13
ATOM     13  C   UNL     1     136.890 133.134 127.738  1.00  0.00    -0.000 C 
BRANCH  13  14
ATOM     14  C   UNL     1     136.027 133.760 128.847  1.00  0.00    -0.000 C 
BRANCH  14  15
ATOM     15  C   UNL     1     135.396 132.704 129.768  1.00  0.00    -0.003 C 
ATOM     16  C   UNL     1     135.959 132.748 131.188  1.00  0.00     0.004 C 
ENDBRANCH  14  15
ENDBRANCH  13  14
ENDBRANCH  12  13
ENDBRANCH  11  12
ENDBRANCH  10  11
ENDBRANCH   1  10
TORSDOF 12
ENDMDL
MODEL 3
REMARK VINA RESULT:    -4.875      2.358      4.901
REMARK INTER + INTRA:         -10.025
REMARK INTER:                  -8.204
REMARK INTRA:                  -1.821
REMARK UNBOUND:                -1.730
REMARK SMILES CCCCCCCCCCCCCC(=O)[O-]
REMARK SMILES IDX 8 1 9 2 10 3 11 4 12 5 13 6 14 7 15 8 16 9 7 10 6 11 5 12
REMARK SMILES IDX 4 13 3 14 2 15 1 16
REMARK H PARENT
REMARK Flexibility Score: inf
ROOT
ATOM      1  C   UNL     1     138.106 130.873 127.967  1.00  0.00     0.000 C 
ENDROOT
BRANCH   1   2
ATOM      2  C   UNL     1     138.087 130.143 129.321  1.00  0.00     0.000 C 
BRANCH   2   3
ATOM      3  C   UNL     1     139.178 130.642 130.286  1.00  0.00     0.000 C 
BRANCH   3   4
ATOM      4  C   UNL     1     139.749 132.036 129.970  1.00  0.00     0.000 C 
BRANCH   4   5
ATOM      5  C   UNL     1     139.294 133.112 130.968  1.00  0.00     0.006 C 
BRANCH   5   6
ATOM      6  C   UNL     1     140.270 134.292 130.984  1.00  0.00     0.053 C 
BRANCH   6   7
ATOM      7  C   UNL     1     139.649 135.494 130.345  1.00  0.00     0.041 C 
ATOM      8  O   UNL     1     139.142 135.410 129.195  1.00  0.00    -0.550 OA
ATOM      9  O   UNL     1     139.586 136.695 131.039  1.00  0.00    -0.550 OA
ENDBRANCH   6   7
ENDBRANCH   5   6
ENDBRANCH   4   5
ENDBRANCH   3   4
ENDBRANCH   2   3
ENDBRANCH   1   2
BRANCH   1  10
ATOM     10  C   UNL     1     136.793 131.624 127.674  1.00  0.00     0.000 C 
BRANCH  10  11
ATOM     11  C   UNL     1     136.845 133.147 127.901  1.00  0.00    -0.000 C 
BRANCH  11  12
ATOM     12  C   UNL     1     135.664 133.730 128.701  1.00  0.00    -0.000 C 
BRANCH  12  13
ATOM     13  C   UNL     1     135.900 133.762 130.226  1.00  0.00    -0.000 C 
BRANCH  13  14
ATOM     14  C   UNL     1     135.590 132.411 130.896  1.00  0.00    -0.000 C 
BRANCH  14  15
ATOM     15  C   UNL     1     134.134 131.967 130.680  1.00  0.00    -0.003 C 
ATOM     16  C   UNL     1     134.027 130.635 129.939  1.00  0.00     0.004 C 
ENDBRANCH  14  15
ENDBRANCH  13  14
ENDBRANCH  12  13
ENDBRANCH  11  12
ENDBRANCH  10  11
ENDBRANCH   1  10
TORSDOF 12
ENDMDL
MODEL 4
REMARK VINA RESULT:    -4.873      2.313      5.146
REMARK INTER + INTRA:         -10.021
REMARK INTER:                  -8.302
REMARK INTRA:                  -1.719
REMARK UNBOUND:                -1.730
REMARK SMILES CCCCCCCCCCCCCC(=O)[O-]
REMARK SMILES IDX 8 1 9 2 10 3 11 4 12 5 13 6 14 7 15 8 16 9 7 10 6 11 5 12
REMARK SMILES IDX 4 13 3 14 2 15 1 16
REMARK H PARENT
REMARK Flexibility Score: inf
ROOT
ATOM      1  C   UNL     1     138.335 132.415 131.516  1.00  0.00     0.000 C 
ENDROOT
BRANCH   1   2
ATOM      2  C   UNL     1     139.601 132.827 130.744  1.00  0.00     0.000 C 
BRANCH   2   3
ATOM      3  C   UNL     1     139.377 134.046 129.831  1.00  0.00     0.000 C 
BRANCH   3   4
ATOM      4  C   UNL     1     140.294 135.251 130.105  1.00  0.00     0.000 C 
BRANCH   4   5
ATOM      5  C   UNL     1     139.657 136.291 131.039  1.00  0.00     0.006 C 
BRANCH   5   6
ATOM      6  C   UNL     1     139.198 137.524 130.254  1.00  0.00     0.053 C 
BRANCH   6   7
ATOM      7  C   UNL     1     137.725 137.732 130.419  1.00  0.00     0.041 C 
ATOM      8  O   UNL     1     137.220 138.869 130.223  1.00  0.00    -0.550 OA
ATOM      9  O   UNL     1     136.904 136.659 130.740  1.00  0.00    -0.550 OA
ENDBRANCH   6   7
ENDBRANCH   5   6
ENDBRANCH   4   5
ENDBRANCH   3   4
ENDBRANCH   2   3
ENDBRANCH   1   2
BRANCH   1  10
ATOM     10  C   UNL     1     137.119 133.301 131.188  1.00  0.00     0.000 C 
BRANCH  10  11
ATOM     11  C   UNL     1     135.792 132.545 130.987  1.00  0.00    -0.000 C 
BRANCH  11  12
ATOM     12  C   UNL     1     135.211 132.607 129.561  1.00  0.00    -0.000 C 
BRANCH  12  13
ATOM     13  C   UNL     1     135.964 133.575 128.623  1.00  0.00    -0.000 C 
BRANCH  13  14
ATOM     14  C   UNL     1     136.742 132.836 127.519  1.00  0.00    -0.000 C 
BRANCH  14  15
ATOM     15  C   UNL     1     136.779 131.316 127.741  1.00  0.00    -0.003 C 
ATOM     16  C   UNL     1     138.185 130.797 128.037  1.00  0.00     0.004 C 
ENDBRANCH  14  15
ENDBRANCH  13  14
ENDBRANCH  12  13
ENDBRANCH  11  12
ENDBRANCH  10  11
ENDBRANCH   1  10
TORSDOF 12
ENDMDL
MODEL 5
REMARK VINA RESULT:    -4.869      1.168      2.208
REMARK INTER + INTRA:         -10.015
REMARK INTER:                  -8.344
REMARK INTRA:                  -1.671
REMARK UNBOUND:                -1.730
REMARK SMILES CCCCCCCCCCCCCC(=O)[O-]
REMARK SMILES IDX 8 1 9 2 10 3 11 4 12 5 13 6 14 7 15 8 16 9 7 10 6 11 5 12
REMARK SMILES IDX 4 13 3 14 2 15 1 16
REMARK H PARENT
REMARK Flexibility Score: inf
ROOT
ATOM      1  C   UNL     1     136.987 131.657 127.296  1.00  0.00     0.000 C 
ENDROOT
BRANCH   1   2
ATOM      2  C   UNL     1     137.033 133.157 127.634  1.00  0.00     0.000 C 
BRANCH   2   3
ATOM      3  C   UNL     1     135.789 133.637 128.402  1.00  0.00     0.000 C 
BRANCH   3   4
ATOM      4  C   UNL     1     135.983 133.823 129.918  1.00  0.00     0.000 C 
BRANCH   4   5
ATOM      5  C   UNL     1     135.327 132.709 130.748  1.00  0.00     0.006 C 
BRANCH   5   6
ATOM      6  C   UNL     1     134.013 132.250 130.110  1.00  0.00     0.053 C 
BRANCH   6   7
ATOM      7  C   UNL     1     133.966 130.757 130.022  1.00  0.00     0.041 C 
ATOM      8  O   UNL     1     134.909 130.125 129.476  1.00  0.00    -0.550 OA
ATOM      9  O   UNL     1     132.906 130.061 130.586  1.00  0.00    -0.550 OA
ENDBRANCH   6   7
ENDBRANCH   5   6
ENDBRANCH   4   5
ENDBRANCH   3   4
ENDBRANCH   2   3
ENDBRANCH   1   2
BRANCH   1  10
ATOM     10  C   UNL     1     138.162 130.870 127.905  1.00  0.00     0.000 C 
BRANCH  10  11
ATOM     11  C   UNL     1     138.312 130.996 129.433  1.00  0.00    -0.000 C 
BRANCH  11  12
ATOM     12  C   UNL     1     139.643 131.610 129.912  1.00  0.00    -0.000 C 
BRANCH  12  13
ATOM     13  C   UNL     1     139.477 132.946 130.667  1.00  0.00    -0.000 C 
BRANCH  13  14
ATOM     14  C   UNL     1     139.663 134.167 129.749  1.00  0.00    -0.000 C 
BRANCH  14  15
ATOM     15  C   UNL     1     140.410 135.316 130.444  1.00  0.00    -0.003 C 
ATOM     16  C   UNL     1     139.476 136.438 130.896  1.00  0.00     0.004 C 
ENDBRANCH  14  15
ENDBRANCH  13  14
ENDBRANCH  12  13
ENDBRANCH  11  12
ENDBRANCH  10  11
ENDBRANCH   1  10
TORSDOF 12
ENDMDL
MODEL 6
REMARK VINA RESULT:    -4.800      2.335      4.703
REMARK INTER + INTRA:          -9.897
REMARK INTER:                  -8.002
REMARK INTRA:                  -1.895
REMARK UNBOUND:                -1.730
REMARK SMILES CCCCCCCCCCCCCC(=O)[O-]
REMARK SMILES IDX 8 1 9 2 10 3 11 4 12 5 13 6 14 7 15 8 16 9 7 10 6 11 5 12
REMARK SMILES IDX 4 13 3 14 2 15 1 16
REMARK H PARENT
REMARK Flexibility Score: inf
ROOT
ATOM      1  C   UNL     1     137.763 130.524 129.483  1.00  0.00     0.000 C 
ENDROOT
BRANCH   1   2
ATOM      2  C   UNL     1     139.100 130.759 130.205  1.00  0.00     0.000 C 
BRANCH   2   3
ATOM      3  C   UNL     1     139.673 132.168 129.965  1.00  0.00     0.000 C 
BRANCH   3   4
ATOM      4  C   UNL     1     139.525 133.148 131.143  1.00  0.00     0.000 C 
BRANCH   4   5
ATOM      5  C   UNL     1     140.237 134.488 130.903  1.00  0.00     0.006 C 
BRANCH   5   6
ATOM      6  C   UNL     1     139.553 135.279 129.784  1.00  0.00     0.053 C 
BRANCH   6   7
ATOM      7  C   UNL     1     138.948 136.536 130.325  1.00  0.00     0.041 C 
ATOM      8  O   UNL     1     139.544 137.636 130.187  1.00  0.00    -0.550 OA
ATOM      9  O   UNL     1     137.702 136.500 130.937  1.00  0.00    -0.550 OA
ENDBRANCH   6   7
ENDBRANCH   5   6
ENDBRANCH   4   5
ENDBRANCH   3   4
ENDBRANCH   2   3
ENDBRANCH   1   2
BRANCH   1  10
ATOM     10  C   UNL     1     137.781 131.005 128.020  1.00  0.00     0.000 C 
BRANCH  10  11
ATOM     11  C   UNL     1     136.610 131.922 127.617  1.00  0.00    -0.000 C 
BRANCH  11  12
ATOM     12  C   UNL     1     136.803 133.415 127.947  1.00  0.00    -0.000 C 
BRANCH  12  13
ATOM     13  C   UNL     1     136.162 133.847 129.283  1.00  0.00    -0.000 C 
BRANCH  13  14
ATOM     14  C   UNL     1     134.776 133.215 129.500  1.00  0.00    -0.000 C 
BRANCH  14  15
ATOM     15  C   UNL     1     134.623 132.599 130.900  1.00  0.00    -0.003 C 
ATOM     16  C   UNL     1     135.886 132.741 131.749  1.00  0.00     0.004 C 
ENDBRANCH  14  15
ENDBRANCH  13  14
ENDBRANCH  12  13
ENDBRANCH  11  12
ENDBRANCH  10  11
ENDBRANCH   1  10
TORSDOF 12
ENDMDL
MODEL 7
REMARK VINA RESULT:    -4.777      2.530      4.428
REMARK INTER + INTRA:          -9.858
REMARK INTER:                  -8.005
REMARK INTRA:                  -1.853
REMARK UNBOUND:                -1.730
REMARK SMILES CCCCCCCCCCCCCC(=O)[O-]
REMARK SMILES IDX 8 1 9 2 10 3 11 4 12 5 13 6 14 7 15 8 16 9 7 10 6 11 5 12
REMARK SMILES IDX 4 13 3 14 2 15 1 16
REMARK H PARENT
REMARK Flexibility Score: inf
ROOT
ATOM      1  C   UNL     1     134.375 131.366 129.996  1.00  0.00     0.000 C 
ENDROOT
BRANCH   1   2
ATOM      2  C   UNL     1     134.666 132.670 130.759  1.00  0.00     0.000 C 
BRANCH   2   3
ATOM      3  C   UNL     1     133.996 133.900 130.121  1.00  0.00     0.000 C 
BRANCH   3   4
ATOM      4  C   UNL     1     134.962 134.931 129.508  1.00  0.00     0.000 C 
BRANCH   4   5
ATOM      5  C   UNL     1     136.439 134.574 129.727  1.00  0.00     0.006 C 
BRANCH   5   6
ATOM      6  C   UNL     1     137.123 135.602 130.633  1.00  0.00     0.053 C 
BRANCH   6   7
ATOM      7  C   UNL     1     138.538 135.825 130.200  1.00  0.00     0.041 C 
ATOM      8  O   UNL     1     139.363 136.365 130.983  1.00  0.00    -0.550 OA
ATOM      9  O   UNL     1     138.958 135.390 128.949  1.00  0.00    -0.550 OA
ENDBRANCH   6   7
ENDBRANCH   5   6
ENDBRANCH   4   5
ENDBRANCH   3   4
ENDBRANCH   2   3
ENDBRANCH   1   2
BRANCH   1  10
ATOM     10  C   UNL     1     135.652 130.677 129.480  1.00  0.00     0.000 C 
BRANCH  10  11
ATOM     11  C   UNL     1     136.222 131.253 128.169  1.00  0.00    -0.000 C 
BRANCH  11  12
ATOM     12  C   UNL     1     137.756 131.401 128.131  1.00  0.00    -0.000 C 
BRANCH  12  13
ATOM     13  C   UNL     1     138.511 130.272 128.865  1.00  0.00    -0.000 C 
BRANCH  13  14
ATOM     14  C   UNL     1     139.516 130.812 129.898  1.00  0.00    -0.000 C 
BRANCH  14  15
ATOM     15  C   UNL     1     139.112 132.189 130.448  1.00  0.00    -0.003 C 
ATOM     16  C   UNL     1     138.324 132.095 131.754  1.00  0.00     0.004 C 
ENDBRANCH  14  15
ENDBRANCH  13  14
ENDBRANCH  12  13
ENDBRANCH  11  12
ENDBRANCH  10  11
ENDBRANCH   1  10
TORSDOF 12
ENDMDL
MODEL 8
REMARK VINA RESULT:    -4.747      2.629      5.585
REMARK INTER + INTRA:          -9.806
REMARK INTER:                  -8.001
REMARK INTRA:                  -1.805
REMARK UNBOUND:                -1.730
REMARK SMILES CCCCCCCCCCCCCC(=O)[O-]
REMARK SMILES IDX 8 1 9 2 10 3 11 4 12 5 13 6 14 7 15 8 16 9 7 10 6 11 5 12
REMARK SMILES IDX 4 13 3 14 2 15 1 16
REMARK H PARENT
REMARK Flexibility Score: inf
ROOT
ATOM      1  C   UNL     1     136.537 133.992 129.291  1.00  0.00     0.000 C 
ENDROOT
BRANCH   1   2
ATOM      2  C   UNL     1     137.127 133.737 130.689  1.00  0.00     0.000 C 
BRANCH   2   3
ATOM      3  C   UNL     1     138.661 133.601 130.677  1.00  0.00     0.000 C 
BRANCH   3   4
ATOM      4  C   UNL     1     139.382 134.383 129.564  1.00  0.00     0.000 C 
BRANCH   4   5
ATOM      5  C   UNL     1     140.384 135.413 130.107  1.00  0.00     0.006 C 
BRANCH   5   6
ATOM      6  C   UNL     1     139.739 136.291 131.183  1.00  0.00     0.053 C 
BRANCH   6   7
ATOM      7  C   UNL     1     138.864 137.331 130.556  1.00  0.00     0.041 C 
ATOM      8  O   UNL     1     139.375 138.282 129.908  1.00  0.00    -0.550 OA
ATOM      9  O   UNL     1     137.482 137.221 130.644  1.00  0.00    -0.550 OA
ENDBRANCH   6   7
ENDBRANCH   5   6
ENDBRANCH   4   5
ENDBRANCH   3   4
ENDBRANCH   2   3
ENDBRANCH   1   2
BRANCH   1  10
ATOM     10  C   UNL     1     135.075 133.523 129.165  1.00  0.00     0.000 C 
BRANCH  10  11
ATOM     11  C   UNL     1     134.573 132.627 130.313  1.00  0.00    -0.000 C 
BRANCH  11  12
ATOM     12  C   UNL     1     134.385 131.141 129.949  1.00  0.00    -0.000 C 
BRANCH  12  13
ATOM     13  C   UNL     1     135.596 130.519 129.223  1.00  0.00    -0.000 C 
BRANCH  13  14
ATOM     14  C   UNL     1     136.778 130.254 130.173  1.00  0.00    -0.000 C 
BRANCH  14  15
ATOM     15  C   UNL     1     138.115 130.122 129.426  1.00  0.00    -0.003 C 
ATOM     16  C   UNL     1     138.118 130.859 128.087  1.00  0.00     0.004 C 
ENDBRANCH  14  15
ENDBRANCH  13  14
ENDBRANCH  12  13
ENDBRANCH  11  12
ENDBRANCH  10  11
ENDBRANCH   1  10
TORSDOF 12
ENDMDL
MODEL 9
REMARK VINA RESULT:    -4.719      2.726      5.316
REMARK INTER + INTRA:          -9.759
REMARK INTER:                  -8.012
REMARK INTRA:                  -1.747
REMARK UNBOUND:                -1.730
REMARK SMILES CCCCCCCCCCCCCC(=O)[O-]
REMARK SMILES IDX 8 1 9 2 10 3 11 4 12 5 13 6 14 7 15 8 16 9 7 10 6 11 5 12
REMARK SMILES IDX 4 13 3 14 2 15 1 16
REMARK H PARENT
REMARK Flexibility Score: inf
ROOT
ATOM      1  C   UNL     1     134.086 133.489 130.655  1.00  0.00     0.000 C 
ENDROOT
BRANCH   1   2
ATOM      2  C   UNL     1     134.375 133.885 129.198  1.00  0.00     0.000 C 
BRANCH   2   3
ATOM      3  C   UNL     1     135.872 134.115 128.924  1.00  0.00     0.000 C 
BRANCH   3   4
ATOM      4  C   UNL     1     136.660 134.764 130.076  1.00  0.00     0.000 C 
BRANCH   4   5
ATOM      5  C   UNL     1     137.807 133.883 130.592  1.00  0.00     0.006 C 
BRANCH   5   6
ATOM      6  C   UNL     1     139.103 134.166 129.827  1.00  0.00     0.053 C 
BRANCH   6   7
ATOM      7  C   UNL     1     139.929 135.181 130.552  1.00  0.00     0.041 C 
ATOM      8  O   UNL     1     140.760 134.816 131.425  1.00  0.00    -0.550 OA
ATOM      9  O   UNL     1     139.817 136.527 130.228  1.00  0.00    -0.550 OA
ENDBRANCH   6   7
ENDBRANCH   5   6
ENDBRANCH   4   5
ENDBRANCH   3   4
ENDBRANCH   2   3
ENDBRANCH   1   2
BRANCH   1  10
ATOM     10  C   UNL     1     134.419 132.015 130.952  1.00  0.00     0.000 C 
BRANCH  10  11
ATOM     11  C   UNL     1     133.902 131.004 129.911  1.00  0.00    -0.000 C 
BRANCH  11  12
ATOM     12  C   UNL     1     134.984 130.390 129.001  1.00  0.00    -0.000 C 
BRANCH  12  13
ATOM     13  C   UNL     1     136.421 130.565 129.536  1.00  0.00    -0.000 C 
BRANCH  13  14
ATOM     14  C   UNL     1     137.421 130.932 128.424  1.00  0.00    -0.000 C 
BRANCH  14  15
ATOM     15  C   UNL     1     138.859 130.509 128.763  1.00  0.00    -0.003 C 
ATOM     16  C   UNL     1     139.103 130.399 130.268  1.00  0.00     0.004 C 
ENDBRANCH  14  15
ENDBRANCH  13  14
ENDBRANCH  12  13
ENDBRANCH  11  12
ENDBRANCH  10  11
ENDBRANCH   1  10
TORSDOF 12
ENDMDL
