MODEL 1
REMARK VINA RESULT:    -3.632      0.000      0.000
REMARK INTER + INTRA:          -7.194
REMARK INTER:                  -5.756
REMARK INTRA:                  -1.438
REMARK UNBOUND:                -1.438
REMARK SMILES CCCCCCCCCCCC(=O)[O-]
REMARK SMILES IDX 7 1 8 2 9 3 10 4 11 5 12 6 13 7 14 8 6 9 5 10 4 11 3 12 2 13
REMARK SMILES IDX 1 14
REMARK H PARENT
REMARK Flexibility Score: inf
ROOT
ATOM      1  C   UNL     1       5.406  79.584  38.914  1.00  0.00     0.000 C 
ENDROOT
BRANCH   1   2
ATOM      2  C   UNL     1       6.447  78.886  39.805  1.00  0.00     0.000 C 
BRANCH   2   3
ATOM      3  C   UNL     1       6.318  77.355  39.781  1.00  0.00     0.000 C 
BRANCH   3   4
ATOM      4  C   UNL     1       4.936  76.929  39.265  1.00  0.00     0.006 C 
BRANCH   4   5
ATOM      5  C   UNL     1       5.011  75.708  38.340  1.00  0.00     0.053 C 
BRANCH   5   6
ATOM      6  C   UNL     1       5.610  74.523  39.034  1.00  0.00     0.041 C 
ATOM      7  O   UNL     1       6.719  74.061  38.658  1.00  0.00    -0.550 OA
ATOM      8  O   UNL     1       4.926  73.909  40.076  1.00  0.00    -0.550 OA
ENDBRANCH   5   6
ENDBRANCH   4   5
ENDBRANCH   3   4
ENDBRANCH   2   3
ENDBRANCH   1   2
BRANCH   1   9
ATOM      9  C   UNL     1       6.037  80.245  37.675  1.00  0.00     0.000 C 
BRANCH   9  10
ATOM     10  C   UNL     1       6.238  79.255  36.517  1.00  0.00    -0.000 C 
BRANCH  10  11
ATOM     11  C   UNL     1       7.713  79.127  36.095  1.00  0.00    -0.000 C 
BRANCH  11  12
ATOM     12  C   UNL     1       8.398  77.897  36.710  1.00  0.00    -0.000 C 
BRANCH  12  13
ATOM     13  C   UNL     1       9.767  78.229  37.321  1.00  0.00    -0.003 C 
ATOM     14  C   UNL     1       9.752  79.602  37.988  1.00  0.00     0.004 C 
ENDBRANCH  12  13
ENDBRANCH  11  12
ENDBRANCH  10  11
ENDBRANCH   9  10
ENDBRANCH   1   9
TORSDOF 10
ENDMDL
MODEL 2
REMARK VINA RESULT:    -3.610      2.973      5.011
REMARK INTER + INTRA:          -7.157
REMARK INTER:                  -5.549
REMARK INTRA:                  -1.608
REMARK UNBOUND:                -1.438
REMARK SMILES CCCCCCCCCCCC(=O)[O-]
REMARK SMILES IDX 7 1 8 2 9 3 10 4 11 5 12 6 13 7 14 8 6 9 5 10 4 11 3 12 2 13
REMARK SMILES IDX 1 14
REMARK H PARENT
REMARK Flexibility Score: inf
ROOT
ATOM      1  C   UNL     1       5.619  79.659  37.731  1.00  0.00     0.000 C 
ENDROOT
BRANCH   1   2
ATOM      2  C   UNL     1       7.100  80.024  37.532  1.00  0.00     0.000 C 
BRANCH   2   3
ATOM      3  C   UNL     1       7.860  78.987  36.692  1.00  0.00     0.000 C 
BRANCH   3   4
ATOM      4  C   UNL     1       9.273  78.761  37.247  1.00  0.00     0.006 C 
BRANCH   4   5
ATOM      5  C   UNL     1       9.281  78.609  38.774  1.00  0.00     0.053 C 
BRANCH   5   6
ATOM      6  C   UNL     1      10.227  79.572  39.422  1.00  0.00     0.041 C 
ATOM      7  O   UNL     1      10.430  79.523  40.664  1.00  0.00    -0.550 OA
ATOM      8  O   UNL     1      10.861  80.544  38.659  1.00  0.00    -0.550 OA
ENDBRANCH   5   6
ENDBRANCH   4   5
ENDBRANCH   3   4
ENDBRANCH   2   3
ENDBRANCH   1   2
BRANCH   1   9
ATOM      9  C   UNL     1       5.194  79.696  39.209  1.00  0.00     0.000 C 
BRANCH   9  10
ATOM     10  C   UNL     1       5.771  78.523  40.018  1.00  0.00    -0.000 C 
BRANCH  10  11
ATOM     11  C   UNL     1       5.300  77.154  39.497  1.00  0.00    -0.000 C 
BRANCH  11  12
ATOM     12  C   UNL     1       6.441  76.129  39.417  1.00  0.00    -0.000 C 
BRANCH  12  13
ATOM     13  C   UNL     1       6.767  75.722  37.973  1.00  0.00    -0.003 C 
ATOM     14  C   UNL     1       5.556  75.913  37.062  1.00  0.00     0.004 C 
ENDBRANCH  12  13
ENDBRANCH  11  12
ENDBRANCH  10  11
ENDBRANCH   9  10
ENDBRANCH   1   9
TORSDOF 10
ENDMDL
MODEL 3
REMARK VINA RESULT:    -3.599      1.102      2.073
REMARK INTER + INTRA:          -7.141
REMARK INTER:                  -6.072
REMARK INTRA:                  -1.069
REMARK UNBOUND:                -1.438
REMARK SMILES CCCCCCCCCCCC(=O)[O-]
REMARK SMILES IDX 7 1 8 2 9 3 10 4 11 5 12 6 13 7 14 8 6 9 5 10 4 11 3 12 2 13
REMARK SMILES IDX 1 14
REMARK H PARENT
REMARK Flexibility Score: inf
ROOT
ATOM      1  C   UNL     1       6.095  77.877  39.756  1.00  0.00     0.000 C 
ENDROOT
BRANCH   1   2
ATOM      2  C   UNL     1       5.004  76.909  39.270  1.00  0.00     0.000 C 
BRANCH   2   3
ATOM      3  C   UNL     1       5.431  76.105  38.032  1.00  0.00     0.000 C 
BRANCH   3   4
ATOM      4  C   UNL     1       4.874  74.675  38.089  1.00  0.00     0.006 C 
BRANCH   4   5
ATOM      5  C   UNL     1       4.502  74.252  39.516  1.00  0.00     0.053 C 
BRANCH   5   6
ATOM      6  C   UNL     1       5.388  73.153  40.016  1.00  0.00     0.041 C 
ATOM      7  O   UNL     1       5.070  71.948  39.834  1.00  0.00    -0.550 OA
ATOM      8  O   UNL     1       6.550  73.460  40.713  1.00  0.00    -0.550 OA
ENDBRANCH   5   6
ENDBRANCH   4   5
ENDBRANCH   3   4
ENDBRANCH   2   3
ENDBRANCH   1   2
BRANCH   1   9
ATOM      9  C   UNL     1       5.659  79.351  39.673  1.00  0.00     0.000 C 
BRANCH   9  10
ATOM     10  C   UNL     1       5.561  79.856  38.225  1.00  0.00    -0.000 C 
BRANCH  10  11
ATOM     11  C   UNL     1       6.941  80.090  37.583  1.00  0.00    -0.000 C 
BRANCH  11  12
ATOM     12  C   UNL     1       7.164  79.225  36.333  1.00  0.00    -0.000 C 
BRANCH  12  13
ATOM     13  C   UNL     1       8.465  78.414  36.401  1.00  0.00    -0.003 C 
ATOM     14  C   UNL     1       9.264  78.762  37.655  1.00  0.00     0.004 C 
ENDBRANCH  12  13
ENDBRANCH  11  12
ENDBRANCH  10  11
ENDBRANCH   9  10
ENDBRANCH   1   9
TORSDOF 10
ENDMDL
MODEL 4
REMARK VINA RESULT:    -3.593      5.138      6.832
REMARK INTER + INTRA:          -7.130
REMARK INTER:                  -6.493
REMARK INTRA:                  -0.638
REMARK UNBOUND:                -1.438
REMARK SMILES CCCCCCCCCCCC(=O)[O-]
REMARK SMILES IDX 7 1 8 2 9 3 10 4 11 5 12 6 13 7 14 8 6 9 5 10 4 11 3 12 2 13
REMARK SMILES IDX 1 14
REMARK H PARENT
REMARK Flexibility Score: inf
ROOT
ATOM      1  C   UNL     1      10.749  80.365  41.025  1.00  0.00     0.000 C 
ENDROOT
BRANCH   1   2
ATOM      2  C   UNL     1      11.644  79.937  42.200  1.00  0.00     0.000 C 
BRANCH   2   3
ATOM      3  C   UNL     1      12.283  81.130  42.926  1.00  0.00     0.000 C 
BRANCH   3   4
ATOM      4  C   UNL     1      11.315  81.726  43.958  1.00  0.00     0.006 C 
BRANCH   4   5
ATOM      5  C   UNL     1      10.569  80.644  44.749  1.00  0.00     0.053 C 
BRANCH   5   6
ATOM      6  C   UNL     1       9.087  80.856  44.716  1.00  0.00     0.041 C 
ATOM      7  O   UNL     1       8.361  80.407  45.643  1.00  0.00    -0.550 OA
ATOM      8  O   UNL     1       8.503  81.522  43.646  1.00  0.00    -0.550 OA
ENDBRANCH   5   6
ENDBRANCH   4   5
ENDBRANCH   3   4
ENDBRANCH   2   3
ENDBRANCH   1   2
BRANCH   1   9
ATOM      9  C   UNL     1      11.561  80.816  39.798  1.00  0.00     0.000 C 
BRANCH   9  10
ATOM     10  C   UNL     1      10.813  80.575  38.476  1.00  0.00    -0.000 C 
BRANCH  10  11
ATOM     11  C   UNL     1      10.004  79.265  38.481  1.00  0.00    -0.000 C 
BRANCH  11  12
ATOM     12  C   UNL     1       8.712  79.367  37.656  1.00  0.00    -0.000 C 
BRANCH  12  13
ATOM     13  C   UNL     1       8.629  78.300  36.556  1.00  0.00    -0.003 C 
ATOM     14  C   UNL     1       9.997  77.674  36.294  1.00  0.00     0.004 C 
ENDBRANCH  12  13
ENDBRANCH  11  12
ENDBRANCH  10  11
ENDBRANCH   9  10
ENDBRANCH   1   9
TORSDOF 10
ENDMDL
MODEL 5
REMARK VINA RESULT:    -3.592      3.920      6.008
REMARK INTER + INTRA:          -7.129
REMARK INTER:                  -5.995
REMARK INTRA:                  -1.134
REMARK UNBOUND:                -1.438
REMARK SMILES CCCCCCCCCCCC(=O)[O-]
REMARK SMILES IDX 7 1 8 2 9 3 10 4 11 5 12 6 13 7 14 8 6 9 5 10 4 11 3 12 2 13
REMARK SMILES IDX 1 14
REMARK H PARENT
REMARK Flexibility Score: inf
ROOT
ATOM      1  C   UNL     1       9.440  78.372  37.846  1.00  0.00     0.000 C 
ENDROOT
BRANCH   1   2
ATOM      2  C   UNL     1      10.060  79.760  38.084  1.00  0.00     0.000 C 
BRANCH   2   3
ATOM      3  C   UNL     1       9.329  80.557  39.175  1.00  0.00     0.000 C 
BRANCH   3   4
ATOM      4  C   UNL     1       9.888  80.222  40.566  1.00  0.00     0.006 C 
BRANCH   4   5
ATOM      5  C   UNL     1      11.070  81.121  40.950  1.00  0.00     0.053 C 
BRANCH   5   6
ATOM      6  C   UNL     1      11.892  80.518  42.047  1.00  0.00     0.041 C 
ATOM      7  O   UNL     1      12.671  81.238  42.726  1.00  0.00    -0.550 OA
ATOM      8  O   UNL     1      11.821  79.154  42.299  1.00  0.00    -0.550 OA
ENDBRANCH   5   6
ENDBRANCH   4   5
ENDBRANCH   3   4
ENDBRANCH   2   3
ENDBRANCH   1   2
BRANCH   1   9
ATOM      9  C   UNL     1       8.885  78.210  36.420  1.00  0.00     0.000 C 
BRANCH   9  10
ATOM     10  C   UNL     1       7.646  79.085  36.166  1.00  0.00    -0.000 C 
BRANCH  10  11
ATOM     11  C   UNL     1       6.458  78.709  37.070  1.00  0.00    -0.000 C 
BRANCH  11  12
ATOM     12  C   UNL     1       5.925  79.907  37.871  1.00  0.00    -0.000 C 
BRANCH  12  13
ATOM     13  C   UNL     1       5.363  79.498  39.240  1.00  0.00    -0.003 C 
ATOM     14  C   UNL     1       6.241  78.437  39.899  1.00  0.00     0.004 C 
ENDBRANCH  12  13
ENDBRANCH  11  12
ENDBRANCH  10  11
ENDBRANCH   9  10
ENDBRANCH   1   9
TORSDOF 10
ENDMDL
MODEL 6
REMARK VINA RESULT:    -3.587      4.416      6.178
REMARK INTER + INTRA:          -7.122
REMARK INTER:                  -6.007
REMARK INTRA:                  -1.115
REMARK UNBOUND:                -1.438
REMARK SMILES CCCCCCCCCCCC(=O)[O-]
REMARK SMILES IDX 7 1 8 2 9 3 10 4 11 5 12 6 13 7 14 8 6 9 5 10 4 11 3 12 2 13
REMARK SMILES IDX 1 14
REMARK H PARENT
REMARK Flexibility Score: inf
ROOT
ATOM      1  C   UNL     1       9.641  79.263  39.766  1.00  0.00     0.000 C 
ENDROOT
BRANCH   1   2
ATOM      2  C   UNL     1      10.528  80.175  38.902  1.00  0.00     0.000 C 
BRANCH   2   3
ATOM      3  C   UNL     1      11.582  80.932  39.725  1.00  0.00     0.000 C 
BRANCH   3   4
ATOM      4  C   UNL     1      11.774  80.280  41.102  1.00  0.00     0.006 C 
BRANCH   4   5
ATOM      5  C   UNL     1      11.905  81.318  42.224  1.00  0.00     0.053 C 
BRANCH   5   6
ATOM      6  C   UNL     1      10.878  81.111  43.295  1.00  0.00     0.041 C 
ATOM      7  O   UNL     1      11.226  81.053  44.504  1.00  0.00    -0.550 OA
ATOM      8  O   UNL     1       9.542  80.948  42.954  1.00  0.00    -0.550 OA
ENDBRANCH   5   6
ENDBRANCH   4   5
ENDBRANCH   3   4
ENDBRANCH   2   3
ENDBRANCH   1   2
BRANCH   1   9
ATOM      9  C   UNL     1       8.146  79.606  39.646  1.00  0.00     0.000 C 
BRANCH   9  10
ATOM     10  C   UNL     1       7.801  80.278  38.307  1.00  0.00    -0.000 C 
BRANCH  10  11
ATOM     11  C   UNL     1       7.148  79.307  37.306  1.00  0.00    -0.000 C 
BRANCH  11  12
ATOM     12  C   UNL     1       8.139  78.796  36.249  1.00  0.00    -0.000 C 
BRANCH  12  13
ATOM     13  C   UNL     1       8.751  77.439  36.621  1.00  0.00    -0.003 C 
ATOM     14  C   UNL     1      10.229  77.381  36.245  1.00  0.00     0.004 C 
ENDBRANCH  12  13
ENDBRANCH  11  12
ENDBRANCH  10  11
ENDBRANCH   9  10
ENDBRANCH   1   9
TORSDOF 10
ENDMDL
MODEL 7
REMARK VINA RESULT:    -3.587      1.152      2.193
REMARK INTER + INTRA:          -7.121
REMARK INTER:                  -5.551
REMARK INTRA:                  -1.571
REMARK UNBOUND:                -1.438
REMARK SMILES CCCCCCCCCCCC(=O)[O-]
REMARK SMILES IDX 7 1 8 2 9 3 10 4 11 5 12 6 13 7 14 8 6 9 5 10 4 11 3 12 2 13
REMARK SMILES IDX 1 14
REMARK H PARENT
REMARK Flexibility Score: inf
ROOT
ATOM      1  C   UNL     1       6.022  79.186  36.727  1.00  0.00     0.000 C 
ENDROOT
BRANCH   1   2
ATOM      2  C   UNL     1       5.782  80.146  37.905  1.00  0.00     0.000 C 
BRANCH   2   3
ATOM      3  C   UNL     1       5.663  79.416  39.251  1.00  0.00     0.000 C 
BRANCH   3   4
ATOM      4  C   UNL     1       5.403  77.918  39.041  1.00  0.00     0.006 C 
BRANCH   4   5
ATOM      5  C   UNL     1       6.466  77.042  39.718  1.00  0.00     0.053 C 
BRANCH   5   6
ATOM      6  C   UNL     1       6.456  75.644  39.181  1.00  0.00     0.041 C 
ATOM      7  O   UNL     1       6.429  75.442  37.938  1.00  0.00    -0.550 OA
ATOM      8  O   UNL     1       6.444  74.564  40.055  1.00  0.00    -0.550 OA
ENDBRANCH   5   6
ENDBRANCH   4   5
ENDBRANCH   3   4
ENDBRANCH   2   3
ENDBRANCH   1   2
BRANCH   1   9
ATOM      9  C   UNL     1       7.449  79.289  36.161  1.00  0.00     0.000 C 
BRANCH   9  10
ATOM     10  C   UNL     1       8.333  78.100  36.572  1.00  0.00    -0.000 C 
BRANCH  10  11
ATOM     11  C   UNL     1       9.670  78.541  37.195  1.00  0.00    -0.000 C 
BRANCH  11  12
ATOM     12  C   UNL     1       9.530  78.934  38.674  1.00  0.00    -0.000 C 
BRANCH  12  13
ATOM     13  C   UNL     1       9.572  80.454  38.887  1.00  0.00    -0.003 C 
ATOM     14  C   UNL     1       8.944  80.838  40.224  1.00  0.00     0.004 C 
ENDBRANCH  12  13
ENDBRANCH  11  12
ENDBRANCH  10  11
ENDBRANCH   9  10
ENDBRANCH   1   9
TORSDOF 10
ENDMDL
MODEL 8
REMARK VINA RESULT:    -3.570      1.478      2.150
REMARK INTER + INTRA:          -7.095
REMARK INTER:                  -5.586
REMARK INTRA:                  -1.509
REMARK UNBOUND:                -1.438
REMARK SMILES CCCCCCCCCCCC(=O)[O-]
REMARK SMILES IDX 7 1 8 2 9 3 10 4 11 5 12 6 13 7 14 8 6 9 5 10 4 11 3 12 2 13
REMARK SMILES IDX 1 14
REMARK H PARENT
REMARK Flexibility Score: inf
ROOT
ATOM      1  C   UNL     1       6.544  78.336  39.768  1.00  0.00     0.000 C 
ENDROOT
BRANCH   1   2
ATOM      2  C   UNL     1       6.370  76.818  39.597  1.00  0.00     0.000 C 
BRANCH   2   3
ATOM      3  C   UNL     1       5.193  76.454  38.680  1.00  0.00     0.000 C 
BRANCH   3   4
ATOM      4  C   UNL     1       5.694  75.868  37.351  1.00  0.00     0.006 C 
BRANCH   4   5
ATOM      5  C   UNL     1       7.177  75.482  37.408  1.00  0.00     0.053 C 
BRANCH   5   6
ATOM      6  C   UNL     1       7.397  74.061  36.988  1.00  0.00     0.041 C 
ATOM      7  O   UNL     1       8.539  73.677  36.621  1.00  0.00    -0.550 OA
ATOM      8  O   UNL     1       6.332  73.169  36.969  1.00  0.00    -0.550 OA
ENDBRANCH   5   6
ENDBRANCH   4   5
ENDBRANCH   3   4
ENDBRANCH   2   3
ENDBRANCH   1   2
BRANCH   1   9
ATOM      9  C   UNL     1       5.388  79.138  39.145  1.00  0.00     0.000 C 
BRANCH   9  10
ATOM     10  C   UNL     1       5.823  79.933  37.903  1.00  0.00    -0.000 C 
BRANCH  10  11
ATOM     11  C   UNL     1       7.321  79.770  37.589  1.00  0.00    -0.000 C 
BRANCH  11  12
ATOM     12  C   UNL     1       7.568  79.100  36.228  1.00  0.00    -0.000 C 
BRANCH  12  13
ATOM     13  C   UNL     1       8.908  78.353  36.173  1.00  0.00    -0.003 C 
ATOM     14  C   UNL     1       9.649  78.456  37.504  1.00  0.00     0.004 C 
ENDBRANCH  12  13
ENDBRANCH  11  12
ENDBRANCH  10  11
ENDBRANCH   9  10
ENDBRANCH   1   9
TORSDOF 10
ENDMDL
MODEL 9
REMARK VINA RESULT:    -3.550      2.695      4.364
REMARK INTER + INTRA:          -7.063
REMARK INTER:                  -6.275
REMARK INTRA:                  -0.787
REMARK UNBOUND:                -1.438
REMARK SMILES CCCCCCCCCCCC(=O)[O-]
REMARK SMILES IDX 7 1 8 2 9 3 10 4 11 5 12 6 13 7 14 8 6 9 5 10 4 11 3 12 2 13
REMARK SMILES IDX 1 14
REMARK H PARENT
REMARK Flexibility Score: inf
ROOT
ATOM      1  C   UNL     1       9.122  78.835  37.470  1.00  0.00     0.000 C 
ENDROOT
BRANCH   1   2
ATOM      2  C   UNL     1       7.761  79.354  36.977  1.00  0.00     0.000 C 
BRANCH   2   3
ATOM      3  C   UNL     1       7.085  80.298  37.983  1.00  0.00     0.000 C 
BRANCH   3   4
ATOM      4  C   UNL     1       5.646  79.849  38.275  1.00  0.00     0.006 C 
BRANCH   4   5
ATOM      5  C   UNL     1       5.507  79.212  39.664  1.00  0.00     0.053 C 
BRANCH   5   6
ATOM      6  C   UNL     1       5.657  77.723  39.609  1.00  0.00     0.041 C 
ATOM      7  O   UNL     1       4.657  76.993  39.381  1.00  0.00    -0.550 OA
ATOM      8  O   UNL     1       6.896  77.140  39.843  1.00  0.00    -0.550 OA
ENDBRANCH   5   6
ENDBRANCH   4   5
ENDBRANCH   3   4
ENDBRANCH   2   3
ENDBRANCH   1   2
BRANCH   1   9
ATOM      9  C   UNL     1       9.595  79.542  38.752  1.00  0.00     0.000 C 
BRANCH   9  10
ATOM     10  C   UNL     1      10.775  80.494  38.498  1.00  0.00    -0.000 C 
BRANCH  10  11
ATOM     11  C   UNL     1      11.425  80.995  39.801  1.00  0.00    -0.000 C 
BRANCH  11  12
ATOM     12  C   UNL     1      10.785  80.378  41.054  1.00  0.00    -0.000 C 
BRANCH  12  13
ATOM     13  C   UNL     1      11.822  80.008  42.124  1.00  0.00    -0.003 C 
ATOM     14  C   UNL     1      12.433  81.259  42.751  1.00  0.00     0.004 C 
ENDBRANCH  12  13
ENDBRANCH  11  12
ENDBRANCH  10  11
ENDBRANCH   9  10
ENDBRANCH   1   9
TORSDOF 10
ENDMDL
