MODEL 1
REMARK VINA RESULT:    -4.092      0.000      0.000
REMARK INTER + INTRA:          -8.383
REMARK INTER:                  -6.962
REMARK INTRA:                  -1.421
REMARK UNBOUND:                -1.421
REMARK SMILES CCCCCCCCCCCCCC(=O)[O-]
REMARK SMILES IDX 8 1 9 2 10 3 11 4 12 5 13 6 14 7 15 8 16 9 7 10 6 11 5 12
REMARK SMILES IDX 4 13 3 14 2 15 1 16
REMARK H PARENT
REMARK Flexibility Score: inf
ROOT
ATOM      1  C   UNL     1      50.867  -6.606 -54.878  1.00  0.00     0.000 C 
ENDROOT
BRANCH   1   2
ATOM      2  C   UNL     1      50.010  -7.644 -54.137  1.00  0.00     0.000 C 
BRANCH   2   3
ATOM      3  C   UNL     1      48.561  -7.170 -53.922  1.00  0.00     0.000 C 
BRANCH   3   4
ATOM      4  C   UNL     1      47.572  -7.837 -54.891  1.00  0.00     0.000 C 
BRANCH   4   5
ATOM      5  C   UNL     1      48.219  -8.967 -55.710  1.00  0.00     0.006 C 
BRANCH   5   6
ATOM      6  C   UNL     1      47.238  -9.590 -56.713  1.00  0.00     0.053 C 
BRANCH   6   7
ATOM      7  C   UNL     1      47.445 -11.068 -56.851  1.00  0.00     0.041 C 
ATOM      8  O   UNL     1      48.334 -11.648 -56.174  1.00  0.00    -0.550 OA
ATOM      9  O   UNL     1      46.636 -11.807 -57.705  1.00  0.00    -0.550 OA
ENDBRANCH   6   7
ENDBRANCH   5   6
ENDBRANCH   4   5
ENDBRANCH   3   4
ENDBRANCH   2   3
ENDBRANCH   1   2
BRANCH   1  10
ATOM     10  C   UNL     1      50.301  -5.183 -54.762  1.00  0.00     0.000 C 
BRANCH  10  11
ATOM     11  C   UNL     1      50.101  -4.557 -56.147  1.00  0.00    -0.000 C 
BRANCH  11  12
ATOM     12  C   UNL     1      49.693  -5.619 -57.179  1.00  0.00    -0.000 C 
BRANCH  12  13
ATOM     13  C   UNL     1      50.486  -5.490 -58.497  1.00  0.00    -0.000 C 
BRANCH  13  14
ATOM     14  C   UNL     1      51.486  -6.639 -58.732  1.00  0.00    -0.000 C 
BRANCH  14  15
ATOM     15  C   UNL     1      52.964  -6.246 -58.577  1.00  0.00    -0.003 C 
ATOM     16  C   UNL     1      53.156  -4.760 -58.273  1.00  0.00     0.004 C 
ENDBRANCH  14  15
ENDBRANCH  13  14
ENDBRANCH  12  13
ENDBRANCH  11  12
ENDBRANCH  10  11
ENDBRANCH   1  10
TORSDOF 12
ENDMDL
MODEL 2
REMARK VINA RESULT:    -4.080      1.414      2.946
REMARK INTER + INTRA:          -8.363
REMARK INTER:                  -6.261
REMARK INTRA:                  -2.102
REMARK UNBOUND:                -1.421
REMARK SMILES CCCCCCCCCCCCCC(=O)[O-]
REMARK SMILES IDX 8 1 9 2 10 3 11 4 12 5 13 6 14 7 15 8 16 9 7 10 6 11 5 12
REMARK SMILES IDX 4 13 3 14 2 15 1 16
REMARK H PARENT
REMARK Flexibility Score: inf
ROOT
ATOM      1  C   UNL     1      50.958  -5.923 -54.820  1.00  0.00     0.000 C 
ENDROOT
BRANCH   1   2
ATOM      2  C   UNL     1      50.296  -7.240 -54.387  1.00  0.00     0.000 C 
BRANCH   2   3
ATOM      3  C   UNL     1      48.879  -7.031 -53.822  1.00  0.00     0.000 C 
BRANCH   3   4
ATOM      4  C   UNL     1      47.798  -7.726 -54.665  1.00  0.00     0.000 C 
BRANCH   4   5
ATOM      5  C   UNL     1      48.368  -8.857 -55.538  1.00  0.00     0.006 C 
BRANCH   5   6
ATOM      6  C   UNL     1      47.340  -9.382 -56.549  1.00  0.00     0.053 C 
BRANCH   6   7
ATOM      7  C   UNL     1      47.744 -10.709 -57.118  1.00  0.00     0.041 C 
ATOM      8  O   UNL     1      47.770 -10.881 -58.365  1.00  0.00    -0.550 OA
ATOM      9  O   UNL     1      48.119 -11.744 -56.271  1.00  0.00    -0.550 OA
ENDBRANCH   6   7
ENDBRANCH   5   6
ENDBRANCH   4   5
ENDBRANCH   3   4
ENDBRANCH   2   3
ENDBRANCH   1   2
BRANCH   1  10
ATOM     10  C   UNL     1      51.629  -6.025 -56.199  1.00  0.00     0.000 C 
BRANCH  10  11
ATOM     11  C   UNL     1      50.595  -6.324 -57.291  1.00  0.00    -0.000 C 
BRANCH  11  12
ATOM     12  C   UNL     1      49.694  -5.106 -57.547  1.00  0.00    -0.000 C 
BRANCH  12  13
ATOM     13  C   UNL     1      48.194  -5.463 -57.479  1.00  0.00    -0.000 C 
BRANCH  13  14
ATOM     14  C   UNL     1      47.390  -4.574 -56.509  1.00  0.00    -0.000 C 
BRANCH  14  15
ATOM     15  C   UNL     1      48.245  -3.657 -55.620  1.00  0.00    -0.003 C 
ATOM     16  C   UNL     1      47.703  -3.535 -54.196  1.00  0.00     0.004 C 
ENDBRANCH  14  15
ENDBRANCH  13  14
ENDBRANCH  12  13
ENDBRANCH  11  12
ENDBRANCH  10  11
ENDBRANCH   1  10
TORSDOF 12
ENDMDL
MODEL 3
REMARK VINA RESULT:    -4.069      2.934      5.293
REMARK INTER + INTRA:          -8.344
REMARK INTER:                  -7.495
REMARK INTRA:                  -0.849
REMARK UNBOUND:                -1.421
REMARK SMILES CCCCCCCCCCCCCC(=O)[O-]
REMARK SMILES IDX 8 1 9 2 10 3 11 4 12 5 13 6 14 7 15 8 16 9 7 10 6 11 5 12
REMARK SMILES IDX 4 13 3 14 2 15 1 16
REMARK H PARENT
REMARK Flexibility Score: inf
ROOT
ATOM      1  C   UNL     1      46.638 -10.591 -57.310  1.00  0.00     0.000 C 
ENDROOT
BRANCH   1   2
ATOM      2  C   UNL     1      47.268 -11.992 -57.274  1.00  0.00     0.000 C 
BRANCH   2   3
ATOM      3  C   UNL     1      48.397 -12.106 -56.233  1.00  0.00     0.000 C 
BRANCH   3   4
ATOM      4  C   UNL     1      48.927 -13.541 -56.090  1.00  0.00     0.000 C 
BRANCH   4   5
ATOM      5  C   UNL     1      47.839 -14.528 -55.631  1.00  0.00     0.006 C 
BRANCH   5   6
ATOM      6  C   UNL     1      48.129 -15.964 -56.091  1.00  0.00     0.053 C 
BRANCH   6   7
ATOM      7  C   UNL     1      47.126 -16.441 -57.096  1.00  0.00     0.041 C 
ATOM      8  O   UNL     1      46.250 -15.652 -57.540  1.00  0.00    -0.550 OA
ATOM      9  O   UNL     1      47.177 -17.748 -57.565  1.00  0.00    -0.550 OA
ENDBRANCH   6   7
ENDBRANCH   5   6
ENDBRANCH   4   5
ENDBRANCH   3   4
ENDBRANCH   2   3
ENDBRANCH   1   2
BRANCH   1  10
ATOM     10  C   UNL     1      47.577  -9.507 -56.761  1.00  0.00     0.000 C 
BRANCH  10  11
ATOM     11  C   UNL     1      46.781  -8.379 -56.093  1.00  0.00    -0.000 C 
BRANCH  11  12
ATOM     12  C   UNL     1      47.542  -7.805 -54.889  1.00  0.00    -0.000 C 
BRANCH  12  13
ATOM     13  C   UNL     1      49.034  -8.201 -54.896  1.00  0.00    -0.000 C 
BRANCH  13  14
ATOM     14  C   UNL     1      49.931  -7.245 -54.085  1.00  0.00    -0.000 C 
BRANCH  14  15
ATOM     15  C   UNL     1      51.029  -6.545 -54.902  1.00  0.00    -0.003 C 
ATOM     16  C   UNL     1      50.592  -6.220 -56.330  1.00  0.00     0.004 C 
ENDBRANCH  14  15
ENDBRANCH  13  14
ENDBRANCH  12  13
ENDBRANCH  11  12
ENDBRANCH  10  11
ENDBRANCH   1  10
TORSDOF 12
ENDMDL
MODEL 4
REMARK VINA RESULT:    -4.035      1.597      3.654
REMARK INTER + INTRA:          -8.287
REMARK INTER:                  -6.800
REMARK INTRA:                  -1.487
REMARK UNBOUND:                -1.421
REMARK SMILES CCCCCCCCCCCCCC(=O)[O-]
REMARK SMILES IDX 8 1 9 2 10 3 11 4 12 5 13 6 14 7 15 8 16 9 7 10 6 11 5 12
REMARK SMILES IDX 4 13 3 14 2 15 1 16
REMARK H PARENT
REMARK Flexibility Score: inf
ROOT
ATOM      1  C   UNL     1      48.933  -6.686 -58.377  1.00  0.00     0.000 C 
ENDROOT
BRANCH   1   2
ATOM      2  C   UNL     1      48.443  -8.112 -58.076  1.00  0.00     0.000 C 
BRANCH   2   3
ATOM      3  C   UNL     1      47.202  -8.131 -57.165  1.00  0.00     0.000 C 
BRANCH   3   4
ATOM      4  C   UNL     1      46.762  -9.556 -56.796  1.00  0.00     0.000 C 
BRANCH   4   5
ATOM      5  C   UNL     1      47.953 -10.478 -56.481  1.00  0.00     0.006 C 
BRANCH   5   6
ATOM      6  C   UNL     1      47.757 -11.890 -57.049  1.00  0.00     0.053 C 
BRANCH   6   7
ATOM      7  C   UNL     1      48.366 -12.936 -56.165  1.00  0.00     0.041 C 
ATOM      8  O   UNL     1      47.630 -13.762 -55.562  1.00  0.00    -0.550 OA
ATOM      9  O   UNL     1      49.746 -13.019 -56.032  1.00  0.00    -0.550 OA
ENDBRANCH   6   7
ENDBRANCH   5   6
ENDBRANCH   4   5
ENDBRANCH   3   4
ENDBRANCH   2   3
ENDBRANCH   1   2
BRANCH   1  10
ATOM     10  C   UNL     1      50.465  -6.584 -58.415  1.00  0.00     0.000 C 
BRANCH  10  11
ATOM     11  C   UNL     1      50.961  -5.438 -57.526  1.00  0.00    -0.000 C 
BRANCH  11  12
ATOM     12  C   UNL     1      52.117  -5.898 -56.626  1.00  0.00    -0.000 C 
BRANCH  12  13
ATOM     13  C   UNL     1      51.647  -6.232 -55.194  1.00  0.00    -0.000 C 
BRANCH  13  14
ATOM     14  C   UNL     1      50.306  -5.574 -54.815  1.00  0.00    -0.000 C 
BRANCH  14  15
ATOM     15  C   UNL     1      49.226  -6.553 -54.326  1.00  0.00    -0.003 C 
ATOM     16  C   UNL     1      49.714  -8.001 -54.276  1.00  0.00     0.004 C 
ENDBRANCH  14  15
ENDBRANCH  13  14
ENDBRANCH  12  13
ENDBRANCH  11  12
ENDBRANCH  10  11
ENDBRANCH   1  10
TORSDOF 12
ENDMDL
MODEL 5
REMARK VINA RESULT:    -4.033      1.421      2.764
REMARK INTER + INTRA:          -8.283
REMARK INTER:                  -7.086
REMARK INTRA:                  -1.196
REMARK UNBOUND:                -1.421
REMARK SMILES CCCCCCCCCCCCCC(=O)[O-]
REMARK SMILES IDX 8 1 9 2 10 3 11 4 12 5 13 6 14 7 15 8 16 9 7 10 6 11 5 12
REMARK SMILES IDX 4 13 3 14 2 15 1 16
REMARK H PARENT
REMARK Flexibility Score: inf
ROOT
ATOM      1  C   UNL     1      48.077  -7.209 -54.990  1.00  0.00     0.000 C 
ENDROOT
BRANCH   1   2
ATOM      2  C   UNL     1      47.272  -8.215 -55.827  1.00  0.00     0.000 C 
BRANCH   2   3
ATOM      3  C   UNL     1      47.827  -8.375 -57.254  1.00  0.00     0.000 C 
BRANCH   3   4
ATOM      4  C   UNL     1      47.787  -9.832 -57.743  1.00  0.00     0.000 C 
BRANCH   4   5
ATOM      5  C   UNL     1      47.786 -10.843 -56.584  1.00  0.00     0.006 C 
BRANCH   5   6
ATOM      6  C   UNL     1      47.640 -12.289 -57.077  1.00  0.00     0.053 C 
BRANCH   6   7
ATOM      7  C   UNL     1      48.346 -13.260 -56.180  1.00  0.00     0.041 C 
ATOM      8  O   UNL     1      49.603 -13.338 -56.196  1.00  0.00    -0.550 OA
ATOM      9  O   UNL     1      47.618 -14.055 -55.304  1.00  0.00    -0.550 OA
ENDBRANCH   6   7
ENDBRANCH   5   6
ENDBRANCH   4   5
ENDBRANCH   3   4
ENDBRANCH   2   3
ENDBRANCH   1   2
BRANCH   1  10
ATOM     10  C   UNL     1      49.319  -7.840 -54.343  1.00  0.00     0.000 C 
BRANCH  10  11
ATOM     11  C   UNL     1      50.570  -6.999 -54.622  1.00  0.00    -0.000 C 
BRANCH  11  12
ATOM     12  C   UNL     1      50.200  -5.535 -54.905  1.00  0.00    -0.000 C 
BRANCH  12  13
ATOM     13  C   UNL     1      50.870  -5.000 -56.189  1.00  0.00    -0.000 C 
BRANCH  13  14
ATOM     14  C   UNL     1      51.967  -5.927 -56.746  1.00  0.00    -0.000 C 
BRANCH  14  15
ATOM     15  C   UNL     1      51.990  -6.048 -58.279  1.00  0.00    -0.003 C 
ATOM     16  C   UNL     1      50.775  -6.791 -58.834  1.00  0.00     0.004 C 
ENDBRANCH  14  15
ENDBRANCH  13  14
ENDBRANCH  12  13
ENDBRANCH  11  12
ENDBRANCH  10  11
ENDBRANCH   1  10
TORSDOF 12
ENDMDL
MODEL 6
REMARK VINA RESULT:    -3.989      2.009      3.698
REMARK INTER + INTRA:          -8.209
REMARK INTER:                  -7.376
REMARK INTRA:                  -0.833
REMARK UNBOUND:                -1.421
REMARK SMILES CCCCCCCCCCCCCC(=O)[O-]
REMARK SMILES IDX 8 1 9 2 10 3 11 4 12 5 13 6 14 7 15 8 16 9 7 10 6 11 5 12
REMARK SMILES IDX 4 13 3 14 2 15 1 16
REMARK H PARENT
REMARK Flexibility Score: inf
ROOT
ATOM      1  C   UNL     1      48.151  -8.012 -56.031  1.00  0.00     0.000 C 
ENDROOT
BRANCH   1   2
ATOM      2  C   UNL     1      47.691  -9.478 -56.044  1.00  0.00     0.000 C 
BRANCH   2   3
ATOM      3  C   UNL     1      47.776 -10.112 -57.444  1.00  0.00     0.000 C 
BRANCH   3   4
ATOM      4  C   UNL     1      47.779 -11.648 -57.398  1.00  0.00     0.000 C 
BRANCH   4   5
ATOM      5  C   UNL     1      48.372 -12.198 -56.090  1.00  0.00     0.006 C 
BRANCH   5   6
ATOM      6  C   UNL     1      48.980 -13.595 -56.272  1.00  0.00     0.053 C 
BRANCH   6   7
ATOM      7  C   UNL     1      48.080 -14.669 -55.742  1.00  0.00     0.041 C 
ATOM      8  O   UNL     1      47.002 -14.365 -55.166  1.00  0.00    -0.550 OA
ATOM      9  O   UNL     1      48.416 -16.006 -55.913  1.00  0.00    -0.550 OA
ENDBRANCH   6   7
ENDBRANCH   5   6
ENDBRANCH   4   5
ENDBRANCH   3   4
ENDBRANCH   2   3
ENDBRANCH   1   2
BRANCH   1  10
ATOM     10  C   UNL     1      48.422  -7.491 -54.611  1.00  0.00     0.000 C 
BRANCH  10  11
ATOM     11  C   UNL     1      49.880  -7.736 -54.205  1.00  0.00    -0.000 C 
BRANCH  11  12
ATOM     12  C   UNL     1      50.801  -6.645 -54.771  1.00  0.00    -0.000 C 
BRANCH  12  13
ATOM     13  C   UNL     1      50.253  -5.225 -54.516  1.00  0.00    -0.000 C 
BRANCH  13  14
ATOM     14  C   UNL     1      50.039  -4.404 -55.803  1.00  0.00    -0.000 C 
BRANCH  14  15
ATOM     15  C   UNL     1      50.807  -4.922 -57.030  1.00  0.00    -0.003 C 
ATOM     16  C   UNL     1      51.749  -3.877 -57.627  1.00  0.00     0.004 C 
ENDBRANCH  14  15
ENDBRANCH  13  14
ENDBRANCH  12  13
ENDBRANCH  11  12
ENDBRANCH  10  11
ENDBRANCH   1  10
TORSDOF 12
ENDMDL
MODEL 7
REMARK VINA RESULT:    -3.977      0.851      1.528
REMARK INTER + INTRA:          -8.188
REMARK INTER:                  -6.575
REMARK INTRA:                  -1.613
REMARK UNBOUND:                -1.421
REMARK SMILES CCCCCCCCCCCCCC(=O)[O-]
REMARK SMILES IDX 8 1 9 2 10 3 11 4 12 5 13 6 14 7 15 8 16 9 7 10 6 11 5 12
REMARK SMILES IDX 4 13 3 14 2 15 1 16
REMARK H PARENT
REMARK Flexibility Score: inf
ROOT
ATOM      1  C   UNL     1      50.550  -7.178 -54.587  1.00  0.00     0.000 C 
ENDROOT
BRANCH   1   2
ATOM      2  C   UNL     1      49.078  -7.058 -54.161  1.00  0.00     0.000 C 
BRANCH   2   3
ATOM      3  C   UNL     1      48.137  -7.895 -55.047  1.00  0.00     0.000 C 
BRANCH   3   4
ATOM      4  C   UNL     1      48.267  -7.549 -56.539  1.00  0.00     0.000 C 
BRANCH   4   5
ATOM      5  C   UNL     1      47.965  -8.751 -57.451  1.00  0.00     0.006 C 
BRANCH   5   6
ATOM      6  C   UNL     1      47.295  -9.902 -56.689  1.00  0.00     0.053 C 
BRANCH   6   7
ATOM      7  C   UNL     1      47.899 -11.228 -57.037  1.00  0.00     0.041 C 
ATOM      8  O   UNL     1      47.949 -11.605 -58.238  1.00  0.00    -0.550 OA
ATOM      9  O   UNL     1      48.435 -12.034 -56.041  1.00  0.00    -0.550 OA
ENDBRANCH   6   7
ENDBRANCH   5   6
ENDBRANCH   4   5
ENDBRANCH   3   4
ENDBRANCH   2   3
ENDBRANCH   1   2
BRANCH   1  10
ATOM     10  C   UNL     1      51.185  -5.815 -54.904  1.00  0.00     0.000 C 
BRANCH  10  11
ATOM     11  C   UNL     1      50.138  -4.696 -54.849  1.00  0.00    -0.000 C 
BRANCH  11  12
ATOM     12  C   UNL     1      49.763  -4.221 -56.261  1.00  0.00    -0.000 C 
BRANCH  12  13
ATOM     13  C   UNL     1      50.897  -4.459 -57.280  1.00  0.00    -0.000 C 
BRANCH  13  14
ATOM     14  C   UNL     1      50.468  -5.302 -58.497  1.00  0.00    -0.000 C 
BRANCH  14  15
ATOM     15  C   UNL     1      51.359  -6.522 -58.780  1.00  0.00    -0.003 C 
ATOM     16  C   UNL     1      52.831  -6.273 -58.452  1.00  0.00     0.004 C 
ENDBRANCH  14  15
ENDBRANCH  13  14
ENDBRANCH  12  13
ENDBRANCH  11  12
ENDBRANCH  10  11
ENDBRANCH   1  10
TORSDOF 12
ENDMDL
MODEL 8
REMARK VINA RESULT:    -3.966      3.880      6.647
REMARK INTER + INTRA:          -8.169
REMARK INTER:                  -7.346
REMARK INTRA:                  -0.823
REMARK UNBOUND:                -1.421
REMARK SMILES CCCCCCCCCCCCCC(=O)[O-]
REMARK SMILES IDX 8 1 9 2 10 3 11 4 12 5 13 6 14 7 15 8 16 9 7 10 6 11 5 12
REMARK SMILES IDX 4 13 3 14 2 15 1 16
REMARK H PARENT
REMARK Flexibility Score: inf
ROOT
ATOM      1  C   UNL     1      49.809  -7.721 -54.387  1.00  0.00     0.000 C 
ENDROOT
BRANCH   1   2
ATOM      2  C   UNL     1      50.700  -6.475 -54.503  1.00  0.00     0.000 C 
BRANCH   2   3
ATOM      3  C   UNL     1      50.298  -5.568 -55.680  1.00  0.00     0.000 C 
BRANCH   3   4
ATOM      4  C   UNL     1      50.921  -6.018 -57.012  1.00  0.00     0.000 C 
BRANCH   4   5
ATOM      5  C   UNL     1      52.443  -5.799 -57.054  1.00  0.00     0.006 C 
BRANCH   5   6
ATOM      6  C   UNL     1      52.936  -5.431 -58.460  1.00  0.00     0.053 C 
BRANCH   6   7
ATOM      7  C   UNL     1      53.915  -4.297 -58.430  1.00  0.00     0.041 C 
ATOM      8  O   UNL     1      55.098  -4.471 -58.825  1.00  0.00    -0.550 OA
ATOM      9  O   UNL     1      53.512  -3.041 -57.995  1.00  0.00    -0.550 OA
ENDBRANCH   6   7
ENDBRANCH   5   6
ENDBRANCH   4   5
ENDBRANCH   3   4
ENDBRANCH   2   3
ENDBRANCH   1   2
BRANCH   1  10
ATOM     10  C   UNL     1      48.335  -7.371 -54.137  1.00  0.00     0.000 C 
BRANCH  10  11
ATOM     11  C   UNL     1      47.438  -7.961 -55.233  1.00  0.00    -0.000 C 
BRANCH  11  12
ATOM     12  C   UNL     1      48.126  -9.142 -55.933  1.00  0.00    -0.000 C 
BRANCH  12  13
ATOM     13  C   UNL     1      47.151  -9.942 -56.824  1.00  0.00    -0.000 C 
BRANCH  13  14
ATOM     14  C   UNL     1      47.558 -11.416 -57.016  1.00  0.00    -0.000 C 
BRANCH  14  15
ATOM     15  C   UNL     1      48.415 -11.999 -55.880  1.00  0.00    -0.003 C 
ATOM     16  C   UNL     1      49.159 -13.270 -56.289  1.00  0.00     0.004 C 
ENDBRANCH  14  15
ENDBRANCH  13  14
ENDBRANCH  12  13
ENDBRANCH  11  12
ENDBRANCH  10  11
ENDBRANCH   1  10
TORSDOF 12
ENDMDL
MODEL 9
REMARK VINA RESULT:    -3.907      1.387      2.213
REMARK INTER + INTRA:          -8.069
REMARK INTER:                  -6.466
REMARK INTRA:                  -1.603
REMARK UNBOUND:                -1.421
REMARK SMILES CCCCCCCCCCCCCC(=O)[O-]
REMARK SMILES IDX 8 1 9 2 10 3 11 4 12 5 13 6 14 7 15 8 16 9 7 10 6 11 5 12
REMARK SMILES IDX 4 13 3 14 2 15 1 16
REMARK H PARENT
REMARK Flexibility Score: inf
ROOT
ATOM      1  C   UNL     1      50.179  -5.721 -54.677  1.00  0.00     0.000 C 
ENDROOT
BRANCH   1   2
ATOM      2  C   UNL     1      49.278  -6.795 -54.047  1.00  0.00     0.000 C 
BRANCH   2   3
ATOM      3  C   UNL     1      49.326  -8.130 -54.813  1.00  0.00     0.000 C 
BRANCH   3   4
ATOM      4  C   UNL     1      47.967  -8.510 -55.422  1.00  0.00     0.000 C 
BRANCH   4   5
ATOM      5  C   UNL     1      48.018  -9.840 -56.193  1.00  0.00     0.006 C 
BRANCH   5   6
ATOM      6  C   UNL     1      46.835  -9.996 -57.158  1.00  0.00     0.053 C 
BRANCH   6   7
ATOM      7  C   UNL     1      47.005 -11.178 -58.063  1.00  0.00     0.041 C 
ATOM      8  O   UNL     1      46.180 -12.129 -58.024  1.00  0.00    -0.550 OA
ATOM      9  O   UNL     1      48.056 -11.216 -58.971  1.00  0.00    -0.550 OA
ENDBRANCH   6   7
ENDBRANCH   5   6
ENDBRANCH   4   5
ENDBRANCH   3   4
ENDBRANCH   2   3
ENDBRANCH   1   2
BRANCH   1  10
ATOM     10  C   UNL     1      51.578  -6.252 -55.023  1.00  0.00     0.000 C 
BRANCH  10  11
ATOM     11  C   UNL     1      51.968  -5.878 -56.457  1.00  0.00    -0.000 C 
BRANCH  11  12
ATOM     12  C   UNL     1      50.891  -4.998 -57.111  1.00  0.00    -0.000 C 
BRANCH  12  13
ATOM     13  C   UNL     1      50.586  -5.428 -58.562  1.00  0.00    -0.000 C 
BRANCH  13  14
ATOM     14  C   UNL     1      50.568  -6.956 -58.763  1.00  0.00    -0.000 C 
BRANCH  14  15
ATOM     15  C   UNL     1      49.188  -7.544 -59.097  1.00  0.00    -0.003 C 
ATOM     16  C   UNL     1      48.034  -6.652 -58.639  1.00  0.00     0.004 C 
ENDBRANCH  14  15
ENDBRANCH  13  14
ENDBRANCH  12  13
ENDBRANCH  11  12
ENDBRANCH  10  11
ENDBRANCH   1  10
TORSDOF 12
ENDMDL
