MODEL 1
REMARK VINA RESULT:    -4.084      0.000      0.000
REMARK INTER + INTRA:          -9.329
REMARK INTER:                  -7.903
REMARK INTRA:                  -1.426
REMARK UNBOUND:                -1.426
REMARK SMILES CCCCCCCCCCCCCCCCCC(=O)[O-]
REMARK SMILES IDX 10 1 11 2 12 3 13 4 14 5 15 6 16 7 17 8 18 9 19 10 20 11
REMARK SMILES IDX 9 12 8 13 7 14 6 15 5 16 4 17 3 18 2 19 1 20
REMARK H PARENT
REMARK Flexibility Score: inf
ROOT
ATOM      1  C   UNL     1      -1.533  11.226  -4.360  1.00  0.00     0.000 C 
ENDROOT
BRANCH   1   2
ATOM      2  C   UNL     1      -2.888  11.945  -4.496  1.00  0.00     0.000 C 
BRANCH   2   3
ATOM      3  C   UNL     1      -2.980  12.811  -5.763  1.00  0.00     0.000 C 
BRANCH   3   4
ATOM      4  C   UNL     1      -3.375  14.266  -5.458  1.00  0.00     0.000 C 
BRANCH   4   5
ATOM      5  C   UNL     1      -2.442  15.287  -6.125  1.00  0.00     0.000 C 
BRANCH   5   6
ATOM      6  C   UNL     1      -1.174  15.501  -5.288  1.00  0.00     0.000 C 
BRANCH   6   7
ATOM      7  C   UNL     1      -1.524  15.773  -3.817  1.00  0.00     0.006 C 
BRANCH   7   8
ATOM      8  C   UNL     1      -0.275  15.940  -2.943  1.00  0.00     0.053 C 
BRANCH   8   9
ATOM      9  C   UNL     1      -0.606  15.901  -1.484  1.00  0.00     0.041 C 
ATOM     10  O   UNL     1      -1.808  15.891  -1.106  1.00  0.00    -0.550 OA
ATOM     11  O   UNL     1       0.413  15.843  -0.540  1.00  0.00    -0.550 OA
ENDBRANCH   8   9
ENDBRANCH   7   8
ENDBRANCH   6   7
ENDBRANCH   5   6
ENDBRANCH   4   5
ENDBRANCH   3   4
ENDBRANCH   2   3
ENDBRANCH   1   2
BRANCH   1  12
ATOM     12  C   UNL     1      -0.370  12.116  -3.884  1.00  0.00     0.000 C 
BRANCH  12  13
ATOM     13  C   UNL     1       0.780  11.367  -3.184  1.00  0.00    -0.000 C 
BRANCH  13  14
ATOM     14  C   UNL     1       0.322  10.496  -1.994  1.00  0.00    -0.000 C 
BRANCH  14  15
ATOM     15  C   UNL     1       1.502  10.016  -1.132  1.00  0.00    -0.000 C 
BRANCH  15  16
ATOM     16  C   UNL     1       2.688   9.520  -1.974  1.00  0.00    -0.000 C 
BRANCH  16  17
ATOM     17  C   UNL     1       3.332   8.244  -1.401  1.00  0.00    -0.000 C 
BRANCH  17  18
ATOM     18  C   UNL     1       3.821   8.439   0.050  1.00  0.00    -0.000 C 
BRANCH  18  19
ATOM     19  C   UNL     1       3.366   7.326   1.010  1.00  0.00    -0.003 C 
ATOM     20  C   UNL     1       1.848   7.183   1.086  1.00  0.00     0.004 C 
ENDBRANCH  18  19
ENDBRANCH  17  18
ENDBRANCH  16  17
ENDBRANCH  15  16
ENDBRANCH  14  15
ENDBRANCH  13  14
ENDBRANCH  12  13
ENDBRANCH   1  12
TORSDOF 16
ENDMDL
MODEL 2
REMARK VINA RESULT:    -4.054      3.125      8.102
REMARK INTER + INTRA:          -9.273
REMARK INTER:                  -7.968
REMARK INTRA:                  -1.305
REMARK UNBOUND:                -1.426
REMARK SMILES CCCCCCCCCCCCCCCCCC(=O)[O-]
REMARK SMILES IDX 10 1 11 2 12 3 13 4 14 5 15 6 16 7 17 8 18 9 19 10 20 11
REMARK SMILES IDX 9 12 8 13 7 14 6 15 5 16 4 17 3 18 2 19 1 20
REMARK H PARENT
REMARK Flexibility Score: inf
ROOT
ATOM      1  C   UNL     1      -0.355  12.234  -3.923  1.00  0.00     0.000 C 
ENDROOT
BRANCH   1   2
ATOM      2  C   UNL     1       0.803  11.474  -3.249  1.00  0.00     0.000 C 
BRANCH   2   3
ATOM      3  C   UNL     1       0.357  10.688  -2.005  1.00  0.00     0.000 C 
BRANCH   3   4
ATOM      4  C   UNL     1       1.531  10.002  -1.287  1.00  0.00     0.000 C 
BRANCH   4   5
ATOM      5  C   UNL     1       2.646   9.568  -2.250  1.00  0.00     0.000 C 
BRANCH   5   6
ATOM      6  C   UNL     1       3.992   9.468  -1.522  1.00  0.00     0.000 C 
BRANCH   6   7
ATOM      7  C   UNL     1       3.820   8.849  -0.127  1.00  0.00     0.006 C 
BRANCH   7   8
ATOM      8  C   UNL     1       3.536   7.343  -0.191  1.00  0.00     0.053 C 
BRANCH   8   9
ATOM      9  C   UNL     1       2.703   6.883   0.965  1.00  0.00     0.041 C 
ATOM     10  O   UNL     1       1.517   7.287   1.094  1.00  0.00    -0.550 OA
ATOM     11  O   UNL     1       3.225   5.980   1.884  1.00  0.00    -0.550 OA
ENDBRANCH   8   9
ENDBRANCH   7   8
ENDBRANCH   6   7
ENDBRANCH   5   6
ENDBRANCH   4   5
ENDBRANCH   3   4
ENDBRANCH   2   3
ENDBRANCH   1   2
BRANCH   1  12
ATOM     12  C   UNL     1      -1.516  11.348  -4.413  1.00  0.00     0.000 C 
BRANCH  12  13
ATOM     13  C   UNL     1      -2.846  12.088  -4.650  1.00  0.00    -0.000 C 
BRANCH  13  14
ATOM     14  C   UNL     1      -2.768  13.170  -5.749  1.00  0.00    -0.000 C 
BRANCH  14  15
ATOM     15  C   UNL     1      -3.187  14.558  -5.234  1.00  0.00    -0.000 C 
BRANCH  15  16
ATOM     16  C   UNL     1      -2.268  15.680  -5.739  1.00  0.00    -0.000 C 
BRANCH  16  17
ATOM     17  C   UNL     1      -1.629  16.487  -4.593  1.00  0.00    -0.000 C 
BRANCH  17  18
ATOM     18  C   UNL     1      -1.758  15.769  -3.233  1.00  0.00    -0.000 C 
BRANCH  18  19
ATOM     19  C   UNL     1      -0.437  15.690  -2.449  1.00  0.00    -0.003 C 
ATOM     20  C   UNL     1      -0.584  16.085  -0.982  1.00  0.00     0.004 C 
ENDBRANCH  18  19
ENDBRANCH  17  18
ENDBRANCH  16  17
ENDBRANCH  15  16
ENDBRANCH  14  15
ENDBRANCH  13  14
ENDBRANCH  12  13
ENDBRANCH   1  12
TORSDOF 16
ENDMDL
MODEL 3
REMARK VINA RESULT:    -3.859      3.028      7.143
REMARK INTER + INTRA:          -8.895
REMARK INTER:                  -7.334
REMARK INTRA:                  -1.561
REMARK UNBOUND:                -1.426
REMARK SMILES CCCCCCCCCCCCCCCCCC(=O)[O-]
REMARK SMILES IDX 10 1 11 2 12 3 13 4 14 5 15 6 16 7 17 8 18 9 19 10 20 11
REMARK SMILES IDX 9 12 8 13 7 14 6 15 5 16 4 17 3 18 2 19 1 20
REMARK H PARENT
REMARK Flexibility Score: inf
ROOT
ATOM      1  C   UNL     1      -2.905  13.312  -4.841  1.00  0.00     0.000 C 
ENDROOT
BRANCH   1   2
ATOM      2  C   UNL     1      -2.496  11.830  -4.938  1.00  0.00     0.000 C 
BRANCH   2   3
ATOM      3  C   UNL     1      -1.458  11.428  -3.878  1.00  0.00     0.000 C 
BRANCH   3   4
ATOM      4  C   UNL     1      -0.129  12.186  -4.034  1.00  0.00     0.000 C 
BRANCH   4   5
ATOM      5  C   UNL     1       0.998  11.595  -3.173  1.00  0.00     0.000 C 
BRANCH   5   6
ATOM      6  C   UNL     1       0.427  10.755  -2.023  1.00  0.00     0.000 C 
BRANCH   6   7
ATOM      7  C   UNL     1       1.485   9.788  -1.470  1.00  0.00     0.006 C 
BRANCH   7   8
ATOM      8  C   UNL     1       0.982   9.017  -0.242  1.00  0.00     0.053 C 
BRANCH   8   9
ATOM      9  C   UNL     1       1.955   7.966   0.193  1.00  0.00     0.041 C 
ATOM     10  O   UNL     1       3.005   7.759  -0.472  1.00  0.00    -0.550 OA
ATOM     11  O   UNL     1       1.720   7.237   1.353  1.00  0.00    -0.550 OA
ENDBRANCH   8   9
ENDBRANCH   7   8
ENDBRANCH   6   7
ENDBRANCH   5   6
ENDBRANCH   4   5
ENDBRANCH   3   4
ENDBRANCH   2   3
ENDBRANCH   1   2
BRANCH   1  12
ATOM     12  C   UNL     1      -2.679  14.134  -6.125  1.00  0.00     0.000 C 
BRANCH  12  13
ATOM     13  C   UNL     1      -2.926  15.648  -5.981  1.00  0.00    -0.000 C 
BRANCH  13  14
ATOM     14  C   UNL     1      -1.633  16.492  -5.982  1.00  0.00    -0.000 C 
BRANCH  14  15
ATOM     15  C   UNL     1      -0.367  15.619  -6.010  1.00  0.00    -0.000 C 
BRANCH  15  16
ATOM     16  C   UNL     1       0.387  15.626  -4.671  1.00  0.00    -0.000 C 
BRANCH  16  17
ATOM     17  C   UNL     1      -0.274  16.536  -3.620  1.00  0.00    -0.000 C 
BRANCH  17  18
ATOM     18  C   UNL     1      -1.236  15.757  -2.698  1.00  0.00    -0.000 C 
BRANCH  18  19
ATOM     19  C   UNL     1      -1.041  16.064  -1.203  1.00  0.00    -0.003 C 
ATOM     20  C   UNL     1       0.351  15.701  -0.691  1.00  0.00     0.004 C 
ENDBRANCH  18  19
ENDBRANCH  17  18
ENDBRANCH  16  17
ENDBRANCH  15  16
ENDBRANCH  14  15
ENDBRANCH  13  14
ENDBRANCH  12  13
ENDBRANCH   1  12
TORSDOF 16
ENDMDL
MODEL 4
REMARK VINA RESULT:    -3.661      2.785      8.045
REMARK INTER + INTRA:          -8.512
REMARK INTER:                  -6.863
REMARK INTRA:                  -1.649
REMARK UNBOUND:                -1.426
REMARK SMILES CCCCCCCCCCCCCCCCCC(=O)[O-]
REMARK SMILES IDX 10 1 11 2 12 3 13 4 14 5 15 6 16 7 17 8 18 9 19 10 20 11
REMARK SMILES IDX 9 12 8 13 7 14 6 15 5 16 4 17 3 18 2 19 1 20
REMARK H PARENT
REMARK Flexibility Score: inf
ROOT
ATOM      1  C   UNL     1       0.336  13.339  -3.910  1.00  0.00     0.000 C 
ENDROOT
BRANCH   1   2
ATOM      2  C   UNL     1       0.229  11.806  -3.813  1.00  0.00     0.000 C 
BRANCH   2   3
ATOM      3  C   UNL     1       1.106  11.216  -2.696  1.00  0.00     0.000 C 
BRANCH   3   4
ATOM      4  C   UNL     1       2.158  10.229  -3.230  1.00  0.00     0.000 C 
BRANCH   4   5
ATOM      5  C   UNL     1       3.262   9.925  -2.206  1.00  0.00     0.000 C 
BRANCH   5   6
ATOM      6  C   UNL     1       3.687   8.453  -2.277  1.00  0.00     0.000 C 
BRANCH   6   7
ATOM      7  C   UNL     1       3.607   7.788  -0.895  1.00  0.00     0.006 C 
BRANCH   7   8
ATOM      8  C   UNL     1       2.984   8.713   0.159  1.00  0.00     0.053 C 
BRANCH   8   9
ATOM      9  C   UNL     1       1.591   8.294   0.515  1.00  0.00     0.041 C 
ATOM     10  O   UNL     1       1.388   7.190   1.089  1.00  0.00    -0.550 OA
ATOM     11  O   UNL     1       0.519   9.136   0.246  1.00  0.00    -0.550 OA
ENDBRANCH   8   9
ENDBRANCH   7   8
ENDBRANCH   6   7
ENDBRANCH   5   6
ENDBRANCH   4   5
ENDBRANCH   3   4
ENDBRANCH   2   3
ENDBRANCH   1   2
BRANCH   1  12
ATOM     12  C   UNL     1       1.210  13.857  -5.069  1.00  0.00     0.000 C 
BRANCH  12  13
ATOM     13  C   UNL     1       0.876  15.282  -5.550  1.00  0.00    -0.000 C 
BRANCH  13  14
ATOM     14  C   UNL     1       0.759  16.313  -4.406  1.00  0.00    -0.000 C 
BRANCH  14  15
ATOM     15  C   UNL     1      -0.487  17.204  -4.547  1.00  0.00    -0.000 C 
BRANCH  15  16
ATOM     16  C   UNL     1      -1.798  16.423  -4.365  1.00  0.00    -0.000 C 
BRANCH  16  17
ATOM     17  C   UNL     1      -2.594  16.281  -5.675  1.00  0.00    -0.000 C 
BRANCH  17  18
ATOM     18  C   UNL     1      -2.759  14.807  -6.100  1.00  0.00    -0.000 C 
BRANCH  18  19
ATOM     19  C   UNL     1      -3.271  13.894  -4.973  1.00  0.00    -0.003 C 
ATOM     20  C   UNL     1      -3.042  12.410  -5.251  1.00  0.00     0.004 C 
ENDBRANCH  18  19
ENDBRANCH  17  18
ENDBRANCH  16  17
ENDBRANCH  15  16
ENDBRANCH  14  15
ENDBRANCH  13  14
ENDBRANCH  12  13
ENDBRANCH   1  12
TORSDOF 16
ENDMDL
MODEL 5
REMARK VINA RESULT:    -3.635      2.120      2.710
REMARK INTER + INTRA:          -8.461
REMARK INTER:                  -7.187
REMARK INTRA:                  -1.274
REMARK UNBOUND:                -1.426
REMARK SMILES CCCCCCCCCCCCCCCCCC(=O)[O-]
REMARK SMILES IDX 10 1 11 2 12 3 13 4 14 5 15 6 16 7 17 8 18 9 19 10 20 11
REMARK SMILES IDX 9 12 8 13 7 14 6 15 5 16 4 17 3 18 2 19 1 20
REMARK H PARENT
REMARK Flexibility Score: inf
ROOT
ATOM      1  C   UNL     1      -2.802  12.219  -4.611  1.00  0.00     0.000 C 
ENDROOT
BRANCH   1   2
ATOM      2  C   UNL     1      -2.954  12.932  -5.967  1.00  0.00     0.000 C 
BRANCH   2   3
ATOM      3  C   UNL     1      -2.756  14.453  -5.867  1.00  0.00     0.000 C 
BRANCH   3   4
ATOM      4  C   UNL     1      -2.872  14.971  -4.423  1.00  0.00     0.000 C 
BRANCH   4   5
ATOM      5  C   UNL     1      -1.981  16.193  -4.156  1.00  0.00     0.000 C 
BRANCH   5   6
ATOM      6  C   UNL     1      -0.796  15.822  -3.255  1.00  0.00     0.000 C 
BRANCH   6   7
ATOM      7  C   UNL     1       0.529  15.908  -4.027  1.00  0.00     0.006 C 
BRANCH   7   8
ATOM      8  C   UNL     1       0.794  17.316  -4.573  1.00  0.00     0.053 C 
BRANCH   8   9
ATOM      9  C   UNL     1       2.250  17.550  -4.830  1.00  0.00     0.041 C 
ATOM     10  O   UNL     1       3.019  16.578  -5.056  1.00  0.00    -0.550 OA
ATOM     11  O   UNL     1       2.755  18.845  -4.854  1.00  0.00    -0.550 OA
ENDBRANCH   8   9
ENDBRANCH   7   8
ENDBRANCH   6   7
ENDBRANCH   5   6
ENDBRANCH   4   5
ENDBRANCH   3   4
ENDBRANCH   2   3
ENDBRANCH   1   2
BRANCH   1  12
ATOM     12  C   UNL     1      -1.513  11.389  -4.454  1.00  0.00     0.000 C 
BRANCH  12  13
ATOM     13  C   UNL     1      -0.308  12.160  -3.880  1.00  0.00    -0.000 C 
BRANCH  13  14
ATOM     14  C   UNL     1       0.476  11.376  -2.805  1.00  0.00    -0.000 C 
BRANCH  14  15
ATOM     15  C   UNL     1       1.755  10.732  -3.369  1.00  0.00    -0.000 C 
BRANCH  15  16
ATOM     16  C   UNL     1       2.503   9.887  -2.325  1.00  0.00    -0.000 C 
BRANCH  16  17
ATOM     17  C   UNL     1       1.609   9.478  -1.140  1.00  0.00    -0.000 C 
BRANCH  17  18
ATOM     18  C   UNL     1       2.391   8.691  -0.067  1.00  0.00    -0.000 C 
BRANCH  18  19
ATOM     19  C   UNL     1       1.564   7.588   0.615  1.00  0.00    -0.003 C 
ATOM     20  C   UNL     1       2.386   6.725   1.570  1.00  0.00     0.004 C 
ENDBRANCH  18  19
ENDBRANCH  17  18
ENDBRANCH  16  17
ENDBRANCH  15  16
ENDBRANCH  14  15
ENDBRANCH  13  14
ENDBRANCH  12  13
ENDBRANCH   1  12
TORSDOF 16
ENDMDL
MODEL 6
REMARK VINA RESULT:    -3.517      1.212      2.363
REMARK INTER + INTRA:          -8.232
REMARK INTER:                  -6.998
REMARK INTRA:                  -1.234
REMARK UNBOUND:                -1.426
REMARK SMILES CCCCCCCCCCCCCCCCCC(=O)[O-]
REMARK SMILES IDX 10 1 11 2 12 3 13 4 14 5 15 6 16 7 17 8 18 9 19 10 20 11
REMARK SMILES IDX 9 12 8 13 7 14 6 15 5 16 4 17 3 18 2 19 1 20
REMARK H PARENT
REMARK Flexibility Score: inf
ROOT
ATOM      1  C   UNL     1       0.752  11.535  -3.170  1.00  0.00     0.000 C 
ENDROOT
BRANCH   1   2
ATOM      2  C   UNL     1      -0.258  12.381  -3.969  1.00  0.00     0.000 C 
BRANCH   2   3
ATOM      3  C   UNL     1      -1.535  11.603  -4.327  1.00  0.00     0.000 C 
BRANCH   3   4
ATOM      4  C   UNL     1      -2.481  12.406  -5.235  1.00  0.00     0.000 C 
BRANCH   4   5
ATOM      5  C   UNL     1      -2.970  13.708  -4.582  1.00  0.00     0.000 C 
BRANCH   5   6
ATOM      6  C   UNL     1      -2.755  14.905  -5.516  1.00  0.00     0.000 C 
BRANCH   6   7
ATOM      7  C   UNL     1      -1.956  16.014  -4.814  1.00  0.00     0.006 C 
BRANCH   7   8
ATOM      8  C   UNL     1      -1.814  15.764  -3.307  1.00  0.00     0.053 C 
BRANCH   8   9
ATOM      9  C   UNL     1      -0.425  16.045  -2.824  1.00  0.00     0.041 C 
ATOM     10  O   UNL     1       0.433  16.534  -3.606  1.00  0.00    -0.550 OA
ATOM     11  O   UNL     1      -0.086  15.800  -1.498  1.00  0.00    -0.550 OA
ENDBRANCH   8   9
ENDBRANCH   7   8
ENDBRANCH   6   7
ENDBRANCH   5   6
ENDBRANCH   4   5
ENDBRANCH   3   4
ENDBRANCH   2   3
ENDBRANCH   1   2
BRANCH   1  12
ATOM     12  C   UNL     1       1.910  10.949  -4.001  1.00  0.00     0.000 C 
BRANCH  12  13
ATOM     13  C   UNL     1       3.191  10.637  -3.205  1.00  0.00    -0.000 C 
BRANCH  13  14
ATOM     14  C   UNL     1       3.273   9.179  -2.703  1.00  0.00    -0.000 C 
BRANCH  14  15
ATOM     15  C   UNL     1       3.927   9.075  -1.315  1.00  0.00    -0.000 C 
BRANCH  15  16
ATOM     16  C   UNL     1       3.810   7.667  -0.709  1.00  0.00    -0.000 C 
BRANCH  16  17
ATOM     17  C   UNL     1       3.515   7.692   0.802  1.00  0.00    -0.000 C 
BRANCH  17  18
ATOM     18  C   UNL     1       2.023   7.443   1.107  1.00  0.00    -0.000 C 
BRANCH  18  19
ATOM     19  C   UNL     1       1.082   7.843  -0.043  1.00  0.00    -0.003 C 
ATOM     20  C   UNL     1       0.490   9.240   0.125  1.00  0.00     0.004 C 
ENDBRANCH  18  19
ENDBRANCH  17  18
ENDBRANCH  16  17
ENDBRANCH  15  16
ENDBRANCH  14  15
ENDBRANCH  13  14
ENDBRANCH  12  13
ENDBRANCH   1  12
TORSDOF 16
ENDMDL
MODEL 7
REMARK VINA RESULT:    -3.510      1.596      3.211
REMARK INTER + INTRA:          -8.218
REMARK INTER:                  -6.809
REMARK INTRA:                  -1.409
REMARK UNBOUND:                -1.426
REMARK SMILES CCCCCCCCCCCCCCCCCC(=O)[O-]
REMARK SMILES IDX 10 1 11 2 12 3 13 4 14 5 15 6 16 7 17 8 18 9 19 10 20 11
REMARK SMILES IDX 9 12 8 13 7 14 6 15 5 16 4 17 3 18 2 19 1 20
REMARK H PARENT
REMARK Flexibility Score: inf
ROOT
ATOM      1  C   UNL     1      -3.014  15.142  -5.266  1.00  0.00     0.000 C 
ENDROOT
BRANCH   1   2
ATOM      2  C   UNL     1      -2.538  16.330  -6.124  1.00  0.00     0.000 C 
BRANCH   2   3
ATOM      3  C   UNL     1      -2.866  17.692  -5.491  1.00  0.00     0.000 C 
BRANCH   3   4
ATOM      4  C   UNL     1      -1.840  18.777  -5.858  1.00  0.00     0.000 C 
BRANCH   4   5
ATOM      5  C   UNL     1      -0.393  18.262  -5.827  1.00  0.00     0.000 C 
BRANCH   5   6
ATOM      6  C   UNL     1       0.168  18.286  -4.399  1.00  0.00     0.000 C 
BRANCH   6   7
ATOM      7  C   UNL     1       1.054  17.060  -4.135  1.00  0.00     0.006 C 
BRANCH   7   8
ATOM      8  C   UNL     1       0.230  15.802  -3.833  1.00  0.00     0.053 C 
BRANCH   8   9
ATOM      9  C   UNL     1      -0.484  15.905  -2.521  1.00  0.00     0.041 C 
ATOM     10  O   UNL     1      -1.742  15.981  -2.487  1.00  0.00    -0.550 OA
ATOM     11  O   UNL     1       0.235  15.884  -1.332  1.00  0.00    -0.550 OA
ENDBRANCH   8   9
ENDBRANCH   7   8
ENDBRANCH   6   7
ENDBRANCH   5   6
ENDBRANCH   4   5
ENDBRANCH   3   4
ENDBRANCH   2   3
ENDBRANCH   1   2
BRANCH   1  12
ATOM     12  C   UNL     1      -2.346  13.794  -5.597  1.00  0.00     0.000 C 
BRANCH  12  13
ATOM     13  C   UNL     1      -2.515  12.702  -4.522  1.00  0.00    -0.000 C 
BRANCH  13  14
ATOM     14  C   UNL     1      -1.345  11.696  -4.467  1.00  0.00    -0.000 C 
BRANCH  14  15
ATOM     15  C   UNL     1      -0.222  12.158  -3.523  1.00  0.00    -0.000 C 
BRANCH  15  16
ATOM     16  C   UNL     1       0.776  11.036  -3.195  1.00  0.00    -0.000 C 
BRANCH  16  17
ATOM     17  C   UNL     1       0.804  10.684  -1.696  1.00  0.00    -0.000 C 
BRANCH  17  18
ATOM     18  C   UNL     1       1.693   9.457  -1.404  1.00  0.00    -0.000 C 
BRANCH  18  19
ATOM     19  C   UNL     1       1.865   9.163   0.097  1.00  0.00    -0.003 C 
ATOM     20  C   UNL     1       1.638   7.696   0.451  1.00  0.00     0.004 C 
ENDBRANCH  18  19
ENDBRANCH  17  18
ENDBRANCH  16  17
ENDBRANCH  15  16
ENDBRANCH  14  15
ENDBRANCH  13  14
ENDBRANCH  12  13
ENDBRANCH   1  12
TORSDOF 16
ENDMDL
MODEL 8
REMARK VINA RESULT:    -3.437      1.833      2.206
REMARK INTER + INTRA:          -8.077
REMARK INTER:                  -6.915
REMARK INTRA:                  -1.162
REMARK UNBOUND:                -1.426
REMARK SMILES CCCCCCCCCCCCCCCCCC(=O)[O-]
REMARK SMILES IDX 10 1 11 2 12 3 13 4 14 5 15 6 16 7 17 8 18 9 19 10 20 11
REMARK SMILES IDX 9 12 8 13 7 14 6 15 5 16 4 17 3 18 2 19 1 20
REMARK H PARENT
REMARK Flexibility Score: inf
ROOT
ATOM      1  C   UNL     1      -0.594  12.501  -3.896  1.00  0.00     0.000 C 
ENDROOT
BRANCH   1   2
ATOM      2  C   UNL     1      -1.470  11.431  -4.575  1.00  0.00     0.000 C 
BRANCH   2   3
ATOM      3  C   UNL     1      -2.975  11.675  -4.372  1.00  0.00     0.000 C 
BRANCH   3   4
ATOM      4  C   UNL     1      -3.362  13.154  -4.539  1.00  0.00     0.000 C 
BRANCH   4   5
ATOM      5  C   UNL     1      -3.306  13.622  -6.001  1.00  0.00     0.000 C 
BRANCH   5   6
ATOM      6  C   UNL     1      -2.540  14.946  -6.125  1.00  0.00     0.000 C 
BRANCH   6   7
ATOM      7  C   UNL     1      -2.248  15.545  -4.741  1.00  0.00     0.006 C 
BRANCH   7   8
ATOM      8  C   UNL     1      -1.833  17.020  -4.823  1.00  0.00     0.053 C 
BRANCH   8   9
ATOM      9  C   UNL     1      -0.356  17.193  -4.650  1.00  0.00     0.041 C 
ATOM     10  O   UNL     1       0.115  18.305  -4.292  1.00  0.00    -0.550 OA
ATOM     11  O   UNL     1       0.500  16.116  -4.851  1.00  0.00    -0.550 OA
ENDBRANCH   8   9
ENDBRANCH   7   8
ENDBRANCH   6   7
ENDBRANCH   5   6
ENDBRANCH   4   5
ENDBRANCH   3   4
ENDBRANCH   2   3
ENDBRANCH   1   2
BRANCH   1  12
ATOM     12  C   UNL     1       0.789  12.007  -3.430  1.00  0.00     0.000 C 
BRANCH  12  13
ATOM     13  C   UNL     1       0.839  10.533  -2.985  1.00  0.00    -0.000 C 
BRANCH  13  14
ATOM     14  C   UNL     1       1.581  10.311  -1.649  1.00  0.00    -0.000 C 
BRANCH  14  15
ATOM     15  C   UNL     1       0.708   9.590  -0.608  1.00  0.00    -0.000 C 
BRANCH  15  16
ATOM     16  C   UNL     1       1.238   8.191  -0.257  1.00  0.00    -0.000 C 
BRANCH  16  17
ATOM     17  C   UNL     1       2.713   7.996  -0.656  1.00  0.00    -0.000 C 
BRANCH  17  18
ATOM     18  C   UNL     1       3.605   7.666   0.559  1.00  0.00    -0.000 C 
BRANCH  18  19
ATOM     19  C   UNL     1       2.945   6.712   1.569  1.00  0.00    -0.003 C 
ATOM     20  C   UNL     1       3.776   5.461   1.845  1.00  0.00     0.004 C 
ENDBRANCH  18  19
ENDBRANCH  17  18
ENDBRANCH  16  17
ENDBRANCH  15  16
ENDBRANCH  14  15
ENDBRANCH  13  14
ENDBRANCH  12  13
ENDBRANCH   1  12
TORSDOF 16
ENDMDL
MODEL 9
REMARK VINA RESULT:    -3.342      1.956      2.658
REMARK INTER + INTRA:          -7.894
REMARK INTER:                  -6.504
REMARK INTRA:                  -1.390
REMARK UNBOUND:                -1.426
REMARK SMILES CCCCCCCCCCCCCCCCCC(=O)[O-]
REMARK SMILES IDX 10 1 11 2 12 3 13 4 14 5 15 6 16 7 17 8 18 9 19 10 20 11
REMARK SMILES IDX 9 12 8 13 7 14 6 15 5 16 4 17 3 18 2 19 1 20
REMARK H PARENT
REMARK Flexibility Score: inf
ROOT
ATOM      1  C   UNL     1      -0.427  12.237  -4.023  1.00  0.00     0.000 C 
ENDROOT
BRANCH   1   2
ATOM      2  C   UNL     1      -1.748  11.495  -4.298  1.00  0.00     0.000 C 
BRANCH   2   3
ATOM      3  C   UNL     1      -2.707  12.298  -5.193  1.00  0.00     0.000 C 
BRANCH   3   4
ATOM      4  C   UNL     1      -3.068  13.667  -4.594  1.00  0.00     0.000 C 
BRANCH   4   5
ATOM      5  C   UNL     1      -2.904  14.818  -5.598  1.00  0.00     0.000 C 
BRANCH   5   6
ATOM      6  C   UNL     1      -2.248  16.036  -4.934  1.00  0.00     0.000 C 
BRANCH   6   7
ATOM      7  C   UNL     1      -1.156  15.603  -3.945  1.00  0.00     0.006 C 
BRANCH   7   8
ATOM      8  C   UNL     1      -0.239  16.766  -3.546  1.00  0.00     0.053 C 
BRANCH   8   9
ATOM      9  C   UNL     1       0.628  17.207  -4.684  1.00  0.00     0.041 C 
ATOM     10  O   UNL     1       0.515  18.371  -5.155  1.00  0.00    -0.550 OA
ATOM     11  O   UNL     1       1.587  16.346  -5.203  1.00  0.00    -0.550 OA
ENDBRANCH   8   9
ENDBRANCH   7   8
ENDBRANCH   6   7
ENDBRANCH   5   6
ENDBRANCH   4   5
ENDBRANCH   3   4
ENDBRANCH   2   3
ENDBRANCH   1   2
BRANCH   1  12
ATOM     12  C   UNL     1       0.665  11.389  -3.343  1.00  0.00     0.000 C 
BRANCH  12  13
ATOM     13  C   UNL     1       0.157  10.422  -2.256  1.00  0.00    -0.000 C 
BRANCH  13  14
ATOM     14  C   UNL     1       1.024  10.409  -0.979  1.00  0.00    -0.000 C 
BRANCH  14  15
ATOM     15  C   UNL     1       0.779   9.158  -0.119  1.00  0.00    -0.000 C 
BRANCH  15  16
ATOM     16  C   UNL     1       1.745   8.010  -0.452  1.00  0.00    -0.000 C 
BRANCH  16  17
ATOM     17  C   UNL     1       3.126   8.510  -0.913  1.00  0.00    -0.000 C 
BRANCH  17  18
ATOM     18  C   UNL     1       3.818   7.512  -1.866  1.00  0.00    -0.000 C 
BRANCH  18  19
ATOM     19  C   UNL     1       4.123   8.095  -3.256  1.00  0.00    -0.003 C 
ATOM     20  C   UNL     1       3.911   9.605  -3.333  1.00  0.00     0.004 C 
ENDBRANCH  18  19
ENDBRANCH  17  18
ENDBRANCH  16  17
ENDBRANCH  15  16
ENDBRANCH  14  15
ENDBRANCH  13  14
ENDBRANCH  12  13
ENDBRANCH   1  12
TORSDOF 16
ENDMDL
