MODEL 1
REMARK VINA RESULT:     5.202      0.000      0.000
REMARK INTER + INTRA:           6.274
REMARK INTER:                   5.659
REMARK INTRA:                   0.615
REMARK UNBOUND:                 0.615
REMARK SMILES CC1(C)CC[C@@]2(C(=O)[O-])CC[C@@]3(C)C(=CC[C@@H]4[C@@]5(C)CC[C@H](O)C(C)(C)[C@@H]5CC[C@@]43C)[C@H]2C1
REMARK SMILES IDX 6 1 5 2 10 3 32 4 4 5 11 6 14 7 33 8 2 9 12 10 15 11 1 12
REMARK SMILES IDX 3 13 13 14 30 15 16 16 17 17 29 18 31 19 18 20 28 21 27 22
REMARK SMILES IDX 20 23 19 24 24 25 21 26 22 27 25 28 26 29 7 30 8 31 9 32
REMARK SMILES IDX 23 33
REMARK H PARENT 23 34
REMARK Flexibility Score: inf
ROOT
ATOM      1  C   UNL     1       6.786  -4.317  15.643  1.00  0.00     0.017 C 
ATOM      2  C   UNL     1       5.292  -4.597  16.034  1.00  0.00     0.014 C 
ATOM      3  C   UNL     1       7.459  -3.590  16.833  1.00  0.00     0.014 C 
ATOM      4  C   UNL     1       7.549  -5.661  15.339  1.00  0.00     0.028 C 
ATOM      5  C   UNL     1       4.737  -5.842  15.333  1.00  0.00     0.007 C 
ATOM      6  C   UNL     1       8.925  -3.277  16.541  1.00  0.00     0.013 C 
ATOM      7  C   UNL     1       9.076  -5.602  15.500  1.00  0.00    -0.064 C 
ATOM      8  C   UNL     1       6.962  -6.828  16.174  1.00  0.00     0.015 C 
ATOM      9  C   UNL     1       5.480  -7.135  15.788  1.00  0.00    -0.035 C 
ATOM     10  C   UNL     1       9.811  -4.559  16.363  1.00  0.00    -0.006 C 
ATOM     11  C   UNL     1       9.786  -6.622  14.976  1.00  0.00    -0.027 C 
ATOM     12  C   UNL     1       4.761  -7.748  17.010  1.00  0.00     0.011 C 
ATOM     13  C   UNL     1       5.441  -8.168  14.639  1.00  0.00     0.011 C 
ATOM     14  C   UNL     1       9.986  -5.180  17.789  1.00  0.00     0.017 C 
ATOM     15  C   UNL     1      11.240  -4.200  15.681  1.00  0.00    -0.020 C 
ATOM     16  C   UNL     1      11.223  -6.827  15.328  1.00  0.00     0.032 C 
ATOM     17  C   UNL     1      12.025  -5.511  15.177  1.00  0.00     0.006 C 
ATOM     18  C   UNL     1      12.100  -3.361  16.674  1.00  0.00     0.008 C 
ATOM     19  C   UNL     1      11.014  -3.294  14.420  1.00  0.00     0.012 C 
ATOM     20  C   UNL     1      13.566  -5.640  15.567  1.00  0.00    -0.025 C 
ATOM     21  C   UNL     1      13.551  -3.099  16.246  1.00  0.00     0.005 C 
ATOM     22  C   UNL     1      14.229  -4.220  15.404  1.00  0.00     0.003 C 
ATOM     23  C   UNL     1      14.246  -6.675  14.578  1.00  0.00     0.010 C 
ATOM     24  C   UNL     1      13.752  -6.181  17.015  1.00  0.00     0.012 C 
ATOM     25  C   UNL     1      15.827  -4.165  15.422  1.00  0.00    -0.006 C 
ATOM     26  C   UNL     1      15.518  -6.182  13.876  1.00  0.00     0.033 C 
ATOM     27  C   UNL     1      16.462  -5.486  14.850  1.00  0.00     0.120 C 
ATOM     28  C   UNL     1      16.277  -2.994  14.505  1.00  0.00     0.014 C 
ATOM     29  C   UNL     1      16.426  -3.865  16.827  1.00  0.00     0.014 C 
ENDROOT
BRANCH   1  30
ATOM     30  C   UNL     1       6.794  -3.400  14.420  1.00  0.00     0.048 C 
ATOM     31  O   UNL     1       5.707  -3.058  13.880  1.00  0.00    -0.550 OA
ATOM     32  O   UNL     1       7.981  -2.888  13.905  1.00  0.00    -0.550 OA
ENDBRANCH   1  30
BRANCH  27  33
ATOM     33  O   UNL     1      16.806  -6.399  15.867  1.00  0.00    -0.393 OA
ATOM     34  H   UNL     1      16.884  -7.298  15.453  1.00  0.00     0.210 HD
ENDBRANCH  27  33
TORSDOF 2
ENDMDL
MODEL 2
REMARK VINA RESULT:     5.723     15.308     17.752
REMARK INTER + INTRA:           6.840
REMARK INTER:                   6.416
REMARK INTRA:                   0.423
REMARK UNBOUND:                 0.615
REMARK SMILES CC1(C)CC[C@@]2(C(=O)[O-])CC[C@@]3(C)C(=CC[C@@H]4[C@@]5(C)CC[C@H](O)C(C)(C)[C@@H]5CC[C@@]43C)[C@H]2C1
REMARK SMILES IDX 6 1 5 2 10 3 32 4 4 5 11 6 14 7 33 8 2 9 12 10 15 11 1 12
REMARK SMILES IDX 3 13 13 14 30 15 16 16 17 17 29 18 31 19 18 20 28 21 27 22
REMARK SMILES IDX 20 23 19 24 24 25 21 26 22 27 25 28 26 29 7 30 8 31 9 32
REMARK SMILES IDX 23 33
REMARK H PARENT 23 34
REMARK Flexibility Score: inf
ROOT
ATOM      1  C   UNL     1      -1.276 -20.728  16.499  1.00  0.00     0.017 C 
ATOM      2  C   UNL     1      -2.771 -20.281  16.335  1.00  0.00     0.014 C 
ATOM      3  C   UNL     1      -0.880 -21.531  15.236  1.00  0.00     0.014 C 
ATOM      4  C   UNL     1      -0.329 -19.480  16.656  1.00  0.00     0.028 C 
ATOM      5  C   UNL     1      -3.069 -18.978  17.086  1.00  0.00     0.007 C 
ATOM      6  C   UNL     1       0.570 -22.008  15.308  1.00  0.00     0.013 C 
ATOM      7  C   UNL     1       1.139 -19.713  16.267  1.00  0.00    -0.064 C 
ATOM      8  C   UNL     1      -0.902 -18.255  15.897  1.00  0.00     0.015 C 
ATOM      9  C   UNL     1      -2.263 -17.780  16.497  1.00  0.00    -0.035 C 
ATOM     10  C   UNL     1       1.611 -20.836  15.323  1.00  0.00    -0.006 C 
ATOM     11  C   UNL     1       2.031 -18.779  16.656  1.00  0.00    -0.027 C 
ATOM     12  C   UNL     1      -3.088 -17.093  15.387  1.00  0.00     0.011 C 
ATOM     13  C   UNL     1      -2.009 -16.746  17.617  1.00  0.00     0.011 C 
ATOM     14  C   UNL     1       1.634 -20.242  13.875  1.00  0.00     0.017 C 
ATOM     15  C   UNL     1       3.078 -21.353  15.788  1.00  0.00    -0.020 C 
ATOM     16  C   UNL     1       3.411 -18.740  16.085  1.00  0.00     0.032 C 
ATOM     17  C   UNL     1       4.073 -20.140  16.141  1.00  0.00     0.006 C 
ATOM     18  C   UNL     1       3.676 -22.288  14.693  1.00  0.00     0.008 C 
ATOM     19  C   UNL     1       2.948 -22.224  17.087  1.00  0.00     0.012 C 
ATOM     20  C   UNL     1       5.541 -20.188  15.518  1.00  0.00    -0.025 C 
ATOM     21  C   UNL     1       5.136 -22.713  14.901  1.00  0.00     0.005 C 
ATOM     22  C   UNL     1       6.058 -21.674  15.607  1.00  0.00     0.003 C 
ATOM     23  C   UNL     1       6.476 -19.235  16.371  1.00  0.00     0.010 C 
ATOM     24  C   UNL     1       5.563 -19.676  14.048  1.00  0.00     0.012 C 
ATOM     25  C   UNL     1       7.617 -21.911  15.348  1.00  0.00    -0.006 C 
ATOM     26  C   UNL     1       7.777 -19.868  16.882  1.00  0.00     0.033 C 
ATOM     27  C   UNL     1       8.477 -20.670  15.790  1.00  0.00     0.120 C 
ATOM     28  C   UNL     1       8.068 -23.124  16.209  1.00  0.00     0.014 C 
ATOM     29  C   UNL     1       7.957 -22.282  13.875  1.00  0.00     0.014 C 
ENDROOT
BRANCH   1  30
ATOM     30  C   UNL     1      -1.183 -21.637  17.726  1.00  0.00     0.048 C 
ATOM     31  O   UNL     1      -1.620 -21.239  18.840  1.00  0.00    -0.550 OA
ATOM     32  O   UNL     1      -0.664 -22.924  17.637  1.00  0.00    -0.550 OA
ENDBRANCH   1  30
BRANCH  27  33
ATOM     33  O   UNL     1       8.762 -19.806  14.714  1.00  0.00    -0.393 OA
ATOM     34  H   UNL     1       8.159 -20.049  13.962  1.00  0.00     0.210 HD
ENDBRANCH  27  33
TORSDOF 2
ENDMDL
