MODEL 1
REMARK VINA RESULT:    -5.959      0.000      0.000
REMARK INTER + INTRA:          -7.504
REMARK INTER:                  -7.178
REMARK INTRA:                  -0.326
REMARK UNBOUND:                -0.326
REMARK SMILES O=c1c(O)c(-c2ccc(O)cc2O)oc2cc(O)cc(O)c12
REMARK SMILES IDX 5 1 3 2 2 3 1 4 22 5 20 6 19 7 17 8 16 9 15 10 14 11 6 12
REMARK SMILES IDX 8 13 7 14 9 15 11 16 12 17 10 18 13 20 4 22 21 24 18 26
REMARK H PARENT 10 19 13 21 4 23 21 25 18 27
REMARK Flexibility Score: inf
ROOT
ATOM      1  C   UNL     1      15.129  -7.252 713.977  1.00  0.00     0.184 A 
ATOM      2  C   UNL     1      14.394  -6.685 712.921  1.00  0.00     0.208 A 
ATOM      3  C   UNL     1      15.083  -6.224 711.788  1.00  0.00     0.238 A 
ATOM      4  O   UNL     1      14.434  -5.723 710.829  1.00  0.00    -0.285 OA
ATOM      5  C   UNL     1      16.489  -6.321 711.740  1.00  0.00     0.111 A 
ATOM      6  C   UNL     1      17.258  -5.878 710.637  1.00  0.00     0.134 A 
ATOM      7  C   UNL     1      18.655  -6.002 710.670  1.00  0.00     0.093 A 
ATOM      8  C   UNL     1      19.296  -6.558 711.782  1.00  0.00     0.123 A 
ATOM      9  C   UNL     1      18.542  -6.997 712.871  1.00  0.00     0.094 A 
ATOM     10  C   UNL     1      17.148  -6.885 712.858  1.00  0.00     0.146 A 
ATOM     11  O   UNL     1      16.454  -7.315 713.906  1.00  0.00    -0.451 OA
ENDROOT
BRANCH   1  12
ATOM     12  C   UNL     1      14.467  -7.767 715.194  1.00  0.00     0.063 A 
ATOM     13  C   UNL     1      13.774  -9.673 716.532  1.00  0.00     0.047 A 
ATOM     14  C   UNL     1      14.398  -9.154 715.396  1.00  0.00     0.020 A 
ATOM     15  C   UNL     1      13.199  -8.816 717.473  1.00  0.00     0.119 A 
ATOM     16  C   UNL     1      13.242  -7.431 717.270  1.00  0.00     0.093 A 
ATOM     17  C   UNL     1      13.861  -6.901 716.129  1.00  0.00     0.130 A 
BRANCH  15  18
ATOM     18  O   UNL     1      12.583  -9.350 718.604  1.00  0.00    -0.508 OA
ATOM     19  H   UNL     1      12.353 -10.335 718.666  1.00  0.00     0.293 HD
ENDBRANCH  15  18
BRANCH  17  20
ATOM     20  O   UNL     1      13.855  -5.523 715.912  1.00  0.00    -0.507 OA
ATOM     21  H   UNL     1      13.611  -5.128 715.011  1.00  0.00     0.293 HD
ENDBRANCH  17  20
ENDBRANCH   1  12
BRANCH   2  22
ATOM     22  O   UNL     1      13.006  -6.561 713.018  1.00  0.00    -0.502 OA
ATOM     23  H   UNL     1      12.472  -5.957 712.405  1.00  0.00     0.293 HD
ENDBRANCH   2  22
BRANCH   6  24
ATOM     24  O   UNL     1      16.648  -5.318 709.514  1.00  0.00    -0.507 OA
ATOM     25  H   UNL     1      16.154  -5.886 708.836  1.00  0.00     0.293 HD
ENDBRANCH   6  24
BRANCH   8  26
ATOM     26  O   UNL     1      20.684  -6.680 711.815  1.00  0.00    -0.508 OA
ATOM     27  H   UNL     1      21.194  -6.692 712.690  1.00  0.00     0.293 HD
ENDBRANCH   8  26
TORSDOF 6
ENDMDL
MODEL 2
REMARK VINA RESULT:    -5.949      1.352      2.828
REMARK INTER + INTRA:          -7.493
REMARK INTER:                  -7.085
REMARK INTRA:                  -0.408
REMARK UNBOUND:                -0.326
REMARK SMILES O=c1c(O)c(-c2ccc(O)cc2O)oc2cc(O)cc(O)c12
REMARK SMILES IDX 5 1 3 2 2 3 1 4 22 5 20 6 19 7 17 8 16 9 15 10 14 11 6 12
REMARK SMILES IDX 8 13 7 14 9 15 11 16 12 17 10 18 13 20 4 22 21 24 18 26
REMARK H PARENT 10 19 13 21 4 23 21 25 18 27
REMARK Flexibility Score: inf
ROOT
ATOM      1  C   UNL     1      15.459  -7.531 714.235  1.00  0.00     0.184 A 
ATOM      2  C   UNL     1      16.816  -7.180 714.344  1.00  0.00     0.208 A 
ATOM      3  C   UNL     1      17.507  -6.779 713.190  1.00  0.00     0.238 A 
ATOM      4  O   UNL     1      18.722  -6.450 713.277  1.00  0.00    -0.285 OA
ATOM      5  C   UNL     1      16.836  -6.755 711.950  1.00  0.00     0.111 A 
ATOM      6  C   UNL     1      17.460  -6.367 710.740  1.00  0.00     0.134 A 
ATOM      7  C   UNL     1      16.726  -6.379 709.545  1.00  0.00     0.093 A 
ATOM      8  C   UNL     1      15.383  -6.772 709.537  1.00  0.00     0.123 A 
ATOM      9  C   UNL     1      14.763  -7.155 710.727  1.00  0.00     0.094 A 
ATOM     10  C   UNL     1      15.477  -7.148 711.930  1.00  0.00     0.146 A 
ATOM     11  O   UNL     1      14.861  -7.513 713.049  1.00  0.00    -0.451 OA
ENDROOT
BRANCH   1  12
ATOM     12  C   UNL     1      14.670  -7.952 715.412  1.00  0.00     0.063 A 
ATOM     13  C   UNL     1      13.905  -9.742 716.867  1.00  0.00     0.047 A 
ATOM     14  C   UNL     1      14.645  -9.311 715.764  1.00  0.00     0.020 A 
ATOM     15  C   UNL     1      13.170  -8.827 717.623  1.00  0.00     0.119 A 
ATOM     16  C   UNL     1      13.170  -7.472 717.267  1.00  0.00     0.093 A 
ATOM     17  C   UNL     1      13.905  -7.030 716.157  1.00  0.00     0.130 A 
BRANCH  15  18
ATOM     18  O   UNL     1      12.439  -9.272 718.723  1.00  0.00    -0.508 OA
ATOM     19  H   UNL     1      11.509  -8.922 718.917  1.00  0.00     0.293 HD
ENDBRANCH  15  18
BRANCH  17  20
ATOM     20  O   UNL     1      13.858  -5.687 715.783  1.00  0.00    -0.507 OA
ATOM     21  H   UNL     1      14.678  -5.204 715.434  1.00  0.00     0.293 HD
ENDBRANCH  17  20
ENDBRANCH   1  12
BRANCH   2  22
ATOM     22  O   UNL     1      17.464  -7.257 715.580  1.00  0.00    -0.502 OA
ATOM     23  H   UNL     1      17.883  -8.115 715.918  1.00  0.00     0.293 HD
ENDBRANCH   2  22
BRANCH   6  24
ATOM     24  O   UNL     1      18.798  -5.971 710.716  1.00  0.00    -0.507 OA
ATOM     25  H   UNL     1      19.551  -6.625 710.892  1.00  0.00     0.293 HD
ENDBRANCH   6  24
BRANCH   8  26
ATOM     26  O   UNL     1      14.654  -6.785 708.349  1.00  0.00    -0.508 OA
ATOM     27  H   UNL     1      15.113  -6.817 707.446  1.00  0.00     0.293 HD
ENDBRANCH   8  26
TORSDOF 6
ENDMDL
MODEL 3
REMARK VINA RESULT:    -5.756      2.074      6.978
REMARK INTER + INTRA:          -7.260
REMARK INTER:                  -6.831
REMARK INTRA:                  -0.428
REMARK UNBOUND:                -0.326
REMARK SMILES O=c1c(O)c(-c2ccc(O)cc2O)oc2cc(O)cc(O)c12
REMARK SMILES IDX 5 1 3 2 2 3 1 4 22 5 20 6 19 7 17 8 16 9 15 10 14 11 6 12
REMARK SMILES IDX 8 13 7 14 9 15 11 16 12 17 10 18 13 20 4 22 21 24 18 26
REMARK H PARENT 10 19 13 21 4 23 21 25 18 27
REMARK Flexibility Score: inf
ROOT
ATOM      1  C   UNL     1      15.069  -6.760 715.353  1.00  0.00     0.184 A 
ATOM      2  C   UNL     1      14.646  -7.864 716.115  1.00  0.00     0.208 A 
ATOM      3  C   UNL     1      13.494  -7.739 716.907  1.00  0.00     0.238 A 
ATOM      4  O   UNL     1      13.098  -8.725 717.586  1.00  0.00    -0.285 OA
ATOM      5  C   UNL     1      12.800  -6.512 716.938  1.00  0.00     0.111 A 
ATOM      6  C   UNL     1      11.633  -6.302 717.711  1.00  0.00     0.134 A 
ATOM      7  C   UNL     1      11.005  -5.048 717.695  1.00  0.00     0.093 A 
ATOM      8  C   UNL     1      11.521  -4.002 716.922  1.00  0.00     0.123 A 
ATOM      9  C   UNL     1      12.670  -4.204 716.157  1.00  0.00     0.094 A 
ATOM     10  C   UNL     1      13.311  -5.447 716.158  1.00  0.00     0.146 A 
ATOM     11  O   UNL     1      14.401  -5.613 715.417  1.00  0.00    -0.451 OA
ENDROOT
BRANCH   1  12
ATOM     12  C   UNL     1      16.266  -6.827 714.489  1.00  0.00     0.063 A 
ATOM     13  C   UNL     1      18.688  -6.786 714.291  1.00  0.00     0.047 A 
ATOM     14  C   UNL     1      17.536  -6.733 715.079  1.00  0.00     0.020 A 
ATOM     15  C   UNL     1      18.587  -6.921 712.905  1.00  0.00     0.119 A 
ATOM     16  C   UNL     1      17.324  -6.994 712.304  1.00  0.00     0.093 A 
ATOM     17  C   UNL     1      16.161  -6.934 713.087  1.00  0.00     0.130 A 
BRANCH  15  18
ATOM     18  O   UNL     1      19.745  -6.977 712.132  1.00  0.00    -0.508 OA
ATOM     19  H   UNL     1      20.640  -7.227 712.538  1.00  0.00     0.293 HD
ENDBRANCH  15  18
BRANCH  17  20
ATOM     20  O   UNL     1      14.909  -6.957 712.473  1.00  0.00    -0.507 OA
ATOM     21  H   UNL     1      14.602  -6.209 711.862  1.00  0.00     0.293 HD
ENDBRANCH  17  20
ENDBRANCH   1  12
BRANCH   2  22
ATOM     22  O   UNL     1      15.381  -9.052 716.098  1.00  0.00    -0.502 OA
ATOM     23  H   UNL     1      16.360  -9.079 715.838  1.00  0.00     0.293 HD
ENDBRANCH   2  22
BRANCH   6  24
ATOM     24  O   UNL     1      11.096  -7.324 718.493  1.00  0.00    -0.507 OA
ATOM     25  H   UNL     1      11.257  -7.374 719.492  1.00  0.00     0.293 HD
ENDBRANCH   6  24
BRANCH   8  26
ATOM     26  O   UNL     1      10.897  -2.755 716.907  1.00  0.00    -0.508 OA
ATOM     27  H   UNL     1      11.396  -1.916 716.638  1.00  0.00     0.293 HD
ENDBRANCH   8  26
TORSDOF 6
ENDMDL
MODEL 4
REMARK VINA RESULT:    -5.718      1.135      1.639
REMARK INTER + INTRA:          -7.214
REMARK INTER:                  -6.880
REMARK INTRA:                  -0.334
REMARK UNBOUND:                -0.326
REMARK SMILES O=c1c(O)c(-c2ccc(O)cc2O)oc2cc(O)cc(O)c12
REMARK SMILES IDX 5 1 3 2 2 3 1 4 22 5 20 6 19 7 17 8 16 9 15 10 14 11 6 12
REMARK SMILES IDX 8 13 7 14 9 15 11 16 12 17 10 18 13 20 4 22 21 24 18 26
REMARK H PARENT 10 19 13 21 4 23 21 25 18 27
REMARK Flexibility Score: inf
ROOT
ATOM      1  C   UNL     1      14.568  -7.159 714.349  1.00  0.00     0.184 A 
ATOM      2  C   UNL     1      13.897  -6.826 713.160  1.00  0.00     0.208 A 
ATOM      3  C   UNL     1      14.648  -6.629 711.990  1.00  0.00     0.238 A 
ATOM      4  O   UNL     1      14.056  -6.340 710.914  1.00  0.00    -0.285 OA
ATOM      5  C   UNL     1      16.052  -6.750 712.036  1.00  0.00     0.111 A 
ATOM      6  C   UNL     1      16.882  -6.565 710.904  1.00  0.00     0.134 A 
ATOM      7  C   UNL     1      18.273  -6.694 711.034  1.00  0.00     0.093 A 
ATOM      8  C   UNL     1      18.848  -7.003 712.271  1.00  0.00     0.123 A 
ATOM      9  C   UNL     1      18.034  -7.187 713.390  1.00  0.00     0.094 A 
ATOM     10  C   UNL     1      16.645  -7.065 713.282  1.00  0.00     0.146 A 
ATOM     11  O   UNL     1      15.894  -7.250 714.361  1.00  0.00    -0.451 OA
ENDROOT
BRANCH   1  12
ATOM     12  C   UNL     1      13.838  -7.391 715.613  1.00  0.00     0.063 A 
ATOM     13  C   UNL     1      12.389  -6.526 717.362  1.00  0.00     0.047 A 
ATOM     14  C   UNL     1      13.086  -6.342 716.166  1.00  0.00     0.020 A 
ATOM     15  C   UNL     1      12.443  -7.752 718.028  1.00  0.00     0.119 A 
ATOM     16  C   UNL     1      13.209  -8.798 717.496  1.00  0.00     0.093 A 
ATOM     17  C   UNL     1      13.918  -8.621 716.299  1.00  0.00     0.130 A 
BRANCH  15  18
ATOM     18  O   UNL     1      11.739  -7.921 719.218  1.00  0.00    -0.508 OA
ATOM     19  H   UNL     1      11.743  -7.211 719.941  1.00  0.00     0.293 HD
ENDBRANCH  15  18
BRANCH  17  20
ATOM     20  O   UNL     1      14.716  -9.653 715.805  1.00  0.00    -0.507 OA
ATOM     21  H   UNL     1      15.166  -9.590 714.899  1.00  0.00     0.293 HD
ENDBRANCH  17  20
ENDBRANCH   1  12
BRANCH   2  22
ATOM     22  O   UNL     1      12.508  -6.669 713.157  1.00  0.00    -0.502 OA
ATOM     23  H   UNL     1      12.066  -5.768 713.025  1.00  0.00     0.293 HD
ENDBRANCH   2  22
BRANCH   6  24
ATOM     24  O   UNL     1      16.338  -6.254 709.657  1.00  0.00    -0.507 OA
ATOM     25  H   UNL     1      15.685  -5.490 709.535  1.00  0.00     0.293 HD
ENDBRANCH   6  24
BRANCH   8  26
ATOM     26  O   UNL     1      20.230  -7.130 712.400  1.00  0.00    -0.508 OA
ATOM     27  H   UNL     1      20.660  -8.011 712.654  1.00  0.00     0.293 HD
ENDBRANCH   8  26
TORSDOF 6
ENDMDL
MODEL 5
REMARK VINA RESULT:    -5.636      2.034      2.573
REMARK INTER + INTRA:          -7.115
REMARK INTER:                  -6.698
REMARK INTRA:                  -0.417
REMARK UNBOUND:                -0.326
REMARK SMILES O=c1c(O)c(-c2ccc(O)cc2O)oc2cc(O)cc(O)c12
REMARK SMILES IDX 5 1 3 2 2 3 1 4 22 5 20 6 19 7 17 8 16 9 15 10 14 11 6 12
REMARK SMILES IDX 8 13 7 14 9 15 11 16 12 17 10 18 13 20 4 22 21 24 18 26
REMARK H PARENT 10 19 13 21 4 23 21 25 18 27
REMARK Flexibility Score: inf
ROOT
ATOM      1  C   UNL     1      16.154  -6.611 714.116  1.00  0.00     0.184 A 
ATOM      2  C   UNL     1      16.077  -5.250 714.460  1.00  0.00     0.208 A 
ATOM      3  C   UNL     1      16.983  -4.352 713.875  1.00  0.00     0.238 A 
ATOM      4  O   UNL     1      16.918  -3.126 714.167  1.00  0.00    -0.285 OA
ATOM      5  C   UNL     1      17.958  -4.832 712.976  1.00  0.00     0.111 A 
ATOM      6  C   UNL     1      18.909  -3.994 712.347  1.00  0.00     0.134 A 
ATOM      7  C   UNL     1      19.853  -4.550 711.470  1.00  0.00     0.093 A 
ATOM      8  C   UNL     1      19.863  -5.926 711.214  1.00  0.00     0.123 A 
ATOM      9  C   UNL     1      18.927  -6.756 711.831  1.00  0.00     0.094 A 
ATOM     10  C   UNL     1      17.976  -6.221 712.706  1.00  0.00     0.146 A 
ATOM     11  O   UNL     1      17.094  -7.033 713.277  1.00  0.00    -0.451 OA
ENDROOT
BRANCH   1  12
ATOM     12  C   UNL     1      15.223  -7.608 714.686  1.00  0.00     0.063 A 
ATOM     13  C   UNL     1      14.751  -9.265 716.400  1.00  0.00     0.047 A 
ATOM     14  C   UNL     1      15.604  -8.312 715.839  1.00  0.00     0.020 A 
ATOM     15  C   UNL     1      13.514  -9.538 715.810  1.00  0.00     0.119 A 
ATOM     16  C   UNL     1      13.135  -8.857 714.646  1.00  0.00     0.093 A 
ATOM     17  C   UNL     1      13.988  -7.903 714.072  1.00  0.00     0.130 A 
BRANCH  15  18
ATOM     18  O   UNL     1      12.673 -10.489 716.383  1.00  0.00    -0.508 OA
ATOM     19  H   UNL     1      12.923 -11.470 716.409  1.00  0.00     0.293 HD
ENDBRANCH  15  18
BRANCH  17  20
ATOM     20  O   UNL     1      13.621  -7.267 712.885  1.00  0.00    -0.507 OA
ATOM     21  H   UNL     1      14.309  -6.838 712.278  1.00  0.00     0.293 HD
ENDBRANCH  17  20
ENDBRANCH   1  12
BRANCH   2  22
ATOM     22  O   UNL     1      15.129  -4.812 715.389  1.00  0.00    -0.502 OA
ATOM     23  H   UNL     1      14.382  -5.410 715.722  1.00  0.00     0.293 HD
ENDBRANCH   2  22
BRANCH   6  24
ATOM     24  O   UNL     1      18.925  -2.619 712.584  1.00  0.00    -0.507 OA
ATOM     25  H   UNL     1      19.196  -1.957 711.866  1.00  0.00     0.293 HD
ENDBRANCH   6  24
BRANCH   8  26
ATOM     26  O   UNL     1      20.802  -6.478 710.344  1.00  0.00    -0.508 OA
ATOM     27  H   UNL     1      21.262  -5.919 709.636  1.00  0.00     0.293 HD
ENDBRANCH   8  26
TORSDOF 6
ENDMDL
MODEL 6
REMARK VINA RESULT:    -5.585      1.751      6.723
REMARK INTER + INTRA:          -7.053
REMARK INTER:                  -6.635
REMARK INTRA:                  -0.418
REMARK UNBOUND:                -0.326
REMARK SMILES O=c1c(O)c(-c2ccc(O)cc2O)oc2cc(O)cc(O)c12
REMARK SMILES IDX 5 1 3 2 2 3 1 4 22 5 20 6 19 7 17 8 16 9 15 10 14 11 6 12
REMARK SMILES IDX 8 13 7 14 9 15 11 16 12 17 10 18 13 20 4 22 21 24 18 26
REMARK H PARENT 10 19 13 21 4 23 21 25 18 27
REMARK Flexibility Score: inf
ROOT
ATOM      1  C   UNL     1      15.605  -6.259 714.604  1.00  0.00     0.184 A 
ATOM      2  C   UNL     1      15.038  -4.999 714.860  1.00  0.00     0.208 A 
ATOM      3  C   UNL     1      14.054  -4.888 715.855  1.00  0.00     0.238 A 
ATOM      4  O   UNL     1      13.545  -3.761 716.103  1.00  0.00    -0.285 OA
ATOM      5  C   UNL     1      13.644  -6.040 716.559  1.00  0.00     0.111 A 
ATOM      6  C   UNL     1      12.657  -6.015 717.574  1.00  0.00     0.134 A 
ATOM      7  C   UNL     1      12.297  -7.206 718.222  1.00  0.00     0.093 A 
ATOM      8  C   UNL     1      12.904  -8.418 717.874  1.00  0.00     0.123 A 
ATOM      9  C   UNL     1      13.877  -8.448 716.875  1.00  0.00     0.094 A 
ATOM     10  C   UNL     1      14.252  -7.271 716.218  1.00  0.00     0.146 A 
ATOM     11  O   UNL     1      15.185  -7.326 715.274  1.00  0.00    -0.451 OA
ENDROOT
BRANCH   1  12
ATOM     12  C   UNL     1      16.653  -6.444 713.578  1.00  0.00     0.063 A 
ATOM     13  C   UNL     1      17.261  -6.554 711.227  1.00  0.00     0.047 A 
ATOM     14  C   UNL     1      16.297  -6.378 712.222  1.00  0.00     0.020 A 
ATOM     15  C   UNL     1      18.590  -6.810 711.573  1.00  0.00     0.119 A 
ATOM     16  C   UNL     1      18.952  -6.899 712.923  1.00  0.00     0.093 A 
ATOM     17  C   UNL     1      17.989  -6.731 713.928  1.00  0.00     0.130 A 
BRANCH  15  18
ATOM     18  O   UNL     1      19.542  -6.979 710.569  1.00  0.00    -0.508 OA
ATOM     19  H   UNL     1      19.732  -7.890 710.168  1.00  0.00     0.293 HD
ENDBRANCH  15  18
BRANCH  17  20
ATOM     20  O   UNL     1      18.352  -6.871 715.268  1.00  0.00    -0.507 OA
ATOM     21  H   UNL     1      19.306  -6.727 715.578  1.00  0.00     0.293 HD
ENDBRANCH  17  20
ENDBRANCH   1  12
BRANCH   2  22
ATOM     22  O   UNL     1      15.434  -3.885 714.114  1.00  0.00    -0.502 OA
ATOM     23  H   UNL     1      16.036  -3.963 713.304  1.00  0.00     0.293 HD
ENDBRANCH   2  22
BRANCH   6  24
ATOM     24  O   UNL     1      12.033  -4.823 717.942  1.00  0.00    -0.507 OA
ATOM     25  H   UNL     1      11.133  -4.552 717.563  1.00  0.00     0.293 HD
ENDBRANCH   6  24
BRANCH   8  26
ATOM     26  O   UNL     1      12.545  -9.602 718.517  1.00  0.00    -0.508 OA
ATOM     27  H   UNL     1      13.003 -10.480 718.305  1.00  0.00     0.293 HD
ENDBRANCH   8  26
TORSDOF 6
ENDMDL
MODEL 7
REMARK VINA RESULT:    -5.576      1.827      6.272
REMARK INTER + INTRA:          -7.043
REMARK INTER:                  -6.617
REMARK INTRA:                  -0.427
REMARK UNBOUND:                -0.326
REMARK SMILES O=c1c(O)c(-c2ccc(O)cc2O)oc2cc(O)cc(O)c12
REMARK SMILES IDX 5 1 3 2 2 3 1 4 22 5 20 6 19 7 17 8 16 9 15 10 14 11 6 12
REMARK SMILES IDX 8 13 7 14 9 15 11 16 12 17 10 18 13 20 4 22 21 24 18 26
REMARK H PARENT 10 19 13 21 4 23 21 25 18 27
REMARK Flexibility Score: inf
ROOT
ATOM      1  C   UNL     1      15.988  -7.164 713.560  1.00  0.00     0.184 A 
ATOM      2  C   UNL     1      14.889  -7.498 712.748  1.00  0.00     0.208 A 
ATOM      3  C   UNL     1      13.876  -8.311 713.280  1.00  0.00     0.238 A 
ATOM      4  O   UNL     1      12.880  -8.609 712.566  1.00  0.00    -0.285 OA
ATOM      5  C   UNL     1      13.990  -8.790 714.602  1.00  0.00     0.111 A 
ATOM      6  C   UNL     1      13.017  -9.616 715.212  1.00  0.00     0.134 A 
ATOM      7  C   UNL     1      13.207 -10.059 716.530  1.00  0.00     0.093 A 
ATOM      8  C   UNL     1      14.352  -9.691 717.246  1.00  0.00     0.123 A 
ATOM      9  C   UNL     1      15.314  -8.876 716.650  1.00  0.00     0.094 A 
ATOM     10  C   UNL     1      15.142  -8.423 715.338  1.00  0.00     0.146 A 
ATOM     11  O   UNL     1      16.072  -7.644 714.795  1.00  0.00    -0.451 OA
ENDROOT
BRANCH   1  12
ATOM     12  C   UNL     1      17.083  -6.303 713.066  1.00  0.00     0.063 A 
ATOM     13  C   UNL     1      19.067  -6.054 711.685  1.00  0.00     0.047 A 
ATOM     14  C   UNL     1      18.017  -6.839 712.166  1.00  0.00     0.020 A 
ATOM     15  C   UNL     1      19.206  -4.729 712.105  1.00  0.00     0.119 A 
ATOM     16  C   UNL     1      18.292  -4.191 713.020  1.00  0.00     0.093 A 
ATOM     17  C   UNL     1      17.238  -4.974 713.513  1.00  0.00     0.130 A 
BRANCH  15  18
ATOM     18  O   UNL     1      20.256  -3.958 711.613  1.00  0.00    -0.508 OA
ATOM     19  H   UNL     1      20.560  -3.114 712.085  1.00  0.00     0.293 HD
ENDBRANCH  15  18
BRANCH  17  20
ATOM     20  O   UNL     1      16.363  -4.442 714.461  1.00  0.00    -0.507 OA
ATOM     21  H   UNL     1      16.701  -3.999 715.307  1.00  0.00     0.293 HD
ENDBRANCH  17  20
ENDBRANCH   1  12
BRANCH   2  22
ATOM     22  O   UNL     1      14.828  -7.045 711.427  1.00  0.00    -0.502 OA
ATOM     23  H   UNL     1      15.261  -6.179 711.132  1.00  0.00     0.293 HD
ENDBRANCH   2  22
BRANCH   6  24
ATOM     24  O   UNL     1      11.866 -10.001 714.523  1.00  0.00    -0.507 OA
ATOM     25  H   UNL     1      11.610 -10.975 714.412  1.00  0.00     0.293 HD
ENDBRANCH   6  24
BRANCH   8  26
ATOM     26  O   UNL     1      14.542 -10.132 718.555  1.00  0.00    -0.508 OA
ATOM     27  H   UNL     1      13.783 -10.530 719.095  1.00  0.00     0.293 HD
ENDBRANCH   8  26
TORSDOF 6
ENDMDL
MODEL 8
REMARK VINA RESULT:    -5.565      2.197      6.589
REMARK INTER + INTRA:          -7.030
REMARK INTER:                  -6.624
REMARK INTRA:                  -0.406
REMARK UNBOUND:                -0.326
REMARK SMILES O=c1c(O)c(-c2ccc(O)cc2O)oc2cc(O)cc(O)c12
REMARK SMILES IDX 5 1 3 2 2 3 1 4 22 5 20 6 19 7 17 8 16 9 15 10 14 11 6 12
REMARK SMILES IDX 8 13 7 14 9 15 11 16 12 17 10 18 13 20 4 22 21 24 18 26
REMARK H PARENT 10 19 13 21 4 23 21 25 18 27
REMARK Flexibility Score: inf
ROOT
ATOM      1  C   UNL     1      16.207  -7.132 713.285  1.00  0.00     0.184 A 
ATOM      2  C   UNL     1      16.171  -7.515 714.637  1.00  0.00     0.208 A 
ATOM      3  C   UNL     1      15.082  -8.271 715.098  1.00  0.00     0.238 A 
ATOM      4  O   UNL     1      15.043  -8.630 716.307  1.00  0.00    -0.285 OA
ATOM      5  C   UNL     1      14.044  -8.611 714.207  1.00  0.00     0.111 A 
ATOM      6  C   UNL     1      12.911  -9.367 714.592  1.00  0.00     0.134 A 
ATOM      7  C   UNL     1      11.915  -9.658 713.647  1.00  0.00     0.093 A 
ATOM      8  C   UNL     1      12.032  -9.207 712.327  1.00  0.00     0.123 A 
ATOM      9  C   UNL     1      13.147  -8.462 711.943  1.00  0.00     0.094 A 
ATOM     10  C   UNL     1      14.152  -8.163 712.869  1.00  0.00     0.146 A 
ATOM     11  O   UNL     1      15.205  -7.456 712.475  1.00  0.00    -0.451 OA
ENDROOT
BRANCH   1  12
ATOM     12  C   UNL     1      17.330  -6.346 712.732  1.00  0.00     0.063 A 
ATOM     13  C   UNL     1      19.505  -6.310 711.648  1.00  0.00     0.047 A 
ATOM     14  C   UNL     1      18.425  -7.023 712.174  1.00  0.00     0.020 A 
ATOM     15  C   UNL     1      19.511  -4.914 711.683  1.00  0.00     0.119 A 
ATOM     16  C   UNL     1      18.433  -4.229 712.258  1.00  0.00     0.093 A 
ATOM     17  C   UNL     1      17.347  -4.936 712.795  1.00  0.00     0.130 A 
BRANCH  15  18
ATOM     18  O   UNL     1      20.593  -4.217 711.151  1.00  0.00    -0.508 OA
ATOM     19  H   UNL     1      20.493  -3.271 710.800  1.00  0.00     0.293 HD
ENDBRANCH  15  18
BRANCH  17  20
ATOM     20  O   UNL     1      16.303  -4.245 713.409  1.00  0.00    -0.507 OA
ATOM     21  H   UNL     1      16.263  -3.232 713.408  1.00  0.00     0.293 HD
ENDBRANCH  17  20
ENDBRANCH   1  12
BRANCH   2  22
ATOM     22  O   UNL     1      17.193  -7.123 715.506  1.00  0.00    -0.502 OA
ATOM     23  H   UNL     1      17.036  -6.976 716.495  1.00  0.00     0.293 HD
ENDBRANCH   2  22
BRANCH   6  24
ATOM     24  O   UNL     1      12.765  -9.830 715.900  1.00  0.00    -0.507 OA
ATOM     25  H   UNL     1      13.463 -10.419 716.339  1.00  0.00     0.293 HD
ENDBRANCH   6  24
BRANCH   8  26
ATOM     26  O   UNL     1      11.042  -9.494 711.389  1.00  0.00    -0.508 OA
ATOM     27  H   UNL     1      10.724 -10.442 711.228  1.00  0.00     0.293 HD
ENDBRANCH   8  26
TORSDOF 6
ENDMDL
MODEL 9
REMARK VINA RESULT:    -5.561      1.907      1.934
REMARK INTER + INTRA:          -7.025
REMARK INTER:                  -6.620
REMARK INTRA:                  -0.405
REMARK UNBOUND:                -0.326
REMARK SMILES O=c1c(O)c(-c2ccc(O)cc2O)oc2cc(O)cc(O)c12
REMARK SMILES IDX 5 1 3 2 2 3 1 4 22 5 20 6 19 7 17 8 16 9 15 10 14 11 6 12
REMARK SMILES IDX 8 13 7 14 9 15 11 16 12 17 10 18 13 20 4 22 21 24 18 26
REMARK H PARENT 10 19 13 21 4 23 21 25 18 27
REMARK Flexibility Score: inf
ROOT
ATOM      1  C   UNL     1      15.626  -6.853 714.549  1.00  0.00     0.184 A 
ATOM      2  C   UNL     1      15.483  -7.199 713.193  1.00  0.00     0.208 A 
ATOM      3  C   UNL     1      16.280  -6.547 712.240  1.00  0.00     0.238 A 
ATOM      4  O   UNL     1      16.170  -6.856 711.022  1.00  0.00    -0.285 OA
ATOM      5  C   UNL     1      17.189  -5.551 712.656  1.00  0.00     0.111 A 
ATOM      6  C   UNL     1      18.026  -4.845 711.759  1.00  0.00     0.134 A 
ATOM      7  C   UNL     1      18.897  -3.861 712.251  1.00  0.00     0.093 A 
ATOM      8  C   UNL     1      18.946  -3.571 713.619  1.00  0.00     0.123 A 
ATOM      9  C   UNL     1      18.124  -4.265 714.507  1.00  0.00     0.094 A 
ATOM     10  C   UNL     1      17.249  -5.251 714.037  1.00  0.00     0.146 A 
ATOM     11  O   UNL     1      16.480  -5.899 714.905  1.00  0.00    -0.451 OA
ENDROOT
BRANCH   1  12
ATOM     12  C   UNL     1      14.826  -7.508 715.605  1.00  0.00     0.063 A 
ATOM     13  C   UNL     1      14.322  -9.510 716.887  1.00  0.00     0.047 A 
ATOM     14  C   UNL     1      15.064  -8.859 715.899  1.00  0.00     0.020 A 
ATOM     15  C   UNL     1      13.324  -8.825 717.584  1.00  0.00     0.119 A 
ATOM     16  C   UNL     1      13.063  -7.482 717.282  1.00  0.00     0.093 A 
ATOM     17  C   UNL     1      13.799  -6.822 716.287  1.00  0.00     0.130 A 
BRANCH  15  18
ATOM     18  O   UNL     1      12.595  -9.487 718.569  1.00  0.00    -0.508 OA
ATOM     19  H   UNL     1      11.995  -8.983 719.213  1.00  0.00     0.293 HD
ENDBRANCH  15  18
BRANCH  17  20
ATOM     20  O   UNL     1      13.497  -5.500 715.962  1.00  0.00    -0.507 OA
ATOM     21  H   UNL     1      12.647  -5.255 715.468  1.00  0.00     0.293 HD
ENDBRANCH  17  20
ENDBRANCH   1  12
BRANCH   2  22
ATOM     22  O   UNL     1      14.542  -8.157 712.809  1.00  0.00    -0.502 OA
ATOM     23  H   UNL     1      14.803  -9.104 712.562  1.00  0.00     0.293 HD
ENDBRANCH   2  22
BRANCH   6  24
ATOM     24  O   UNL     1      17.999  -5.110 710.390  1.00  0.00    -0.507 OA
ATOM     25  H   UNL     1      17.313  -4.686 709.777  1.00  0.00     0.293 HD
ENDBRANCH   6  24
BRANCH   8  26
ATOM     26  O   UNL     1      19.811  -2.593 714.107  1.00  0.00    -0.508 OA
ATOM     27  H   UNL     1      19.609  -2.085 714.959  1.00  0.00     0.293 HD
ENDBRANCH   8  26
TORSDOF 6
ENDMDL
