MODEL 1
REMARK VINA RESULT:    -6.035      0.000      0.000
REMARK INTER + INTRA:          -6.212
REMARK INTER:                  -6.212
REMARK INTRA:                   0.000
REMARK UNBOUND:                 0.000
REMARK SMILES CC1(C)CC[C@@]2(C)CC[C@]3(C)C(=CC[C@@H]4[C@]5(C)CC[C@@H](O)C(C)(C)[C@@H]5CC[C@@]43C)[C@H]2C1
REMARK SMILES IDX 1 1 2 2 4 3 5 4 6 5 8 6 9 7 10 8 12 9 13 10 14 11 15 12
REMARK SMILES IDX 28 13 27 14 26 15 25 16 16 17 18 18 19 19 20 20 22 21 23 22
REMARK SMILES IDX 24 23 17 24 29 25 30 26 31 27 11 28 7 29 3 30 21 31
REMARK H PARENT 21 32
REMARK Flexibility Score: inf
ROOT
ATOM      1  C   UNL     1       3.457   0.763  -3.344  1.00  0.00     0.011 C 
ATOM      2  C   UNL     1       4.833   0.540  -2.671  1.00  0.00    -0.035 C 
ATOM      3  C   UNL     1       5.101   1.682  -1.637  1.00  0.00     0.007 C 
ATOM      4  C   UNL     1       5.255   1.181  -0.192  1.00  0.00     0.008 C 
ATOM      5  C   UNL     1       6.299   0.028  -0.033  1.00  0.00    -0.026 C 
ATOM      6  C   UNL     1       6.252  -0.449   1.444  1.00  0.00     0.008 C 
ATOM      7  C   UNL     1       5.277  -1.600   1.670  1.00  0.00     0.012 C 
ATOM      8  C   UNL     1       5.723  -2.917   0.944  1.00  0.00    -0.006 C 
ATOM      9  C   UNL     1       5.898  -2.582  -0.529  1.00  0.00    -0.064 C 
ATOM     10  C   UNL     1       6.037  -3.583  -1.410  1.00  0.00    -0.027 C 
ATOM     11  C   UNL     1       5.730  -5.023  -1.126  1.00  0.00     0.032 C 
ATOM     12  C   UNL     1       5.007  -5.381   0.224  1.00  0.00     0.006 C 
ATOM     13  C   UNL     1       4.672  -4.133   1.158  1.00  0.00    -0.020 C 
ATOM     14  C   UNL     1       3.234  -3.714   0.799  1.00  0.00     0.008 C 
ATOM     15  C   UNL     1       2.168  -4.818   0.996  1.00  0.00     0.005 C 
ATOM     16  C   UNL     1       2.654  -6.309   1.056  1.00  0.00     0.003 C 
ATOM     17  C   UNL     1       3.868  -6.547   0.067  1.00  0.00    -0.025 C 
ATOM     18  C   UNL     1       3.253  -6.658  -1.375  1.00  0.00     0.010 C 
ATOM     19  C   UNL     1       2.096  -7.669  -1.531  1.00  0.00     0.033 C 
ATOM     20  C   UNL     1       0.938  -7.405  -0.554  1.00  0.00     0.120 C 
ATOM     21  C   UNL     1       1.415  -7.315   0.927  1.00  0.00    -0.006 C 
ATOM     22  C   UNL     1       1.761  -8.727   1.483  1.00  0.00     0.014 C 
ATOM     23  C   UNL     1       0.210  -6.820   1.782  1.00  0.00     0.014 C 
ATOM     24  C   UNL     1       4.607  -7.891   0.381  1.00  0.00     0.012 C 
ATOM     25  C   UNL     1       4.727  -4.547   2.680  1.00  0.00     0.012 C 
ATOM     26  C   UNL     1       6.032  -1.146  -1.081  1.00  0.00     0.022 C 
ATOM     27  C   UNL     1       4.807  -0.860  -1.993  1.00  0.00     0.015 C 
ATOM     28  C   UNL     1       7.137  -3.344   1.473  1.00  0.00     0.017 C 
ATOM     29  C   UNL     1       7.711   0.625  -0.266  1.00  0.00     0.012 C 
ATOM     30  C   UNL     1       5.913   0.574  -3.784  1.00  0.00     0.011 C 
ENDROOT
BRANCH  20  31
ATOM     31  O   UNL     1      -0.111  -8.341  -0.685  1.00  0.00    -0.393 OA
ATOM     32  H   UNL     1      -0.059  -8.790  -1.572  1.00  0.00     0.210 HD
ENDBRANCH  20  31
TORSDOF 1
ENDMDL
MODEL 2
REMARK VINA RESULT:    -5.439      2.778      7.766
REMARK INTER + INTRA:          -5.598
REMARK INTER:                  -5.598
REMARK INTRA:                   0.000
REMARK UNBOUND:                 0.000
REMARK SMILES CC1(C)CC[C@@]2(C)CC[C@]3(C)C(=CC[C@@H]4[C@]5(C)CC[C@@H](O)C(C)(C)[C@@H]5CC[C@@]43C)[C@H]2C1
REMARK SMILES IDX 1 1 2 2 4 3 5 4 6 5 8 6 9 7 10 8 12 9 13 10 14 11 15 12
REMARK SMILES IDX 28 13 27 14 26 15 25 16 16 17 18 18 19 19 20 20 22 21 23 22
REMARK SMILES IDX 24 23 17 24 29 25 30 26 31 27 11 28 7 29 3 30 21 31
REMARK H PARENT 21 32
REMARK Flexibility Score: inf
ROOT
ATOM      1  C   UNL     1      -0.039  -4.488  -0.023  1.00  0.00     0.011 C 
ATOM      2  C   UNL     1       1.146  -5.318   0.527  1.00  0.00    -0.035 C 
ATOM      3  C   UNL     1       1.397  -6.552  -0.400  1.00  0.00     0.007 C 
ATOM      4  C   UNL     1       2.789  -6.559  -1.051  1.00  0.00     0.008 C 
ATOM      5  C   UNL     1       3.962  -6.378  -0.034  1.00  0.00    -0.026 C 
ATOM      6  C   UNL     1       5.282  -6.284  -0.848  1.00  0.00     0.008 C 
ATOM      7  C   UNL     1       5.663  -4.850  -1.203  1.00  0.00     0.012 C 
ATOM      8  C   UNL     1       6.028  -3.995   0.059  1.00  0.00    -0.006 C 
ATOM      9  C   UNL     1       4.842  -4.064   1.009  1.00  0.00    -0.064 C 
ATOM     10  C   UNL     1       4.796  -3.222   2.051  1.00  0.00    -0.027 C 
ATOM     11  C   UNL     1       5.654  -2.002   2.207  1.00  0.00     0.032 C 
ATOM     12  C   UNL     1       6.535  -1.548   0.986  1.00  0.00     0.006 C 
ATOM     13  C   UNL     1       6.405  -2.463  -0.314  1.00  0.00    -0.020 C 
ATOM     14  C   UNL     1       5.318  -1.804  -1.184  1.00  0.00     0.008 C 
ATOM     15  C   UNL     1       5.616  -0.343  -1.598  1.00  0.00     0.005 C 
ATOM     16  C   UNL     1       6.667   0.462  -0.756  1.00  0.00     0.003 C 
ATOM     17  C   UNL     1       6.576   0.076   0.778  1.00  0.00    -0.025 C 
ATOM     18  C   UNL     1       5.325   0.832   1.354  1.00  0.00     0.010 C 
ATOM     19  C   UNL     1       5.277   2.350   1.075  1.00  0.00     0.033 C 
ATOM     20  C   UNL     1       5.369   2.684  -0.423  1.00  0.00     0.120 C 
ATOM     21  C   UNL     1       6.601   2.022  -1.108  1.00  0.00    -0.006 C 
ATOM     22  C   UNL     1       7.914   2.757  -0.711  1.00  0.00     0.014 C 
ATOM     23  C   UNL     1       6.459   2.236  -2.645  1.00  0.00     0.014 C 
ATOM     24  C   UNL     1       7.839   0.561   1.565  1.00  0.00     0.012 C 
ATOM     25  C   UNL     1       7.766  -2.489  -1.113  1.00  0.00     0.012 C 
ATOM     26  C   UNL     1       3.719  -5.119   0.916  1.00  0.00     0.022 C 
ATOM     27  C   UNL     1       2.387  -4.384   0.596  1.00  0.00     0.015 C 
ATOM     28  C   UNL     1       7.233  -4.667   0.807  1.00  0.00     0.017 C 
ATOM     29  C   UNL     1       4.056  -7.668   0.823  1.00  0.00     0.012 C 
ATOM     30  C   UNL     1       0.762  -5.800   1.951  1.00  0.00     0.011 C 
ENDROOT
BRANCH  20  31
ATOM     31  O   UNL     1       5.342   4.073  -0.676  1.00  0.00    -0.393 OA
ATOM     32  H   UNL     1       4.401   4.385  -0.767  1.00  0.00     0.210 HD
ENDBRANCH  20  31
TORSDOF 1
ENDMDL
MODEL 3
REMARK VINA RESULT:    -5.309     10.619     14.893
REMARK INTER + INTRA:          -5.464
REMARK INTER:                  -5.464
REMARK INTRA:                   0.000
REMARK UNBOUND:                 0.000
REMARK SMILES CC1(C)CC[C@@]2(C)CC[C@]3(C)C(=CC[C@@H]4[C@]5(C)CC[C@@H](O)C(C)(C)[C@@H]5CC[C@@]43C)[C@H]2C1
REMARK SMILES IDX 1 1 2 2 4 3 5 4 6 5 8 6 9 7 10 8 12 9 13 10 14 11 15 12
REMARK SMILES IDX 28 13 27 14 26 15 25 16 16 17 18 18 19 19 20 20 22 21 23 22
REMARK SMILES IDX 24 23 17 24 29 25 30 26 31 27 11 28 7 29 3 30 21 31
REMARK H PARENT 21 32
REMARK Flexibility Score: inf
ROOT
ATOM      1  C   UNL     1      -9.083   3.739  -1.945  1.00  0.00     0.011 C 
ATOM      2  C   UNL     1      -8.842   5.267  -2.013  1.00  0.00    -0.035 C 
ATOM      3  C   UNL     1      -8.573   5.819  -0.575  1.00  0.00     0.007 C 
ATOM      4  C   UNL     1      -7.184   6.457  -0.411  1.00  0.00     0.008 C 
ATOM      5  C   UNL     1      -6.852   7.535  -1.494  1.00  0.00    -0.026 C 
ATOM      6  C   UNL     1      -5.385   7.992  -1.271  1.00  0.00     0.008 C 
ATOM      7  C   UNL     1      -4.378   7.186  -2.085  1.00  0.00     0.012 C 
ATOM      8  C   UNL     1      -4.531   7.415  -3.629  1.00  0.00    -0.006 C 
ATOM      9  C   UNL     1      -5.971   7.086  -3.992  1.00  0.00    -0.064 C 
ATOM     10  C   UNL     1      -6.302   6.963  -5.285  1.00  0.00    -0.027 C 
ATOM     11  C   UNL     1      -5.322   6.817  -6.411  1.00  0.00     0.032 C 
ATOM     12  C   UNL     1      -3.806   6.591  -6.057  1.00  0.00     0.006 C 
ATOM     13  C   UNL     1      -3.482   6.536  -4.496  1.00  0.00    -0.020 C 
ATOM     14  C   UNL     1      -3.528   5.046  -4.109  1.00  0.00     0.008 C 
ATOM     15  C   UNL     1      -2.538   4.144  -4.883  1.00  0.00     0.005 C 
ATOM     16  C   UNL     1      -1.966   4.675  -6.245  1.00  0.00     0.003 C 
ATOM     17  C   UNL     1      -3.063   5.505  -7.032  1.00  0.00    -0.025 C 
ATOM     18  C   UNL     1      -4.032   4.455  -7.686  1.00  0.00     0.010 C 
ATOM     19  C   UNL     1      -3.351   3.347  -8.519  1.00  0.00     0.033 C 
ATOM     20  C   UNL     1      -2.294   2.566  -7.722  1.00  0.00     0.120 C 
ATOM     21  C   UNL     1      -1.241   3.498  -7.053  1.00  0.00    -0.006 C 
ATOM     22  C   UNL     1      -0.246   4.056  -8.111  1.00  0.00     0.014 C 
ATOM     23  C   UNL     1      -0.375   2.623  -6.096  1.00  0.00     0.014 C 
ATOM     24  C   UNL     1      -2.422   6.352  -8.181  1.00  0.00     0.012 C 
ATOM     25  C   UNL     1      -2.036   7.103  -4.211  1.00  0.00     0.012 C 
ATOM     26  C   UNL     1      -7.121   6.981  -2.967  1.00  0.00     0.022 C 
ATOM     27  C   UNL     1      -7.637   5.515  -2.964  1.00  0.00     0.015 C 
ATOM     28  C   UNL     1      -4.332   8.939  -3.947  1.00  0.00     0.017 C 
ATOM     29  C   UNL     1      -7.752   8.771  -1.230  1.00  0.00     0.012 C 
ATOM     30  C   UNL     1     -10.124   5.920  -2.595  1.00  0.00     0.011 C 
ENDROOT
BRANCH  20  31
ATOM     31  O   UNL     1      -1.660   1.565  -8.490  1.00  0.00    -0.393 OA
ATOM     32  H   UNL     1      -0.756   1.372  -8.119  1.00  0.00     0.210 HD
ENDBRANCH  20  31
TORSDOF 1
ENDMDL
MODEL 4
REMARK VINA RESULT:    -5.128      2.528      7.626
REMARK INTER + INTRA:          -5.278
REMARK INTER:                  -5.278
REMARK INTRA:                   0.000
REMARK UNBOUND:                 0.000
REMARK SMILES CC1(C)CC[C@@]2(C)CC[C@]3(C)C(=CC[C@@H]4[C@]5(C)CC[C@@H](O)C(C)(C)[C@@H]5CC[C@@]43C)[C@H]2C1
REMARK SMILES IDX 1 1 2 2 4 3 5 4 6 5 8 6 9 7 10 8 12 9 13 10 14 11 15 12
REMARK SMILES IDX 28 13 27 14 26 15 25 16 16 17 18 18 19 19 20 20 22 21 23 22
REMARK SMILES IDX 24 23 17 24 29 25 30 26 31 27 11 28 7 29 3 30 21 31
REMARK H PARENT 21 32
REMARK Flexibility Score: inf
ROOT
ATOM      1  C   UNL     1       1.521  -7.241  -1.883  1.00  0.00     0.011 C 
ATOM      2  C   UNL     1       2.285  -7.257  -0.537  1.00  0.00    -0.035 C 
ATOM      3  C   UNL     1       3.160  -8.550  -0.447  1.00  0.00     0.007 C 
ATOM      4  C   UNL     1       4.666  -8.268  -0.335  1.00  0.00     0.008 C 
ATOM      5  C   UNL     1       5.038  -7.263   0.803  1.00  0.00    -0.026 C 
ATOM      6  C   UNL     1       6.563  -6.988   0.711  1.00  0.00     0.008 C 
ATOM      7  C   UNL     1       6.901  -5.782  -0.160  1.00  0.00     0.012 C 
ATOM      8  C   UNL     1       6.390  -4.434   0.457  1.00  0.00    -0.006 C 
ATOM      9  C   UNL     1       4.894  -4.583   0.691  1.00  0.00    -0.064 C 
ATOM     10  C   UNL     1       4.171  -3.492   0.982  1.00  0.00    -0.027 C 
ATOM     11  C   UNL     1       4.640  -2.080   0.800  1.00  0.00     0.032 C 
ATOM     12  C   UNL     1       5.990  -1.833   0.033  1.00  0.00     0.006 C 
ATOM     13  C   UNL     1       6.721  -3.154  -0.481  1.00  0.00    -0.020 C 
ATOM     14  C   UNL     1       6.237  -3.366  -1.928  1.00  0.00     0.008 C 
ATOM     15  C   UNL     1       6.535  -2.193  -2.891  1.00  0.00     0.005 C 
ATOM     16  C   UNL     1       6.828  -0.783  -2.267  1.00  0.00     0.003 C 
ATOM     17  C   UNL     1       5.943  -0.543  -0.975  1.00  0.00    -0.025 C 
ATOM     18  C   UNL     1       4.503  -0.175  -1.485  1.00  0.00     0.010 C 
ATOM     19  C   UNL     1       4.435   0.964  -2.525  1.00  0.00     0.033 C 
ATOM     20  C   UNL     1       5.307   0.695  -3.762  1.00  0.00     0.120 C 
ATOM     21  C   UNL     1       6.782   0.356  -3.391  1.00  0.00    -0.006 C 
ATOM     22  C   UNL     1       7.547   1.635  -2.945  1.00  0.00     0.014 C 
ATOM     23  C   UNL     1       7.498  -0.121  -4.690  1.00  0.00     0.014 C 
ATOM     24  C   UNL     1       6.479   0.661  -0.130  1.00  0.00     0.012 C 
ATOM     25  C   UNL     1       8.287  -2.957  -0.481  1.00  0.00     0.012 C 
ATOM     26  C   UNL     1       4.153  -5.937   0.719  1.00  0.00     0.022 C 
ATOM     27  C   UNL     1       3.151  -5.967  -0.468  1.00  0.00     0.015 C 
ATOM     28  C   UNL     1       7.042  -4.233   1.870  1.00  0.00     0.017 C 
ATOM     29  C   UNL     1       4.791  -7.969   2.163  1.00  0.00     0.012 C 
ATOM     30  C   UNL     1       1.233  -7.254   0.602  1.00  0.00     0.011 C 
ENDROOT
BRANCH  20  31
ATOM     31  O   UNL     1       5.258   1.745  -4.705  1.00  0.00    -0.393 OA
ATOM     32  H   UNL     1       5.123   2.615  -4.240  1.00  0.00     0.210 HD
ENDBRANCH  20  31
TORSDOF 1
ENDMDL
MODEL 5
REMARK VINA RESULT:    -5.053      9.376     13.925
REMARK INTER + INTRA:          -5.201
REMARK INTER:                  -5.201
REMARK INTRA:                   0.000
REMARK UNBOUND:                 0.000
REMARK SMILES CC1(C)CC[C@@]2(C)CC[C@]3(C)C(=CC[C@@H]4[C@]5(C)CC[C@@H](O)C(C)(C)[C@@H]5CC[C@@]43C)[C@H]2C1
REMARK SMILES IDX 1 1 2 2 4 3 5 4 6 5 8 6 9 7 10 8 12 9 13 10 14 11 15 12
REMARK SMILES IDX 28 13 27 14 26 15 25 16 16 17 18 18 19 19 20 20 22 21 23 22
REMARK SMILES IDX 24 23 17 24 29 25 30 26 31 27 11 28 7 29 3 30 21 31
REMARK H PARENT 21 32
REMARK Flexibility Score: inf
ROOT
ATOM      1  C   UNL     1      -5.105   7.294   0.561  1.00  0.00     0.011 C 
ATOM      2  C   UNL     1      -5.760   7.748  -0.766  1.00  0.00    -0.035 C 
ATOM      3  C   UNL     1      -5.795   9.310  -0.826  1.00  0.00     0.007 C 
ATOM      4  C   UNL     1      -4.994   9.900  -1.996  1.00  0.00     0.008 C 
ATOM      5  C   UNL     1      -5.357   9.281  -3.385  1.00  0.00    -0.026 C 
ATOM      6  C   UNL     1      -4.387   9.883  -4.438  1.00  0.00     0.008 C 
ATOM      7  C   UNL     1      -3.130   9.045  -4.642  1.00  0.00     0.012 C 
ATOM      8  C   UNL     1      -3.437   7.647  -5.283  1.00  0.00    -0.006 C 
ATOM      9  C   UNL     1      -4.460   6.958  -4.393  1.00  0.00    -0.064 C 
ATOM     10  C   UNL     1      -4.709   5.654  -4.580  1.00  0.00    -0.027 C 
ATOM     11  C   UNL     1      -3.853   4.725  -5.388  1.00  0.00     0.032 C 
ATOM     12  C   UNL     1      -2.458   5.245  -5.894  1.00  0.00     0.006 C 
ATOM     13  C   UNL     1      -2.106   6.742  -5.473  1.00  0.00    -0.020 C 
ATOM     14  C   UNL     1      -1.300   6.631  -4.165  1.00  0.00     0.008 C 
ATOM     15  C   UNL     1      -0.002   5.797  -4.271  1.00  0.00     0.005 C 
ATOM     16  C   UNL     1       0.130   4.787  -5.466  1.00  0.00     0.003 C 
ATOM     17  C   UNL     1      -1.269   4.123  -5.799  1.00  0.00    -0.025 C 
ATOM     18  C   UNL     1      -1.509   3.018  -4.708  1.00  0.00     0.010 C 
ATOM     19  C   UNL     1      -0.355   2.011  -4.513  1.00  0.00     0.033 C 
ATOM     20  C   UNL     1       0.985   2.694  -4.192  1.00  0.00     0.120 C 
ATOM     21  C   UNL     1       1.361   3.790  -5.232  1.00  0.00    -0.006 C 
ATOM     22  C   UNL     1       1.839   3.146  -6.566  1.00  0.00     0.014 C 
ATOM     23  C   UNL     1       2.599   4.560  -4.681  1.00  0.00     0.014 C 
ATOM     24  C   UNL     1      -1.249   3.423  -7.200  1.00  0.00     0.012 C 
ATOM     25  C   UNL     1      -1.213   7.434  -6.576  1.00  0.00     0.012 C 
ATOM     26  C   UNL     1      -5.320   7.686  -3.338  1.00  0.00     0.022 C 
ATOM     27  C   UNL     1      -4.931   7.143  -1.934  1.00  0.00     0.015 C 
ATOM     28  C   UNL     1      -4.132   7.859  -6.674  1.00  0.00     0.017 C 
ATOM     29  C   UNL     1      -6.783   9.759  -3.764  1.00  0.00     0.012 C 
ATOM     30  C   UNL     1      -7.206   7.188  -0.794  1.00  0.00     0.011 C 
ENDROOT
BRANCH  20  31
ATOM     31  O   UNL     1       2.043   1.773  -4.031  1.00  0.00    -0.393 OA
ATOM     32  H   UNL     1       2.378   1.799  -3.094  1.00  0.00     0.210 HD
ENDBRANCH  20  31
TORSDOF 1
ENDMDL
MODEL 6
REMARK VINA RESULT:    -5.045      9.788     13.947
REMARK INTER + INTRA:          -5.193
REMARK INTER:                  -5.193
REMARK INTRA:                   0.000
REMARK UNBOUND:                 0.000
REMARK SMILES CC1(C)CC[C@@]2(C)CC[C@]3(C)C(=CC[C@@H]4[C@]5(C)CC[C@@H](O)C(C)(C)[C@@H]5CC[C@@]43C)[C@H]2C1
REMARK SMILES IDX 1 1 2 2 4 3 5 4 6 5 8 6 9 7 10 8 12 9 13 10 14 11 15 12
REMARK SMILES IDX 28 13 27 14 26 15 25 16 16 17 18 18 19 19 20 20 22 21 23 22
REMARK SMILES IDX 24 23 17 24 29 25 30 26 31 27 11 28 7 29 3 30 21 31
REMARK H PARENT 21 32
REMARK Flexibility Score: inf
ROOT
ATOM      1  C   UNL     1      -3.809   8.700  -0.791  1.00  0.00     0.011 C 
ATOM      2  C   UNL     1      -4.809   7.891  -1.653  1.00  0.00    -0.035 C 
ATOM      3  C   UNL     1      -5.795   8.869  -2.370  1.00  0.00     0.007 C 
ATOM      4  C   UNL     1      -5.720   8.805  -3.903  1.00  0.00     0.008 C 
ATOM      5  C   UNL     1      -5.851   7.358  -4.481  1.00  0.00    -0.026 C 
ATOM      6  C   UNL     1      -5.634   7.442  -6.017  1.00  0.00     0.008 C 
ATOM      7  C   UNL     1      -4.179   7.235  -6.427  1.00  0.00     0.012 C 
ATOM      8  C   UNL     1      -3.673   5.780  -6.132  1.00  0.00    -0.006 C 
ATOM      9  C   UNL     1      -3.905   5.513  -4.652  1.00  0.00    -0.064 C 
ATOM     10  C   UNL     1      -3.337   4.437  -4.090  1.00  0.00    -0.027 C 
ATOM     11  C   UNL     1      -2.238   3.626  -4.709  1.00  0.00     0.032 C 
ATOM     12  C   UNL     1      -1.551   4.172  -6.014  1.00  0.00     0.006 C 
ATOM     13  C   UNL     1      -2.118   5.567  -6.539  1.00  0.00    -0.020 C 
ATOM     14  C   UNL     1      -1.213   6.648  -5.920  1.00  0.00     0.008 C 
ATOM     15  C   UNL     1       0.287   6.522  -6.280  1.00  0.00     0.005 C 
ATOM     16  C   UNL     1       0.809   5.133  -6.788  1.00  0.00     0.003 C 
ATOM     17  C   UNL     1       0.071   3.946  -6.043  1.00  0.00    -0.025 C 
ATOM     18  C   UNL     1       0.732   3.833  -4.621  1.00  0.00     0.010 C 
ATOM     19  C   UNL     1       2.273   3.734  -4.609  1.00  0.00     0.033 C 
ATOM     20  C   UNL     1       2.952   4.902  -5.342  1.00  0.00     0.120 C 
ATOM     21  C   UNL     1       2.410   5.094  -6.789  1.00  0.00    -0.006 C 
ATOM     22  C   UNL     1       2.957   3.987  -7.736  1.00  0.00     0.014 C 
ATOM     23  C   UNL     1       2.994   6.431  -7.339  1.00  0.00     0.014 C 
ATOM     24  C   UNL     1       0.285   2.584  -6.784  1.00  0.00     0.012 C 
ATOM     25  C   UNL     1      -2.023   5.648  -8.112  1.00  0.00     0.012 C 
ATOM     26  C   UNL     1      -4.846   6.350  -3.759  1.00  0.00     0.022 C 
ATOM     27  C   UNL     1      -3.986   7.050  -2.669  1.00  0.00     0.015 C 
ATOM     28  C   UNL     1      -4.567   4.754  -6.913  1.00  0.00     0.017 C 
ATOM     29  C   UNL     1      -7.311   6.885  -4.260  1.00  0.00     0.012 C 
ATOM     30  C   UNL     1      -5.598   6.953  -0.701  1.00  0.00     0.011 C 
ENDROOT
BRANCH  20  31
ATOM     31  O   UNL     1       4.360   4.801  -5.345  1.00  0.00    -0.393 OA
ATOM     32  H   UNL     1       4.695   4.728  -6.279  1.00  0.00     0.210 HD
ENDBRANCH  20  31
TORSDOF 1
ENDMDL
MODEL 7
REMARK VINA RESULT:    -4.960      9.862     14.400
REMARK INTER + INTRA:          -5.105
REMARK INTER:                  -5.105
REMARK INTRA:                   0.000
REMARK UNBOUND:                 0.000
REMARK SMILES CC1(C)CC[C@@]2(C)CC[C@]3(C)C(=CC[C@@H]4[C@]5(C)CC[C@@H](O)C(C)(C)[C@@H]5CC[C@@]43C)[C@H]2C1
REMARK SMILES IDX 1 1 2 2 4 3 5 4 6 5 8 6 9 7 10 8 12 9 13 10 14 11 15 12
REMARK SMILES IDX 28 13 27 14 26 15 25 16 16 17 18 18 19 19 20 20 22 21 23 22
REMARK SMILES IDX 24 23 17 24 29 25 30 26 31 27 11 28 7 29 3 30 21 31
REMARK H PARENT 21 32
REMARK Flexibility Score: inf
ROOT
ATOM      1  C   UNL     1      -0.046   1.841  -4.121  1.00  0.00     0.011 C 
ATOM      2  C   UNL     1       0.357   3.051  -4.999  1.00  0.00    -0.035 C 
ATOM      3  C   UNL     1       0.386   2.621  -6.502  1.00  0.00     0.007 C 
ATOM      4  C   UNL     1      -0.614   3.388  -7.381  1.00  0.00     0.008 C 
ATOM      5  C   UNL     1      -0.513   4.942  -7.244  1.00  0.00    -0.026 C 
ATOM      6  C   UNL     1      -1.656   5.566  -8.089  1.00  0.00     0.008 C 
ATOM      7  C   UNL     1      -2.932   5.802  -7.287  1.00  0.00     0.012 C 
ATOM      8  C   UNL     1      -2.751   6.893  -6.176  1.00  0.00    -0.006 C 
ATOM      9  C   UNL     1      -1.585   6.457  -5.301  1.00  0.00    -0.064 C 
ATOM     10  C   UNL     1      -1.378   7.086  -4.136  1.00  0.00    -0.027 C 
ATOM     11  C   UNL     1      -2.370   7.982  -3.457  1.00  0.00     0.032 C 
ATOM     12  C   UNL     1      -3.832   8.048  -4.031  1.00  0.00     0.006 C 
ATOM     13  C   UNL     1      -4.097   7.123  -5.303  1.00  0.00    -0.020 C 
ATOM     14  C   UNL     1      -4.651   5.797  -4.748  1.00  0.00     0.008 C 
ATOM     15  C   UNL     1      -5.949   5.932  -3.918  1.00  0.00     0.005 C 
ATOM     16  C   UNL     1      -6.300   7.342  -3.322  1.00  0.00     0.003 C 
ATOM     17  C   UNL     1      -4.988   8.106  -2.872  1.00  0.00    -0.025 C 
ATOM     18  C   UNL     1      -4.555   7.477  -1.499  1.00  0.00     0.010 C 
ATOM     19  C   UNL     1      -5.658   7.411  -0.419  1.00  0.00     0.033 C 
ATOM     20  C   UNL     1      -6.914   6.663  -0.894  1.00  0.00     0.120 C 
ATOM     21  C   UNL     1      -7.471   7.223  -2.237  1.00  0.00    -0.006 C 
ATOM     22  C   UNL     1      -8.185   8.587  -2.012  1.00  0.00     0.014 C 
ATOM     23  C   UNL     1      -8.585   6.251  -2.729  1.00  0.00     0.014 C 
ATOM     24  C   UNL     1      -5.265   9.629  -2.640  1.00  0.00     0.012 C 
ATOM     25  C   UNL     1      -5.174   7.779  -6.252  1.00  0.00     0.012 C 
ATOM     26  C   UNL     1      -0.545   5.393  -5.713  1.00  0.00     0.022 C 
ATOM     27  C   UNL     1      -0.673   4.187  -4.742  1.00  0.00     0.015 C 
ATOM     28  C   UNL     1      -2.321   8.245  -6.846  1.00  0.00     0.017 C 
ATOM     29  C   UNL     1       0.822   5.393  -7.892  1.00  0.00     0.012 C 
ATOM     30  C   UNL     1       1.773   3.504  -4.555  1.00  0.00     0.011 C 
ENDROOT
BRANCH  20  31
ATOM     31  O   UNL     1      -7.928   6.618   0.088  1.00  0.00    -0.393 OA
ATOM     32  H   UNL     1      -8.807   6.850  -0.319  1.00  0.00     0.210 HD
ENDBRANCH  20  31
TORSDOF 1
ENDMDL
MODEL 8
REMARK VINA RESULT:    -4.821      6.324     11.334
REMARK INTER + INTRA:          -4.962
REMARK INTER:                  -4.962
REMARK INTRA:                   0.000
REMARK UNBOUND:                 0.000
REMARK SMILES CC1(C)CC[C@@]2(C)CC[C@]3(C)C(=CC[C@@H]4[C@]5(C)CC[C@@H](O)C(C)(C)[C@@H]5CC[C@@]43C)[C@H]2C1
REMARK SMILES IDX 1 1 2 2 4 3 5 4 6 5 8 6 9 7 10 8 12 9 13 10 14 11 15 12
REMARK SMILES IDX 28 13 27 14 26 15 25 16 16 17 18 18 19 19 20 20 22 21 23 22
REMARK SMILES IDX 24 23 17 24 29 25 30 26 31 27 11 28 7 29 3 30 21 31
REMARK H PARENT 21 32
REMARK Flexibility Score: inf
ROOT
ATOM      1  C   UNL     1       4.350  -0.106  -3.223  1.00  0.00     0.011 C 
ATOM      2  C   UNL     1       4.908   1.338  -3.264  1.00  0.00    -0.035 C 
ATOM      3  C   UNL     1       6.319   1.335  -3.938  1.00  0.00     0.007 C 
ATOM      4  C   UNL     1       6.387   2.171  -5.226  1.00  0.00     0.008 C 
ATOM      5  C   UNL     1       5.851   3.630  -5.060  1.00  0.00    -0.026 C 
ATOM      6  C   UNL     1       5.870   4.302  -6.460  1.00  0.00     0.008 C 
ATOM      7  C   UNL     1       4.556   4.142  -7.218  1.00  0.00     0.012 C 
ATOM      8  C   UNL     1       3.371   4.909  -6.534  1.00  0.00    -0.006 C 
ATOM      9  C   UNL     1       3.281   4.412  -5.099  1.00  0.00    -0.064 C 
ATOM     10  C   UNL     1       2.200   4.726  -4.371  1.00  0.00    -0.027 C 
ATOM     11  C   UNL     1       0.918   5.268  -4.928  1.00  0.00     0.032 C 
ATOM     12  C   UNL     1       0.734   5.292  -6.490  1.00  0.00     0.006 C 
ATOM     13  C   UNL     1       1.967   4.715  -7.321  1.00  0.00    -0.020 C 
ATOM     14  C   UNL     1       1.650   3.228  -7.565  1.00  0.00     0.008 C 
ATOM     15  C   UNL     1       0.331   2.963  -8.330  1.00  0.00     0.005 C 
ATOM     16  C   UNL     1      -0.749   4.101  -8.354  1.00  0.00     0.003 C 
ATOM     17  C   UNL     1      -0.775   4.882  -6.976  1.00  0.00    -0.025 C 
ATOM     18  C   UNL     1      -1.555   3.971  -5.961  1.00  0.00     0.010 C 
ATOM     19  C   UNL     1      -2.936   3.472  -6.439  1.00  0.00     0.033 C 
ATOM     20  C   UNL     1      -2.869   2.720  -7.778  1.00  0.00     0.120 C 
ATOM     21  C   UNL     1      -2.150   3.542  -8.889  1.00  0.00    -0.006 C 
ATOM     22  C   UNL     1      -3.066   4.688  -9.408  1.00  0.00     0.014 C 
ATOM     23  C   UNL     1      -1.939   2.599 -10.112  1.00  0.00     0.014 C 
ATOM     24  C   UNL     1      -1.550   6.237  -7.102  1.00  0.00     0.012 C 
ATOM     25  C   UNL     1       2.094   5.454  -8.710  1.00  0.00     0.012 C 
ATOM     26  C   UNL     1       4.409   3.645  -4.376  1.00  0.00     0.022 C 
ATOM     27  C   UNL     1       3.893   2.216  -4.049  1.00  0.00     0.015 C 
ATOM     28  C   UNL     1       3.723   6.436  -6.453  1.00  0.00     0.017 C 
ATOM     29  C   UNL     1       6.856   4.412  -4.174  1.00  0.00     0.012 C 
ATOM     30  C   UNL     1       5.026   1.838  -1.800  1.00  0.00     0.011 C 
ENDROOT
BRANCH  20  31
ATOM     31  O   UNL     1      -4.135   2.279  -8.222  1.00  0.00    -0.393 OA
ATOM     32  H   UNL     1      -4.853   2.829  -7.805  1.00  0.00     0.210 HD
ENDBRANCH  20  31
TORSDOF 1
ENDMDL
MODEL 9
REMARK VINA RESULT:    -4.734      5.693     10.567
REMARK INTER + INTRA:          -4.873
REMARK INTER:                  -4.873
REMARK INTRA:                   0.000
REMARK UNBOUND:                 0.000
REMARK SMILES CC1(C)CC[C@@]2(C)CC[C@]3(C)C(=CC[C@@H]4[C@]5(C)CC[C@@H](O)C(C)(C)[C@@H]5CC[C@@]43C)[C@H]2C1
REMARK SMILES IDX 1 1 2 2 4 3 5 4 6 5 8 6 9 7 10 8 12 9 13 10 14 11 15 12
REMARK SMILES IDX 28 13 27 14 26 15 25 16 16 17 18 18 19 19 20 20 22 21 23 22
REMARK SMILES IDX 24 23 17 24 29 25 30 26 31 27 11 28 7 29 3 30 21 31
REMARK H PARENT 21 32
REMARK Flexibility Score: inf
ROOT
ATOM      1  C   UNL     1       3.750  -1.392   3.381  1.00  0.00     0.011 C 
ATOM      2  C   UNL     1       5.046  -1.239   2.549  1.00  0.00    -0.035 C 
ATOM      3  C   UNL     1       4.831  -1.851   1.126  1.00  0.00     0.007 C 
ATOM      4  C   UNL     1       4.980  -0.830  -0.013  1.00  0.00     0.008 C 
ATOM      5  C   UNL     1       6.310  -0.009   0.046  1.00  0.00    -0.026 C 
ATOM      6  C   UNL     1       6.258   1.053  -1.085  1.00  0.00     0.008 C 
ATOM      7  C   UNL     1       5.675   2.386  -0.627  1.00  0.00     0.012 C 
ATOM      8  C   UNL     1       6.585   3.112   0.423  1.00  0.00    -0.006 C 
ATOM      9  C   UNL     1       6.803   2.143   1.576  1.00  0.00    -0.064 C 
ATOM     10  C   UNL     1       7.341   2.601   2.715  1.00  0.00    -0.027 C 
ATOM     11  C   UNL     1       7.473   4.050   3.079  1.00  0.00     0.032 C 
ATOM     12  C   UNL     1       6.760   5.116   2.170  1.00  0.00     0.006 C 
ATOM     13  C   UNL     1       5.953   4.514   0.934  1.00  0.00    -0.020 C 
ATOM     14  C   UNL     1       4.503   4.340   1.424  1.00  0.00     0.008 C 
ATOM     15  C   UNL     1       3.823   5.642   1.911  1.00  0.00     0.005 C 
ATOM     16  C   UNL     1       4.742   6.848   2.314  1.00  0.00     0.003 C 
ATOM     17  C   UNL     1       6.067   6.337   3.015  1.00  0.00    -0.025 C 
ATOM     18  C   UNL     1       5.675   5.960   4.489  1.00  0.00     0.010 C 
ATOM     19  C   UNL     1       4.917   7.050   5.277  1.00  0.00     0.033 C 
ATOM     20  C   UNL     1       3.638   7.521   4.565  1.00  0.00     0.120 C 
ATOM     21  C   UNL     1       3.902   7.965   3.095  1.00  0.00    -0.006 C 
ATOM     22  C   UNL     1       4.612   9.349   3.056  1.00  0.00     0.014 C 
ATOM     23  C   UNL     1       2.519   8.193   2.415  1.00  0.00     0.014 C 
ATOM     24  C   UNL     1       7.153   7.464   3.077  1.00  0.00     0.012 C 
ATOM     25  C   UNL     1       5.973   5.517  -0.284  1.00  0.00     0.012 C 
ATOM     26  C   UNL     1       6.538   0.624   1.493  1.00  0.00     0.022 C 
ATOM     27  C   UNL     1       5.389   0.277   2.480  1.00  0.00     0.015 C 
ATOM     28  C   UNL     1       7.997   3.370  -0.210  1.00  0.00     0.017 C 
ATOM     29  C   UNL     1       7.480  -0.969  -0.294  1.00  0.00     0.012 C 
ATOM     30  C   UNL     1       6.173  -2.008   3.287  1.00  0.00     0.011 C 
ENDROOT
BRANCH  20  31
ATOM     31  O   UNL     1       2.955   8.530   5.278  1.00  0.00    -0.393 OA
ATOM     32  H   UNL     1       2.032   8.635   4.920  1.00  0.00     0.210 HD
ENDBRANCH  20  31
TORSDOF 1
ENDMDL
