MODEL 1
REMARK VINA RESULT:    42.041      0.000      0.000
REMARK INTER + INTRA:          56.088
REMARK INTER:                  55.559
REMARK INTRA:                   0.528
REMARK UNBOUND:                 0.528
REMARK SMILES CC[C@H](C=C[C@H](C)[C@@H]1CC[C@@H]2[C@H]3CC=C4C[C@H](O)CC[C@]4(C)[C@H]3CC[C@@]21C)C(C)C
REMARK SMILES IDX 6 1 7 2 5 3 4 4 3 5 2 6 1 7 28 8 29 9 30 10 8 11 9 12 26 13
REMARK SMILES IDX 10 14 11 15 25 16 27 17 12 18 24 19 23 20 13 21 21 22 14 23
REMARK SMILES IDX 15 24 20 25 22 26 16 27 19 28 17 29 18 30
REMARK H PARENT 18 31
REMARK Flexibility Score: inf
ROOT
ATOM      1  C   UNL     1       1.462  61.801   0.819  1.00  0.00     0.012 C 
ATOM      2  C   UNL     1       0.459  60.795   1.404  1.00  0.00     0.012 C 
ENDROOT
BRANCH   1   3
ATOM      3  C   UNL     1       2.801  61.610   1.509  1.00  0.00    -0.028 C 
ATOM      4  C   UNL     1       3.174  62.337   2.579  1.00  0.00    -0.027 C 
BRANCH   4   5
ATOM      5  C   UNL     1       4.538  62.251   3.245  1.00  0.00     0.014 C 
BRANCH   5   6
ATOM      6  C   UNL     1       5.587  63.266   2.707  1.00  0.00     0.004 C 
ATOM      7  C   UNL     1       7.045  63.018   3.102  1.00  0.00     0.004 C 
ENDBRANCH   5   6
BRANCH   5   8
ATOM      8  C   UNL     1       4.465  62.089   4.804  1.00  0.00    -0.011 C 
ATOM      9  C   UNL     1       3.052  61.673   5.252  1.00  0.00     0.008 C 
ATOM     10  C   UNL     1       5.490  61.119   5.412  1.00  0.00     0.008 C 
ENDBRANCH   5   8
ENDBRANCH   4   5
ENDBRANCH   1   3
BRANCH   1  11
ATOM     11  C   UNL     1       1.604  61.725  -0.747  1.00  0.00     0.002 C 
ATOM     12  C   UNL     1       1.241  63.070  -1.403  1.00  0.00     0.005 C 
ATOM     13  C   UNL     1       0.775  60.640  -1.524  1.00  0.00    -0.026 C 
ATOM     14  C   UNL     1       0.557  62.776  -2.726  1.00  0.00     0.005 C 
ATOM     15  C   UNL     1       0.649  61.265  -2.945  1.00  0.00    -0.001 C 
ATOM     16  C   UNL     1      -0.629  60.421  -0.893  1.00  0.00     0.007 C 
ATOM     17  C   UNL     1       1.567  59.304  -1.577  1.00  0.00     0.012 C 
ATOM     18  C   UNL     1      -0.507  60.745  -3.858  1.00  0.00     0.000 C 
ATOM     19  C   UNL     1      -1.637  59.735  -1.829  1.00  0.00     0.005 C 
ATOM     20  C   UNL     1      -1.855  60.573  -3.113  1.00  0.00     0.003 C 
ATOM     21  C   UNL     1      -0.123  59.447  -4.584  1.00  0.00     0.031 C 
ATOM     22  C   UNL     1      -3.017  60.085  -4.092  1.00  0.00    -0.008 C 
ATOM     23  C   UNL     1      -1.207  59.012  -5.515  1.00  0.00    -0.027 C 
ATOM     24  C   UNL     1      -2.514  59.238  -5.276  1.00  0.00    -0.065 C 
ATOM     25  C   UNL     1      -3.695  61.354  -4.705  1.00  0.00     0.014 C 
ATOM     26  C   UNL     1      -4.092  59.279  -3.314  1.00  0.00     0.016 C 
ATOM     27  C   UNL     1      -3.510  58.892  -6.364  1.00  0.00     0.063 C 
ATOM     28  C   UNL     1      -4.711  61.056  -5.829  1.00  0.00     0.033 C 
ATOM     29  C   UNL     1      -4.111  60.182  -6.943  1.00  0.00     0.118 C 
BRANCH  29  30
ATOM     30  O   UNL     1      -3.129  60.914  -7.632  1.00  0.00    -0.393 OA
ATOM     31  H   UNL     1      -2.788  60.324  -8.355  1.00  0.00     0.210 HD
ENDBRANCH  29  30
ENDBRANCH   1  11
TORSDOF 6
ENDMDL
