MODEL 1
REMARK VINA RESULT:    -6.835      0.000      0.000
REMARK INTER + INTRA:          -8.548
REMARK INTER:                  -8.233
REMARK INTRA:                  -0.315
REMARK UNBOUND:                -0.315
REMARK SMILES O=c1c(O)c(-c2ccc(O)c(O)c2)oc2cc(O)cc(O)c12
REMARK SMILES IDX 5 1 3 2 2 3 1 4 22 5 20 6 19 7 17 8 16 9 15 10 14 11 6 12
REMARK SMILES IDX 7 13 8 14 9 15 13 16 11 17 10 18 12 20 4 22 21 24 18 26
REMARK H PARENT 10 19 12 21 4 23 21 25 18 27
REMARK Flexibility Score: inf
ROOT
ATOM      1  C   UNL     1      23.465  47.976  38.990  1.00  0.00     0.180 A 
ATOM      2  C   UNL     1      23.770  46.603  38.910  1.00  0.00     0.208 A 
ATOM      3  C   UNL     1      23.952  46.021  37.646  1.00  0.00     0.238 A 
ATOM      4  O   UNL     1      24.215  44.790  37.561  1.00  0.00    -0.285 OA
ATOM      5  C   UNL     1      23.848  46.821  36.489  1.00  0.00     0.111 A 
ATOM      6  C   UNL     1      24.022  46.313  35.178  1.00  0.00     0.134 A 
ATOM      7  C   UNL     1      23.912  47.176  34.078  1.00  0.00     0.093 A 
ATOM      8  C   UNL     1      23.632  48.532  34.262  1.00  0.00     0.123 A 
ATOM      9  C   UNL     1      23.458  49.039  35.552  1.00  0.00     0.094 A 
ATOM     10  C   UNL     1      23.563  48.195  36.663  1.00  0.00     0.146 A 
ATOM     11  O   UNL     1      23.389  48.701  37.879  1.00  0.00    -0.452 OA
ENDROOT
BRANCH   1  12
ATOM     12  C   UNL     1      23.240  48.657  40.285  1.00  0.00     0.025 A 
ATOM     13  C   UNL     1      22.005  48.578  40.948  1.00  0.00     0.016 A 
ATOM     14  C   UNL     1      21.809  49.249  42.156  1.00  0.00     0.051 A 
ATOM     15  C   UNL     1      22.831  50.021  42.720  1.00  0.00     0.157 A 
ATOM     16  C   UNL     1      24.260  49.449  40.836  1.00  0.00     0.062 A 
ATOM     17  C   UNL     1      24.072  50.125  42.048  1.00  0.00     0.158 A 
BRANCH  15  18
ATOM     18  O   UNL     1      22.572  50.663  43.931  1.00  0.00    -0.504 OA
ATOM     19  H   UNL     1      22.943  51.569  44.181  1.00  0.00     0.293 HD
ENDBRANCH  15  18
BRANCH  17  20
ATOM     20  O   UNL     1      25.136  50.883  42.542  1.00  0.00    -0.504 OA
ATOM     21  H   UNL     1      25.058  51.526  43.316  1.00  0.00     0.293 HD
ENDBRANCH  17  20
ENDBRANCH   1  12
BRANCH   2  22
ATOM     22  O   UNL     1      23.916  45.844  40.073  1.00  0.00    -0.502 OA
ATOM     23  H   UNL     1      24.761  45.863  40.633  1.00  0.00     0.293 HD
ENDBRANCH   2  22
BRANCH   6  24
ATOM     24  O   UNL     1      24.304  44.963  34.963  1.00  0.00    -0.507 OA
ATOM     25  H   UNL     1      23.675  44.231  35.277  1.00  0.00     0.293 HD
ENDBRANCH   6  24
BRANCH   8  26
ATOM     26  O   UNL     1      23.529  49.367  33.151  1.00  0.00    -0.508 OA
ATOM     27  H   UNL     1      23.448  48.992  32.212  1.00  0.00     0.293 HD
ENDBRANCH   8  26
TORSDOF 6
ENDMDL
MODEL 2
REMARK VINA RESULT:    -6.564      1.763      3.624
REMARK INTER + INTRA:          -8.223
REMARK INTER:                  -7.891
REMARK INTRA:                  -0.331
REMARK UNBOUND:                -0.315
REMARK SMILES O=c1c(O)c(-c2ccc(O)c(O)c2)oc2cc(O)cc(O)c12
REMARK SMILES IDX 5 1 3 2 2 3 1 4 22 5 20 6 19 7 17 8 16 9 15 10 14 11 6 12
REMARK SMILES IDX 7 13 8 14 9 15 13 16 11 17 10 18 12 20 4 22 21 24 18 26
REMARK H PARENT 10 19 12 21 4 23 21 25 18 27
REMARK Flexibility Score: inf
ROOT
ATOM      1  C   UNL     1      23.677  49.198  40.174  1.00  0.00     0.180 A 
ATOM      2  C   UNL     1      23.566  49.912  38.965  1.00  0.00     0.208 A 
ATOM      3  C   UNL     1      23.581  49.203  37.754  1.00  0.00     0.238 A 
ATOM      4  O   UNL     1      23.493  49.833  36.665  1.00  0.00    -0.285 OA
ATOM      5  C   UNL     1      23.685  47.797  37.771  1.00  0.00     0.111 A 
ATOM      6  C   UNL     1      23.702  47.007  36.595  1.00  0.00     0.134 A 
ATOM      7  C   UNL     1      23.798  45.612  36.697  1.00  0.00     0.093 A 
ATOM      8  C   UNL     1      23.877  44.992  37.946  1.00  0.00     0.123 A 
ATOM      9  C   UNL     1      23.861  45.766  39.110  1.00  0.00     0.094 A 
ATOM     10  C   UNL     1      23.767  47.159  39.031  1.00  0.00     0.146 A 
ATOM     11  O   UNL     1      23.759  47.871  40.152  1.00  0.00    -0.452 OA
ENDROOT
BRANCH   1  12
ATOM     12  C   UNL     1      23.689  49.876  41.490  1.00  0.00     0.025 A 
ATOM     13  C   UNL     1      24.883  50.337  42.065  1.00  0.00     0.016 A 
ATOM     14  C   UNL     1      24.872  50.951  43.318  1.00  0.00     0.051 A 
ATOM     15  C   UNL     1      23.676  51.108  44.027  1.00  0.00     0.157 A 
ATOM     16  C   UNL     1      22.490  50.011  42.208  1.00  0.00     0.062 A 
ATOM     17  C   UNL     1      22.469  50.627  43.466  1.00  0.00     0.158 A 
BRANCH  15  18
ATOM     18  O   UNL     1      23.732  51.734  45.273  1.00  0.00    -0.504 OA
ATOM     19  H   UNL     1      24.057  51.284  46.117  1.00  0.00     0.293 HD
ENDBRANCH  15  18
BRANCH  17  20
ATOM     20  O   UNL     1      21.238  50.738  44.116  1.00  0.00    -0.504 OA
ATOM     21  H   UNL     1      20.457  51.268  43.761  1.00  0.00     0.293 HD
ENDBRANCH  17  20
ENDBRANCH   1  12
BRANCH   2  22
ATOM     22  O   UNL     1      23.415  51.301  38.977  1.00  0.00    -0.502 OA
ATOM     23  H   UNL     1      23.136  51.824  38.155  1.00  0.00     0.293 HD
ENDBRANCH   2  22
BRANCH   6  24
ATOM     24  O   UNL     1      23.624  47.597  35.333  1.00  0.00    -0.507 OA
ATOM     25  H   UNL     1      24.388  48.145  34.953  1.00  0.00     0.293 HD
ENDBRANCH   6  24
BRANCH   8  26
ATOM     26  O   UNL     1      23.971  43.603  38.018  1.00  0.00    -0.508 OA
ATOM     27  H   UNL     1      23.255  43.047  38.471  1.00  0.00     0.293 HD
ENDBRANCH   8  26
TORSDOF 6
ENDMDL
MODEL 3
REMARK VINA RESULT:    -6.238      1.567      3.040
REMARK INTER + INTRA:          -7.829
REMARK INTER:                  -7.629
REMARK INTRA:                  -0.200
REMARK UNBOUND:                -0.315
REMARK SMILES O=c1c(O)c(-c2ccc(O)c(O)c2)oc2cc(O)cc(O)c12
REMARK SMILES IDX 5 1 3 2 2 3 1 4 22 5 20 6 19 7 17 8 16 9 15 10 14 11 6 12
REMARK SMILES IDX 7 13 8 14 9 15 13 16 11 17 10 18 12 20 4 22 21 24 18 26
REMARK H PARENT 10 19 12 21 4 23 21 25 18 27
REMARK Flexibility Score: inf
ROOT
ATOM      1  C   UNL     1      22.366  48.623  39.477  1.00  0.00     0.180 A 
ATOM      2  C   UNL     1      21.720  49.195  38.364  1.00  0.00     0.208 A 
ATOM      3  C   UNL     1      21.873  48.591  37.107  1.00  0.00     0.238 A 
ATOM      4  O   UNL     1      21.309  49.101  36.100  1.00  0.00    -0.285 OA
ATOM      5  C   UNL     1      22.647  47.418  36.986  1.00  0.00     0.111 A 
ATOM      6  C   UNL     1      22.847  46.745  35.756  1.00  0.00     0.134 A 
ATOM      7  C   UNL     1      23.624  45.578  35.722  1.00  0.00     0.093 A 
ATOM      8  C   UNL     1      24.203  45.072  36.888  1.00  0.00     0.123 A 
ATOM      9  C   UNL     1      24.010  45.732  38.104  1.00  0.00     0.094 A 
ATOM     10  C   UNL     1      23.240  46.898  38.161  1.00  0.00     0.146 A 
ATOM     11  O   UNL     1      23.076  47.509  39.329  1.00  0.00    -0.452 OA
ENDROOT
BRANCH   1  12
ATOM     12  C   UNL     1      22.268  49.213  40.832  1.00  0.00     0.025 A 
ATOM     13  C   UNL     1      21.058  49.217  41.543  1.00  0.00     0.016 A 
ATOM     14  C   UNL     1      20.985  49.801  42.808  1.00  0.00     0.051 A 
ATOM     15  C   UNL     1      22.109  50.402  43.384  1.00  0.00     0.157 A 
ATOM     16  C   UNL     1      23.392  49.836  41.397  1.00  0.00     0.062 A 
ATOM     17  C   UNL     1      23.329  50.423  42.667  1.00  0.00     0.158 A 
BRANCH  15  18
ATOM     18  O   UNL     1      21.971  50.964  44.654  1.00  0.00    -0.504 OA
ATOM     19  H   UNL     1      21.551  50.488  45.440  1.00  0.00     0.293 HD
ENDBRANCH  15  18
BRANCH  17  20
ATOM     20  O   UNL     1      24.490  51.013  43.171  1.00  0.00    -0.504 OA
ATOM     21  H   UNL     1      24.664  51.169  44.153  1.00  0.00     0.293 HD
ENDBRANCH  17  20
ENDBRANCH   1  12
BRANCH   2  22
ATOM     22  O   UNL     1      20.919  50.329  38.519  1.00  0.00    -0.502 OA
ATOM     23  H   UNL     1      20.039  50.308  39.021  1.00  0.00     0.293 HD
ENDBRANCH   2  22
BRANCH   6  24
ATOM     24  O   UNL     1      22.281  47.225  34.575  1.00  0.00    -0.507 OA
ATOM     25  H   UNL     1      22.099  48.213  34.435  1.00  0.00     0.293 HD
ENDBRANCH   6  24
BRANCH   8  26
ATOM     26  O   UNL     1      24.969  43.909  36.824  1.00  0.00    -0.508 OA
ATOM     27  H   UNL     1      24.796  43.200  36.121  1.00  0.00     0.293 HD
ENDBRANCH   8  26
TORSDOF 6
ENDMDL
MODEL 4
REMARK VINA RESULT:    -6.215     19.632     21.674
REMARK INTER + INTRA:          -7.802
REMARK INTER:                  -7.477
REMARK INTRA:                  -0.325
REMARK UNBOUND:                -0.315
REMARK SMILES O=c1c(O)c(-c2ccc(O)c(O)c2)oc2cc(O)cc(O)c12
REMARK SMILES IDX 5 1 3 2 2 3 1 4 22 5 20 6 19 7 17 8 16 9 15 10 14 11 6 12
REMARK SMILES IDX 7 13 8 14 9 15 13 16 11 17 10 18 12 20 4 22 21 24 18 26
REMARK H PARENT 10 19 12 21 4 23 21 25 18 27
REMARK Flexibility Score: inf
ROOT
ATOM      1  C   UNL     1      39.139  35.389  44.322  1.00  0.00     0.180 A 
ATOM      2  C   UNL     1      39.899  35.369  45.508  1.00  0.00     0.208 A 
ATOM      3  C   UNL     1      39.417  34.646  46.610  1.00  0.00     0.238 A 
ATOM      4  O   UNL     1      40.084  34.630  47.681  1.00  0.00    -0.285 OA
ATOM      5  C   UNL     1      38.200  33.941  46.504  1.00  0.00     0.111 A 
ATOM      6  C   UNL     1      37.648  33.185  47.566  1.00  0.00     0.134 A 
ATOM      7  C   UNL     1      36.437  32.503  47.378  1.00  0.00     0.093 A 
ATOM      8  C   UNL     1      35.769  32.563  46.152  1.00  0.00     0.123 A 
ATOM      9  C   UNL     1      36.309  33.308  45.100  1.00  0.00     0.094 A 
ATOM     10  C   UNL     1      37.515  33.996  45.268  1.00  0.00     0.146 A 
ATOM     11  O   UNL     1      38.004  34.701  44.253  1.00  0.00    -0.452 OA
ENDROOT
BRANCH   1  12
ATOM     12  C   UNL     1      39.571  36.144  43.124  1.00  0.00     0.025 A 
ATOM     13  C   UNL     1      40.372  35.551  42.135  1.00  0.00     0.016 A 
ATOM     14  C   UNL     1      40.787  36.291  41.027  1.00  0.00     0.051 A 
ATOM     15  C   UNL     1      40.424  37.635  40.887  1.00  0.00     0.157 A 
ATOM     16  C   UNL     1      39.224  37.498  42.998  1.00  0.00     0.062 A 
ATOM     17  C   UNL     1      39.634  38.248  41.889  1.00  0.00     0.158 A 
BRANCH  15  18
ATOM     18  O   UNL     1      40.868  38.316  39.753  1.00  0.00    -0.504 OA
ATOM     19  H   UNL     1      40.397  39.116  39.354  1.00  0.00     0.293 HD
ENDBRANCH  15  18
BRANCH  17  20
ATOM     20  O   UNL     1      39.241  39.586  41.825  1.00  0.00    -0.504 OA
ATOM     21  H   UNL     1      38.482  39.978  42.362  1.00  0.00     0.293 HD
ENDBRANCH  17  20
ENDBRANCH   1  12
BRANCH   2  22
ATOM     22  O   UNL     1      41.125  36.035  45.572  1.00  0.00    -0.502 OA
ATOM     23  H   UNL     1      41.902  35.692  46.125  1.00  0.00     0.293 HD
ENDBRANCH   2  22
BRANCH   6  24
ATOM     24  O   UNL     1      38.292  33.106  48.801  1.00  0.00    -0.507 OA
ATOM     25  H   UNL     1      38.054  33.727  49.567  1.00  0.00     0.293 HD
ENDBRANCH   6  24
BRANCH   8  26
ATOM     26  O   UNL     1      34.567  31.875  45.992  1.00  0.00    -0.508 OA
ATOM     27  H   UNL     1      33.780  32.036  46.610  1.00  0.00     0.293 HD
ENDBRANCH   8  26
TORSDOF 6
ENDMDL
MODEL 5
REMARK VINA RESULT:    -6.128      1.454      2.170
REMARK INTER + INTRA:          -7.697
REMARK INTER:                  -7.404
REMARK INTRA:                  -0.293
REMARK UNBOUND:                -0.315
REMARK SMILES O=c1c(O)c(-c2ccc(O)c(O)c2)oc2cc(O)cc(O)c12
REMARK SMILES IDX 5 1 3 2 2 3 1 4 22 5 20 6 19 7 17 8 16 9 15 10 14 11 6 12
REMARK SMILES IDX 7 13 8 14 9 15 13 16 11 17 10 18 12 20 4 22 21 24 18 26
REMARK H PARENT 10 19 12 21 4 23 21 25 18 27
REMARK Flexibility Score: inf
ROOT
ATOM      1  C   UNL     1      23.484  47.807  37.060  1.00  0.00     0.180 A 
ATOM      2  C   UNL     1      23.656  46.472  36.645  1.00  0.00     0.208 A 
ATOM      3  C   UNL     1      24.071  46.219  35.328  1.00  0.00     0.238 A 
ATOM      4  O   UNL     1      24.217  45.027  34.942  1.00  0.00    -0.285 OA
ATOM      5  C   UNL     1      24.327  47.299  34.458  1.00  0.00     0.111 A 
ATOM      6  C   UNL     1      24.753  47.130  33.118  1.00  0.00     0.134 A 
ATOM      7  C   UNL     1      24.997  48.256  32.319  1.00  0.00     0.093 A 
ATOM      8  C   UNL     1      24.824  49.544  32.831  1.00  0.00     0.123 A 
ATOM      9  C   UNL     1      24.403  49.718  34.153  1.00  0.00     0.094 A 
ATOM     10  C   UNL     1      24.153  48.608  34.966  1.00  0.00     0.146 A 
ATOM     11  O   UNL     1      23.749  48.800  36.217  1.00  0.00    -0.452 OA
ENDROOT
BRANCH   1  12
ATOM     12  C   UNL     1      23.031  48.153  38.426  1.00  0.00     0.025 A 
ATOM     13  C   UNL     1      21.684  48.032  38.802  1.00  0.00     0.016 A 
ATOM     14  C   UNL     1      21.276  48.388  40.089  1.00  0.00     0.051 A 
ATOM     15  C   UNL     1      22.197  48.883  41.019  1.00  0.00     0.157 A 
ATOM     16  C   UNL     1      23.953  48.671  39.350  1.00  0.00     0.062 A 
ATOM     17  C   UNL     1      23.553  49.030  40.643  1.00  0.00     0.158 A 
BRANCH  15  18
ATOM     18  O   UNL     1      21.725  49.217  42.290  1.00  0.00    -0.504 OA
ATOM     19  H   UNL     1      22.271  49.707  42.984  1.00  0.00     0.293 HD
ENDBRANCH  15  18
BRANCH  17  20
ATOM     20  O   UNL     1      24.527  49.525  41.512  1.00  0.00    -0.504 OA
ATOM     21  H   UNL     1      24.332  49.873  42.439  1.00  0.00     0.293 HD
ENDBRANCH  17  20
ENDBRANCH   1  12
BRANCH   2  22
ATOM     22  O   UNL     1      23.443  45.421  37.540  1.00  0.00    -0.502 OA
ATOM     23  H   UNL     1      23.884  44.515  37.430  1.00  0.00     0.293 HD
ENDBRANCH   2  22
BRANCH   6  24
ATOM     24  O   UNL     1      24.936  45.856  32.579  1.00  0.00    -0.507 OA
ATOM     25  H   UNL     1      25.552  45.177  33.013  1.00  0.00     0.293 HD
ENDBRANCH   6  24
BRANCH   8  26
ATOM     26  O   UNL     1      25.074  50.646  32.015  1.00  0.00    -0.508 OA
ATOM     27  H   UNL     1      26.019  50.939  31.797  1.00  0.00     0.293 HD
ENDBRANCH   8  26
TORSDOF 6
ENDMDL
MODEL 6
REMARK VINA RESULT:    -6.106     20.288     21.695
REMARK INTER + INTRA:          -7.671
REMARK INTER:                  -7.338
REMARK INTRA:                  -0.332
REMARK UNBOUND:                -0.315
REMARK SMILES O=c1c(O)c(-c2ccc(O)c(O)c2)oc2cc(O)cc(O)c12
REMARK SMILES IDX 5 1 3 2 2 3 1 4 22 5 20 6 19 7 17 8 16 9 15 10 14 11 6 12
REMARK SMILES IDX 7 13 8 14 9 15 13 16 11 17 10 18 12 20 4 22 21 24 18 26
REMARK H PARENT 10 19 12 21 4 23 21 25 18 27
REMARK Flexibility Score: inf
ROOT
ATOM      1  C   UNL     1      39.430  34.653  44.884  1.00  0.00     0.180 A 
ATOM      2  C   UNL     1      40.091  33.894  43.898  1.00  0.00     0.208 A 
ATOM      3  C   UNL     1      40.448  34.515  42.691  1.00  0.00     0.238 A 
ATOM      4  O   UNL     1      41.030  33.843  41.796  1.00  0.00    -0.285 OA
ATOM      5  C   UNL     1      40.160  35.882  42.498  1.00  0.00     0.111 A 
ATOM      6  C   UNL     1      40.490  36.583  41.313  1.00  0.00     0.134 A 
ATOM      7  C   UNL     1      40.178  37.947  41.202  1.00  0.00     0.093 A 
ATOM      8  C   UNL     1      39.544  38.620  42.249  1.00  0.00     0.123 A 
ATOM      9  C   UNL     1      39.215  37.933  43.421  1.00  0.00     0.094 A 
ATOM     10  C   UNL     1      39.516  36.573  43.551  1.00  0.00     0.146 A 
ATOM     11  O   UNL     1      39.188  35.943  44.673  1.00  0.00    -0.452 OA
ENDROOT
BRANCH   1  12
ATOM     12  C   UNL     1      39.005  34.064  46.174  1.00  0.00     0.025 A 
ATOM     13  C   UNL     1      37.744  33.465  46.325  1.00  0.00     0.016 A 
ATOM     14  C   UNL     1      37.356  32.939  47.558  1.00  0.00     0.051 A 
ATOM     15  C   UNL     1      38.207  33.011  48.666  1.00  0.00     0.157 A 
ATOM     16  C   UNL     1      39.852  34.158  47.290  1.00  0.00     0.062 A 
ATOM     17  C   UNL     1      39.471  33.632  48.531  1.00  0.00     0.158 A 
BRANCH  15  18
ATOM     18  O   UNL     1      37.760  32.462  49.869  1.00  0.00    -0.504 OA
ATOM     19  H   UNL     1      38.330  32.381  50.699  1.00  0.00     0.293 HD
ENDBRANCH  15  18
BRANCH  17  20
ATOM     20  O   UNL     1      40.371  33.750  49.592  1.00  0.00    -0.504 OA
ATOM     21  H   UNL     1      40.609  34.625  50.035  1.00  0.00     0.293 HD
ENDBRANCH  17  20
ENDBRANCH   1  12
BRANCH   2  22
ATOM     22  O   UNL     1      40.409  32.554  44.133  1.00  0.00    -0.502 OA
ATOM     23  H   UNL     1      41.325  32.261  44.452  1.00  0.00     0.293 HD
ENDBRANCH   2  22
BRANCH   6  24
ATOM     24  O   UNL     1      41.125  35.939  40.251  1.00  0.00    -0.507 OA
ATOM     25  H   UNL     1      40.816  35.033  39.917  1.00  0.00     0.293 HD
ENDBRANCH   6  24
BRANCH   8  26
ATOM     26  O   UNL     1      39.246  39.974  42.113  1.00  0.00    -0.508 OA
ATOM     27  H   UNL     1      38.907  40.356  41.237  1.00  0.00     0.293 HD
ENDBRANCH   8  26
TORSDOF 6
ENDMDL
MODEL 7
REMARK VINA RESULT:    -6.012      1.543      7.140
REMARK INTER + INTRA:          -7.558
REMARK INTER:                  -7.271
REMARK INTRA:                  -0.287
REMARK UNBOUND:                -0.315
REMARK SMILES O=c1c(O)c(-c2ccc(O)c(O)c2)oc2cc(O)cc(O)c12
REMARK SMILES IDX 5 1 3 2 2 3 1 4 22 5 20 6 19 7 17 8 16 9 15 10 14 11 6 12
REMARK SMILES IDX 7 13 8 14 9 15 13 16 11 17 10 18 12 20 4 22 21 24 18 26
REMARK H PARENT 10 19 12 21 4 23 21 25 18 27
REMARK Flexibility Score: inf
ROOT
ATOM      1  C   UNL     1      23.297  48.591  39.845  1.00  0.00     0.180 A 
ATOM      2  C   UNL     1      22.074  48.548  40.541  1.00  0.00     0.208 A 
ATOM      3  C   UNL     1      21.962  49.236  41.760  1.00  0.00     0.238 A 
ATOM      4  O   UNL     1      20.875  49.196  42.398  1.00  0.00    -0.285 OA
ATOM      5  C   UNL     1      23.063  49.969  42.250  1.00  0.00     0.111 A 
ATOM      6  C   UNL     1      23.032  50.692  43.467  1.00  0.00     0.134 A 
ATOM      7  C   UNL     1      24.167  51.405  43.881  1.00  0.00     0.093 A 
ATOM      8  C   UNL     1      25.329  51.408  43.106  1.00  0.00     0.123 A 
ATOM      9  C   UNL     1      25.366  50.695  41.904  1.00  0.00     0.094 A 
ATOM     10  C   UNL     1      24.246  49.977  41.473  1.00  0.00     0.146 A 
ATOM     11  O   UNL     1      24.309  49.304  40.330  1.00  0.00    -0.452 OA
ENDROOT
BRANCH   1  12
ATOM     12  C   UNL     1      23.498  47.876  38.564  1.00  0.00     0.025 A 
ATOM     13  C   UNL     1      23.410  48.543  37.332  1.00  0.00     0.016 A 
ATOM     14  C   UNL     1      23.579  47.843  36.137  1.00  0.00     0.051 A 
ATOM     15  C   UNL     1      23.826  46.465  36.144  1.00  0.00     0.157 A 
ATOM     16  C   UNL     1      23.723  46.490  38.574  1.00  0.00     0.062 A 
ATOM     17  C   UNL     1      23.895  45.779  37.380  1.00  0.00     0.158 A 
BRANCH  15  18
ATOM     18  O   UNL     1      23.990  45.825  34.915  1.00  0.00    -0.504 OA
ATOM     19  H   UNL     1      23.873  46.281  34.021  1.00  0.00     0.293 HD
ENDBRANCH  15  18
BRANCH  17  20
ATOM     20  O   UNL     1      24.128  44.405  37.467  1.00  0.00    -0.504 OA
ATOM     21  H   UNL     1      24.459  43.940  38.299  1.00  0.00     0.293 HD
ENDBRANCH  17  20
ENDBRANCH   1  12
BRANCH   2  22
ATOM     22  O   UNL     1      20.983  47.856  40.010  1.00  0.00    -0.502 OA
ATOM     23  H   UNL     1      20.035  48.001  40.339  1.00  0.00     0.293 HD
ENDBRANCH   2  22
BRANCH   6  24
ATOM     24  O   UNL     1      21.886  50.710  44.262  1.00  0.00    -0.507 OA
ATOM     25  H   UNL     1      21.920  50.484  45.250  1.00  0.00     0.293 HD
ENDBRANCH   6  24
BRANCH   8  26
ATOM     26  O   UNL     1      26.442  52.125  43.541  1.00  0.00    -0.508 OA
ATOM     27  H   UNL     1      27.280  52.196  42.974  1.00  0.00     0.293 HD
ENDBRANCH   8  26
TORSDOF 6
ENDMDL
MODEL 8
REMARK VINA RESULT:    -5.609      2.037      6.659
REMARK INTER + INTRA:          -7.072
REMARK INTER:                  -6.813
REMARK INTRA:                  -0.259
REMARK UNBOUND:                -0.315
REMARK SMILES O=c1c(O)c(-c2ccc(O)c(O)c2)oc2cc(O)cc(O)c12
REMARK SMILES IDX 5 1 3 2 2 3 1 4 22 5 20 6 19 7 17 8 16 9 15 10 14 11 6 12
REMARK SMILES IDX 7 13 8 14 9 15 13 16 11 17 10 18 12 20 4 22 21 24 18 26
REMARK H PARENT 10 19 12 21 4 23 21 25 18 27
REMARK Flexibility Score: inf
ROOT
ATOM      1  C   UNL     1      23.424  47.293  37.043  1.00  0.00     0.180 A 
ATOM      2  C   UNL     1      23.648  46.514  38.195  1.00  0.00     0.208 A 
ATOM      3  C   UNL     1      23.281  47.033  39.446  1.00  0.00     0.238 A 
ATOM      4  O   UNL     1      23.487  46.350  40.486  1.00  0.00    -0.285 OA
ATOM      5  C   UNL     1      22.681  48.307  39.524  1.00  0.00     0.111 A 
ATOM      6  C   UNL     1      22.278  48.900  40.745  1.00  0.00     0.134 A 
ATOM      7  C   UNL     1      21.678  50.168  40.737  1.00  0.00     0.093 A 
ATOM      8  C   UNL     1      21.474  50.853  39.537  1.00  0.00     0.123 A 
ATOM      9  C   UNL     1      21.870  50.273  38.328  1.00  0.00     0.094 A 
ATOM     10  C   UNL     1      22.471  49.010  38.314  1.00  0.00     0.146 A 
ATOM     11  O   UNL     1      22.843  48.483  37.153  1.00  0.00    -0.452 OA
ENDROOT
BRANCH   1  12
ATOM     12  C   UNL     1      23.801  46.822  35.691  1.00  0.00     0.025 A 
ATOM     13  C   UNL     1      23.060  45.831  35.028  1.00  0.00     0.016 A 
ATOM     14  C   UNL     1      23.450  45.386  33.764  1.00  0.00     0.051 A 
ATOM     15  C   UNL     1      24.588  45.909  33.141  1.00  0.00     0.157 A 
ATOM     16  C   UNL     1      24.957  47.333  35.079  1.00  0.00     0.062 A 
ATOM     17  C   UNL     1      25.355  46.893  33.810  1.00  0.00     0.158 A 
BRANCH  15  18
ATOM     18  O   UNL     1      24.921  45.425  31.875  1.00  0.00    -0.504 OA
ATOM     19  H   UNL     1      24.282  45.404  31.093  1.00  0.00     0.293 HD
ENDBRANCH  15  18
BRANCH  17  20
ATOM     20  O   UNL     1      26.508  47.454  33.257  1.00  0.00    -0.504 OA
ATOM     21  H   UNL     1      26.886  48.350  33.529  1.00  0.00     0.293 HD
ENDBRANCH  17  20
ENDBRANCH   1  12
BRANCH   2  22
ATOM     22  O   UNL     1      24.199  45.235  38.087  1.00  0.00    -0.502 OA
ATOM     23  H   UNL     1      24.438  44.820  37.193  1.00  0.00     0.293 HD
ENDBRANCH   2  22
BRANCH   6  24
ATOM     24  O   UNL     1      22.468  48.241  41.960  1.00  0.00    -0.507 OA
ATOM     25  H   UNL     1      21.720  47.722  42.407  1.00  0.00     0.293 HD
ENDBRANCH   6  24
BRANCH   8  26
ATOM     26  O   UNL     1      20.875  52.111  39.558  1.00  0.00    -0.508 OA
ATOM     27  H   UNL     1      21.178  52.830  40.204  1.00  0.00     0.293 HD
ENDBRANCH   8  26
TORSDOF 6
ENDMDL
