MODEL 1
REMARK VINA RESULT:    14.968      0.000      0.000
REMARK INTER + INTRA:          29.050
REMARK INTER:                  28.969
REMARK INTRA:                   0.081
REMARK UNBOUND:                 0.081
REMARK SMILES CCCCCCCCCCCCCCCCCC(=O)[O-]
REMARK SMILES IDX 10 1 11 2 12 3 13 4 14 5 15 6 16 7 17 8 18 9 19 10 20 11
REMARK SMILES IDX 9 12 8 13 7 14 6 15 5 16 4 17 3 18 2 19 1 20
REMARK H PARENT
REMARK Flexibility Score: inf
ROOT
ATOM      1  C   UNL     1       4.862  19.921  50.400  1.00  0.00     0.000 C 
ENDROOT
BRANCH   1   2
ATOM      2  C   UNL     1       5.794  18.823  49.875  1.00  0.00     0.000 C 
BRANCH   2   3
ATOM      3  C   UNL     1       5.628  18.637  48.359  1.00  0.00     0.000 C 
BRANCH   3   4
ATOM      4  C   UNL     1       6.588  17.585  47.783  1.00  0.00     0.000 C 
BRANCH   4   5
ATOM      5  C   UNL     1       5.965  16.783  46.631  1.00  0.00     0.000 C 
BRANCH   5   6
ATOM      6  C   UNL     1       7.036  16.362  45.613  1.00  0.00     0.000 C 
BRANCH   6   7
ATOM      7  C   UNL     1       8.273  15.737  46.279  1.00  0.00     0.006 C 
BRANCH   7   8
ATOM      8  C   UNL     1       8.702  14.422  45.616  1.00  0.00     0.053 C 
BRANCH   8   9
ATOM      9  C   UNL     1       9.048  14.650  44.178  1.00  0.00     0.041 C 
ATOM     10  O   UNL     1       8.248  15.266  43.425  1.00  0.00    -0.550 OA
ATOM     11  O   UNL     1      10.229  14.137  43.657  1.00  0.00    -0.550 OA
ENDBRANCH   8   9
ENDBRANCH   7   8
ENDBRANCH   6   7
ENDBRANCH   5   6
ENDBRANCH   4   5
ENDBRANCH   3   4
ENDBRANCH   2   3
ENDBRANCH   1   2
BRANCH   1  12
ATOM     12  C   UNL     1       5.345  20.453  51.755  1.00  0.00     0.000 C 
BRANCH  12  13
ATOM     13  C   UNL     1       4.167  20.934  52.610  1.00  0.00    -0.000 C 
BRANCH  13  14
ATOM     14  C   UNL     1       4.531  20.921  54.102  1.00  0.00    -0.000 C 
BRANCH  14  15
ATOM     15  C   UNL     1       6.008  20.569  54.353  1.00  0.00    -0.000 C 
BRANCH  15  16
ATOM     16  C   UNL     1       6.501  20.821  55.793  1.00  0.00    -0.000 C 
BRANCH  16  17
ATOM     17  C   UNL     1       7.882  21.499  55.904  1.00  0.00    -0.000 C 
BRANCH  17  18
ATOM     18  C   UNL     1       9.063  20.537  56.125  1.00  0.00    -0.000 C 
BRANCH  18  19
ATOM     19  C   UNL     1      10.427  21.220  55.955  1.00  0.00    -0.003 C 
ATOM     20  C   UNL     1      11.432  20.283  55.290  1.00  0.00     0.004 C 
ENDBRANCH  18  19
ENDBRANCH  17  18
ENDBRANCH  16  17
ENDBRANCH  15  16
ENDBRANCH  14  15
ENDBRANCH  13  14
ENDBRANCH  12  13
ENDBRANCH   1  12
TORSDOF 16
ENDMDL
MODEL 2
REMARK VINA RESULT:    15.309      1.213      1.733
REMARK INTER + INTRA:          29.708
REMARK INTER:                  29.971
REMARK INTRA:                  -0.263
REMARK UNBOUND:                 0.081
REMARK SMILES CCCCCCCCCCCCCCCCCC(=O)[O-]
REMARK SMILES IDX 10 1 11 2 12 3 13 4 14 5 15 6 16 7 17 8 18 9 19 10 20 11
REMARK SMILES IDX 9 12 8 13 7 14 6 15 5 16 4 17 3 18 2 19 1 20
REMARK H PARENT
REMARK Flexibility Score: inf
ROOT
ATOM      1  C   UNL     1       5.032  19.377  50.483  1.00  0.00     0.000 C 
ENDROOT
BRANCH   1   2
ATOM      2  C   UNL     1       5.239  19.302  48.966  1.00  0.00     0.000 C 
BRANCH   2   3
ATOM      3  C   UNL     1       6.169  18.138  48.593  1.00  0.00     0.000 C 
BRANCH   3   4
ATOM      4  C   UNL     1       6.124  17.801  47.094  1.00  0.00     0.000 C 
BRANCH   4   5
ATOM      5  C   UNL     1       6.730  16.425  46.779  1.00  0.00     0.000 C 
BRANCH   5   6
ATOM      6  C   UNL     1       8.219  16.549  46.423  1.00  0.00     0.000 C 
BRANCH   6   7
ATOM      7  C   UNL     1       8.853  15.200  46.047  1.00  0.00     0.006 C 
BRANCH   7   8
ATOM      8  C   UNL     1       8.877  14.958  44.532  1.00  0.00     0.053 C 
BRANCH   8   9
ATOM      9  C   UNL     1       9.232  13.536  44.236  1.00  0.00     0.041 C 
ATOM     10  O   UNL     1      10.146  13.269  43.411  1.00  0.00    -0.550 OA
ATOM     11  O   UNL     1       8.516  12.503  44.829  1.00  0.00    -0.550 OA
ENDBRANCH   8   9
ENDBRANCH   7   8
ENDBRANCH   6   7
ENDBRANCH   5   6
ENDBRANCH   4   5
ENDBRANCH   3   4
ENDBRANCH   2   3
ENDBRANCH   1   2
BRANCH   1  12
ATOM     12  C   UNL     1       5.202  20.814  50.992  1.00  0.00     0.000 C 
BRANCH  12  13
ATOM     13  C   UNL     1       5.244  20.854  52.524  1.00  0.00    -0.000 C 
BRANCH  13  14
ATOM     14  C   UNL     1       3.854  20.583  53.118  1.00  0.00    -0.000 C 
BRANCH  14  15
ATOM     15  C   UNL     1       3.868  20.491  54.654  1.00  0.00    -0.000 C 
BRANCH  15  16
ATOM     16  C   UNL     1       4.337  21.769  55.378  1.00  0.00    -0.000 C 
BRANCH  16  17
ATOM     17  C   UNL     1       5.837  22.094  55.228  1.00  0.00    -0.000 C 
BRANCH  17  18
ATOM     18  C   UNL     1       6.788  21.125  55.954  1.00  0.00    -0.000 C 
BRANCH  18  19
ATOM     19  C   UNL     1       8.093  20.883  55.183  1.00  0.00    -0.003 C 
ATOM     20  C   UNL     1       9.216  20.456  56.125  1.00  0.00     0.004 C 
ENDBRANCH  18  19
ENDBRANCH  17  18
ENDBRANCH  16  17
ENDBRANCH  15  16
ENDBRANCH  14  15
ENDBRANCH  13  14
ENDBRANCH  12  13
ENDBRANCH   1  12
TORSDOF 16
ENDMDL
MODEL 3
REMARK VINA RESULT:    15.431      1.320      2.238
REMARK INTER + INTRA:          29.945
REMARK INTER:                  30.562
REMARK INTRA:                  -0.617
REMARK UNBOUND:                 0.081
REMARK SMILES CCCCCCCCCCCCCCCCCC(=O)[O-]
REMARK SMILES IDX 10 1 11 2 12 3 13 4 14 5 15 6 16 7 17 8 18 9 19 10 20 11
REMARK SMILES IDX 9 12 8 13 7 14 6 15 5 16 4 17 3 18 2 19 1 20
REMARK H PARENT
REMARK Flexibility Score: inf
ROOT
ATOM      1  C   UNL     1       4.824  20.046  48.781  1.00  0.00     0.000 C 
ENDROOT
BRANCH   1   2
ATOM      2  C   UNL     1       5.215  18.739  48.083  1.00  0.00     0.000 C 
BRANCH   2   3
ATOM      3  C   UNL     1       6.373  18.046  48.817  1.00  0.00     0.000 C 
BRANCH   3   4
ATOM      4  C   UNL     1       7.061  16.973  47.960  1.00  0.00     0.000 C 
BRANCH   4   5
ATOM      5  C   UNL     1       6.508  16.916  46.528  1.00  0.00     0.000 C 
BRANCH   5   6
ATOM      6  C   UNL     1       7.146  15.762  45.739  1.00  0.00     0.000 C 
BRANCH   6   7
ATOM      7  C   UNL     1       8.626  15.549  46.093  1.00  0.00     0.006 C 
BRANCH   7   8
ATOM      8  C   UNL     1       9.478  15.167  44.875  1.00  0.00     0.053 C 
BRANCH   8   9
ATOM      9  C   UNL     1       9.078  13.820  44.360  1.00  0.00     0.041 C 
ATOM     10  O   UNL     1       9.083  13.589  43.122  1.00  0.00    -0.550 OA
ATOM     11  O   UNL     1       8.649  12.837  45.243  1.00  0.00    -0.550 OA
ENDBRANCH   8   9
ENDBRANCH   7   8
ENDBRANCH   6   7
ENDBRANCH   5   6
ENDBRANCH   4   5
ENDBRANCH   3   4
ENDBRANCH   2   3
ENDBRANCH   1   2
BRANCH   1  12
ATOM     12  C   UNL     1       4.497  19.804  50.260  1.00  0.00     0.000 C 
BRANCH  12  13
ATOM     13  C   UNL     1       5.677  20.197  51.157  1.00  0.00    -0.000 C 
BRANCH  13  14
ATOM     14  C   UNL     1       5.198  21.009  52.369  1.00  0.00    -0.000 C 
BRANCH  14  15
ATOM     15  C   UNL     1       3.976  20.382  53.063  1.00  0.00    -0.000 C 
BRANCH  15  16
ATOM     16  C   UNL     1       3.974  20.491  54.602  1.00  0.00    -0.000 C 
BRANCH  16  17
ATOM     17  C   UNL     1       4.370  21.872  55.161  1.00  0.00    -0.000 C 
BRANCH  17  18
ATOM     18  C   UNL     1       5.798  21.957  55.731  1.00  0.00    -0.000 C 
BRANCH  18  19
ATOM     19  C   UNL     1       6.566  20.633  55.611  1.00  0.00    -0.003 C 
ATOM     20  C   UNL     1       8.066  20.850  55.791  1.00  0.00     0.004 C 
ENDBRANCH  18  19
ENDBRANCH  17  18
ENDBRANCH  16  17
ENDBRANCH  15  16
ENDBRANCH  14  15
ENDBRANCH  13  14
ENDBRANCH  12  13
ENDBRANCH   1  12
TORSDOF 16
ENDMDL
MODEL 4
REMARK VINA RESULT:    15.844      4.369      9.797
REMARK INTER + INTRA:          30.744
REMARK INTER:                  31.339
REMARK INTRA:                  -0.594
REMARK UNBOUND:                 0.081
REMARK SMILES CCCCCCCCCCCCCCCCCC(=O)[O-]
REMARK SMILES IDX 10 1 11 2 12 3 13 4 14 5 15 6 16 7 17 8 18 9 19 10 20 11
REMARK SMILES IDX 9 12 8 13 7 14 6 15 5 16 4 17 3 18 2 19 1 20
REMARK H PARENT
REMARK Flexibility Score: inf
ROOT
ATOM      1  C   UNL     1       5.520  20.173  52.235  1.00  0.00     0.000 C 
ENDROOT
BRANCH   1   2
ATOM      2  C   UNL     1       4.893  21.143  53.242  1.00  0.00     0.000 C 
BRANCH   2   3
ATOM      3  C   UNL     1       5.882  21.486  54.367  1.00  0.00     0.000 C 
BRANCH   3   4
ATOM      4  C   UNL     1       5.729  20.571  55.591  1.00  0.00     0.000 C 
BRANCH   4   5
ATOM      5  C   UNL     1       7.077  20.061  56.121  1.00  0.00     0.000 C 
BRANCH   5   6
ATOM      6  C   UNL     1       8.186  21.099  55.891  1.00  0.00     0.000 C 
BRANCH   6   7
ATOM      7  C   UNL     1       9.594  20.484  55.946  1.00  0.00     0.006 C 
BRANCH   7   8
ATOM      8  C   UNL     1      10.700  21.543  56.044  1.00  0.00     0.053 C 
BRANCH   8   9
ATOM      9  C   UNL     1      11.960  21.042  55.414  1.00  0.00     0.041 C 
ATOM     10  O   UNL     1      12.430  19.921  55.743  1.00  0.00    -0.550 OA
ATOM     11  O   UNL     1      12.646  21.836  54.503  1.00  0.00    -0.550 OA
ENDBRANCH   8   9
ENDBRANCH   7   8
ENDBRANCH   6   7
ENDBRANCH   5   6
ENDBRANCH   4   5
ENDBRANCH   3   4
ENDBRANCH   2   3
ENDBRANCH   1   2
BRANCH   1  12
ATOM     12  C   UNL     1       4.782  20.221  50.891  1.00  0.00     0.000 C 
BRANCH  12  13
ATOM     13  C   UNL     1       5.694  19.766  49.745  1.00  0.00    -0.000 C 
BRANCH  13  14
ATOM     14  C   UNL     1       5.772  18.233  49.682  1.00  0.00    -0.000 C 
BRANCH  14  15
ATOM     15  C   UNL     1       7.075  17.727  49.038  1.00  0.00    -0.000 C 
BRANCH  15  16
ATOM     16  C   UNL     1       6.924  17.188  47.601  1.00  0.00    -0.000 C 
BRANCH  16  17
ATOM     17  C   UNL     1       8.188  16.529  47.012  1.00  0.00    -0.000 C 
BRANCH  17  18
ATOM     18  C   UNL     1       7.925  15.493  45.905  1.00  0.00    -0.000 C 
BRANCH  18  19
ATOM     19  C   UNL     1       9.193  15.127  45.120  1.00  0.00    -0.003 C 
ATOM     20  C   UNL     1       8.893  14.081  44.049  1.00  0.00     0.004 C 
ENDBRANCH  18  19
ENDBRANCH  17  18
ENDBRANCH  16  17
ENDBRANCH  15  16
ENDBRANCH  14  15
ENDBRANCH  13  14
ENDBRANCH  12  13
ENDBRANCH   1  12
TORSDOF 16
ENDMDL
MODEL 5
REMARK VINA RESULT:    17.801      5.548     10.908
REMARK INTER + INTRA:          34.533
REMARK INTER:                  34.680
REMARK INTRA:                  -0.148
REMARK UNBOUND:                 0.081
REMARK SMILES CCCCCCCCCCCCCCCCCC(=O)[O-]
REMARK SMILES IDX 10 1 11 2 12 3 13 4 14 5 15 6 16 7 17 8 18 9 19 10 20 11
REMARK SMILES IDX 9 12 8 13 7 14 6 15 5 16 4 17 3 18 2 19 1 20
REMARK H PARENT
REMARK Flexibility Score: inf
ROOT
ATOM      1  C   UNL     1      11.031  13.524  43.507  1.00  0.00     0.000 C 
ENDROOT
BRANCH   1   2
ATOM      2  C   UNL     1       9.517  13.738  43.407  1.00  0.00     0.000 C 
BRANCH   2   3
ATOM      3  C   UNL     1       8.988  14.512  44.623  1.00  0.00     0.000 C 
BRANCH   3   4
ATOM      4  C   UNL     1      10.071  15.367  45.298  1.00  0.00     0.000 C 
BRANCH   4   5
ATOM      5  C   UNL     1       9.713  15.743  46.744  1.00  0.00     0.000 C 
BRANCH   5   6
ATOM      6  C   UNL     1       8.239  16.160  46.854  1.00  0.00     0.000 C 
BRANCH   6   7
ATOM      7  C   UNL     1       7.888  16.739  48.234  1.00  0.00     0.006 C 
BRANCH   7   8
ATOM      8  C   UNL     1       6.541  17.472  48.245  1.00  0.00     0.053 C 
BRANCH   8   9
ATOM      9  C   UNL     1       6.031  17.648  46.849  1.00  0.00     0.041 C 
ATOM     10  O   UNL     1       5.730  16.642  46.154  1.00  0.00    -0.550 OA
ATOM     11  O   UNL     1       5.940  18.920  46.297  1.00  0.00    -0.550 OA
ENDBRANCH   8   9
ENDBRANCH   7   8
ENDBRANCH   6   7
ENDBRANCH   5   6
ENDBRANCH   4   5
ENDBRANCH   3   4
ENDBRANCH   2   3
ENDBRANCH   1   2
BRANCH   1  12
ATOM     12  C   UNL     1      11.536  12.623  42.372  1.00  0.00     0.000 C 
BRANCH  12  13
ATOM     13  C   UNL     1      12.383  11.469  42.921  1.00  0.00    -0.000 C 
BRANCH  13  14
ATOM     14  C   UNL     1      13.627  12.000  43.649  1.00  0.00    -0.000 C 
BRANCH  14  15
ATOM     15  C   UNL     1      14.358  10.912  44.456  1.00  0.00    -0.000 C 
BRANCH  15  16
ATOM     16  C   UNL     1      15.818  11.245  44.824  1.00  0.00    -0.000 C 
BRANCH  16  17
ATOM     17  C   UNL     1      16.000  12.023  46.143  1.00  0.00    -0.000 C 
BRANCH  17  18
ATOM     18  C   UNL     1      14.911  11.771  47.201  1.00  0.00    -0.000 C 
BRANCH  18  19
ATOM     19  C   UNL     1      14.790  12.920  48.214  1.00  0.00    -0.003 C 
ATOM     20  C   UNL     1      16.166  13.414  48.651  1.00  0.00     0.004 C 
ENDBRANCH  18  19
ENDBRANCH  17  18
ENDBRANCH  16  17
ENDBRANCH  15  16
ENDBRANCH  14  15
ENDBRANCH  13  14
ENDBRANCH  12  13
ENDBRANCH   1  12
TORSDOF 16
ENDMDL
MODEL 6
REMARK VINA RESULT:    17.820      5.466     10.249
REMARK INTER + INTRA:          34.568
REMARK INTER:                  35.496
REMARK INTRA:                  -0.927
REMARK UNBOUND:                 0.081
REMARK SMILES CCCCCCCCCCCCCCCCCC(=O)[O-]
REMARK SMILES IDX 10 1 11 2 12 3 13 4 14 5 15 6 16 7 17 8 18 9 19 10 20 11
REMARK SMILES IDX 9 12 8 13 7 14 6 15 5 16 4 17 3 18 2 19 1 20
REMARK H PARENT
REMARK Flexibility Score: inf
ROOT
ATOM      1  C   UNL     1      11.320  13.308  43.271  1.00  0.00     0.000 C 
ENDROOT
BRANCH   1   2
ATOM      2  C   UNL     1      11.919  12.061  42.612  1.00  0.00     0.000 C 
BRANCH   2   3
ATOM      3  C   UNL     1      13.359  11.821  43.091  1.00  0.00     0.000 C 
BRANCH   3   4
ATOM      4  C   UNL     1      13.456  10.698  44.135  1.00  0.00     0.000 C 
BRANCH   4   5
ATOM      5  C   UNL     1      14.873  10.544  44.709  1.00  0.00     0.000 C 
BRANCH   5   6
ATOM      6  C   UNL     1      15.513  11.917  44.964  1.00  0.00     0.000 C 
BRANCH   6   7
ATOM      7  C   UNL     1      16.204  12.003  46.335  1.00  0.00     0.006 C 
BRANCH   7   8
ATOM      8  C   UNL     1      15.231  11.795  47.503  1.00  0.00     0.053 C 
BRANCH   8   9
ATOM      9  C   UNL     1      15.114  13.046  48.315  1.00  0.00     0.041 C 
ATOM     10  O   UNL     1      14.023  13.674  48.356  1.00  0.00    -0.550 OA
ATOM     11  O   UNL     1      16.224  13.548  48.983  1.00  0.00    -0.550 OA
ENDBRANCH   8   9
ENDBRANCH   7   8
ENDBRANCH   6   7
ENDBRANCH   5   6
ENDBRANCH   4   5
ENDBRANCH   3   4
ENDBRANCH   2   3
ENDBRANCH   1   2
BRANCH   1  12
ATOM     12  C   UNL     1       9.809  13.390  43.022  1.00  0.00     0.000 C 
BRANCH  12  13
ATOM     13  C   UNL     1       9.053  13.712  44.316  1.00  0.00    -0.000 C 
BRANCH  13  14
ATOM     14  C   UNL     1       9.475  15.080  44.872  1.00  0.00    -0.000 C 
BRANCH  14  15
ATOM     15  C   UNL     1       8.444  15.672  45.849  1.00  0.00    -0.000 C 
BRANCH  15  16
ATOM     16  C   UNL     1       7.020  15.828  45.277  1.00  0.00    -0.000 C 
BRANCH  16  17
ATOM     17  C   UNL     1       5.970  16.364  46.271  1.00  0.00    -0.000 C 
BRANCH  17  18
ATOM     18  C   UNL     1       6.097  17.861  46.605  1.00  0.00    -0.000 C 
BRANCH  18  19
ATOM     19  C   UNL     1       6.071  18.137  48.116  1.00  0.00    -0.003 C 
ATOM     20  C   UNL     1       7.090  17.270  48.850  1.00  0.00     0.004 C 
ENDBRANCH  18  19
ENDBRANCH  17  18
ENDBRANCH  16  17
ENDBRANCH  15  16
ENDBRANCH  14  15
ENDBRANCH  13  14
ENDBRANCH  12  13
ENDBRANCH   1  12
TORSDOF 16
ENDMDL
