MODEL 1
REMARK VINA RESULT:    -4.921      0.000      0.000
REMARK INTER + INTRA:          -9.875
REMARK INTER:                  -8.373
REMARK INTRA:                  -1.502
REMARK UNBOUND:                -1.502
REMARK SMILES CCCCCCCCCCCCCC(=O)[O-]
REMARK SMILES IDX 8 1 9 2 10 3 11 4 12 5 13 6 14 7 15 8 16 9 7 10 6 11 5 12
REMARK SMILES IDX 4 13 3 14 2 15 1 16
REMARK H PARENT
REMARK Flexibility Score: inf
ROOT
ATOM      1  C   UNL     1      43.605 -12.062 -44.629  1.00  0.00     0.000 C 
ENDROOT
BRANCH   1   2
ATOM      2  C   UNL     1      43.311 -12.473 -43.175  1.00  0.00     0.000 C 
BRANCH   2   3
ATOM      3  C   UNL     1      43.753 -11.405 -42.161  1.00  0.00     0.000 C 
BRANCH   3   4
ATOM      4  C   UNL     1      44.270 -12.017 -40.848  1.00  0.00     0.000 C 
BRANCH   4   5
ATOM      5  C   UNL     1      44.055 -11.090 -39.641  1.00  0.00     0.006 C 
BRANCH   5   6
ATOM      6  C   UNL     1      44.302 -11.800 -38.303  1.00  0.00     0.053 C 
BRANCH   6   7
ATOM      7  C   UNL     1      43.736 -10.996 -37.175  1.00  0.00     0.041 C 
ATOM      8  O   UNL     1      44.096 -11.227 -35.990  1.00  0.00    -0.550 OA
ATOM      9  O   UNL     1      42.847  -9.961 -37.435  1.00  0.00    -0.550 OA
ENDBRANCH   6   7
ENDBRANCH   5   6
ENDBRANCH   4   5
ENDBRANCH   3   4
ENDBRANCH   2   3
ENDBRANCH   1   2
BRANCH   1  10
ATOM     10  C   UNL     1      42.351 -11.573 -45.372  1.00  0.00     0.000 C 
BRANCH  10  11
ATOM     11  C   UNL     1      41.054 -12.170 -44.799  1.00  0.00    -0.000 C 
BRANCH  11  12
ATOM     12  C   UNL     1      40.089 -11.095 -44.276  1.00  0.00    -0.000 C 
BRANCH  12  13
ATOM     13  C   UNL     1      40.702  -9.684 -44.307  1.00  0.00    -0.000 C 
BRANCH  13  14
ATOM     14  C   UNL     1      40.958  -9.119 -42.900  1.00  0.00    -0.000 C 
BRANCH  14  15
ATOM     15  C   UNL     1      40.400 -10.020 -41.788  1.00  0.00    -0.003 C 
ATOM     16  C   UNL     1      40.794  -9.499 -40.410  1.00  0.00     0.004 C 
ENDBRANCH  14  15
ENDBRANCH  13  14
ENDBRANCH  12  13
ENDBRANCH  11  12
ENDBRANCH  10  11
ENDBRANCH   1  10
TORSDOF 12
ENDMDL
MODEL 2
REMARK VINA RESULT:    -4.731      4.941      9.161
REMARK INTER + INTRA:          -9.552
REMARK INTER:                  -7.567
REMARK INTRA:                  -1.985
REMARK UNBOUND:                -1.502
REMARK SMILES CCCCCCCCCCCCCC(=O)[O-]
REMARK SMILES IDX 8 1 9 2 10 3 11 4 12 5 13 6 14 7 15 8 16 9 7 10 6 11 5 12
REMARK SMILES IDX 4 13 3 14 2 15 1 16
REMARK H PARENT
REMARK Flexibility Score: inf
ROOT
ATOM      1  C   UNL     1      44.270 -15.272 -33.995  1.00  0.00     0.000 C 
ENDROOT
BRANCH   1   2
ATOM      2  C   UNL     1      43.814 -14.141 -34.933  1.00  0.00     0.000 C 
BRANCH   2   3
ATOM      3  C   UNL     1      44.016 -12.747 -34.316  1.00  0.00     0.000 C 
BRANCH   3   4
ATOM      4  C   UNL     1      44.151 -11.645 -35.381  1.00  0.00     0.000 C 
BRANCH   4   5
ATOM      5  C   UNL     1      43.702 -12.113 -36.774  1.00  0.00     0.006 C 
BRANCH   5   6
ATOM      6  C   UNL     1      43.732 -10.984 -37.813  1.00  0.00     0.053 C 
BRANCH   6   7
ATOM      7  C   UNL     1      42.431 -10.245 -37.816  1.00  0.00     0.041 C 
ATOM      8  O   UNL     1      42.400  -9.016 -37.544  1.00  0.00    -0.550 OA
ATOM      9  O   UNL     1      41.258 -10.902 -38.168  1.00  0.00    -0.550 OA
ENDBRANCH   6   7
ENDBRANCH   5   6
ENDBRANCH   4   5
ENDBRANCH   3   4
ENDBRANCH   2   3
ENDBRANCH   1   2
BRANCH   1  10
ATOM     10  C   UNL     1      44.919 -14.746 -32.704  1.00  0.00     0.000 C 
BRANCH  10  11
ATOM     11  C   UNL     1      46.444 -14.945 -32.687  1.00  0.00    -0.000 C 
BRANCH  11  12
ATOM     12  C   UNL     1      47.207 -13.640 -32.408  1.00  0.00    -0.000 C 
BRANCH  12  13
ATOM     13  C   UNL     1      47.777 -13.004 -33.688  1.00  0.00    -0.000 C 
BRANCH  13  14
ATOM     14  C   UNL     1      47.793 -13.978 -34.876  1.00  0.00    -0.000 C 
BRANCH  14  15
ATOM     15  C   UNL     1      47.305 -13.332 -36.181  1.00  0.00    -0.003 C 
ATOM     16  C   UNL     1      46.739 -14.379 -37.135  1.00  0.00     0.004 C 
ENDBRANCH  14  15
ENDBRANCH  13  14
ENDBRANCH  12  13
ENDBRANCH  11  12
ENDBRANCH  10  11
ENDBRANCH   1  10
TORSDOF 12
ENDMDL
MODEL 3
REMARK VINA RESULT:    -4.720      2.159      3.469
REMARK INTER + INTRA:          -9.534
REMARK INTER:                  -8.050
REMARK INTRA:                  -1.484
REMARK UNBOUND:                -1.502
REMARK SMILES CCCCCCCCCCCCCC(=O)[O-]
REMARK SMILES IDX 8 1 9 2 10 3 11 4 12 5 13 6 14 7 15 8 16 9 7 10 6 11 5 12
REMARK SMILES IDX 4 13 3 14 2 15 1 16
REMARK H PARENT
REMARK Flexibility Score: inf
ROOT
ATOM      1  C   UNL     1      44.149 -12.302 -41.251  1.00  0.00     0.000 C 
ENDROOT
BRANCH   1   2
ATOM      2  C   UNL     1      44.657 -11.535 -40.017  1.00  0.00     0.000 C 
BRANCH   2   3
ATOM      3  C   UNL     1      46.021 -12.047 -39.527  1.00  0.00     0.000 C 
BRANCH   3   4
ATOM      4  C   UNL     1      45.955 -13.493 -39.003  1.00  0.00     0.000 C 
BRANCH   4   5
ATOM      5  C   UNL     1      46.112 -13.574 -37.476  1.00  0.00     0.006 C 
BRANCH   5   6
ATOM      6  C   UNL     1      44.810 -13.249 -36.732  1.00  0.00     0.053 C 
BRANCH   6   7
ATOM      7  C   UNL     1      45.098 -12.436 -35.510  1.00  0.00     0.041 C 
ATOM      8  O   UNL     1      46.186 -12.581 -34.894  1.00  0.00    -0.550 OA
ATOM      9  O   UNL     1      44.184 -11.482 -35.078  1.00  0.00    -0.550 OA
ENDBRANCH   6   7
ENDBRANCH   5   6
ENDBRANCH   4   5
ENDBRANCH   3   4
ENDBRANCH   2   3
ENDBRANCH   1   2
BRANCH   1  10
ATOM     10  C   UNL     1      43.425 -11.393 -42.257  1.00  0.00     0.000 C 
BRANCH  10  11
ATOM     11  C   UNL     1      42.849 -10.127 -41.600  1.00  0.00    -0.000 C 
BRANCH  11  12
ATOM     12  C   UNL     1      41.323 -10.193 -41.427  1.00  0.00    -0.000 C 
BRANCH  12  13
ATOM     13  C   UNL     1      40.889 -10.064 -39.957  1.00  0.00    -0.000 C 
BRANCH  13  14
ATOM     14  C   UNL     1      41.843  -9.185 -39.133  1.00  0.00    -0.000 C 
BRANCH  14  15
ATOM     15  C   UNL     1      42.315  -9.869 -37.842  1.00  0.00    -0.003 C 
ATOM     16  C   UNL     1      41.702 -11.259 -37.702  1.00  0.00     0.004 C 
ENDBRANCH  14  15
ENDBRANCH  13  14
ENDBRANCH  12  13
ENDBRANCH  11  12
ENDBRANCH  10  11
ENDBRANCH   1  10
TORSDOF 12
ENDMDL
MODEL 4
REMARK VINA RESULT:    -4.715      3.816      8.106
REMARK INTER + INTRA:          -9.525
REMARK INTER:                  -7.568
REMARK INTRA:                  -1.958
REMARK UNBOUND:                -1.502
REMARK SMILES CCCCCCCCCCCCCC(=O)[O-]
REMARK SMILES IDX 8 1 9 2 10 3 11 4 12 5 13 6 14 7 15 8 16 9 7 10 6 11 5 12
REMARK SMILES IDX 4 13 3 14 2 15 1 16
REMARK H PARENT
REMARK Flexibility Score: inf
ROOT
ATOM      1  C   UNL     1      43.222 -12.312 -33.961  1.00  0.00     0.000 C 
ENDROOT
BRANCH   1   2
ATOM      2  C   UNL     1      42.293 -12.935 -35.018  1.00  0.00     0.000 C 
BRANCH   2   3
ATOM      3  C   UNL     1      42.432 -12.262 -36.393  1.00  0.00     0.000 C 
BRANCH   3   4
ATOM      4  C   UNL     1      43.682 -11.369 -36.489  1.00  0.00     0.000 C 
BRANCH   4   5
ATOM      5  C   UNL     1      43.762 -10.608 -37.822  1.00  0.00     0.006 C 
BRANCH   5   6
ATOM      6  C   UNL     1      42.930 -11.269 -38.928  1.00  0.00     0.053 C 
BRANCH   6   7
ATOM      7  C   UNL     1      43.678 -11.252 -40.224  1.00  0.00     0.041 C 
ATOM      8  O   UNL     1      44.182 -12.313 -40.678  1.00  0.00    -0.550 OA
ATOM      9  O   UNL     1      43.779 -10.074 -40.954  1.00  0.00    -0.550 OA
ENDBRANCH   6   7
ENDBRANCH   5   6
ENDBRANCH   4   5
ENDBRANCH   3   4
ENDBRANCH   2   3
ENDBRANCH   1   2
BRANCH   1  10
ATOM     10  C   UNL     1      43.911 -13.368 -33.081  1.00  0.00     0.000 C 
BRANCH  10  11
ATOM     11  C   UNL     1      44.591 -14.472 -33.907  1.00  0.00    -0.000 C 
BRANCH  11  12
ATOM     12  C   UNL     1      46.066 -14.161 -34.208  1.00  0.00    -0.000 C 
BRANCH  12  13
ATOM     13  C   UNL     1      46.297 -13.753 -35.673  1.00  0.00    -0.000 C 
BRANCH  13  14
ATOM     14  C   UNL     1      45.444 -14.571 -36.656  1.00  0.00    -0.000 C 
BRANCH  14  15
ATOM     15  C   UNL     1      45.652 -14.147 -38.118  1.00  0.00    -0.003 C 
ATOM     16  C   UNL     1      46.749 -13.093 -38.232  1.00  0.00     0.004 C 
ENDBRANCH  14  15
ENDBRANCH  13  14
ENDBRANCH  12  13
ENDBRANCH  11  12
ENDBRANCH  10  11
ENDBRANCH   1  10
TORSDOF 12
ENDMDL
MODEL 5
REMARK VINA RESULT:    -4.710      2.924      6.224
REMARK INTER + INTRA:          -9.515
REMARK INTER:                  -8.108
REMARK INTRA:                  -1.408
REMARK UNBOUND:                -1.502
REMARK SMILES CCCCCCCCCCCCCC(=O)[O-]
REMARK SMILES IDX 8 1 9 2 10 3 11 4 12 5 13 6 14 7 15 8 16 9 7 10 6 11 5 12
REMARK SMILES IDX 4 13 3 14 2 15 1 16
REMARK H PARENT
REMARK Flexibility Score: inf
ROOT
ATOM      1  C   UNL     1      41.815  -9.158 -39.179  1.00  0.00     0.000 C 
ENDROOT
BRANCH   1   2
ATOM      2  C   UNL     1      41.108 -10.133 -40.138  1.00  0.00     0.000 C 
BRANCH   2   3
ATOM      3  C   UNL     1      41.833 -10.260 -41.488  1.00  0.00     0.000 C 
BRANCH   3   4
ATOM      4  C   UNL     1      43.364 -10.239 -41.338  1.00  0.00     0.000 C 
BRANCH   4   5
ATOM      5  C   UNL     1      43.935 -11.605 -40.924  1.00  0.00     0.006 C 
BRANCH   5   6
ATOM      6  C   UNL     1      44.894 -11.504 -39.731  1.00  0.00     0.053 C 
BRANCH   6   7
ATOM      7  C   UNL     1      45.859 -12.647 -39.740  1.00  0.00     0.041 C 
ATOM      8  O   UNL     1      45.436 -13.833 -39.765  1.00  0.00    -0.550 OA
ATOM      9  O   UNL     1      47.227 -12.404 -39.769  1.00  0.00    -0.550 OA
ENDBRANCH   6   7
ENDBRANCH   5   6
ENDBRANCH   4   5
ENDBRANCH   3   4
ENDBRANCH   2   3
ENDBRANCH   1   2
BRANCH   1  10
ATOM     10  C   UNL     1      42.258  -9.832 -37.870  1.00  0.00     0.000 C 
BRANCH  10  11
ATOM     11  C   UNL     1      41.604 -11.208 -37.664  1.00  0.00    -0.000 C 
BRANCH  11  12
ATOM     12  C   UNL     1      42.270 -12.016 -36.538  1.00  0.00    -0.000 C 
BRANCH  12  13
ATOM     13  C   UNL     1      43.710 -11.557 -36.254  1.00  0.00    -0.000 C 
BRANCH  13  14
ATOM     14  C   UNL     1      44.695 -12.733 -36.147  1.00  0.00    -0.000 C 
BRANCH  14  15
ATOM     15  C   UNL     1      44.711 -13.369 -34.750  1.00  0.00    -0.003 C 
ATOM     16  C   UNL     1      44.198 -14.805 -34.795  1.00  0.00     0.004 C 
ENDBRANCH  14  15
ENDBRANCH  13  14
ENDBRANCH  12  13
ENDBRANCH  11  12
ENDBRANCH  10  11
ENDBRANCH   1  10
TORSDOF 12
ENDMDL
MODEL 6
REMARK VINA RESULT:    -4.702      1.944      2.105
REMARK INTER + INTRA:          -9.503
REMARK INTER:                  -7.994
REMARK INTRA:                  -1.509
REMARK UNBOUND:                -1.502
REMARK SMILES CCCCCCCCCCCCCC(=O)[O-]
REMARK SMILES IDX 8 1 9 2 10 3 11 4 12 5 13 6 14 7 15 8 16 9 7 10 6 11 5 12
REMARK SMILES IDX 4 13 3 14 2 15 1 16
REMARK H PARENT
REMARK Flexibility Score: inf
ROOT
ATOM      1  C   UNL     1      43.688 -12.173 -44.272  1.00  0.00     0.000 C 
ENDROOT
BRANCH   1   2
ATOM      2  C   UNL     1      43.319 -12.495 -42.813  1.00  0.00     0.000 C 
BRANCH   2   3
ATOM      3  C   UNL     1      43.887 -11.465 -41.822  1.00  0.00     0.000 C 
BRANCH   3   4
ATOM      4  C   UNL     1      43.455 -11.742 -40.371  1.00  0.00     0.000 C 
BRANCH   4   5
ATOM      5  C   UNL     1      44.402 -11.104 -39.342  1.00  0.00     0.006 C 
BRANCH   5   6
ATOM      6  C   UNL     1      44.998 -12.133 -38.373  1.00  0.00     0.053 C 
BRANCH   6   7
ATOM      7  C   UNL     1      45.926 -13.056 -39.099  1.00  0.00     0.041 C 
ATOM      8  O   UNL     1      45.738 -14.300 -39.063  1.00  0.00    -0.550 OA
ATOM      9  O   UNL     1      46.971 -12.539 -39.854  1.00  0.00    -0.550 OA
ENDBRANCH   6   7
ENDBRANCH   5   6
ENDBRANCH   4   5
ENDBRANCH   3   4
ENDBRANCH   2   3
ENDBRANCH   1   2
BRANCH   1  10
ATOM     10  C   UNL     1      42.468 -11.767 -45.116  1.00  0.00     0.000 C 
BRANCH  10  11
ATOM     11  C   UNL     1      41.138 -11.992 -44.377  1.00  0.00    -0.000 C 
BRANCH  11  12
ATOM     12  C   UNL     1      40.129 -10.858 -44.618  1.00  0.00    -0.000 C 
BRANCH  12  13
ATOM     13  C   UNL     1      40.398  -9.629 -43.733  1.00  0.00    -0.000 C 
BRANCH  13  14
ATOM     14  C   UNL     1      40.533  -9.991 -42.245  1.00  0.00    -0.000 C 
BRANCH  14  15
ATOM     15  C   UNL     1      41.277  -8.917 -41.438  1.00  0.00    -0.003 C 
ATOM     16  C   UNL     1      41.073  -9.117 -39.939  1.00  0.00     0.004 C 
ENDBRANCH  14  15
ENDBRANCH  13  14
ENDBRANCH  12  13
ENDBRANCH  11  12
ENDBRANCH  10  11
ENDBRANCH   1  10
TORSDOF 12
ENDMDL
MODEL 7
REMARK VINA RESULT:    -4.640      3.727      6.088
REMARK INTER + INTRA:          -9.397
REMARK INTER:                  -7.868
REMARK INTRA:                  -1.529
REMARK UNBOUND:                -1.502
REMARK SMILES CCCCCCCCCCCCCC(=O)[O-]
REMARK SMILES IDX 8 1 9 2 10 3 11 4 12 5 13 6 14 7 15 8 16 9 7 10 6 11 5 12
REMARK SMILES IDX 4 13 3 14 2 15 1 16
REMARK H PARENT
REMARK Flexibility Score: inf
ROOT
ATOM      1  C   UNL     1      42.829 -10.132 -37.502  1.00  0.00     0.000 C 
ENDROOT
BRANCH   1   2
ATOM      2  C   UNL     1      42.882 -11.489 -36.778  1.00  0.00     0.000 C 
BRANCH   2   3
ATOM      3  C   UNL     1      44.162 -11.662 -35.945  1.00  0.00     0.000 C 
BRANCH   3   4
ATOM      4  C   UNL     1      43.883 -12.247 -34.549  1.00  0.00     0.000 C 
BRANCH   4   5
ATOM      5  C   UNL     1      43.267 -13.653 -34.612  1.00  0.00     0.006 C 
BRANCH   5   6
ATOM      6  C   UNL     1      44.235 -14.694 -35.190  1.00  0.00     0.053 C 
BRANCH   6   7
ATOM      7  C   UNL     1      45.494 -14.741 -34.383  1.00  0.00     0.041 C 
ATOM      8  O   UNL     1      45.471 -15.167 -33.198  1.00  0.00    -0.550 OA
ATOM      9  O   UNL     1      46.701 -14.359 -34.954  1.00  0.00    -0.550 OA
ENDBRANCH   6   7
ENDBRANCH   5   6
ENDBRANCH   4   5
ENDBRANCH   3   4
ENDBRANCH   2   3
ENDBRANCH   1   2
BRANCH   1  10
ATOM     10  C   UNL     1      41.902 -10.150 -38.729  1.00  0.00     0.000 C 
BRANCH  10  11
ATOM     11  C   UNL     1      42.296 -11.230 -39.751  1.00  0.00    -0.000 C 
BRANCH  11  12
ATOM     12  C   UNL     1      43.532 -10.839 -40.576  1.00  0.00    -0.000 C 
BRANCH  12  13
ATOM     13  C   UNL     1      44.657 -11.885 -40.489  1.00  0.00    -0.000 C 
BRANCH  13  14
ATOM     14  C   UNL     1      45.732 -11.512 -39.455  1.00  0.00    -0.000 C 
BRANCH  14  15
ATOM     15  C   UNL     1      46.619 -12.703 -39.065  1.00  0.00    -0.003 C 
ATOM     16  C   UNL     1      45.783 -13.851 -38.507  1.00  0.00     0.004 C 
ENDBRANCH  14  15
ENDBRANCH  13  14
ENDBRANCH  12  13
ENDBRANCH  11  12
ENDBRANCH  10  11
ENDBRANCH   1  10
TORSDOF 12
ENDMDL
MODEL 8
REMARK VINA RESULT:    -4.634      2.478      5.091
REMARK INTER + INTRA:          -9.387
REMARK INTER:                  -7.785
REMARK INTRA:                  -1.602
REMARK UNBOUND:                -1.502
REMARK SMILES CCCCCCCCCCCCCC(=O)[O-]
REMARK SMILES IDX 8 1 9 2 10 3 11 4 12 5 13 6 14 7 15 8 16 9 7 10 6 11 5 12
REMARK SMILES IDX 4 13 3 14 2 15 1 16
REMARK H PARENT
REMARK Flexibility Score: inf
ROOT
ATOM      1  C   UNL     1      41.757 -10.472 -41.298  1.00  0.00     0.000 C 
ENDROOT
BRANCH   1   2
ATOM      2  C   UNL     1      41.221 -10.254 -39.872  1.00  0.00     0.000 C 
BRANCH   2   3
ATOM      3  C   UNL     1      41.771  -8.972 -39.226  1.00  0.00     0.000 C 
BRANCH   3   4
ATOM      4  C   UNL     1      42.507  -9.247 -37.903  1.00  0.00     0.000 C 
BRANCH   4   5
ATOM      5  C   UNL     1      42.420 -10.720 -37.476  1.00  0.00     0.006 C 
BRANCH   5   6
ATOM      6  C   UNL     1      43.642 -11.171 -36.666  1.00  0.00     0.053 C 
BRANCH   6   7
ATOM      7  C   UNL     1      43.216 -12.000 -35.496  1.00  0.00     0.041 C 
ATOM      8  O   UNL     1      42.101 -12.586 -35.508  1.00  0.00    -0.550 OA
ATOM      9  O   UNL     1      44.069 -12.166 -34.411  1.00  0.00    -0.550 OA
ENDBRANCH   6   7
ENDBRANCH   5   6
ENDBRANCH   4   5
ENDBRANCH   3   4
ENDBRANCH   2   3
ENDBRANCH   1   2
BRANCH   1  10
ATOM     10  C   UNL     1      43.287 -10.346 -41.383  1.00  0.00     0.000 C 
BRANCH  10  11
ATOM     11  C   UNL     1      43.980 -11.703 -41.589  1.00  0.00    -0.000 C 
BRANCH  11  12
ATOM     12  C   UNL     1      44.456 -12.330 -40.269  1.00  0.00    -0.000 C 
BRANCH  12  13
ATOM     13  C   UNL     1      45.751 -11.688 -39.742  1.00  0.00    -0.000 C 
BRANCH  13  14
ATOM     14  C   UNL     1      46.621 -12.677 -38.951  1.00  0.00    -0.000 C 
BRANCH  14  15
ATOM     15  C   UNL     1      45.822 -13.873 -38.413  1.00  0.00    -0.003 C 
ATOM     16  C   UNL     1      46.167 -14.153 -36.954  1.00  0.00     0.004 C 
ENDBRANCH  14  15
ENDBRANCH  13  14
ENDBRANCH  12  13
ENDBRANCH  11  12
ENDBRANCH  10  11
ENDBRANCH   1  10
TORSDOF 12
ENDMDL
MODEL 9
REMARK VINA RESULT:    -4.590      4.641      6.917
REMARK INTER + INTRA:          -9.313
REMARK INTER:                  -7.662
REMARK INTRA:                  -1.650
REMARK UNBOUND:                -1.502
REMARK SMILES CCCCCCCCCCCCCC(=O)[O-]
REMARK SMILES IDX 8 1 9 2 10 3 11 4 12 5 13 6 14 7 15 8 16 9 7 10 6 11 5 12
REMARK SMILES IDX 4 13 3 14 2 15 1 16
REMARK H PARENT
REMARK Flexibility Score: inf
ROOT
ATOM      1  C   UNL     1      42.854 -12.631 -35.383  1.00  0.00     0.000 C 
ENDROOT
BRANCH   1   2
ATOM      2  C   UNL     1      43.143 -14.128 -35.173  1.00  0.00     0.000 C 
BRANCH   2   3
ATOM      3  C   UNL     1      44.281 -14.639 -36.072  1.00  0.00     0.000 C 
BRANCH   3   4
ATOM      4  C   UNL     1      45.447 -13.639 -36.171  1.00  0.00     0.000 C 
BRANCH   4   5
ATOM      5  C   UNL     1      46.727 -14.157 -35.494  1.00  0.00     0.006 C 
BRANCH   5   6
ATOM      6  C   UNL     1      46.997 -13.474 -34.148  1.00  0.00     0.053 C 
BRANCH   6   7
ATOM      7  C   UNL     1      46.874 -14.459 -33.029  1.00  0.00     0.041 C 
ATOM      8  O   UNL     1      47.751 -14.505 -32.126  1.00  0.00    -0.550 OA
ATOM      9  O   UNL     1      45.767 -15.295 -32.956  1.00  0.00    -0.550 OA
ENDBRANCH   6   7
ENDBRANCH   5   6
ENDBRANCH   4   5
ENDBRANCH   3   4
ENDBRANCH   2   3
ENDBRANCH   1   2
BRANCH   1  10
ATOM     10  C   UNL     1      41.635 -12.384 -36.287  1.00  0.00     0.000 C 
BRANCH  10  11
ATOM     11  C   UNL     1      41.988 -11.565 -37.541  1.00  0.00    -0.000 C 
BRANCH  11  12
ATOM     12  C   UNL     1      43.117 -10.554 -37.288  1.00  0.00    -0.000 C 
BRANCH  12  13
ATOM     13  C   UNL     1      44.272 -10.694 -38.296  1.00  0.00    -0.000 C 
BRANCH  13  14
ATOM     14  C   UNL     1      43.903 -11.578 -39.498  1.00  0.00    -0.000 C 
BRANCH  14  15
ATOM     15  C   UNL     1      44.971 -12.638 -39.805  1.00  0.00    -0.003 C 
ATOM     16  C   UNL     1      46.371 -12.107 -39.512  1.00  0.00     0.004 C 
ENDBRANCH  14  15
ENDBRANCH  13  14
ENDBRANCH  12  13
ENDBRANCH  11  12
ENDBRANCH  10  11
ENDBRANCH   1  10
TORSDOF 12
ENDMDL
