MODEL 1
REMARK VINA RESULT:    -5.088      0.000      0.000
REMARK INTER + INTRA:          -9.308
REMARK INTER:                  -8.657
REMARK INTRA:                  -0.651
REMARK UNBOUND:                -0.651
REMARK SMILES CCCCCCCCCCCCCC(=O)[O-]
REMARK SMILES IDX 8 1 9 2 10 3 11 4 12 5 13 6 14 7 15 8 16 9 7 10 6 11 5 12
REMARK SMILES IDX 4 13 3 14 2 15 1 16
REMARK H PARENT
REMARK Flexibility Score: inf
ROOT
ATOM      1  C   UNL     1      81.516  60.240  10.555  1.00  0.00     0.000 C 
ENDROOT
BRANCH   1   2
ATOM      2  C   UNL     1      82.699  59.266  10.413  1.00  0.00     0.000 C 
BRANCH   2   3
ATOM      3  C   UNL     1      84.044  59.985  10.204  1.00  0.00     0.000 C 
BRANCH   3   4
ATOM      4  C   UNL     1      84.556  60.782  11.418  1.00  0.00     0.000 C 
BRANCH   4   5
ATOM      5  C   UNL     1      84.506  59.976  12.728  1.00  0.00     0.006 C 
BRANCH   5   6
ATOM      6  C   UNL     1      85.633  60.370  13.692  1.00  0.00     0.053 C 
BRANCH   6   7
ATOM      7  C   UNL     1      85.151  61.305  14.758  1.00  0.00     0.041 C 
ATOM      8  O   UNL     1      85.923  62.184  15.226  1.00  0.00    -0.550 OA
ATOM      9  O   UNL     1      83.843  61.224  15.216  1.00  0.00    -0.550 OA
ENDBRANCH   6   7
ENDBRANCH   5   6
ENDBRANCH   4   5
ENDBRANCH   3   4
ENDBRANCH   2   3
ENDBRANCH   1   2
BRANCH   1  10
ATOM     10  C   UNL     1      80.163  59.566  10.273  1.00  0.00     0.000 C 
BRANCH  10  11
ATOM     11  C   UNL     1      80.183  58.057  10.576  1.00  0.00    -0.000 C 
BRANCH  11  12
ATOM     12  C   UNL     1      78.820  57.383  10.339  1.00  0.00    -0.000 C 
BRANCH  12  13
ATOM     13  C   UNL     1      78.882  55.888   9.962  1.00  0.00    -0.000 C 
BRANCH  13  14
ATOM     14  C   UNL     1      78.171  55.517   8.648  1.00  0.00    -0.000 C 
BRANCH  14  15
ATOM     15  C   UNL     1      77.490  56.719   7.980  1.00  0.00    -0.003 C 
ATOM     16  C   UNL     1      77.936  56.866   6.527  1.00  0.00     0.004 C 
ENDBRANCH  14  15
ENDBRANCH  13  14
ENDBRANCH  12  13
ENDBRANCH  11  12
ENDBRANCH  10  11
ENDBRANCH   1  10
TORSDOF 12
ENDMDL
MODEL 2
REMARK VINA RESULT:    -4.976      3.359      3.724
REMARK INTER + INTRA:          -9.119
REMARK INTER:                  -8.533
REMARK INTRA:                  -0.586
REMARK UNBOUND:                -0.651
REMARK SMILES CCCCCCCCCCCCCC(=O)[O-]
REMARK SMILES IDX 8 1 9 2 10 3 11 4 12 5 13 6 14 7 15 8 16 9 7 10 6 11 5 12
REMARK SMILES IDX 4 13 3 14 2 15 1 16
REMARK H PARENT
REMARK Flexibility Score: inf
ROOT
ATOM      1  C   UNL     1      81.859  59.063  10.942  1.00  0.00     0.000 C 
ENDROOT
BRANCH   1   2
ATOM      2  C   UNL     1      83.121  59.941  10.883  1.00  0.00     0.000 C 
BRANCH   2   3
ATOM      3  C   UNL     1      84.178  59.407   9.899  1.00  0.00     0.000 C 
BRANCH   3   4
ATOM      4  C   UNL     1      85.550  60.103   9.970  1.00  0.00     0.000 C 
BRANCH   4   5
ATOM      5  C   UNL     1      86.722  59.147   9.691  1.00  0.00     0.006 C 
BRANCH   5   6
ATOM      6  C   UNL     1      86.954  58.163  10.846  1.00  0.00     0.053 C 
BRANCH   6   7
ATOM      7  C   UNL     1      87.775  56.986  10.417  1.00  0.00     0.041 C 
ATOM      8  O   UNL     1      87.523  55.838  10.869  1.00  0.00    -0.550 OA
ATOM      9  O   UNL     1      88.803  57.153   9.497  1.00  0.00    -0.550 OA
ENDBRANCH   6   7
ENDBRANCH   5   6
ENDBRANCH   4   5
ENDBRANCH   3   4
ENDBRANCH   2   3
ENDBRANCH   1   2
BRANCH   1  10
ATOM     10  C   UNL     1      80.615  59.785  10.399  1.00  0.00     0.000 C 
BRANCH  10  11
ATOM     11  C   UNL     1      79.486  58.809  10.020  1.00  0.00    -0.000 C 
BRANCH  11  12
ATOM     12  C   UNL     1      79.620  57.444  10.719  1.00  0.00    -0.000 C 
BRANCH  12  13
ATOM     13  C   UNL     1      78.570  56.391  10.311  1.00  0.00    -0.000 C 
BRANCH  13  14
ATOM     14  C   UNL     1      77.662  56.797   9.135  1.00  0.00    -0.000 C 
BRANCH  14  15
ATOM     15  C   UNL     1      78.054  56.114   7.817  1.00  0.00    -0.003 C 
ATOM     16  C   UNL     1      77.738  57.009   6.621  1.00  0.00     0.004 C 
ENDBRANCH  14  15
ENDBRANCH  13  14
ENDBRANCH  12  13
ENDBRANCH  11  12
ENDBRANCH  10  11
ENDBRANCH   1  10
TORSDOF 12
ENDMDL
MODEL 3
REMARK VINA RESULT:    -4.939      4.782      8.442
REMARK INTER + INTRA:          -9.056
REMARK INTER:                  -8.361
REMARK INTRA:                  -0.695
REMARK UNBOUND:                -0.651
REMARK SMILES CCCCCCCCCCCCCC(=O)[O-]
REMARK SMILES IDX 8 1 9 2 10 3 11 4 12 5 13 6 14 7 15 8 16 9 7 10 6 11 5 12
REMARK SMILES IDX 4 13 3 14 2 15 1 16
REMARK H PARENT
REMARK Flexibility Score: inf
ROOT
ATOM      1  C   UNL     1      82.214  59.388  10.908  1.00  0.00     0.000 C 
ENDROOT
BRANCH   1   2
ATOM      2  C   UNL     1      80.733  59.792  10.796  1.00  0.00     0.000 C 
BRANCH   2   3
ATOM      3  C   UNL     1      79.910  58.819   9.933  1.00  0.00     0.000 C 
BRANCH   3   4
ATOM      4  C   UNL     1      79.333  57.605  10.685  1.00  0.00     0.000 C 
BRANCH   4   5
ATOM      5  C   UNL     1      78.876  56.479   9.743  1.00  0.00     0.006 C 
BRANCH   5   6
ATOM      6  C   UNL     1      77.684  56.900   8.872  1.00  0.00     0.053 C 
BRANCH   6   7
ATOM      7  C   UNL     1      77.721  56.245   7.526  1.00  0.00     0.041 C 
ATOM      8  O   UNL     1      77.690  54.989   7.431  1.00  0.00    -0.550 OA
ATOM      9  O   UNL     1      77.762  57.020   6.374  1.00  0.00    -0.550 OA
ENDBRANCH   6   7
ENDBRANCH   5   6
ENDBRANCH   4   5
ENDBRANCH   3   4
ENDBRANCH   2   3
ENDBRANCH   1   2
BRANCH   1  10
ATOM     10  C   UNL     1      83.156  60.426  10.274  1.00  0.00     0.000 C 
BRANCH  10  11
ATOM     11  C   UNL     1      82.456  61.771  10.011  1.00  0.00    -0.000 C 
BRANCH  11  12
ATOM     12  C   UNL     1      83.450  62.920   9.762  1.00  0.00    -0.000 C 
BRANCH  12  13
ATOM     13  C   UNL     1      84.921  62.602  10.098  1.00  0.00    -0.000 C 
BRANCH  13  14
ATOM     14  C   UNL     1      85.960  63.303   9.205  1.00  0.00    -0.000 C 
BRANCH  14  15
ATOM     15  C   UNL     1      85.508  63.416   7.742  1.00  0.00    -0.003 C 
ATOM     16  C   UNL     1      85.646  62.079   7.019  1.00  0.00     0.004 C 
ENDBRANCH  14  15
ENDBRANCH  13  14
ENDBRANCH  12  13
ENDBRANCH  11  12
ENDBRANCH  10  11
ENDBRANCH   1  10
TORSDOF 12
ENDMDL
MODEL 4
REMARK VINA RESULT:    -4.895      3.320      3.999
REMARK INTER + INTRA:          -8.981
REMARK INTER:                  -8.257
REMARK INTRA:                  -0.724
REMARK UNBOUND:                -0.651
REMARK SMILES CCCCCCCCCCCCCC(=O)[O-]
REMARK SMILES IDX 8 1 9 2 10 3 11 4 12 5 13 6 14 7 15 8 16 9 7 10 6 11 5 12
REMARK SMILES IDX 4 13 3 14 2 15 1 16
REMARK H PARENT
REMARK Flexibility Score: inf
ROOT
ATOM      1  C   UNL     1      81.611  59.114  10.867  1.00  0.00     0.000 C 
ENDROOT
BRANCH   1   2
ATOM      2  C   UNL     1      82.844  59.979  10.551  1.00  0.00     0.000 C 
BRANCH   2   3
ATOM      3  C   UNL     1      82.477  61.383  10.038  1.00  0.00     0.000 C 
BRANCH   3   4
ATOM      4  C   UNL     1      83.656  62.365   9.917  1.00  0.00     0.000 C 
BRANCH   4   5
ATOM      5  C   UNL     1      84.961  61.683   9.471  1.00  0.00     0.006 C 
BRANCH   5   6
ATOM      6  C   UNL     1      85.289  61.968   7.999  1.00  0.00     0.053 C 
BRANCH   6   7
ATOM      7  C   UNL     1      85.788  63.367   7.802  1.00  0.00     0.041 C 
ATOM      8  O   UNL     1      86.837  63.753   8.384  1.00  0.00    -0.550 OA
ATOM      9  O   UNL     1      85.112  64.235   6.956  1.00  0.00    -0.550 OA
ENDBRANCH   6   7
ENDBRANCH   5   6
ENDBRANCH   4   5
ENDBRANCH   3   4
ENDBRANCH   2   3
ENDBRANCH   1   2
BRANCH   1  10
ATOM     10  C   UNL     1      80.308  59.734  10.335  1.00  0.00     0.000 C 
BRANCH  10  11
ATOM     11  C   UNL     1      79.238  58.673  10.019  1.00  0.00    -0.000 C 
BRANCH  11  12
ATOM     12  C   UNL     1      79.618  57.273  10.534  1.00  0.00    -0.000 C 
BRANCH  12  13
ATOM     13  C   UNL     1      78.882  56.100   9.853  1.00  0.00    -0.000 C 
BRANCH  13  14
ATOM     14  C   UNL     1      77.750  56.509   8.894  1.00  0.00    -0.000 C 
BRANCH  14  15
ATOM     15  C   UNL     1      77.766  55.715   7.581  1.00  0.00    -0.003 C 
ATOM     16  C   UNL     1      78.393  54.337   7.780  1.00  0.00     0.004 C 
ENDBRANCH  14  15
ENDBRANCH  13  14
ENDBRANCH  12  13
ENDBRANCH  11  12
ENDBRANCH  10  11
ENDBRANCH   1  10
TORSDOF 12
ENDMDL
MODEL 5
REMARK VINA RESULT:    -4.891      4.060      7.282
REMARK INTER + INTRA:          -8.973
REMARK INTER:                  -7.960
REMARK INTRA:                  -1.013
REMARK UNBOUND:                -0.651
REMARK SMILES CCCCCCCCCCCCCC(=O)[O-]
REMARK SMILES IDX 8 1 9 2 10 3 11 4 12 5 13 6 14 7 15 8 16 9 7 10 6 11 5 12
REMARK SMILES IDX 4 13 3 14 2 15 1 16
REMARK H PARENT
REMARK Flexibility Score: inf
ROOT
ATOM      1  C   UNL     1      77.865  56.810   8.618  1.00  0.00     0.000 C 
ENDROOT
BRANCH   1   2
ATOM      2  C   UNL     1      77.936  55.830   7.434  1.00  0.00     0.000 C 
BRANCH   2   3
ATOM      3  C   UNL     1      78.214  54.380   7.873  1.00  0.00     0.000 C 
BRANCH   3   4
ATOM      4  C   UNL     1      79.659  53.895   7.650  1.00  0.00     0.000 C 
BRANCH   4   5
ATOM      5  C   UNL     1      80.230  53.138   8.861  1.00  0.00     0.006 C 
BRANCH   5   6
ATOM      6  C   UNL     1      81.102  54.038   9.747  1.00  0.00     0.053 C 
BRANCH   6   7
ATOM      7  C   UNL     1      82.213  53.271  10.396  1.00  0.00     0.041 C 
ATOM      8  O   UNL     1      83.388  53.357   9.950  1.00  0.00    -0.550 OA
ATOM      9  O   UNL     1      81.956  52.482  11.509  1.00  0.00    -0.550 OA
ENDBRANCH   6   7
ENDBRANCH   5   6
ENDBRANCH   4   5
ENDBRANCH   3   4
ENDBRANCH   2   3
ENDBRANCH   1   2
BRANCH   1  10
ATOM     10  C   UNL     1      78.078  56.113   9.972  1.00  0.00     0.000 C 
BRANCH  10  11
ATOM     11  C   UNL     1      78.967  56.935  10.923  1.00  0.00    -0.000 C 
BRANCH  11  12
ATOM     12  C   UNL     1      79.365  58.301  10.335  1.00  0.00    -0.000 C 
BRANCH  12  13
ATOM     13  C   UNL     1      80.788  58.780  10.689  1.00  0.00    -0.000 C 
BRANCH  13  14
ATOM     14  C   UNL     1      81.098  60.238  10.308  1.00  0.00    -0.000 C 
BRANCH  14  15
ATOM     15  C   UNL     1      82.585  60.590  10.460  1.00  0.00    -0.003 C 
ATOM     16  C   UNL     1      83.451  59.333  10.443  1.00  0.00     0.004 C 
ENDBRANCH  14  15
ENDBRANCH  13  14
ENDBRANCH  12  13
ENDBRANCH  11  12
ENDBRANCH  10  11
ENDBRANCH   1  10
TORSDOF 12
ENDMDL
MODEL 6
REMARK VINA RESULT:    -4.887      4.600      8.183
REMARK INTER + INTRA:          -8.967
REMARK INTER:                  -8.264
REMARK INTRA:                  -0.704
REMARK UNBOUND:                -0.651
REMARK SMILES CCCCCCCCCCCCCC(=O)[O-]
REMARK SMILES IDX 8 1 9 2 10 3 11 4 12 5 13 6 14 7 15 8 16 9 7 10 6 11 5 12
REMARK SMILES IDX 4 13 3 14 2 15 1 16
REMARK H PARENT
REMARK Flexibility Score: inf
ROOT
ATOM      1  C   UNL     1      81.867  58.986  10.799  1.00  0.00     0.000 C 
ENDROOT
BRANCH   1   2
ATOM      2  C   UNL     1      80.582  59.695  10.335  1.00  0.00     0.000 C 
BRANCH   2   3
ATOM      3  C   UNL     1      79.405  58.725  10.124  1.00  0.00     0.000 C 
BRANCH   3   4
ATOM      4  C   UNL     1      79.740  57.236  10.327  1.00  0.00     0.000 C 
BRANCH   4   5
ATOM      5  C   UNL     1      78.506  56.324  10.213  1.00  0.00     0.006 C 
BRANCH   5   6
ATOM      6  C   UNL     1      77.505  56.833   9.167  1.00  0.00     0.053 C 
BRANCH   6   7
ATOM      7  C   UNL     1      77.729  56.198   7.829  1.00  0.00     0.041 C 
ATOM      8  O   UNL     1      77.863  54.949   7.734  1.00  0.00    -0.550 OA
ATOM      9  O   UNL     1      77.764  56.983   6.683  1.00  0.00    -0.550 OA
ENDBRANCH   6   7
ENDBRANCH   5   6
ENDBRANCH   4   5
ENDBRANCH   3   4
ENDBRANCH   2   3
ENDBRANCH   1   2
BRANCH   1  10
ATOM     10  C   UNL     1      82.899  59.964  11.384  1.00  0.00     0.000 C 
BRANCH  10  11
ATOM     11  C   UNL     1      83.619  60.780  10.296  1.00  0.00    -0.000 C 
BRANCH  11  12
ATOM     12  C   UNL     1      84.784  60.011   9.647  1.00  0.00    -0.000 C 
BRANCH  12  13
ATOM     13  C   UNL     1      85.878  59.530  10.623  1.00  0.00    -0.000 C 
BRANCH  13  14
ATOM     14  C   UNL     1      85.896  58.014  10.886  1.00  0.00    -0.000 C 
BRANCH  14  15
ATOM     15  C   UNL     1      87.273  57.383  10.641  1.00  0.00    -0.003 C 
ATOM     16  C   UNL     1      88.011  58.097   9.511  1.00  0.00     0.004 C 
ENDBRANCH  14  15
ENDBRANCH  13  14
ENDBRANCH  12  13
ENDBRANCH  11  12
ENDBRANCH  10  11
ENDBRANCH   1  10
TORSDOF 12
ENDMDL
MODEL 7
REMARK VINA RESULT:    -4.855      5.430      6.906
REMARK INTER + INTRA:          -8.911
REMARK INTER:                  -7.420
REMARK INTRA:                  -1.492
REMARK UNBOUND:                -0.651
REMARK SMILES CCCCCCCCCCCCCC(=O)[O-]
REMARK SMILES IDX 8 1 9 2 10 3 11 4 12 5 13 6 14 7 15 8 16 9 7 10 6 11 5 12
REMARK SMILES IDX 4 13 3 14 2 15 1 16
REMARK H PARENT
REMARK Flexibility Score: inf
ROOT
ATOM      1  C   UNL     1      78.033  56.037   7.668  1.00  0.00     0.000 C 
ENDROOT
BRANCH   1   2
ATOM      2  C   UNL     1      77.585  56.725   8.970  1.00  0.00     0.000 C 
BRANCH   2   3
ATOM      3  C   UNL     1      78.725  57.488   9.667  1.00  0.00     0.000 C 
BRANCH   3   4
ATOM      4  C   UNL     1      79.452  56.707  10.778  1.00  0.00     0.000 C 
BRANCH   4   5
ATOM      5  C   UNL     1      78.499  56.191  11.869  1.00  0.00     0.006 C 
BRANCH   5   6
ATOM      6  C   UNL     1      79.173  55.159  12.785  1.00  0.00     0.053 C 
BRANCH   6   7
ATOM      7  C   UNL     1      78.365  54.901  14.019  1.00  0.00     0.041 C 
ATOM      8  O   UNL     1      78.432  53.784  14.598  1.00  0.00    -0.550 OA
ATOM      9  O   UNL     1      77.559  55.901  14.546  1.00  0.00    -0.550 OA
ENDBRANCH   6   7
ENDBRANCH   5   6
ENDBRANCH   4   5
ENDBRANCH   3   4
ENDBRANCH   2   3
ENDBRANCH   1   2
BRANCH   1  10
ATOM     10  C   UNL     1      77.767  54.523   7.683  1.00  0.00     0.000 C 
BRANCH  10  11
ATOM     11  C   UNL     1      79.000  53.714   8.126  1.00  0.00    -0.000 C 
BRANCH  11  12
ATOM     12  C   UNL     1      80.318  54.486   7.940  1.00  0.00    -0.000 C 
BRANCH  12  13
ATOM     13  C   UNL     1      81.523  53.929   8.724  1.00  0.00    -0.000 C 
BRANCH  13  14
ATOM     14  C   UNL     1      81.245  53.603  10.203  1.00  0.00    -0.000 C 
BRANCH  14  15
ATOM     15  C   UNL     1      81.804  52.238  10.628  1.00  0.00    -0.003 C 
ATOM     16  C   UNL     1      81.108  51.103   9.880  1.00  0.00     0.004 C 
ENDBRANCH  14  15
ENDBRANCH  13  14
ENDBRANCH  12  13
ENDBRANCH  11  12
ENDBRANCH  10  11
ENDBRANCH   1  10
TORSDOF 12
ENDMDL
MODEL 8
REMARK VINA RESULT:    -4.848      4.197      8.325
REMARK INTER + INTRA:          -8.900
REMARK INTER:                  -8.184
REMARK INTRA:                  -0.717
REMARK UNBOUND:                -0.651
REMARK SMILES CCCCCCCCCCCCCC(=O)[O-]
REMARK SMILES IDX 8 1 9 2 10 3 11 4 12 5 13 6 14 7 15 8 16 9 7 10 6 11 5 12
REMARK SMILES IDX 4 13 3 14 2 15 1 16
REMARK H PARENT
REMARK Flexibility Score: inf
ROOT
ATOM      1  C   UNL     1      83.166  60.319  10.183  1.00  0.00     0.000 C 
ENDROOT
BRANCH   1   2
ATOM      2  C   UNL     1      81.794  60.097  10.843  1.00  0.00     0.000 C 
BRANCH   2   3
ATOM      3  C   UNL     1      81.297  58.646  10.717  1.00  0.00     0.000 C 
BRANCH   3   4
ATOM      4  C   UNL     1      79.823  58.493  10.295  1.00  0.00     0.000 C 
BRANCH   4   5
ATOM      5  C   UNL     1      79.261  57.090  10.582  1.00  0.00     0.006 C 
BRANCH   5   6
ATOM      6  C   UNL     1      77.898  56.865   9.912  1.00  0.00     0.053 C 
BRANCH   6   7
ATOM      7  C   UNL     1      78.041  56.249   8.555  1.00  0.00     0.041 C 
ATOM      8  O   UNL     1      77.702  56.893   7.527  1.00  0.00    -0.550 OA
ATOM      9  O   UNL     1      78.573  54.972   8.423  1.00  0.00    -0.550 OA
ENDBRANCH   6   7
ENDBRANCH   5   6
ENDBRANCH   4   5
ENDBRANCH   3   4
ENDBRANCH   2   3
ENDBRANCH   1   2
BRANCH   1  10
ATOM     10  C   UNL     1      83.868  58.998   9.828  1.00  0.00     0.000 C 
BRANCH  10  11
ATOM     11  C   UNL     1      85.134  58.759  10.671  1.00  0.00    -0.000 C 
BRANCH  11  12
ATOM     12  C   UNL     1      85.506  59.971  11.543  1.00  0.00    -0.000 C 
BRANCH  12  13
ATOM     13  C   UNL     1      85.543  59.703  13.062  1.00  0.00    -0.000 C 
BRANCH  13  14
ATOM     14  C   UNL     1      85.254  60.928  13.948  1.00  0.00    -0.000 C 
BRANCH  14  15
ATOM     15  C   UNL     1      84.547  60.560  15.260  1.00  0.00    -0.003 C 
ATOM     16  C   UNL     1      85.248  61.196  16.458  1.00  0.00     0.004 C 
ENDBRANCH  14  15
ENDBRANCH  13  14
ENDBRANCH  12  13
ENDBRANCH  11  12
ENDBRANCH  10  11
ENDBRANCH   1  10
TORSDOF 12
ENDMDL
MODEL 9
REMARK VINA RESULT:    -4.775      5.384      8.383
REMARK INTER + INTRA:          -8.776
REMARK INTER:                  -7.429
REMARK INTRA:                  -1.347
REMARK UNBOUND:                -0.651
REMARK SMILES CCCCCCCCCCCCCC(=O)[O-]
REMARK SMILES IDX 8 1 9 2 10 3 11 4 12 5 13 6 14 7 15 8 16 9 7 10 6 11 5 12
REMARK SMILES IDX 4 13 3 14 2 15 1 16
REMARK H PARENT
REMARK Flexibility Score: inf
ROOT
ATOM      1  C   UNL     1      78.865  57.146  10.758  1.00  0.00     0.000 C 
ENDROOT
BRANCH   1   2
ATOM      2  C   UNL     1      77.749  56.678   9.807  1.00  0.00     0.000 C 
BRANCH   2   3
ATOM      3  C   UNL     1      78.044  57.004   8.332  1.00  0.00     0.000 C 
BRANCH   3   4
ATOM      4  C   UNL     1      77.965  55.805   7.368  1.00  0.00     0.000 C 
BRANCH   4   5
ATOM      5  C   UNL     1      78.075  54.450   8.089  1.00  0.00     0.006 C 
BRANCH   5   6
ATOM      6  C   UNL     1      79.433  53.776   7.851  1.00  0.00     0.053 C 
BRANCH   6   7
ATOM      7  C   UNL     1      79.307  52.286   7.769  1.00  0.00     0.041 C 
ATOM      8  O   UNL     1      78.792  51.749   6.753  1.00  0.00    -0.550 OA
ATOM      9  O   UNL     1      79.782  51.489   8.802  1.00  0.00    -0.550 OA
ENDBRANCH   6   7
ENDBRANCH   5   6
ENDBRANCH   4   5
ENDBRANCH   3   4
ENDBRANCH   2   3
ENDBRANCH   1   2
BRANCH   1  10
ATOM     10  C   UNL     1      80.230  56.529  10.410  1.00  0.00     0.000 C 
BRANCH  10  11
ATOM     11  C   UNL     1      80.473  55.193  11.136  1.00  0.00    -0.000 C 
BRANCH  11  12
ATOM     12  C   UNL     1      81.800  54.527  10.728  1.00  0.00    -0.000 C 
BRANCH  12  13
ATOM     13  C   UNL     1      82.585  55.251   9.616  1.00  0.00    -0.000 C 
BRANCH  13  14
ATOM     14  C   UNL     1      83.966  55.786  10.035  1.00  0.00    -0.000 C 
BRANCH  14  15
ATOM     15  C   UNL     1      84.501  56.864   9.083  1.00  0.00    -0.003 C 
ATOM     16  C   UNL     1      84.167  58.264   9.594  1.00  0.00     0.004 C 
ENDBRANCH  14  15
ENDBRANCH  13  14
ENDBRANCH  12  13
ENDBRANCH  11  12
ENDBRANCH  10  11
ENDBRANCH   1  10
TORSDOF 12
ENDMDL
