MODEL 1
REMARK VINA RESULT:    -0.338      0.000      0.000
REMARK INTER + INTRA:          -0.338
REMARK INTER:                  -0.338
REMARK INTRA:                   0.000
REMARK UNBOUND:                 0.000
REMARK SMILES CC1(C)O[C@]2(C)CC[C@H]1CC2
REMARK SMILES IDX 1 1 2 2 9 3 8 4 7 5 5 6 4 7 11 8 10 9 6 10 3 11
REMARK H PARENT
REMARK Flexibility Score: inf
ROOT
ATOM      1  C   UNL     1     -10.125  -5.868  14.265  1.00  0.00     0.042 C 
ATOM      2  C   UNL     1      -9.021  -4.845  13.914  1.00  0.00     0.066 C 
ATOM      3  C   UNL     1      -8.345  -4.283  15.224  1.00  0.00     0.021 C 
ATOM      4  C   UNL     1      -9.418  -3.522  16.041  1.00  0.00     0.009 C 
ATOM      5  C   UNL     1     -10.122  -2.495  15.121  1.00  0.00     0.035 C 
ATOM      6  C   UNL     1      -9.459  -2.506  13.714  1.00  0.00     0.066 C 
ATOM      7  O   UNL     1      -9.616  -3.800  13.130  1.00  0.00    -0.369 OA
ATOM      8  C   UNL     1      -7.942  -2.196  13.867  1.00  0.00     0.035 C 
ATOM      9  C   UNL     1      -7.288  -3.230  14.816  1.00  0.00     0.009 C 
ATOM     10  C   UNL     1     -10.125  -1.470  12.803  1.00  0.00     0.042 C 
ATOM     11  C   UNL     1      -7.983  -5.574  13.033  1.00  0.00     0.042 C 
ENDROOT
TORSDOF 0
ENDMDL
MODEL 2
REMARK VINA RESULT:    -0.070      1.125      2.639
REMARK INTER + INTRA:          -0.070
REMARK INTER:                  -0.070
REMARK INTRA:                   0.000
REMARK UNBOUND:                 0.000
REMARK SMILES CC1(C)O[C@]2(C)CC[C@H]1CC2
REMARK SMILES IDX 1 1 2 2 9 3 8 4 7 5 5 6 4 7 11 8 10 9 6 10 3 11
REMARK H PARENT
REMARK Flexibility Score: inf
ROOT
ATOM      1  C   UNL     1      -7.979  -5.456  12.676  1.00  0.00     0.042 C 
ATOM      2  C   UNL     1      -9.020  -4.362  13.001  1.00  0.00     0.066 C 
ATOM      3  C   UNL     1      -8.347  -2.936  13.007  1.00  0.00     0.021 C 
ATOM      4  C   UNL     1      -7.290  -2.898  14.137  1.00  0.00     0.009 C 
ATOM      5  C   UNL     1      -7.943  -3.369  15.460  1.00  0.00     0.035 C 
ATOM      6  C   UNL     1      -9.459  -3.634  15.234  1.00  0.00     0.066 C 
ATOM      7  O   UNL     1      -9.614  -4.677  14.270  1.00  0.00    -0.369 OA
ATOM      8  C   UNL     1     -10.125  -2.336  14.693  1.00  0.00     0.035 C 
ATOM      9  C   UNL     1      -9.421  -1.890  13.389  1.00  0.00     0.009 C 
ATOM     10  C   UNL     1     -10.125  -4.069  16.543  1.00  0.00     0.042 C 
ATOM     11  C   UNL     1     -10.123  -4.443  11.923  1.00  0.00     0.042 C 
ENDROOT
TORSDOF 0
ENDMDL
MODEL 3
REMARK VINA RESULT:     0.593      1.249      3.101
REMARK INTER + INTRA:           0.593
REMARK INTER:                   0.593
REMARK INTRA:                   0.000
REMARK UNBOUND:                 0.000
REMARK SMILES CC1(C)O[C@]2(C)CC[C@H]1CC2
REMARK SMILES IDX 1 1 2 2 9 3 8 4 7 5 5 6 4 7 11 8 10 9 6 10 3 11
REMARK H PARENT
REMARK Flexibility Score: inf
ROOT
ATOM      1  C   UNL     1     -10.102  -2.980  15.968  1.00  0.00     0.042 C 
ATOM      2  C   UNL     1      -8.858  -3.316  15.115  1.00  0.00     0.066 C 
ATOM      3  C   UNL     1      -8.872  -2.503  13.763  1.00  0.00     0.021 C 
ATOM      4  C   UNL     1     -10.109  -2.940  12.942  1.00  0.00     0.009 C 
ATOM      5  C   UNL     1     -10.125  -4.484  12.830  1.00  0.00     0.035 C 
ATOM      6  C   UNL     1      -8.850  -5.074  13.498  1.00  0.00     0.066 C 
ATOM      7  O   UNL     1      -8.847  -4.734  14.885  1.00  0.00    -0.369 OA
ATOM      8  C   UNL     1      -7.592  -4.461  12.819  1.00  0.00     0.035 C 
ATOM      9  C   UNL     1      -7.635  -2.918  12.931  1.00  0.00     0.009 C 
ATOM     10  C   UNL     1      -8.836  -6.600  13.365  1.00  0.00     0.042 C 
ATOM     11  C   UNL     1      -7.615  -2.957  15.957  1.00  0.00     0.042 C 
ENDROOT
TORSDOF 0
ENDMDL
MODEL 4
REMARK VINA RESULT:     0.689      1.529      3.658
REMARK INTER + INTRA:           0.689
REMARK INTER:                   0.689
REMARK INTRA:                   0.000
REMARK UNBOUND:                 0.000
REMARK SMILES CC1(C)O[C@]2(C)CC[C@H]1CC2
REMARK SMILES IDX 1 1 2 2 9 3 8 4 7 5 5 6 4 7 11 8 10 9 6 10 3 11
REMARK H PARENT
REMARK Flexibility Score: inf
ROOT
ATOM      1  C   UNL     1      -8.640  -4.146  15.377  1.00  0.00     0.042 C 
ATOM      2  C   UNL     1      -8.766  -3.888  13.859  1.00  0.00     0.066 C 
ATOM      3  C   UNL     1     -10.078  -4.554  13.288  1.00  0.00     0.021 C 
ATOM      4  C   UNL     1      -9.969  -6.087  13.474  1.00  0.00     0.009 C 
ATOM      5  C   UNL     1      -8.623  -6.577  12.887  1.00  0.00     0.035 C 
ATOM      6  C   UNL     1      -7.872  -5.385  12.226  1.00  0.00     0.066 C 
ATOM      7  O   UNL     1      -7.586  -4.400  13.221  1.00  0.00    -0.369 OA
ATOM      8  C   UNL     1      -8.783  -4.757  11.133  1.00  0.00     0.035 C 
ATOM      9  C   UNL     1     -10.125  -4.309  11.761  1.00  0.00     0.009 C 
ATOM     10  C   UNL     1      -6.553  -5.861  11.611  1.00  0.00     0.042 C 
ATOM     11  C   UNL     1      -8.796  -2.358  13.654  1.00  0.00     0.042 C 
ENDROOT
TORSDOF 0
ENDMDL
MODEL 5
REMARK VINA RESULT:     1.564      1.217      3.057
REMARK INTER + INTRA:           1.564
REMARK INTER:                   1.564
REMARK INTRA:                   0.000
REMARK UNBOUND:                 0.000
REMARK SMILES CC1(C)O[C@]2(C)CC[C@H]1CC2
REMARK SMILES IDX 1 1 2 2 9 3 8 4 7 5 5 6 4 7 11 8 10 9 6 10 3 11
REMARK H PARENT
REMARK Flexibility Score: inf
ROOT
ATOM      1  C   UNL     1      -7.105  -2.843  15.916  1.00  0.00     0.042 C 
ATOM      2  C   UNL     1      -7.923  -3.016  14.618  1.00  0.00     0.066 C 
ATOM      3  C   UNL     1      -9.332  -2.319  14.748  1.00  0.00     0.021 C 
ATOM      4  C   UNL     1     -10.125  -3.025  15.875  1.00  0.00     0.009 C 
ATOM      5  C   UNL     1     -10.121  -4.552  15.619  1.00  0.00     0.035 C 
ATOM      6  C   UNL     1      -9.404  -4.858  14.273  1.00  0.00     0.066 C 
ATOM      7  O   UNL     1      -8.046  -4.423  14.354  1.00  0.00    -0.369 OA
ATOM      8  C   UNL     1     -10.121  -4.085  13.129  1.00  0.00     0.035 C 
ATOM      9  C   UNL     1     -10.125  -2.569  13.444  1.00  0.00     0.009 C 
ATOM     10  C   UNL     1      -9.422  -6.364  13.990  1.00  0.00     0.042 C 
ATOM     11  C   UNL     1      -7.104  -2.384  13.471  1.00  0.00     0.042 C 
ENDROOT
TORSDOF 0
ENDMDL
MODEL 6
REMARK VINA RESULT:     1.918      1.073      3.220
REMARK INTER + INTRA:           1.918
REMARK INTER:                   1.918
REMARK INTRA:                   0.000
REMARK UNBOUND:                 0.000
REMARK SMILES CC1(C)O[C@]2(C)CC[C@H]1CC2
REMARK SMILES IDX 1 1 2 2 9 3 8 4 7 5 5 6 4 7 11 8 10 9 6 10 3 11
REMARK H PARENT
REMARK Flexibility Score: inf
ROOT
ATOM      1  C   UNL     1      -7.977  -2.489  12.631  1.00  0.00     0.042 C 
ATOM      2  C   UNL     1      -9.020  -2.583  13.766  1.00  0.00     0.066 C 
ATOM      3  C   UNL     1      -8.350  -2.290  15.164  1.00  0.00     0.021 C 
ATOM      4  C   UNL     1      -7.290  -3.385  15.438  1.00  0.00     0.009 C 
ATOM      5  C   UNL     1      -7.938  -4.778  15.252  1.00  0.00     0.035 C 
ATOM      6  C   UNL     1      -9.455  -4.617  14.942  1.00  0.00     0.066 C 
ATOM      7  O   UNL     1      -9.610  -3.892  13.721  1.00  0.00    -0.369 OA
ATOM      8  C   UNL     1     -10.125  -3.820  16.098  1.00  0.00     0.035 C 
ATOM      9  C   UNL     1      -9.426  -2.449  16.265  1.00  0.00     0.009 C 
ATOM     10  C   UNL     1     -10.116  -5.990  14.788  1.00  0.00     0.042 C 
ATOM     11  C   UNL     1     -10.125  -1.549  13.462  1.00  0.00     0.042 C 
ENDROOT
TORSDOF 0
ENDMDL
MODEL 7
REMARK VINA RESULT:     2.355      1.166      2.792
REMARK INTER + INTRA:           2.355
REMARK INTER:                   2.355
REMARK INTRA:                   0.000
REMARK UNBOUND:                 0.000
REMARK SMILES CC1(C)O[C@]2(C)CC[C@H]1CC2
REMARK SMILES IDX 1 1 2 2 9 3 8 4 7 5 5 6 4 7 11 8 10 9 6 10 3 11
REMARK H PARENT
REMARK Flexibility Score: inf
ROOT
ATOM      1  C   UNL     1      -7.990  -2.626  16.503  1.00  0.00     0.042 C 
ATOM      2  C   UNL     1      -9.022  -3.293  15.566  1.00  0.00     0.066 C 
ATOM      3  C   UNL     1      -8.336  -4.407  14.684  1.00  0.00     0.021 C 
ATOM      4  C   UNL     1      -7.279  -3.731  13.777  1.00  0.00     0.009 C 
ATOM      5  C   UNL     1      -7.936  -2.549  13.024  1.00  0.00     0.035 C 
ATOM      6  C   UNL     1      -9.455  -2.491  13.358  1.00  0.00     0.066 C 
ATOM      7  O   UNL     1      -9.619  -2.266  14.759  1.00  0.00    -0.369 OA
ATOM      8  C   UNL     1     -10.109  -3.850  12.978  1.00  0.00     0.035 C 
ATOM      9  C   UNL     1      -9.401  -5.002  13.733  1.00  0.00     0.009 C 
ATOM     10  C   UNL     1     -10.125  -1.345  12.593  1.00  0.00     0.042 C 
ATOM     11  C   UNL     1     -10.124  -3.903  16.458  1.00  0.00     0.042 C 
ENDROOT
TORSDOF 0
ENDMDL
