MODEL 1
REMARK VINA RESULT:    -4.069      0.000      0.000
REMARK INTER + INTRA:         -10.865
REMARK INTER:                  -7.875
REMARK INTRA:                  -2.991
REMARK UNBOUND:                -2.991
REMARK SMILES CCCCCCCCCCCCCCCCCC(=O)[O-]
REMARK SMILES IDX 10 1 11 2 12 3 13 4 14 5 15 6 16 7 17 8 18 9 19 10 20 11
REMARK SMILES IDX 9 12 8 13 7 14 6 15 5 16 4 17 3 18 2 19 1 20
REMARK H PARENT
REMARK Flexibility Score: inf
ROOT
ATOM      1  C   UNL     1      -8.367 -11.022  15.398  1.00  0.00     0.000 C 
ENDROOT
BRANCH   1   2
ATOM      2  C   UNL     1      -7.150 -11.105  16.336  1.00  0.00     0.000 C 
BRANCH   2   3
ATOM      3  C   UNL     1      -6.379 -12.437  16.229  1.00  0.00     0.000 C 
BRANCH   3   4
ATOM      4  C   UNL     1      -7.320 -13.655  16.232  1.00  0.00     0.000 C 
BRANCH   4   5
ATOM      5  C   UNL     1      -7.741 -14.075  17.649  1.00  0.00     0.000 C 
BRANCH   5   6
ATOM      6  C   UNL     1      -9.202 -14.544  17.719  1.00  0.00     0.000 C 
BRANCH   6   7
ATOM      7  C   UNL     1      -9.789 -14.717  16.311  1.00  0.00     0.006 C 
BRANCH   7   8
ATOM      8  C   UNL     1     -11.231 -14.201  16.215  1.00  0.00     0.053 C 
BRANCH   8   9
ATOM      9  C   UNL     1     -11.496 -13.532  14.901  1.00  0.00     0.041 C 
ATOM     10  O   UNL     1     -12.651 -13.117  14.621  1.00  0.00    -0.550 OA
ATOM     11  O   UNL     1     -10.471 -13.393  13.974  1.00  0.00    -0.550 OA
ENDBRANCH   8   9
ENDBRANCH   7   8
ENDBRANCH   6   7
ENDBRANCH   5   6
ENDBRANCH   4   5
ENDBRANCH   3   4
ENDBRANCH   2   3
ENDBRANCH   1   2
BRANCH   1  12
ATOM     12  C   UNL     1      -9.575 -10.332  16.047  1.00  0.00     0.000 C 
BRANCH  12  13
ATOM     13  C   UNL     1      -9.850 -10.904  17.445  1.00  0.00    -0.000 C 
BRANCH  13  14
ATOM     14  C   UNL     1      -9.859  -9.822  18.541  1.00  0.00    -0.000 C 
BRANCH  14  15
ATOM     15  C   UNL     1      -9.345  -8.439  18.093  1.00  0.00    -0.000 C 
BRANCH  15  16
ATOM     16  C   UNL     1      -7.908  -8.099  18.538  1.00  0.00    -0.000 C 
BRANCH  16  17
ATOM     17  C   UNL     1      -6.935  -7.767  17.393  1.00  0.00    -0.000 C 
BRANCH  17  18
ATOM     18  C   UNL     1      -7.516  -6.760  16.390  1.00  0.00    -0.000 C 
BRANCH  18  19
ATOM     19  C   UNL     1      -7.605  -7.372  14.986  1.00  0.00    -0.003 C 
ATOM     20  C   UNL     1      -6.253  -7.920  14.538  1.00  0.00     0.004 C 
ENDBRANCH  18  19
ENDBRANCH  17  18
ENDBRANCH  16  17
ENDBRANCH  15  16
ENDBRANCH  14  15
ENDBRANCH  13  14
ENDBRANCH  12  13
ENDBRANCH   1  12
TORSDOF 16
ENDMDL
MODEL 2
REMARK VINA RESULT:    -3.960      2.535      6.306
REMARK INTER + INTRA:         -10.655
REMARK INTER:                  -7.900
REMARK INTRA:                  -2.755
REMARK UNBOUND:                -2.991
REMARK SMILES CCCCCCCCCCCCCCCCCC(=O)[O-]
REMARK SMILES IDX 10 1 11 2 12 3 13 4 14 5 15 6 16 7 17 8 18 9 19 10 20 11
REMARK SMILES IDX 9 12 8 13 7 14 6 15 5 16 4 17 3 18 2 19 1 20
REMARK H PARENT
REMARK Flexibility Score: inf
ROOT
ATOM      1  C   UNL     1      -8.867 -11.228  15.434  1.00  0.00     0.000 C 
ENDROOT
BRANCH   1   2
ATOM      2  C   UNL     1      -9.739 -10.441  16.428  1.00  0.00     0.000 C 
BRANCH   2   3
ATOM      3  C   UNL     1      -9.405 -10.732  17.906  1.00  0.00     0.000 C 
BRANCH   3   4
ATOM      4  C   UNL     1      -8.574  -9.605  18.546  1.00  0.00     0.000 C 
BRANCH   4   5
ATOM      5  C   UNL     1      -9.304  -8.252  18.538  1.00  0.00     0.000 C 
BRANCH   5   6
ATOM      6  C   UNL     1      -8.486  -7.141  17.864  1.00  0.00     0.000 C 
BRANCH   6   7
ATOM      7  C   UNL     1      -7.494  -7.730  16.850  1.00  0.00     0.006 C 
BRANCH   7   8
ATOM      8  C   UNL     1      -7.903  -7.436  15.400  1.00  0.00     0.053 C 
BRANCH   8   9
ATOM      9  C   UNL     1      -6.754  -7.613  14.454  1.00  0.00     0.041 C 
ATOM     10  O   UNL     1      -6.768  -7.050  13.327  1.00  0.00    -0.550 OA
ATOM     11  O   UNL     1      -5.683  -8.423  14.806  1.00  0.00    -0.550 OA
ENDBRANCH   8   9
ENDBRANCH   7   8
ENDBRANCH   6   7
ENDBRANCH   5   6
ENDBRANCH   4   5
ENDBRANCH   3   4
ENDBRANCH   2   3
ENDBRANCH   1   2
BRANCH   1  12
ATOM     12  C   UNL     1      -7.379 -11.222  15.810  1.00  0.00     0.000 C 
BRANCH  12  13
ATOM     13  C   UNL     1      -6.756 -12.612  15.612  1.00  0.00    -0.000 C 
BRANCH  13  14
ATOM     14  C   UNL     1      -7.756 -13.755  15.864  1.00  0.00    -0.000 C 
BRANCH  14  15
ATOM     15  C   UNL     1      -7.953 -14.130  17.347  1.00  0.00    -0.000 C 
BRANCH  15  16
ATOM     16  C   UNL     1      -9.405 -14.452  17.754  1.00  0.00    -0.000 C 
BRANCH  16  17
ATOM     17  C   UNL     1     -10.380 -14.647  16.579  1.00  0.00    -0.000 C 
BRANCH  17  18
ATOM     18  C   UNL     1     -11.604 -13.723  16.661  1.00  0.00    -0.000 C 
BRANCH  18  19
ATOM     19  C   UNL     1     -12.033 -13.255  15.265  1.00  0.00    -0.003 C 
ATOM     20  C   UNL     1     -11.171 -13.894  14.180  1.00  0.00     0.004 C 
ENDBRANCH  18  19
ENDBRANCH  17  18
ENDBRANCH  16  17
ENDBRANCH  15  16
ENDBRANCH  14  15
ENDBRANCH  13  14
ENDBRANCH  12  13
ENDBRANCH   1  12
TORSDOF 16
ENDMDL
MODEL 3
REMARK VINA RESULT:    -3.914      1.938      2.968
REMARK INTER + INTRA:         -10.565
REMARK INTER:                  -8.312
REMARK INTRA:                  -2.254
REMARK UNBOUND:                -2.991
REMARK SMILES CCCCCCCCCCCCCCCCCC(=O)[O-]
REMARK SMILES IDX 10 1 11 2 12 3 13 4 14 5 15 6 16 7 17 8 18 9 19 10 20 11
REMARK SMILES IDX 9 12 8 13 7 14 6 15 5 16 4 17 3 18 2 19 1 20
REMARK H PARENT
REMARK Flexibility Score: inf
ROOT
ATOM      1  C   UNL     1      -9.424  -9.917  16.791  1.00  0.00     0.000 C 
ENDROOT
BRANCH   1   2
ATOM      2  C   UNL     1      -9.265 -10.726  15.491  1.00  0.00     0.000 C 
BRANCH   2   3
ATOM      3  C   UNL     1      -8.192 -11.831  15.580  1.00  0.00     0.000 C 
BRANCH   3   4
ATOM      4  C   UNL     1      -8.620 -13.116  14.848  1.00  0.00     0.000 C 
BRANCH   4   5
ATOM      5  C   UNL     1      -9.884 -12.920  13.997  1.00  0.00     0.000 C 
BRANCH   5   6
ATOM      6  C   UNL     1     -10.977 -13.951  14.312  1.00  0.00     0.000 C 
BRANCH   6   7
ATOM      7  C   UNL     1     -12.008 -13.374  15.294  1.00  0.00     0.006 C 
BRANCH   7   8
ATOM      8  C   UNL     1     -11.892 -13.998  16.691  1.00  0.00     0.053 C 
BRANCH   8   9
ATOM      9  C   UNL     1     -11.238 -13.063  17.663  1.00  0.00     0.041 C 
ATOM     10  O   UNL     1     -10.057 -13.269  18.045  1.00  0.00    -0.550 OA
ATOM     11  O   UNL     1     -11.946 -11.980  18.168  1.00  0.00    -0.550 OA
ENDBRANCH   8   9
ENDBRANCH   7   8
ENDBRANCH   6   7
ENDBRANCH   5   6
ENDBRANCH   4   5
ENDBRANCH   3   4
ENDBRANCH   2   3
ENDBRANCH   1   2
BRANCH   1  12
ATOM     12  C   UNL     1      -8.329 -10.222  17.822  1.00  0.00     0.000 C 
BRANCH  12  13
ATOM     13  C   UNL     1      -7.620  -8.935  18.268  1.00  0.00    -0.000 C 
BRANCH  13  14
ATOM     14  C   UNL     1      -8.339  -7.661  17.789  1.00  0.00    -0.000 C 
BRANCH  14  15
ATOM     15  C   UNL     1      -7.483  -6.720  16.917  1.00  0.00    -0.000 C 
BRANCH  15  16
ATOM     16  C   UNL     1      -6.527  -7.426  15.935  1.00  0.00    -0.000 C 
BRANCH  16  17
ATOM     17  C   UNL     1      -7.167  -7.856  14.602  1.00  0.00    -0.000 C 
BRANCH  17  18
ATOM     18  C   UNL     1      -7.376  -6.681  13.635  1.00  0.00    -0.000 C 
BRANCH  18  19
ATOM     19  C   UNL     1      -6.034  -6.057  13.233  1.00  0.00    -0.003 C 
ATOM     20  C   UNL     1      -5.157  -7.064  12.495  1.00  0.00     0.004 C 
ENDBRANCH  18  19
ENDBRANCH  17  18
ENDBRANCH  16  17
ENDBRANCH  15  16
ENDBRANCH  14  15
ENDBRANCH  13  14
ENDBRANCH  12  13
ENDBRANCH   1  12
TORSDOF 16
ENDMDL
MODEL 4
REMARK VINA RESULT:    -3.871      3.103      6.330
REMARK INTER + INTRA:         -10.482
REMARK INTER:                  -7.986
REMARK INTRA:                  -2.495
REMARK UNBOUND:                -2.991
REMARK SMILES CCCCCCCCCCCCCCCCCC(=O)[O-]
REMARK SMILES IDX 10 1 11 2 12 3 13 4 14 5 15 6 16 7 17 8 18 9 19 10 20 11
REMARK SMILES IDX 9 12 8 13 7 14 6 15 5 16 4 17 3 18 2 19 1 20
REMARK H PARENT
REMARK Flexibility Score: inf
ROOT
ATOM      1  C   UNL     1      -6.807 -12.994  14.958  1.00  0.00     0.000 C 
ENDROOT
BRANCH   1   2
ATOM      2  C   UNL     1      -6.897 -12.217  16.283  1.00  0.00     0.000 C 
BRANCH   2   3
ATOM      3  C   UNL     1      -7.031 -10.691  16.096  1.00  0.00     0.000 C 
BRANCH   3   4
ATOM      4  C   UNL     1      -8.281 -10.315  15.281  1.00  0.00     0.000 C 
BRANCH   4   5
ATOM      5  C   UNL     1      -9.460  -9.883  16.168  1.00  0.00     0.000 C 
BRANCH   5   6
ATOM      6  C   UNL     1      -9.058  -8.836  17.218  1.00  0.00     0.000 C 
BRANCH   6   7
ATOM      7  C   UNL     1      -9.633  -9.194  18.596  1.00  0.00     0.006 C 
BRANCH   7   8
ATOM      8  C   UNL     1      -9.077  -8.295  19.708  1.00  0.00     0.053 C 
BRANCH   8   9
ATOM      9  C   UNL     1      -8.593  -9.096  20.878  1.00  0.00     0.041 C 
ATOM     10  O   UNL     1      -7.841 -10.090  20.700  1.00  0.00    -0.550 OA
ATOM     11  O   UNL     1      -8.997  -8.761  22.164  1.00  0.00    -0.550 OA
ENDBRANCH   8   9
ENDBRANCH   7   8
ENDBRANCH   6   7
ENDBRANCH   5   6
ENDBRANCH   4   5
ENDBRANCH   3   4
ENDBRANCH   2   3
ENDBRANCH   1   2
BRANCH   1  12
ATOM     12  C   UNL     1      -8.017 -13.906  14.716  1.00  0.00     0.000 C 
BRANCH  12  13
ATOM     13  C   UNL     1      -8.514 -13.789  13.268  1.00  0.00    -0.000 C 
BRANCH  13  14
ATOM     14  C   UNL     1     -10.042 -13.617  13.174  1.00  0.00    -0.000 C 
BRANCH  14  15
ATOM     15  C   UNL     1     -10.702 -12.984  14.415  1.00  0.00    -0.000 C 
BRANCH  15  16
ATOM     16  C   UNL     1     -11.836 -13.814  15.049  1.00  0.00    -0.000 C 
BRANCH  16  17
ATOM     17  C   UNL     1     -11.656 -14.122  16.547  1.00  0.00    -0.000 C 
BRANCH  17  18
ATOM     18  C   UNL     1     -11.274 -12.882  17.368  1.00  0.00    -0.000 C 
BRANCH  18  19
ATOM     19  C   UNL     1      -9.882 -13.044  17.991  1.00  0.00    -0.003 C 
ATOM     20  C   UNL     1      -9.383 -14.480  17.860  1.00  0.00     0.004 C 
ENDBRANCH  18  19
ENDBRANCH  17  18
ENDBRANCH  16  17
ENDBRANCH  15  16
ENDBRANCH  14  15
ENDBRANCH  13  14
ENDBRANCH  12  13
ENDBRANCH   1  12
TORSDOF 16
ENDMDL
MODEL 5
REMARK VINA RESULT:    -3.848      2.488      5.841
REMARK INTER + INTRA:         -10.438
REMARK INTER:                  -7.759
REMARK INTRA:                  -2.679
REMARK UNBOUND:                -2.991
REMARK SMILES CCCCCCCCCCCCCCCCCC(=O)[O-]
REMARK SMILES IDX 10 1 11 2 12 3 13 4 14 5 15 6 16 7 17 8 18 9 19 10 20 11
REMARK SMILES IDX 9 12 8 13 7 14 6 15 5 16 4 17 3 18 2 19 1 20
REMARK H PARENT
REMARK Flexibility Score: inf
ROOT
ATOM      1  C   UNL     1      -6.528 -12.947  15.629  1.00  0.00     0.000 C 
ENDROOT
BRANCH   1   2
ATOM      2  C   UNL     1      -6.479 -11.659  16.469  1.00  0.00     0.000 C 
BRANCH   2   3
ATOM      3  C   UNL     1      -6.951 -10.405  15.704  1.00  0.00     0.000 C 
BRANCH   3   4
ATOM      4  C   UNL     1      -8.481 -10.362  15.548  1.00  0.00     0.000 C 
BRANCH   4   5
ATOM      5  C   UNL     1      -9.068  -8.971  15.835  1.00  0.00     0.000 C 
BRANCH   5   6
ATOM      6  C   UNL     1      -8.037  -8.006  16.439  1.00  0.00     0.000 C 
BRANCH   6   7
ATOM      7  C   UNL     1      -8.471  -7.546  17.838  1.00  0.00     0.006 C 
BRANCH   7   8
ATOM      8  C   UNL     1      -7.695  -8.260  18.951  1.00  0.00     0.053 C 
BRANCH   8   9
ATOM      9  C   UNL     1      -8.468  -9.413  19.515  1.00  0.00     0.041 C 
ATOM     10  O   UNL     1      -9.727  -9.406  19.492  1.00  0.00    -0.550 OA
ATOM     11  O   UNL     1      -7.797 -10.483  20.093  1.00  0.00    -0.550 OA
ENDBRANCH   8   9
ENDBRANCH   7   8
ENDBRANCH   6   7
ENDBRANCH   5   6
ENDBRANCH   4   5
ENDBRANCH   3   4
ENDBRANCH   2   3
ENDBRANCH   1   2
BRANCH   1  12
ATOM     12  C   UNL     1      -7.665 -13.890  16.045  1.00  0.00     0.000 C 
BRANCH  12  13
ATOM     13  C   UNL     1      -7.708 -14.060  17.571  1.00  0.00    -0.000 C 
BRANCH  13  14
ATOM     14  C   UNL     1      -9.140 -14.019  18.136  1.00  0.00    -0.000 C 
BRANCH  14  15
ATOM     15  C   UNL     1      -9.836 -12.646  18.042  1.00  0.00    -0.000 C 
BRANCH  15  16
ATOM     16  C   UNL     1     -11.173 -12.641  17.273  1.00  0.00    -0.000 C 
BRANCH  16  17
ATOM     17  C   UNL     1     -11.583 -13.998  16.674  1.00  0.00    -0.000 C 
BRANCH  17  18
ATOM     18  C   UNL     1     -11.809 -13.937  15.157  1.00  0.00    -0.000 C 
BRANCH  18  19
ATOM     19  C   UNL     1     -10.836 -12.952  14.497  1.00  0.00    -0.003 C 
ATOM     20  C   UNL     1     -10.142 -13.584  13.294  1.00  0.00     0.004 C 
ENDBRANCH  18  19
ENDBRANCH  17  18
ENDBRANCH  16  17
ENDBRANCH  15  16
ENDBRANCH  14  15
ENDBRANCH  13  14
ENDBRANCH  12  13
ENDBRANCH   1  12
TORSDOF 16
ENDMDL
MODEL 6
REMARK VINA RESULT:    -3.805      1.589      3.042
REMARK INTER + INTRA:         -10.354
REMARK INTER:                  -7.341
REMARK INTRA:                  -3.013
REMARK UNBOUND:                -2.991
REMARK SMILES CCCCCCCCCCCCCCCCCC(=O)[O-]
REMARK SMILES IDX 10 1 11 2 12 3 13 4 14 5 15 6 16 7 17 8 18 9 19 10 20 11
REMARK SMILES IDX 9 12 8 13 7 14 6 15 5 16 4 17 3 18 2 19 1 20
REMARK H PARENT
REMARK Flexibility Score: inf
ROOT
ATOM      1  C   UNL     1      -8.543 -11.833  18.341  1.00  0.00     0.000 C 
ENDROOT
BRANCH   1   2
ATOM      2  C   UNL     1      -8.798 -13.344  18.476  1.00  0.00     0.000 C 
BRANCH   2   3
ATOM      3  C   UNL     1      -8.070 -14.191  17.412  1.00  0.00     0.000 C 
BRANCH   3   4
ATOM      4  C   UNL     1      -6.931 -13.412  16.731  1.00  0.00     0.000 C 
BRANCH   4   5
ATOM      5  C   UNL     1      -7.155 -13.231  15.222  1.00  0.00     0.000 C 
BRANCH   5   6
ATOM      6  C   UNL     1      -8.429 -13.930  14.724  1.00  0.00     0.000 C 
BRANCH   6   7
ATOM      7  C   UNL     1      -9.502 -12.903  14.337  1.00  0.00     0.006 C 
BRANCH   7   8
ATOM      8  C   UNL     1     -10.902 -13.526  14.261  1.00  0.00     0.053 C 
BRANCH   8   9
ATOM      9  C   UNL     1     -11.447 -13.835  15.622  1.00  0.00     0.041 C 
ATOM     10  O   UNL     1     -11.947 -12.920  16.328  1.00  0.00    -0.550 OA
ATOM     11  O   UNL     1     -11.376 -15.128  16.123  1.00  0.00    -0.550 OA
ENDBRANCH   8   9
ENDBRANCH   7   8
ENDBRANCH   6   7
ENDBRANCH   5   6
ENDBRANCH   4   5
ENDBRANCH   3   4
ENDBRANCH   2   3
ENDBRANCH   1   2
BRANCH   1  12
ATOM     12  C   UNL     1      -9.829 -11.028  18.107  1.00  0.00     0.000 C 
BRANCH  12  13
ATOM     13  C   UNL     1      -9.729 -10.192  16.823  1.00  0.00    -0.000 C 
BRANCH  13  14
ATOM     14  C   UNL     1      -8.274  -9.889  16.420  1.00  0.00    -0.000 C 
BRANCH  14  15
ATOM     15  C   UNL     1      -7.944  -8.392  16.251  1.00  0.00    -0.000 C 
BRANCH  15  16
ATOM     16  C   UNL     1      -7.499  -7.669  17.538  1.00  0.00    -0.000 C 
BRANCH  16  17
ATOM     17  C   UNL     1      -8.644  -7.070  18.375  1.00  0.00    -0.000 C 
BRANCH  17  18
ATOM     18  C   UNL     1      -8.781  -7.729  19.755  1.00  0.00    -0.000 C 
BRANCH  18  19
ATOM     19  C   UNL     1      -7.554  -8.593  20.074  1.00  0.00    -0.003 C 
ATOM     20  C   UNL     1      -7.861  -9.599  21.179  1.00  0.00     0.004 C 
ENDBRANCH  18  19
ENDBRANCH  17  18
ENDBRANCH  16  17
ENDBRANCH  15  16
ENDBRANCH  14  15
ENDBRANCH  13  14
ENDBRANCH  12  13
ENDBRANCH   1  12
TORSDOF 16
ENDMDL
MODEL 7
REMARK VINA RESULT:    -3.758      3.242      6.439
REMARK INTER + INTRA:         -10.265
REMARK INTER:                  -7.375
REMARK INTRA:                  -2.890
REMARK UNBOUND:                -2.991
REMARK SMILES CCCCCCCCCCCCCCCCCC(=O)[O-]
REMARK SMILES IDX 10 1 11 2 12 3 13 4 14 5 15 6 16 7 17 8 18 9 19 10 20 11
REMARK SMILES IDX 9 12 8 13 7 14 6 15 5 16 4 17 3 18 2 19 1 20
REMARK H PARENT
REMARK Flexibility Score: inf
ROOT
ATOM      1  C   UNL     1      -8.177 -11.687  18.336  1.00  0.00     0.000 C 
ENDROOT
BRANCH   1   2
ATOM      2  C   UNL     1      -6.855 -11.095  17.818  1.00  0.00     0.000 C 
BRANCH   2   3
ATOM      3  C   UNL     1      -7.037 -10.113  16.642  1.00  0.00     0.000 C 
BRANCH   3   4
ATOM      4  C   UNL     1      -8.505  -9.684  16.468  1.00  0.00     0.000 C 
BRANCH   4   5
ATOM      5  C   UNL     1      -8.784  -8.281  17.031  1.00  0.00     0.000 C 
BRANCH   5   6
ATOM      6  C   UNL     1      -9.510  -8.320  18.383  1.00  0.00     0.000 C 
BRANCH   6   7
ATOM      7  C   UNL     1      -8.780  -7.456  19.421  1.00  0.00     0.006 C 
BRANCH   7   8
ATOM      8  C   UNL     1      -7.627  -8.210  20.097  1.00  0.00     0.053 C 
BRANCH   8   9
ATOM      9  C   UNL     1      -8.119  -9.108  21.192  1.00  0.00     0.041 C 
ATOM     10  O   UNL     1      -7.494 -10.164  21.475  1.00  0.00    -0.550 OA
ATOM     11  O   UNL     1      -9.283  -8.792  21.880  1.00  0.00    -0.550 OA
ENDBRANCH   8   9
ENDBRANCH   7   8
ENDBRANCH   6   7
ENDBRANCH   5   6
ENDBRANCH   4   5
ENDBRANCH   3   4
ENDBRANCH   2   3
ENDBRANCH   1   2
BRANCH   1  12
ATOM     12  C   UNL     1      -8.159 -13.221  18.404  1.00  0.00     0.000 C 
BRANCH  12  13
ATOM     13  C   UNL     1      -7.366 -13.814  17.231  1.00  0.00    -0.000 C 
BRANCH  13  14
ATOM     14  C   UNL     1      -8.259 -14.181  16.032  1.00  0.00    -0.000 C 
BRANCH  14  15
ATOM     15  C   UNL     1      -8.315 -13.119  14.915  1.00  0.00    -0.000 C 
BRANCH  15  16
ATOM     16  C   UNL     1      -9.687 -12.962  14.229  1.00  0.00    -0.000 C 
BRANCH  16  17
ATOM     17  C   UNL     1     -10.754 -12.239  15.070  1.00  0.00    -0.000 C 
BRANCH  17  18
ATOM     18  C   UNL     1     -11.854 -13.184  15.577  1.00  0.00    -0.000 C 
BRANCH  18  19
ATOM     19  C   UNL     1     -11.673 -13.484  17.070  1.00  0.00    -0.003 C 
ATOM     20  C   UNL     1     -11.680 -12.201  17.895  1.00  0.00     0.004 C 
ENDBRANCH  18  19
ENDBRANCH  17  18
ENDBRANCH  16  17
ENDBRANCH  15  16
ENDBRANCH  14  15
ENDBRANCH  13  14
ENDBRANCH  12  13
ENDBRANCH   1  12
TORSDOF 16
ENDMDL
MODEL 8
REMARK VINA RESULT:    -3.721      3.422      6.494
REMARK INTER + INTRA:         -10.192
REMARK INTER:                  -7.328
REMARK INTRA:                  -2.865
REMARK UNBOUND:                -2.991
REMARK SMILES CCCCCCCCCCCCCCCCCC(=O)[O-]
REMARK SMILES IDX 10 1 11 2 12 3 13 4 14 5 15 6 16 7 17 8 18 9 19 10 20 11
REMARK SMILES IDX 9 12 8 13 7 14 6 15 5 16 4 17 3 18 2 19 1 20
REMARK H PARENT
REMARK Flexibility Score: inf
ROOT
ATOM      1  C   UNL     1      -8.545 -10.806  15.390  1.00  0.00     0.000 C 
ENDROOT
BRANCH   1   2
ATOM      2  C   UNL     1      -9.404  -9.848  16.233  1.00  0.00     0.000 C 
BRANCH   2   3
ATOM      3  C   UNL     1     -10.063 -10.522  17.454  1.00  0.00     0.000 C 
BRANCH   3   4
ATOM      4  C   UNL     1      -9.491 -10.000  18.784  1.00  0.00     0.000 C 
BRANCH   4   5
ATOM      5  C   UNL     1      -8.186 -10.706  19.185  1.00  0.00     0.000 C 
BRANCH   5   6
ATOM      6  C   UNL     1      -7.171  -9.752  19.833  1.00  0.00     0.000 C 
BRANCH   6   7
ATOM      7  C   UNL     1      -7.015 -10.053  21.330  1.00  0.00     0.006 C 
BRANCH   7   8
ATOM      8  C   UNL     1      -7.286  -8.820  22.202  1.00  0.00     0.053 C 
BRANCH   8   9
ATOM      9  C   UNL     1      -8.645  -8.244  21.940  1.00  0.00     0.041 C 
ATOM     10  O   UNL     1      -9.678  -8.918  22.187  1.00  0.00    -0.550 OA
ATOM     11  O   UNL     1      -8.767  -6.971  21.397  1.00  0.00    -0.550 OA
ENDBRANCH   8   9
ENDBRANCH   7   8
ENDBRANCH   6   7
ENDBRANCH   5   6
ENDBRANCH   4   5
ENDBRANCH   3   4
ENDBRANCH   2   3
ENDBRANCH   1   2
BRANCH   1  12
ATOM     12  C   UNL     1      -7.056 -10.757  15.762  1.00  0.00     0.000 C 
BRANCH  12  13
ATOM     13  C   UNL     1      -6.518 -12.163  16.063  1.00  0.00    -0.000 C 
BRANCH  13  14
ATOM     14  C   UNL     1      -7.620 -13.238  16.056  1.00  0.00    -0.000 C 
BRANCH  14  15
ATOM     15  C   UNL     1      -7.846 -13.946  17.407  1.00  0.00    -0.000 C 
BRANCH  15  16
ATOM     16  C   UNL     1      -9.322 -14.212  17.769  1.00  0.00    -0.000 C 
BRANCH  16  17
ATOM     17  C   UNL     1     -10.227 -14.571  16.577  1.00  0.00    -0.000 C 
BRANCH  17  18
ATOM     18  C   UNL     1     -11.576 -13.838  16.612  1.00  0.00    -0.000 C 
BRANCH  18  19
ATOM     19  C   UNL     1     -11.800 -13.039  15.322  1.00  0.00    -0.003 C 
ATOM     20  C   UNL     1     -10.877 -13.522  14.207  1.00  0.00     0.004 C 
ENDBRANCH  18  19
ENDBRANCH  17  18
ENDBRANCH  16  17
ENDBRANCH  15  16
ENDBRANCH  14  15
ENDBRANCH  13  14
ENDBRANCH  12  13
ENDBRANCH   1  12
TORSDOF 16
ENDMDL
MODEL 9
REMARK VINA RESULT:    -3.709      1.513      3.012
REMARK INTER + INTRA:         -10.168
REMARK INTER:                  -7.309
REMARK INTRA:                  -2.858
REMARK UNBOUND:                -2.991
REMARK SMILES CCCCCCCCCCCCCCCCCC(=O)[O-]
REMARK SMILES IDX 10 1 11 2 12 3 13 4 14 5 15 6 16 7 17 8 18 9 19 10 20 11
REMARK SMILES IDX 9 12 8 13 7 14 6 15 5 16 4 17 3 18 2 19 1 20
REMARK H PARENT
REMARK Flexibility Score: inf
ROOT
ATOM      1  C   UNL     1      -6.985 -12.334  15.614  1.00  0.00     0.000 C 
ENDROOT
BRANCH   1   2
ATOM      2  C   UNL     1      -6.266 -13.513  16.292  1.00  0.00     0.000 C 
BRANCH   2   3
ATOM      3  C   UNL     1      -6.768 -13.803  17.722  1.00  0.00     0.000 C 
BRANCH   3   4
ATOM      4  C   UNL     1      -8.156 -13.193  17.984  1.00  0.00     0.000 C 
BRANCH   4   5
ATOM      5  C   UNL     1      -9.254 -14.258  18.132  1.00  0.00     0.000 C 
BRANCH   5   6
ATOM      6  C   UNL     1     -10.252 -14.246  16.965  1.00  0.00     0.000 C 
BRANCH   6   7
ATOM      7  C   UNL     1     -10.897 -12.862  16.809  1.00  0.00     0.006 C 
BRANCH   7   8
ATOM      8  C   UNL     1     -10.708 -12.288  15.399  1.00  0.00     0.053 C 
BRANCH   8   9
ATOM      9  C   UNL     1     -11.183 -13.241  14.344  1.00  0.00     0.041 C 
ATOM     10  O   UNL     1     -12.376 -13.643  14.344  1.00  0.00    -0.550 OA
ATOM     11  O   UNL     1     -10.300 -13.706  13.379  1.00  0.00    -0.550 OA
ENDBRANCH   8   9
ENDBRANCH   7   8
ENDBRANCH   6   7
ENDBRANCH   5   6
ENDBRANCH   4   5
ENDBRANCH   3   4
ENDBRANCH   2   3
ENDBRANCH   1   2
BRANCH   1  12
ATOM     12  C   UNL     1      -6.108 -11.079  15.511  1.00  0.00     0.000 C 
BRANCH  12  13
ATOM     13  C   UNL     1      -6.728  -9.909  16.288  1.00  0.00    -0.000 C 
BRANCH  13  14
ATOM     14  C   UNL     1      -8.198  -9.653  15.909  1.00  0.00    -0.000 C 
BRANCH  14  15
ATOM     15  C   UNL     1      -9.011  -8.864  16.955  1.00  0.00    -0.000 C 
BRANCH  15  16
ATOM     16  C   UNL     1      -9.722  -9.726  18.018  1.00  0.00    -0.000 C 
BRANCH  16  17
ATOM     17  C   UNL     1      -9.418  -9.339  19.476  1.00  0.00    -0.000 C 
BRANCH  17  18
ATOM     18  C   UNL     1      -7.914  -9.200  19.754  1.00  0.00    -0.000 C 
BRANCH  18  19
ATOM     19  C   UNL     1      -7.347 -10.488  20.362  1.00  0.00    -0.003 C 
ATOM     20  C   UNL     1      -5.952 -10.787  19.820  1.00  0.00     0.004 C 
ENDBRANCH  18  19
ENDBRANCH  17  18
ENDBRANCH  16  17
ENDBRANCH  15  16
ENDBRANCH  14  15
ENDBRANCH  13  14
ENDBRANCH  12  13
ENDBRANCH   1  12
TORSDOF 16
ENDMDL
