MODEL 1
REMARK VINA RESULT:    -4.330      0.000      0.000
REMARK INTER + INTRA:          -7.829
REMARK INTER:                  -6.862
REMARK INTRA:                  -0.967
REMARK UNBOUND:                -0.967
REMARK SMILES CCCCCCCCCCCC(=O)[O-]
REMARK SMILES IDX 7 1 8 2 9 3 10 4 11 5 12 6 13 7 14 8 6 9 5 10 4 11 3 12 2 13
REMARK SMILES IDX 1 14
REMARK H PARENT
REMARK Flexibility Score: inf
ROOT
ATOM      1  C   UNL     1      52.145  -2.121   9.101  1.00  0.00     0.000 C 
ENDROOT
BRANCH   1   2
ATOM      2  C   UNL     1      52.604  -2.056  10.568  1.00  0.00     0.000 C 
BRANCH   2   3
ATOM      3  C   UNL     1      51.504  -2.490  11.550  1.00  0.00     0.000 C 
BRANCH   3   4
ATOM      4  C   UNL     1      52.019  -3.469  12.618  1.00  0.00     0.006 C 
BRANCH   4   5
ATOM      5  C   UNL     1      53.477  -3.888  12.384  1.00  0.00     0.053 C 
BRANCH   5   6
ATOM      6  C   UNL     1      54.362  -3.311  13.443  1.00  0.00     0.041 C 
ATOM      7  O   UNL     1      54.176  -2.136  13.852  1.00  0.00    -0.550 OA
ATOM      8  O   UNL     1      55.424  -4.056  13.942  1.00  0.00    -0.550 OA
ENDBRANCH   5   6
ENDBRANCH   4   5
ENDBRANCH   3   4
ENDBRANCH   2   3
ENDBRANCH   1   2
BRANCH   1   9
ATOM      9  C   UNL     1      51.606  -3.504   8.708  1.00  0.00     0.000 C 
BRANCH   9  10
ATOM     10  C   UNL     1      52.751  -4.509   8.528  1.00  0.00    -0.000 C 
BRANCH  10  11
ATOM     11  C   UNL     1      53.216  -4.558   7.065  1.00  0.00    -0.000 C 
BRANCH  11  12
ATOM     12  C   UNL     1      54.709  -4.230   6.907  1.00  0.00    -0.000 C 
BRANCH  12  13
ATOM     13  C   UNL     1      55.505  -4.459   8.200  1.00  0.00    -0.003 C 
ATOM     14  C   UNL     1      57.007  -4.467   7.927  1.00  0.00     0.004 C 
ENDBRANCH  12  13
ENDBRANCH  11  12
ENDBRANCH  10  11
ENDBRANCH   9  10
ENDBRANCH   1   9
TORSDOF 10
ENDMDL
MODEL 2
REMARK VINA RESULT:    -4.315      1.542      2.098
REMARK INTER + INTRA:          -7.806
REMARK INTER:                  -7.164
REMARK INTRA:                  -0.642
REMARK UNBOUND:                -0.967
REMARK SMILES CCCCCCCCCCCC(=O)[O-]
REMARK SMILES IDX 7 1 8 2 9 3 10 4 11 5 12 6 13 7 14 8 6 9 5 10 4 11 3 12 2 13
REMARK SMILES IDX 1 14
REMARK H PARENT
REMARK Flexibility Score: inf
ROOT
ATOM      1  C   UNL     1      52.169  -3.841  10.809  1.00  0.00     0.000 C 
ENDROOT
BRANCH   1   2
ATOM      2  C   UNL     1      53.577  -3.370  11.212  1.00  0.00     0.000 C 
BRANCH   2   3
ATOM      3  C   UNL     1      53.806  -3.425  12.732  1.00  0.00     0.000 C 
BRANCH   3   4
ATOM      4  C   UNL     1      54.580  -2.205  13.257  1.00  0.00     0.006 C 
BRANCH   4   5
ATOM      5  C   UNL     1      55.350  -2.502  14.550  1.00  0.00     0.053 C 
BRANCH   5   6
ATOM      6  C   UNL     1      56.811  -2.653  14.264  1.00  0.00     0.041 C 
ATOM      7  O   UNL     1      57.627  -1.782  14.663  1.00  0.00    -0.550 OA
ATOM      8  O   UNL     1      57.265  -3.732  13.515  1.00  0.00    -0.550 OA
ENDBRANCH   5   6
ENDBRANCH   4   5
ENDBRANCH   3   4
ENDBRANCH   2   3
ENDBRANCH   1   2
BRANCH   1   9
ATOM      9  C   UNL     1      52.056  -4.160   9.311  1.00  0.00     0.000 C 
BRANCH   9  10
ATOM     10  C   UNL     1      53.174  -3.473   8.518  1.00  0.00    -0.000 C 
BRANCH  10  11
ATOM     11  C   UNL     1      53.534  -4.281   7.261  1.00  0.00    -0.000 C 
BRANCH  11  12
ATOM     12  C   UNL     1      55.049  -4.343   7.012  1.00  0.00    -0.000 C 
BRANCH  12  13
ATOM     13  C   UNL     1      55.847  -4.651   8.287  1.00  0.00    -0.003 C 
ATOM     14  C   UNL     1      57.333  -4.367   8.088  1.00  0.00     0.004 C 
ENDBRANCH  12  13
ENDBRANCH  11  12
ENDBRANCH  10  11
ENDBRANCH   9  10
ENDBRANCH   1   9
TORSDOF 10
ENDMDL
MODEL 3
REMARK VINA RESULT:    -4.214      2.882      5.321
REMARK INTER + INTRA:          -7.645
REMARK INTER:                  -6.784
REMARK INTRA:                  -0.861
REMARK UNBOUND:                -0.967
REMARK SMILES CCCCCCCCCCCC(=O)[O-]
REMARK SMILES IDX 7 1 8 2 9 3 10 4 11 5 12 6 13 7 14 8 6 9 5 10 4 11 3 12 2 13
REMARK SMILES IDX 1 14
REMARK H PARENT
REMARK Flexibility Score: inf
ROOT
ATOM      1  C   UNL     1      52.286  -3.844  12.210  1.00  0.00     0.000 C 
ENDROOT
BRANCH   1   2
ATOM      2  C   UNL     1      52.492  -4.637  10.909  1.00  0.00     0.000 C 
BRANCH   2   3
ATOM      3  C   UNL     1      51.945  -3.901   9.674  1.00  0.00     0.000 C 
BRANCH   3   4
ATOM      4  C   UNL     1      53.000  -3.740   8.568  1.00  0.00     0.006 C 
BRANCH   4   5
ATOM      5  C   UNL     1      54.433  -3.927   9.083  1.00  0.00     0.053 C 
BRANCH   5   6
ATOM      6  C   UNL     1      55.342  -4.323   7.963  1.00  0.00     0.041 C 
ATOM      7  O   UNL     1      54.874  -4.547   6.816  1.00  0.00    -0.550 OA
ATOM      8  O   UNL     1      56.701  -4.495   8.198  1.00  0.00    -0.550 OA
ENDBRANCH   5   6
ENDBRANCH   4   5
ENDBRANCH   3   4
ENDBRANCH   2   3
ENDBRANCH   1   2
BRANCH   1   9
ATOM      9  C   UNL     1      52.039  -2.349  11.961  1.00  0.00     0.000 C 
BRANCH   9  10
ATOM     10  C   UNL     1      53.145  -1.497  12.595  1.00  0.00    -0.000 C 
BRANCH  10  11
ATOM     11  C   UNL     1      54.227  -2.383  13.231  1.00  0.00    -0.000 C 
BRANCH  11  12
ATOM     12  C   UNL     1      55.204  -1.587  14.110  1.00  0.00    -0.000 C 
BRANCH  12  13
ATOM     13  C   UNL     1      56.412  -2.423  14.559  1.00  0.00    -0.003 C 
ATOM     14  C   UNL     1      56.660  -3.588  13.604  1.00  0.00     0.004 C 
ENDBRANCH  12  13
ENDBRANCH  11  12
ENDBRANCH  10  11
ENDBRANCH   9  10
ENDBRANCH   1   9
TORSDOF 10
ENDMDL
MODEL 4
REMARK VINA RESULT:    -4.195      3.137      6.013
REMARK INTER + INTRA:          -7.614
REMARK INTER:                  -6.868
REMARK INTRA:                  -0.746
REMARK UNBOUND:                -0.967
REMARK SMILES CCCCCCCCCCCC(=O)[O-]
REMARK SMILES IDX 7 1 8 2 9 3 10 4 11 5 12 6 13 7 14 8 6 9 5 10 4 11 3 12 2 13
REMARK SMILES IDX 1 14
REMARK H PARENT
REMARK Flexibility Score: inf
ROOT
ATOM      1  C   UNL     1      53.461  -2.443  12.579  1.00  0.00     0.000 C 
ENDROOT
BRANCH   1   2
ATOM      2  C   UNL     1      52.713  -3.753  12.880  1.00  0.00     0.000 C 
BRANCH   2   3
ATOM      3  C   UNL     1      51.807  -4.196  11.719  1.00  0.00     0.000 C 
BRANCH   3   4
ATOM      4  C   UNL     1      52.572  -4.978  10.639  1.00  0.00     0.006 C 
BRANCH   4   5
ATOM      5  C   UNL     1      52.266  -4.482   9.220  1.00  0.00     0.053 C 
BRANCH   5   6
ATOM      6  C   UNL     1      53.474  -3.833   8.622  1.00  0.00     0.041 C 
ATOM      7  O   UNL     1      54.457  -3.533   9.349  1.00  0.00    -0.550 OA
ATOM      8  O   UNL     1      53.495  -3.514   7.269  1.00  0.00    -0.550 OA
ENDBRANCH   5   6
ENDBRANCH   4   5
ENDBRANCH   3   4
ENDBRANCH   2   3
ENDBRANCH   1   2
BRANCH   1   9
ATOM      9  C   UNL     1      54.629  -2.191  13.544  1.00  0.00     0.000 C 
BRANCH   9  10
ATOM     10  C   UNL     1      55.386  -3.491  13.843  1.00  0.00    -0.000 C 
BRANCH  10  11
ATOM     11  C   UNL     1      56.877  -3.217  14.090  1.00  0.00    -0.000 C 
BRANCH  11  12
ATOM     12  C   UNL     1      57.151  -1.762  14.499  1.00  0.00    -0.000 C 
BRANCH  12  13
ATOM     13  C   UNL     1      57.372  -1.603  16.011  1.00  0.00    -0.003 C 
ATOM     14  C   UNL     1      56.236  -0.810  16.652  1.00  0.00     0.004 C 
ENDBRANCH  12  13
ENDBRANCH  11  12
ENDBRANCH  10  11
ENDBRANCH   9  10
ENDBRANCH   1   9
TORSDOF 10
ENDMDL
MODEL 5
REMARK VINA RESULT:    -4.167      6.123      9.941
REMARK INTER + INTRA:          -7.571
REMARK INTER:                  -6.897
REMARK INTRA:                  -0.674
REMARK UNBOUND:                -0.967
REMARK SMILES CCCCCCCCCCCC(=O)[O-]
REMARK SMILES IDX 7 1 8 2 9 3 10 4 11 5 12 6 13 7 14 8 6 9 5 10 4 11 3 12 2 13
REMARK SMILES IDX 1 14
REMARK H PARENT
REMARK Flexibility Score: inf
ROOT
ATOM      1  C   UNL     1      55.669  -0.768  18.552  1.00  0.00     0.000 C 
ENDROOT
BRANCH   1   2
ATOM      2  C   UNL     1      55.795  -0.852  17.022  1.00  0.00     0.000 C 
BRANCH   2   3
ATOM      3  C   UNL     1      57.257  -0.930  16.553  1.00  0.00     0.000 C 
BRANCH   3   4
ATOM      4  C   UNL     1      57.395  -1.543  15.150  1.00  0.00     0.006 C 
BRANCH   4   5
ATOM      5  C   UNL     1      56.051  -2.002  14.569  1.00  0.00     0.053 C 
BRANCH   5   6
ATOM      6  C   UNL     1      56.186  -3.356  13.947  1.00  0.00     0.041 C 
ATOM      7  O   UNL     1      57.303  -3.747  13.518  1.00  0.00    -0.550 OA
ATOM      8  O   UNL     1      55.067  -4.167  13.798  1.00  0.00    -0.550 OA
ENDBRANCH   5   6
ENDBRANCH   4   5
ENDBRANCH   3   4
ENDBRANCH   2   3
ENDBRANCH   1   2
BRANCH   1   9
ATOM      9  C   UNL     1      56.880  -1.369  19.282  1.00  0.00     0.000 C 
BRANCH   9  10
ATOM     10  C   UNL     1      56.441  -2.129  20.540  1.00  0.00    -0.000 C 
BRANCH  10  11
ATOM     11  C   UNL     1      57.411  -3.278  20.855  1.00  0.00    -0.000 C 
BRANCH  11  12
ATOM     12  C   UNL     1      58.691  -3.222  20.008  1.00  0.00    -0.000 C 
BRANCH  12  13
ATOM     13  C   UNL     1      59.966  -3.375  20.852  1.00  0.00    -0.003 C 
ATOM     14  C   UNL     1      59.683  -4.143  22.140  1.00  0.00     0.004 C 
ENDBRANCH  12  13
ENDBRANCH  11  12
ENDBRANCH  10  11
ENDBRANCH   9  10
ENDBRANCH   1   9
TORSDOF 10
ENDMDL
MODEL 6
REMARK VINA RESULT:    -4.161      3.174      5.534
REMARK INTER + INTRA:          -7.561
REMARK INTER:                  -6.586
REMARK INTRA:                  -0.976
REMARK UNBOUND:                -0.967
REMARK SMILES CCCCCCCCCCCC(=O)[O-]
REMARK SMILES IDX 7 1 8 2 9 3 10 4 11 5 12 6 13 7 14 8 6 9 5 10 4 11 3 12 2 13
REMARK SMILES IDX 1 14
REMARK H PARENT
REMARK Flexibility Score: inf
ROOT
ATOM      1  C   UNL     1      52.102  -1.457  11.819  1.00  0.00     0.000 C 
ENDROOT
BRANCH   1   2
ATOM      2  C   UNL     1      51.969  -1.181  10.312  1.00  0.00     0.000 C 
BRANCH   2   3
ATOM      3  C   UNL     1      52.015  -2.466   9.469  1.00  0.00     0.000 C 
BRANCH   3   4
ATOM      4  C   UNL     1      53.435  -2.805   8.988  1.00  0.00     0.006 C 
BRANCH   4   5
ATOM      5  C   UNL     1      53.610  -4.293   8.659  1.00  0.00     0.053 C 
BRANCH   5   6
ATOM      6  C   UNL     1      53.771  -4.487   7.184  1.00  0.00     0.041 C 
ATOM      7  O   UNL     1      52.814  -4.928   6.496  1.00  0.00    -0.550 OA
ATOM      8  O   UNL     1      54.994  -4.227   6.578  1.00  0.00    -0.550 OA
ENDBRANCH   5   6
ENDBRANCH   4   5
ENDBRANCH   3   4
ENDBRANCH   2   3
ENDBRANCH   1   2
BRANCH   1   9
ATOM      9  C   UNL     1      51.690  -2.887  12.200  1.00  0.00     0.000 C 
BRANCH   9  10
ATOM     10  C   UNL     1      52.772  -3.561  13.053  1.00  0.00    -0.000 C 
BRANCH  10  11
ATOM     11  C   UNL     1      54.175  -3.257  12.505  1.00  0.00    -0.000 C 
BRANCH  11  12
ATOM     12  C   UNL     1      55.189  -2.942  13.615  1.00  0.00    -0.000 C 
BRANCH  12  13
ATOM     13  C   UNL     1      54.893  -1.613  14.327  1.00  0.00    -0.003 C 
ATOM     14  C   UNL     1      55.911  -1.343  15.431  1.00  0.00     0.004 C 
ENDBRANCH  12  13
ENDBRANCH  11  12
ENDBRANCH  10  11
ENDBRANCH   9  10
ENDBRANCH   1   9
TORSDOF 10
ENDMDL
MODEL 7
REMARK VINA RESULT:    -4.149      1.467      2.758
REMARK INTER + INTRA:          -7.542
REMARK INTER:                  -6.745
REMARK INTRA:                  -0.797
REMARK UNBOUND:                -0.967
REMARK SMILES CCCCCCCCCCCC(=O)[O-]
REMARK SMILES IDX 7 1 8 2 9 3 10 4 11 5 12 6 13 7 14 8 6 9 5 10 4 11 3 12 2 13
REMARK SMILES IDX 1 14
REMARK H PARENT
REMARK Flexibility Score: inf
ROOT
ATOM      1  C   UNL     1      52.118  -2.151  12.212  1.00  0.00     0.000 C 
ENDROOT
BRANCH   1   2
ATOM      2  C   UNL     1      52.064  -3.614  12.683  1.00  0.00     0.000 C 
BRANCH   2   3
ATOM      3  C   UNL     1      53.456  -4.179  13.013  1.00  0.00     0.000 C 
BRANCH   3   4
ATOM      4  C   UNL     1      54.553  -3.103  12.980  1.00  0.00     0.006 C 
BRANCH   4   5
ATOM      5  C   UNL     1      55.800  -3.503  13.780  1.00  0.00     0.053 C 
BRANCH   5   6
ATOM      6  C   UNL     1      56.323  -2.332  14.552  1.00  0.00     0.041 C 
ATOM      7  O   UNL     1      57.557  -2.089  14.573  1.00  0.00    -0.550 OA
ATOM      8  O   UNL     1      55.451  -1.540  15.288  1.00  0.00    -0.550 OA
ENDBRANCH   5   6
ENDBRANCH   4   5
ENDBRANCH   3   4
ENDBRANCH   2   3
ENDBRANCH   1   2
BRANCH   1   9
ATOM      9  C   UNL     1      51.750  -1.991  10.729  1.00  0.00     0.000 C 
BRANCH   9  10
ATOM     10  C   UNL     1      52.994  -2.103   9.839  1.00  0.00    -0.000 C 
BRANCH  10  11
ATOM     11  C   UNL     1      52.864  -3.278   8.858  1.00  0.00    -0.000 C 
BRANCH  11  12
ATOM     12  C   UNL     1      54.195  -4.010   8.632  1.00  0.00    -0.000 C 
BRANCH  12  13
ATOM     13  C   UNL     1      54.457  -4.319   7.150  1.00  0.00    -0.003 C 
ATOM     14  C   UNL     1      53.480  -3.566   6.251  1.00  0.00     0.004 C 
ENDBRANCH  12  13
ENDBRANCH  11  12
ENDBRANCH  10  11
ENDBRANCH   9  10
ENDBRANCH   1   9
TORSDOF 10
ENDMDL
MODEL 8
REMARK VINA RESULT:    -4.097      2.626      4.460
REMARK INTER + INTRA:          -7.460
REMARK INTER:                  -6.742
REMARK INTRA:                  -0.718
REMARK UNBOUND:                -0.967
REMARK SMILES CCCCCCCCCCCC(=O)[O-]
REMARK SMILES IDX 7 1 8 2 9 3 10 4 11 5 12 6 13 7 14 8 6 9 5 10 4 11 3 12 2 13
REMARK SMILES IDX 1 14
REMARK H PARENT
REMARK Flexibility Score: inf
ROOT
ATOM      1  C   UNL     1      53.733  -2.993  12.565  1.00  0.00     0.000 C 
ENDROOT
BRANCH   1   2
ATOM      2  C   UNL     1      54.895  -3.468  13.455  1.00  0.00     0.000 C 
BRANCH   2   3
ATOM      3  C   UNL     1      55.560  -2.315  14.225  1.00  0.00     0.000 C 
BRANCH   3   4
ATOM      4  C   UNL     1      57.051  -2.570  14.496  1.00  0.00     0.006 C 
BRANCH   4   5
ATOM      5  C   UNL     1      57.822  -1.285  14.826  1.00  0.00     0.053 C 
BRANCH   5   6
ATOM      6  C   UNL     1      57.179  -0.570  15.973  1.00  0.00     0.041 C 
ATOM      7  O   UNL     1      56.650   0.558  15.799  1.00  0.00    -0.550 OA
ATOM      8  O   UNL     1      57.208  -1.129  17.245  1.00  0.00    -0.550 OA
ENDBRANCH   5   6
ENDBRANCH   4   5
ENDBRANCH   3   4
ENDBRANCH   2   3
ENDBRANCH   1   2
BRANCH   1   9
ATOM      9  C   UNL     1      52.396  -3.651  12.934  1.00  0.00     0.000 C 
BRANCH   9  10
ATOM     10  C   UNL     1      51.269  -3.154  12.020  1.00  0.00    -0.000 C 
BRANCH  10  11
ATOM     11  C   UNL     1      51.827  -2.299  10.872  1.00  0.00    -0.000 C 
BRANCH  11  12
ATOM     12  C   UNL     1      51.489  -2.873   9.488  1.00  0.00    -0.000 C 
BRANCH  12  13
ATOM     13  C   UNL     1      52.076  -4.276   9.269  1.00  0.00    -0.003 C 
ATOM     14  C   UNL     1      53.582  -4.210   9.028  1.00  0.00     0.004 C 
ENDBRANCH  12  13
ENDBRANCH  11  12
ENDBRANCH  10  11
ENDBRANCH   9  10
ENDBRANCH   1   9
TORSDOF 10
ENDMDL
MODEL 9
REMARK VINA RESULT:    -4.037      7.257     10.102
REMARK INTER + INTRA:          -7.365
REMARK INTER:                  -6.751
REMARK INTRA:                  -0.614
REMARK UNBOUND:                -0.967
REMARK SMILES CCCCCCCCCCCC(=O)[O-]
REMARK SMILES IDX 7 1 8 2 9 3 10 4 11 5 12 6 13 7 14 8 6 9 5 10 4 11 3 12 2 13
REMARK SMILES IDX 1 14
REMARK H PARENT
REMARK Flexibility Score: inf
ROOT
ATOM      1  C   UNL     1      56.892  -0.900  20.047  1.00  0.00     0.000 C 
ENDROOT
BRANCH   1   2
ATOM      2  C   UNL     1      56.397  -2.248  20.598  1.00  0.00     0.000 C 
BRANCH   2   3
ATOM      3  C   UNL     1      57.538  -3.109  21.165  1.00  0.00     0.000 C 
BRANCH   3   4
ATOM      4  C   UNL     1      58.921  -2.656  20.670  1.00  0.00     0.006 C 
BRANCH   4   5
ATOM      5  C   UNL     1      59.760  -3.813  20.113  1.00  0.00     0.053 C 
BRANCH   5   6
ATOM      6  C   UNL     1      61.050  -3.930  20.863  1.00  0.00     0.041 C 
ATOM      7  O   UNL     1      61.181  -3.378  21.986  1.00  0.00    -0.550 OA
ATOM      8  O   UNL     1      62.123  -4.608  20.298  1.00  0.00    -0.550 OA
ENDBRANCH   5   6
ENDBRANCH   4   5
ENDBRANCH   3   4
ENDBRANCH   2   3
ENDBRANCH   1   2
BRANCH   1   9
ATOM      9  C   UNL     1      56.444  -0.649  18.600  1.00  0.00     0.000 C 
BRANCH   9  10
ATOM     10  C   UNL     1      57.569  -0.982  17.612  1.00  0.00    -0.000 C 
BRANCH  10  11
ATOM     11  C   UNL     1      57.196  -0.549  16.186  1.00  0.00    -0.000 C 
BRANCH  11  12
ATOM     12  C   UNL     1      57.625  -1.573  15.125  1.00  0.00    -0.000 C 
BRANCH  12  13
ATOM     13  C   UNL     1      56.437  -2.347  14.533  1.00  0.00    -0.003 C 
ATOM     14  C   UNL     1      56.913  -3.553  13.728  1.00  0.00     0.004 C 
ENDBRANCH  12  13
ENDBRANCH  11  12
ENDBRANCH  10  11
ENDBRANCH   9  10
ENDBRANCH   1   9
TORSDOF 10
ENDMDL
