MODEL 1
REMARK VINA RESULT:    -3.496      0.000      0.000
REMARK INTER + INTRA:          -6.395
REMARK INTER:                  -5.948
REMARK INTRA:                  -0.447
REMARK UNBOUND:                -0.447
REMARK SMILES CCCCCCCCCCCCCC(=O)[O-]
REMARK SMILES IDX 8 1 9 2 10 3 11 4 12 5 13 6 14 7 15 8 16 9 7 10 6 11 5 12
REMARK SMILES IDX 4 13 3 14 2 15 1 16
REMARK H PARENT
REMARK Flexibility Score: inf
ROOT
ATOM      1  C   UNL     1     -10.783 -10.704  -0.653  1.00  0.00     0.000 C 
ENDROOT
BRANCH   1   2
ATOM      2  C   UNL     1      -9.905 -11.957  -0.484  1.00  0.00     0.000 C 
BRANCH   2   3
ATOM      3  C   UNL     1      -9.387 -12.125   0.953  1.00  0.00     0.000 C 
BRANCH   3   4
ATOM      4  C   UNL     1      -7.854 -12.125   1.036  1.00  0.00     0.000 C 
BRANCH   4   5
ATOM      5  C   UNL     1      -7.383 -12.054   2.496  1.00  0.00     0.006 C 
BRANCH   5   6
ATOM      6  C   UNL     1      -6.019 -11.365   2.636  1.00  0.00     0.053 C 
BRANCH   6   7
ATOM      7  C   UNL     1      -5.706 -11.035   4.063  1.00  0.00     0.041 C 
ATOM      8  O   UNL     1      -4.680 -10.363   4.348  1.00  0.00    -0.550 OA
ATOM      9  O   UNL     1      -6.530 -11.498   5.081  1.00  0.00    -0.550 OA
ENDBRANCH   6   7
ENDBRANCH   5   6
ENDBRANCH   4   5
ENDBRANCH   3   4
ENDBRANCH   2   3
ENDBRANCH   1   2
BRANCH   1  10
ATOM     10  C   UNL     1     -10.691 -10.096  -2.064  1.00  0.00     0.000 C 
BRANCH  10  11
ATOM     11  C   UNL     1     -10.009 -10.990  -3.120  1.00  0.00    -0.000 C 
BRANCH  11  12
ATOM     12  C   UNL     1      -9.074 -10.249  -4.097  1.00  0.00    -0.000 C 
BRANCH  12  13
ATOM     13  C   UNL     1      -8.205 -11.163  -4.983  1.00  0.00    -0.000 C 
BRANCH  13  14
ATOM     14  C   UNL     1      -7.317 -10.428  -6.007  1.00  0.00    -0.000 C 
BRANCH  14  15
ATOM     15  C   UNL     1      -6.447  -9.303  -5.418  1.00  0.00    -0.003 C 
ATOM     16  C   UNL     1      -5.076  -9.197  -6.086  1.00  0.00     0.004 C 
ENDBRANCH  14  15
ENDBRANCH  13  14
ENDBRANCH  12  13
ENDBRANCH  11  12
ENDBRANCH  10  11
ENDBRANCH   1  10
TORSDOF 12
ENDMDL
MODEL 2
REMARK VINA RESULT:    -3.075     20.462     22.278
REMARK INTER + INTRA:          -5.679
REMARK INTER:                  -4.316
REMARK INTRA:                  -1.363
REMARK UNBOUND:                -0.447
REMARK SMILES CCCCCCCCCCCCCC(=O)[O-]
REMARK SMILES IDX 8 1 9 2 10 3 11 4 12 5 13 6 14 7 15 8 16 9 7 10 6 11 5 12
REMARK SMILES IDX 4 13 3 14 2 15 1 16
REMARK H PARENT
REMARK Flexibility Score: inf
ROOT
ATOM      1  C   UNL     1       4.685   5.230   0.659  1.00  0.00     0.000 C 
ENDROOT
BRANCH   1   2
ATOM      2  C   UNL     1       4.184   4.668   2.000  1.00  0.00     0.000 C 
BRANCH   2   3
ATOM      3  C   UNL     1       3.914   5.769   3.037  1.00  0.00     0.000 C 
BRANCH   3   4
ATOM      4  C   UNL     1       4.142   7.181   2.477  1.00  0.00     0.000 C 
BRANCH   4   5
ATOM      5  C   UNL     1       3.001   8.125   2.885  1.00  0.00     0.006 C 
BRANCH   5   6
ATOM      6  C   UNL     1       2.663   8.018   4.378  1.00  0.00     0.053 C 
BRANCH   6   7
ATOM      7  C   UNL     1       1.185   7.952   4.610  1.00  0.00     0.041 C 
ATOM      8  O   UNL     1       0.393   7.877   3.635  1.00  0.00    -0.550 OA
ATOM      9  O   UNL     1       0.680   8.009   5.903  1.00  0.00    -0.550 OA
ENDBRANCH   6   7
ENDBRANCH   5   6
ENDBRANCH   4   5
ENDBRANCH   3   4
ENDBRANCH   2   3
ENDBRANCH   1   2
BRANCH   1  10
ATOM     10  C   UNL     1       6.032   4.623   0.222  1.00  0.00     0.000 C 
BRANCH  10  11
ATOM     11  C   UNL     1       7.054   4.413   1.358  1.00  0.00    -0.000 C 
BRANCH  11  12
ATOM     12  C   UNL     1       7.493   5.698   2.088  1.00  0.00    -0.000 C 
BRANCH  12  13
ATOM     13  C   UNL     1       8.099   6.786   1.180  1.00  0.00    -0.000 C 
BRANCH  13  14
ATOM     14  C   UNL     1       7.114   7.883   0.728  1.00  0.00    -0.000 C 
BRANCH  14  15
ATOM     15  C   UNL     1       7.043   8.101  -0.794  1.00  0.00    -0.003 C 
ATOM     16  C   UNL     1       5.610   8.124  -1.326  1.00  0.00     0.004 C 
ENDBRANCH  14  15
ENDBRANCH  13  14
ENDBRANCH  12  13
ENDBRANCH  11  12
ENDBRANCH  10  11
ENDBRANCH   1  10
TORSDOF 12
ENDMDL
MODEL 3
REMARK VINA RESULT:    -3.024      1.984      2.612
REMARK INTER + INTRA:          -5.592
REMARK INTER:                  -5.050
REMARK INTRA:                  -0.542
REMARK UNBOUND:                -0.447
REMARK SMILES CCCCCCCCCCCCCC(=O)[O-]
REMARK SMILES IDX 8 1 9 2 10 3 11 4 12 5 13 6 14 7 15 8 16 9 7 10 6 11 5 12
REMARK SMILES IDX 4 13 3 14 2 15 1 16
REMARK H PARENT
REMARK Flexibility Score: inf
ROOT
ATOM      1  C   UNL     1     -11.679 -11.235  -0.507  1.00  0.00     0.000 C 
ENDROOT
BRANCH   1   2
ATOM      2  C   UNL     1     -10.587 -10.846   0.505  1.00  0.00     0.000 C 
BRANCH   2   3
ATOM      3  C   UNL     1      -9.796 -12.061   1.015  1.00  0.00     0.000 C 
BRANCH   3   4
ATOM      4  C   UNL     1      -8.276 -11.868   0.907  1.00  0.00     0.000 C 
BRANCH   4   5
ATOM      5  C   UNL     1      -7.593 -12.122   2.260  1.00  0.00     0.006 C 
BRANCH   5   6
ATOM      6  C   UNL     1      -6.155 -11.588   2.296  1.00  0.00     0.053 C 
BRANCH   6   7
ATOM      7  C   UNL     1      -5.770 -11.118   3.665  1.00  0.00     0.041 C 
ATOM      8  O   UNL     1      -4.776 -10.362   3.820  1.00  0.00    -0.550 OA
ATOM      9  O   UNL     1      -6.490 -11.544   4.775  1.00  0.00    -0.550 OA
ENDBRANCH   6   7
ENDBRANCH   5   6
ENDBRANCH   4   5
ENDBRANCH   3   4
ENDBRANCH   2   3
ENDBRANCH   1   2
BRANCH   1  10
ATOM     10  C   UNL     1     -11.721 -10.300  -1.729  1.00  0.00     0.000 C 
BRANCH  10  11
ATOM     11  C   UNL     1     -10.347  -9.797  -2.218  1.00  0.00    -0.000 C 
BRANCH  11  12
ATOM     12  C   UNL     1      -9.579 -10.776  -3.129  1.00  0.00    -0.000 C 
BRANCH  12  13
ATOM     13  C   UNL     1      -9.987 -10.735  -4.615  1.00  0.00    -0.000 C 
BRANCH  13  14
ATOM     14  C   UNL     1     -11.501 -10.847  -4.880  1.00  0.00    -0.000 C 
BRANCH  14  15
ATOM     15  C   UNL     1     -12.010 -10.029  -6.081  1.00  0.00    -0.003 C 
ATOM     16  C   UNL     1     -11.727  -8.533  -5.946  1.00  0.00     0.004 C 
ENDBRANCH  14  15
ENDBRANCH  13  14
ENDBRANCH  12  13
ENDBRANCH  11  12
ENDBRANCH  10  11
ENDBRANCH   1  10
TORSDOF 12
ENDMDL
MODEL 4
REMARK VINA RESULT:    -2.655     20.661     22.704
REMARK INTER + INTRA:          -4.964
REMARK INTER:                  -4.873
REMARK INTRA:                  -0.091
REMARK UNBOUND:                -0.447
REMARK SMILES CCCCCCCCCCCCCC(=O)[O-]
REMARK SMILES IDX 8 1 9 2 10 3 11 4 12 5 13 6 14 7 15 8 16 9 7 10 6 11 5 12
REMARK SMILES IDX 4 13 3 14 2 15 1 16
REMARK H PARENT
REMARK Flexibility Score: inf
ROOT
ATOM      1  C   UNL     1       4.492   4.537   0.625  1.00  0.00     0.000 C 
ENDROOT
BRANCH   1   2
ATOM      2  C   UNL     1       4.363   5.685   1.642  1.00  0.00     0.000 C 
BRANCH   2   3
ATOM      3  C   UNL     1       3.756   6.954   1.025  1.00  0.00     0.000 C 
BRANCH   3   4
ATOM      4  C   UNL     1       3.510   8.061   2.062  1.00  0.00     0.000 C 
BRANCH   4   5
ATOM      5  C   UNL     1       2.561   7.576   3.167  1.00  0.00     0.006 C 
BRANCH   5   6
ATOM      6  C   UNL     1       2.956   8.110   4.551  1.00  0.00     0.053 C 
BRANCH   6   7
ATOM      7  C   UNL     1       4.439   8.074   4.758  1.00  0.00     0.041 C 
ATOM      8  O   UNL     1       4.916   8.036   5.922  1.00  0.00    -0.550 OA
ATOM      9  O   UNL     1       5.296   8.118   3.665  1.00  0.00    -0.550 OA
ENDBRANCH   6   7
ENDBRANCH   5   6
ENDBRANCH   4   5
ENDBRANCH   3   4
ENDBRANCH   2   3
ENDBRANCH   1   2
BRANCH   1  10
ATOM     10  C   UNL     1       5.864   3.842   0.680  1.00  0.00     0.000 C 
BRANCH  10  11
ATOM     11  C   UNL     1       6.841   4.401   1.735  1.00  0.00    -0.000 C 
BRANCH  11  12
ATOM     12  C   UNL     1       7.923   5.350   1.185  1.00  0.00    -0.000 C 
BRANCH  12  13
ATOM     13  C   UNL     1       8.120   6.648   1.994  1.00  0.00    -0.000 C 
BRANCH  13  14
ATOM     14  C   UNL     1       7.650   7.935   1.287  1.00  0.00    -0.000 C 
BRANCH  14  15
ATOM     15  C   UNL     1       7.865   7.952  -0.237  1.00  0.00    -0.003 C 
ATOM     16  C   UNL     1       6.557   7.899  -1.025  1.00  0.00     0.004 C 
ENDBRANCH  14  15
ENDBRANCH  13  14
ENDBRANCH  12  13
ENDBRANCH  11  12
ENDBRANCH  10  11
ENDBRANCH   1  10
TORSDOF 12
ENDMDL
MODEL 5
REMARK VINA RESULT:    -2.651      1.595      2.306
REMARK INTER + INTRA:          -4.957
REMARK INTER:                  -4.014
REMARK INTRA:                  -0.943
REMARK UNBOUND:                -0.447
REMARK SMILES CCCCCCCCCCCCCC(=O)[O-]
REMARK SMILES IDX 8 1 9 2 10 3 11 4 12 5 13 6 14 7 15 8 16 9 7 10 6 11 5 12
REMARK SMILES IDX 4 13 3 14 2 15 1 16
REMARK H PARENT
REMARK Flexibility Score: inf
ROOT
ATOM      1  C   UNL     1     -10.847  -9.909  -1.947  1.00  0.00     0.000 C 
ENDROOT
BRANCH   1   2
ATOM      2  C   UNL     1     -10.354 -11.359  -1.799  1.00  0.00     0.000 C 
BRANCH   2   3
ATOM      3  C   UNL     1     -10.941 -12.058  -0.563  1.00  0.00     0.000 C 
BRANCH   3   4
ATOM      4  C   UNL     1     -10.844 -11.200   0.707  1.00  0.00     0.000 C 
BRANCH   4   5
ATOM      5  C   UNL     1      -9.862 -11.817   1.714  1.00  0.00     0.006 C 
BRANCH   5   6
ATOM      6  C   UNL     1      -8.487 -12.096   1.091  1.00  0.00     0.053 C 
BRANCH   6   7
ATOM      7  C   UNL     1      -7.374 -11.828   2.056  1.00  0.00     0.041 C 
ATOM      8  O   UNL     1      -6.278 -11.363   1.647  1.00  0.00    -0.550 OA
ATOM      9  O   UNL     1      -7.535 -12.124   3.404  1.00  0.00    -0.550 OA
ENDBRANCH   6   7
ENDBRANCH   5   6
ENDBRANCH   4   5
ENDBRANCH   3   4
ENDBRANCH   2   3
ENDBRANCH   1   2
BRANCH   1  10
ATOM     10  C   UNL     1     -11.638  -9.677  -3.247  1.00  0.00     0.000 C 
BRANCH  10  11
ATOM     11  C   UNL     1     -11.844 -10.931  -4.122  1.00  0.00    -0.000 C 
BRANCH  11  12
ATOM     12  C   UNL     1     -11.185 -10.871  -5.514  1.00  0.00    -0.000 C 
BRANCH  12  13
ATOM     13  C   UNL     1      -9.775 -10.247  -5.539  1.00  0.00    -0.000 C 
BRANCH  13  14
ATOM     14  C   UNL     1      -8.613 -11.259  -5.491  1.00  0.00    -0.000 C 
BRANCH  14  15
ATOM     15  C   UNL     1      -7.211 -10.630  -5.401  1.00  0.00    -0.003 C 
ATOM     16  C   UNL     1      -7.243  -9.102  -5.374  1.00  0.00     0.004 C 
ENDBRANCH  14  15
ENDBRANCH  13  14
ENDBRANCH  12  13
ENDBRANCH  11  12
ENDBRANCH  10  11
ENDBRANCH   1  10
TORSDOF 12
ENDMDL
MODEL 6
REMARK VINA RESULT:    -2.456     20.690     22.487
REMARK INTER + INTRA:          -4.625
REMARK INTER:                  -3.737
REMARK INTRA:                  -0.888
REMARK UNBOUND:                -0.447
REMARK SMILES CCCCCCCCCCCCCC(=O)[O-]
REMARK SMILES IDX 8 1 9 2 10 3 11 4 12 5 13 6 14 7 15 8 16 9 7 10 6 11 5 12
REMARK SMILES IDX 4 13 3 14 2 15 1 16
REMARK H PARENT
REMARK Flexibility Score: inf
ROOT
ATOM      1  C   UNL     1       7.092   4.243   1.359  1.00  0.00     0.000 C 
ENDROOT
BRANCH   1   2
ATOM      2  C   UNL     1       7.819   5.515   1.831  1.00  0.00     0.000 C 
BRANCH   2   3
ATOM      3  C   UNL     1       7.081   6.227   2.975  1.00  0.00     0.000 C 
BRANCH   3   4
ATOM      4  C   UNL     1       6.912   7.733   2.727  1.00  0.00     0.000 C 
BRANCH   4   5
ATOM      5  C   UNL     1       5.426   8.121   2.696  1.00  0.00     0.006 C 
BRANCH   5   6
ATOM      6  C   UNL     1       4.746   7.935   4.059  1.00  0.00     0.053 C 
BRANCH   6   7
ATOM      7  C   UNL     1       3.454   7.187   3.939  1.00  0.00     0.041 C 
ATOM      8  O   UNL     1       2.484   7.473   4.688  1.00  0.00    -0.550 OA
ATOM      9  O   UNL     1       3.333   6.149   3.023  1.00  0.00    -0.550 OA
ENDBRANCH   6   7
ENDBRANCH   5   6
ENDBRANCH   4   5
ENDBRANCH   3   4
ENDBRANCH   2   3
ENDBRANCH   1   2
BRANCH   1  10
ATOM     10  C   UNL     1       5.559   4.375   1.419  1.00  0.00     0.000 C 
BRANCH  10  11
ATOM     11  C   UNL     1       4.892   4.869   0.119  1.00  0.00    -0.000 C 
BRANCH  11  12
ATOM     12  C   UNL     1       5.010   6.384  -0.140  1.00  0.00    -0.000 C 
BRANCH  12  13
ATOM     13  C   UNL     1       6.363   6.840  -0.720  1.00  0.00    -0.000 C 
BRANCH  13  14
ATOM     14  C   UNL     1       6.308   8.124  -1.573  1.00  0.00    -0.000 C 
BRANCH  14  15
ATOM     15  C   UNL     1       5.233   8.124  -2.674  1.00  0.00    -0.003 C 
ATOM     16  C   UNL     1       5.822   8.043  -4.082  1.00  0.00     0.004 C 
ENDBRANCH  14  15
ENDBRANCH  13  14
ENDBRANCH  12  13
ENDBRANCH  11  12
ENDBRANCH  10  11
ENDBRANCH   1  10
TORSDOF 12
ENDMDL
MODEL 7
REMARK VINA RESULT:    -2.348      7.174     12.190
REMARK INTER + INTRA:          -4.441
REMARK INTER:                  -3.756
REMARK INTRA:                  -0.686
REMARK UNBOUND:                -0.447
REMARK SMILES CCCCCCCCCCCCCC(=O)[O-]
REMARK SMILES IDX 8 1 9 2 10 3 11 4 12 5 13 6 14 7 15 8 16 9 7 10 6 11 5 12
REMARK SMILES IDX 4 13 3 14 2 15 1 16
REMARK H PARENT
REMARK Flexibility Score: inf
ROOT
ATOM      1  C   UNL     1      -9.668 -10.975   8.697  1.00  0.00     0.000 C 
ENDROOT
BRANCH   1   2
ATOM      2  C   UNL     1      -8.572 -12.054   8.736  1.00  0.00     0.000 C 
BRANCH   2   3
ATOM      3  C   UNL     1      -7.766 -12.123   7.430  1.00  0.00     0.000 C 
BRANCH   3   4
ATOM      4  C   UNL     1      -8.654 -12.048   6.179  1.00  0.00     0.000 C 
BRANCH   4   5
ATOM      5  C   UNL     1      -7.805 -12.079   4.900  1.00  0.00     0.006 C 
BRANCH   5   6
ATOM      6  C   UNL     1      -6.398 -11.507   5.121  1.00  0.00     0.053 C 
BRANCH   6   7
ATOM      7  C   UNL     1      -5.716 -11.192   3.825  1.00  0.00     0.041 C 
ATOM      8  O   UNL     1      -4.641 -10.536   3.817  1.00  0.00    -0.550 OA
ATOM      9  O   UNL     1      -6.285 -11.593   2.623  1.00  0.00    -0.550 OA
ENDBRANCH   6   7
ENDBRANCH   5   6
ENDBRANCH   4   5
ENDBRANCH   3   4
ENDBRANCH   2   3
ENDBRANCH   1   2
BRANCH   1  10
ATOM     10  C   UNL     1     -10.975 -11.426   9.376  1.00  0.00     0.000 C 
BRANCH  10  11
ATOM     11  C   UNL     1     -10.797 -12.125  10.740  1.00  0.00    -0.000 C 
BRANCH  11  12
ATOM     12  C   UNL     1     -12.003 -12.012  11.693  1.00  0.00    -0.000 C 
BRANCH  12  13
ATOM     13  C   UNL     1     -11.651 -11.616  13.141  1.00  0.00    -0.000 C 
BRANCH  13  14
ATOM     14  C   UNL     1     -12.125 -10.211  13.567  1.00  0.00    -0.000 C 
BRANCH  14  15
ATOM     15  C   UNL     1     -10.994  -9.218  13.891  1.00  0.00    -0.003 C 
ATOM     16  C   UNL     1     -10.580  -8.374  12.686  1.00  0.00     0.004 C 
ENDBRANCH  14  15
ENDBRANCH  13  14
ENDBRANCH  12  13
ENDBRANCH  11  12
ENDBRANCH  10  11
ENDBRANCH   1  10
TORSDOF 12
ENDMDL
