MODEL 1
REMARK VINA RESULT:    -4.663      0.000      0.000
REMARK INTER + INTRA:         -13.411
REMARK INTER:                 -10.659
REMARK INTRA:                  -2.752
REMARK UNBOUND:                -2.752
REMARK SMILES CCCCCCCCCCCCCCCCCCCCCCCC(=O)[O-]
REMARK SMILES IDX 13 1 14 2 15 3 16 4 17 5 18 6 19 7 20 8 21 9 22 10 23 11
REMARK SMILES IDX 24 12 25 13 26 14 12 15 11 16 10 17 9 18 8 19 7 20 6 21 5 22
REMARK SMILES IDX 4 23 3 24 2 25 1 26
REMARK H PARENT
REMARK Flexibility Score: inf
ROOT
ATOM      1  C   UNL     1       0.331  51.057  22.078  1.00  0.00     0.000 C 
ENDROOT
BRANCH   1   2
ATOM      2  C   UNL     1       0.407  52.596  22.043  1.00  0.00     0.000 C 
BRANCH   2   3
ATOM      3  C   UNL     1       1.654  53.172  21.348  1.00  0.00     0.000 C 
BRANCH   3   4
ATOM      4  C   UNL     1       2.600  53.893  22.323  1.00  0.00     0.000 C 
BRANCH   4   5
ATOM      5  C   UNL     1       3.336  52.919  23.265  1.00  0.00     0.000 C 
BRANCH   5   6
ATOM      6  C   UNL     1       3.008  53.106  24.758  1.00  0.00     0.000 C 
BRANCH   6   7
ATOM      7  C   UNL     1       2.022  52.052  25.286  1.00  0.00     0.000 C 
BRANCH   7   8
ATOM      8  C   UNL     1       2.595  50.638  25.132  1.00  0.00     0.000 C 
BRANCH   8   9
ATOM      9  C   UNL     1       1.694  49.600  25.818  1.00  0.00     0.000 C 
BRANCH   9  10
ATOM     10  C   UNL     1       2.495  48.501  26.533  1.00  0.00     0.006 C 
BRANCH  10  11
ATOM     11  C   UNL     1       3.652  49.062  27.369  1.00  0.00     0.053 C 
BRANCH  11  12
ATOM     12  C   UNL     1       3.147  49.588  28.677  1.00  0.00     0.041 C 
ATOM     13  O   UNL     1       3.814  50.443  29.317  1.00  0.00    -0.550 OA
ATOM     14  O   UNL     1       1.950  49.115  29.199  1.00  0.00    -0.550 OA
ENDBRANCH  11  12
ENDBRANCH  10  11
ENDBRANCH   9  10
ENDBRANCH   8   9
ENDBRANCH   7   8
ENDBRANCH   6   7
ENDBRANCH   5   6
ENDBRANCH   4   5
ENDBRANCH   3   4
ENDBRANCH   2   3
ENDBRANCH   1   2
BRANCH   1  15
ATOM     15  C   UNL     1       1.506  50.327  21.399  1.00  0.00     0.000 C 
BRANCH  15  16
ATOM     16  C   UNL     1       1.904  48.984  22.046  1.00  0.00     0.000 C 
BRANCH  16  17
ATOM     17  C   UNL     1       0.813  47.897  22.006  1.00  0.00     0.000 C 
BRANCH  17  18
ATOM     18  C   UNL     1      -0.174  47.929  23.187  1.00  0.00    -0.000 C 
BRANCH  18  19
ATOM     19  C   UNL     1      -0.210  46.616  24.000  1.00  0.00    -0.000 C 
BRANCH  19  20
ATOM     20  C   UNL     1      -1.616  45.994  24.045  1.00  0.00    -0.000 C 
BRANCH  20  21
ATOM     21  C   UNL     1      -2.476  46.553  25.190  1.00  0.00    -0.000 C 
BRANCH  21  22
ATOM     22  C   UNL     1      -3.631  47.435  24.691  1.00  0.00    -0.000 C 
BRANCH  22  23
ATOM     23  C   UNL     1      -4.905  47.182  25.506  1.00  0.00    -0.000 C 
BRANCH  23  24
ATOM     24  C   UNL     1      -5.243  45.686  25.552  1.00  0.00    -0.000 C 
BRANCH  24  25
ATOM     25  C   UNL     1      -5.652  45.128  24.179  1.00  0.00    -0.003 C 
ATOM     26  C   UNL     1      -4.836  43.903  23.771  1.00  0.00     0.004 C 
ENDBRANCH  24  25
ENDBRANCH  23  24
ENDBRANCH  22  23
ENDBRANCH  21  22
ENDBRANCH  20  21
ENDBRANCH  19  20
ENDBRANCH  18  19
ENDBRANCH  17  18
ENDBRANCH  16  17
ENDBRANCH  15  16
ENDBRANCH   1  15
TORSDOF 22
ENDMDL
MODEL 2
REMARK VINA RESULT:    -4.650      3.338      9.178
REMARK INTER + INTRA:         -13.381
REMARK INTER:                 -10.953
REMARK INTRA:                  -2.429
REMARK UNBOUND:                -2.752
REMARK SMILES CCCCCCCCCCCCCCCCCCCCCCCC(=O)[O-]
REMARK SMILES IDX 13 1 14 2 15 3 16 4 17 5 18 6 19 7 20 8 21 9 22 10 23 11
REMARK SMILES IDX 24 12 25 13 26 14 12 15 11 16 10 17 9 18 8 19 7 20 6 21 5 22
REMARK SMILES IDX 4 23 3 24 2 25 1 26
REMARK H PARENT
REMARK Flexibility Score: inf
ROOT
ATOM      1  C   UNL     1      -1.246  47.432  25.514  1.00  0.00     0.000 C 
ENDROOT
BRANCH   1   2
ATOM      2  C   UNL     1      -2.774  47.638  25.514  1.00  0.00     0.000 C 
BRANCH   2   3
ATOM      3  C   UNL     1      -3.602  46.369  25.787  1.00  0.00     0.000 C 
BRANCH   3   4
ATOM      4  C   UNL     1      -4.536  46.004  24.620  1.00  0.00     0.000 C 
BRANCH   4   5
ATOM      5  C   UNL     1      -4.450  44.514  24.235  1.00  0.00     0.000 C 
BRANCH   5   6
ATOM      6  C   UNL     1      -5.729  43.947  23.594  1.00  0.00     0.000 C 
BRANCH   6   7
ATOM      7  C   UNL     1      -6.669  43.293  24.620  1.00  0.00     0.000 C 
BRANCH   7   8
ATOM      8  C   UNL     1      -8.087  43.865  24.509  1.00  0.00     0.000 C 
BRANCH   8   9
ATOM      9  C   UNL     1      -8.322  44.964  25.556  1.00  0.00     0.000 C 
BRANCH   9  10
ATOM     10  C   UNL     1      -7.646  44.654  26.901  1.00  0.00     0.006 C 
BRANCH  10  11
ATOM     11  C   UNL     1      -6.947  45.878  27.507  1.00  0.00     0.053 C 
BRANCH  11  12
ATOM     12  C   UNL     1      -7.849  46.565  28.485  1.00  0.00     0.041 C 
ATOM     13  O   UNL     1      -8.879  45.983  28.916  1.00  0.00    -0.550 OA
ATOM     14  O   UNL     1      -7.562  47.858  28.903  1.00  0.00    -0.550 OA
ENDBRANCH  11  12
ENDBRANCH  10  11
ENDBRANCH   9  10
ENDBRANCH   8   9
ENDBRANCH   7   8
ENDBRANCH   6   7
ENDBRANCH   5   6
ENDBRANCH   4   5
ENDBRANCH   3   4
ENDBRANCH   2   3
ENDBRANCH   1   2
BRANCH   1  15
ATOM     15  C   UNL     1      -0.740  46.276  24.630  1.00  0.00     0.000 C 
BRANCH  15  16
ATOM     16  C   UNL     1      -0.490  46.644  23.152  1.00  0.00     0.000 C 
BRANCH  16  17
ATOM     17  C   UNL     1       0.019  48.078  22.918  1.00  0.00     0.000 C 
BRANCH  17  18
ATOM     18  C   UNL     1       1.070  48.217  21.801  1.00  0.00    -0.000 C 
BRANCH  18  19
ATOM     19  C   UNL     1       1.259  49.667  21.306  1.00  0.00    -0.000 C 
BRANCH  19  20
ATOM     20  C   UNL     1       2.314  50.432  22.126  1.00  0.00    -0.000 C 
BRANCH  20  21
ATOM     21  C   UNL     1       1.700  51.225  23.290  1.00  0.00    -0.000 C 
BRANCH  21  22
ATOM     22  C   UNL     1       2.673  51.407  24.465  1.00  0.00    -0.000 C 
BRANCH  22  23
ATOM     23  C   UNL     1       2.144  50.720  25.729  1.00  0.00    -0.000 C 
BRANCH  23  24
ATOM     24  C   UNL     1       2.081  49.197  25.543  1.00  0.00    -0.000 C 
BRANCH  24  25
ATOM     25  C   UNL     1       2.517  48.429  26.801  1.00  0.00    -0.003 C 
ATOM     26  C   UNL     1       3.583  49.170  27.607  1.00  0.00     0.004 C 
ENDBRANCH  24  25
ENDBRANCH  23  24
ENDBRANCH  22  23
ENDBRANCH  21  22
ENDBRANCH  20  21
ENDBRANCH  19  20
ENDBRANCH  18  19
ENDBRANCH  17  18
ENDBRANCH  16  17
ENDBRANCH  15  16
ENDBRANCH   1  15
TORSDOF 22
ENDMDL
MODEL 3
REMARK VINA RESULT:    -4.643      3.288      7.588
REMARK INTER + INTRA:         -13.367
REMARK INTER:                 -10.588
REMARK INTRA:                  -2.779
REMARK UNBOUND:                -2.752
REMARK SMILES CCCCCCCCCCCCCCCCCCCCCCCC(=O)[O-]
REMARK SMILES IDX 13 1 14 2 15 3 16 4 17 5 18 6 19 7 20 8 21 9 22 10 23 11
REMARK SMILES IDX 24 12 25 13 26 14 12 15 11 16 10 17 9 18 8 19 7 20 6 21 5 22
REMARK SMILES IDX 4 23 3 24 2 25 1 26
REMARK H PARENT
REMARK Flexibility Score: inf
ROOT
ATOM      1  C   UNL     1       0.947  51.377  21.761  1.00  0.00     0.000 C 
ENDROOT
BRANCH   1   2
ATOM      2  C   UNL     1       1.758  50.261  21.071  1.00  0.00     0.000 C 
BRANCH   2   3
ATOM      3  C   UNL     1       1.957  48.987  21.911  1.00  0.00     0.000 C 
BRANCH   3   4
ATOM      4  C   UNL     1       1.020  47.842  21.488  1.00  0.00     0.000 C 
BRANCH   4   5
ATOM      5  C   UNL     1       0.141  47.336  22.648  1.00  0.00     0.000 C 
BRANCH   5   6
ATOM      6  C   UNL     1      -0.437  48.448  23.542  1.00  0.00     0.000 C 
BRANCH   6   7
ATOM      7  C   UNL     1      -0.638  47.996  24.997  1.00  0.00     0.000 C 
BRANCH   7   8
ATOM      8  C   UNL     1      -1.172  46.560  25.058  1.00  0.00     0.000 C 
BRANCH   8   9
ATOM      9  C   UNL     1      -2.671  46.514  24.725  1.00  0.00     0.000 C 
BRANCH   9  10
ATOM     10  C   UNL     1      -3.128  45.128  24.246  1.00  0.00     0.006 C 
BRANCH  10  11
ATOM     11  C   UNL     1      -4.648  44.942  24.338  1.00  0.00     0.053 C 
BRANCH  11  12
ATOM     12  C   UNL     1      -5.004  43.490  24.277  1.00  0.00     0.041 C 
ATOM     13  O   UNL     1      -4.102  42.620  24.146  1.00  0.00    -0.550 OA
ATOM     14  O   UNL     1      -6.334  43.098  24.343  1.00  0.00    -0.550 OA
ENDBRANCH  11  12
ENDBRANCH  10  11
ENDBRANCH   9  10
ENDBRANCH   8   9
ENDBRANCH   7   8
ENDBRANCH   6   7
ENDBRANCH   5   6
ENDBRANCH   4   5
ENDBRANCH   3   4
ENDBRANCH   2   3
ENDBRANCH   1   2
BRANCH   1  15
ATOM     15  C   UNL     1       1.313  52.812  21.334  1.00  0.00     0.000 C 
BRANCH  15  16
ATOM     16  C   UNL     1       0.507  53.927  22.033  1.00  0.00     0.000 C 
BRANCH  16  17
ATOM     17  C   UNL     1       1.268  54.683  23.138  1.00  0.00     0.000 C 
BRANCH  17  18
ATOM     18  C   UNL     1       2.786  54.425  23.168  1.00  0.00    -0.000 C 
BRANCH  18  19
ATOM     19  C   UNL     1       3.224  53.434  24.267  1.00  0.00    -0.000 C 
BRANCH  19  20
ATOM     20  C   UNL     1       2.283  53.456  25.484  1.00  0.00    -0.000 C 
BRANCH  20  21
ATOM     21  C   UNL     1       1.639  52.090  25.762  1.00  0.00    -0.000 C 
BRANCH  21  22
ATOM     22  C   UNL     1       2.194  50.975  24.863  1.00  0.00    -0.000 C 
BRANCH  22  23
ATOM     23  C   UNL     1       2.583  49.744  25.691  1.00  0.00    -0.000 C 
BRANCH  23  24
ATOM     24  C   UNL     1       1.992  49.821  27.105  1.00  0.00    -0.000 C 
BRANCH  24  25
ATOM     25  C   UNL     1       3.015  49.466  28.195  1.00  0.00    -0.003 C 
ATOM     26  C   UNL     1       4.294  48.850  27.628  1.00  0.00     0.004 C 
ENDBRANCH  24  25
ENDBRANCH  23  24
ENDBRANCH  22  23
ENDBRANCH  21  22
ENDBRANCH  20  21
ENDBRANCH  19  20
ENDBRANCH  18  19
ENDBRANCH  17  18
ENDBRANCH  16  17
ENDBRANCH  15  16
ENDBRANCH   1  15
TORSDOF 22
ENDMDL
MODEL 4
REMARK VINA RESULT:    -4.606      2.505      6.460
REMARK INTER + INTRA:         -13.282
REMARK INTER:                  -9.412
REMARK INTRA:                  -3.870
REMARK UNBOUND:                -2.752
REMARK SMILES CCCCCCCCCCCCCCCCCCCCCCCC(=O)[O-]
REMARK SMILES IDX 13 1 14 2 15 3 16 4 17 5 18 6 19 7 20 8 21 9 22 10 23 11
REMARK SMILES IDX 24 12 25 13 26 14 12 15 11 16 10 17 9 18 8 19 7 20 6 21 5 22
REMARK SMILES IDX 4 23 3 24 2 25 1 26
REMARK H PARENT
REMARK Flexibility Score: inf
ROOT
ATOM      1  C   UNL     1       1.662  50.527  21.709  1.00  0.00     0.000 C 
ENDROOT
BRANCH   1   2
ATOM      2  C   UNL     1       2.149  49.070  21.833  1.00  0.00     0.000 C 
BRANCH   2   3
ATOM      3  C   UNL     1       1.064  47.999  21.618  1.00  0.00     0.000 C 
BRANCH   3   4
ATOM      4  C   UNL     1       0.032  47.959  22.757  1.00  0.00     0.000 C 
BRANCH   4   5
ATOM      5  C   UNL     1      -0.482  46.535  23.042  1.00  0.00     0.000 C 
BRANCH   5   6
ATOM      6  C   UNL     1      -0.607  46.190  24.538  1.00  0.00     0.000 C 
BRANCH   6   7
ATOM      7  C   UNL     1      -2.064  45.970  24.977  1.00  0.00     0.000 C 
BRANCH   7   8
ATOM      8  C   UNL     1      -2.941  47.168  24.593  1.00  0.00     0.000 C 
BRANCH   8   9
ATOM      9  C   UNL     1      -3.153  48.103  25.794  1.00  0.00     0.000 C 
BRANCH   9  10
ATOM     10  C   UNL     1      -3.022  47.374  27.140  1.00  0.00     0.006 C 
BRANCH  10  11
ATOM     11  C   UNL     1      -4.312  47.427  27.969  1.00  0.00     0.053 C 
BRANCH  11  12
ATOM     12  C   UNL     1      -4.006  47.266  29.425  1.00  0.00     0.041 C 
ATOM     13  O   UNL     1      -2.943  46.699  29.792  1.00  0.00    -0.550 OA
ATOM     14  O   UNL     1      -4.907  47.724  30.378  1.00  0.00    -0.550 OA
ENDBRANCH  11  12
ENDBRANCH  10  11
ENDBRANCH   9  10
ENDBRANCH   8   9
ENDBRANCH   7   8
ENDBRANCH   6   7
ENDBRANCH   5   6
ENDBRANCH   4   5
ENDBRANCH   3   4
ENDBRANCH   2   3
ENDBRANCH   1   2
BRANCH   1  15
ATOM     15  C   UNL     1       2.336  51.528  22.668  1.00  0.00     0.000 C 
BRANCH  15  16
ATOM     16  C   UNL     1       2.020  53.013  22.391  1.00  0.00     0.000 C 
BRANCH  16  17
ATOM     17  C   UNL     1       1.105  53.266  21.179  1.00  0.00     0.000 C 
BRANCH  17  18
ATOM     18  C   UNL     1      -0.215  53.990  21.506  1.00  0.00    -0.000 C 
BRANCH  18  19
ATOM     19  C   UNL     1      -0.828  53.575  22.861  1.00  0.00    -0.000 C 
BRANCH  19  20
ATOM     20  C   UNL     1      -1.527  52.206  22.792  1.00  0.00    -0.000 C 
BRANCH  20  21
ATOM     21  C   UNL     1      -1.158  51.291  23.970  1.00  0.00    -0.000 C 
BRANCH  21  22
ATOM     22  C   UNL     1      -0.581  52.063  25.167  1.00  0.00    -0.000 C 
BRANCH  22  23
ATOM     23  C   UNL     1       0.521  51.255  25.861  1.00  0.00    -0.000 C 
BRANCH  23  24
ATOM     24  C   UNL     1       0.226  49.750  25.799  1.00  0.00    -0.000 C 
BRANCH  24  25
ATOM     25  C   UNL     1       1.483  48.891  26.008  1.00  0.00    -0.003 C 
ATOM     26  C   UNL     1       2.774  49.704  25.941  1.00  0.00     0.004 C 
ENDBRANCH  24  25
ENDBRANCH  23  24
ENDBRANCH  22  23
ENDBRANCH  21  22
ENDBRANCH  20  21
ENDBRANCH  19  20
ENDBRANCH  18  19
ENDBRANCH  17  18
ENDBRANCH  16  17
ENDBRANCH  15  16
ENDBRANCH   1  15
TORSDOF 22
ENDMDL
MODEL 5
REMARK VINA RESULT:    -4.604      3.552      8.857
REMARK INTER + INTRA:         -13.277
REMARK INTER:                 -11.308
REMARK INTRA:                  -1.968
REMARK UNBOUND:                -2.752
REMARK SMILES CCCCCCCCCCCCCCCCCCCCCCCC(=O)[O-]
REMARK SMILES IDX 13 1 14 2 15 3 16 4 17 5 18 6 19 7 20 8 21 9 22 10 23 11
REMARK SMILES IDX 24 12 25 13 26 14 12 15 11 16 10 17 9 18 8 19 7 20 6 21 5 22
REMARK SMILES IDX 4 23 3 24 2 25 1 26
REMARK H PARENT
REMARK Flexibility Score: inf
ROOT
ATOM      1  C   UNL     1       0.233  48.079  22.798  1.00  0.00     0.000 C 
ENDROOT
BRANCH   1   2
ATOM      2  C   UNL     1      -0.381  46.685  23.035  1.00  0.00     0.000 C 
BRANCH   2   3
ATOM      3  C   UNL     1      -0.499  46.268  24.512  1.00  0.00     0.000 C 
BRANCH   3   4
ATOM      4  C   UNL     1      -1.315  47.267  25.350  1.00  0.00     0.000 C 
BRANCH   4   5
ATOM      5  C   UNL     1      -2.695  46.714  25.756  1.00  0.00     0.000 C 
BRANCH   5   6
ATOM      6  C   UNL     1      -3.384  45.864  24.672  1.00  0.00     0.000 C 
BRANCH   6   7
ATOM      7  C   UNL     1      -4.823  45.476  25.047  1.00  0.00     0.000 C 
BRANCH   7   8
ATOM      8  C   UNL     1      -5.753  45.570  23.831  1.00  0.00     0.000 C 
BRANCH   8   9
ATOM      9  C   UNL     1      -6.098  44.174  23.292  1.00  0.00     0.000 C 
BRANCH   9  10
ATOM     10  C   UNL     1      -7.591  43.839  23.429  1.00  0.00     0.006 C 
BRANCH  10  11
ATOM     11  C   UNL     1      -8.225  44.463  24.679  1.00  0.00     0.053 C 
BRANCH  11  12
ATOM     12  C   UNL     1      -7.969  43.606  25.879  1.00  0.00     0.041 C 
ATOM     13  O   UNL     1      -7.971  42.351  25.776  1.00  0.00    -0.550 OA
ATOM     14  O   UNL     1      -7.752  44.195  27.119  1.00  0.00    -0.550 OA
ENDBRANCH  11  12
ENDBRANCH  10  11
ENDBRANCH   9  10
ENDBRANCH   8   9
ENDBRANCH   7   8
ENDBRANCH   6   7
ENDBRANCH   5   6
ENDBRANCH   4   5
ENDBRANCH   3   4
ENDBRANCH   2   3
ENDBRANCH   1   2
BRANCH   1  15
ATOM     15  C   UNL     1       1.244  48.161  21.638  1.00  0.00     0.000 C 
BRANCH  15  16
ATOM     16  C   UNL     1       1.863  49.556  21.407  1.00  0.00     0.000 C 
BRANCH  16  17
ATOM     17  C   UNL     1       0.951  50.740  21.779  1.00  0.00     0.000 C 
BRANCH  17  18
ATOM     18  C   UNL     1       1.642  52.116  21.766  1.00  0.00    -0.000 C 
BRANCH  18  19
ATOM     19  C   UNL     1       2.424  52.429  23.060  1.00  0.00    -0.000 C 
BRANCH  19  20
ATOM     20  C   UNL     1       1.668  51.979  24.323  1.00  0.00    -0.000 C 
BRANCH  20  21
ATOM     21  C   UNL     1       2.528  51.108  25.251  1.00  0.00    -0.000 C 
BRANCH  21  22
ATOM     22  C   UNL     1       2.117  49.628  25.229  1.00  0.00    -0.000 C 
BRANCH  22  23
ATOM     23  C   UNL     1       2.883  48.829  26.291  1.00  0.00    -0.000 C 
BRANCH  23  24
ATOM     24  C   UNL     1       2.162  48.879  27.645  1.00  0.00    -0.000 C 
BRANCH  24  25
ATOM     25  C   UNL     1       3.092  49.297  28.795  1.00  0.00    -0.003 C 
ATOM     26  C   UNL     1       3.090  50.805  29.039  1.00  0.00     0.004 C 
ENDBRANCH  24  25
ENDBRANCH  23  24
ENDBRANCH  22  23
ENDBRANCH  21  22
ENDBRANCH  20  21
ENDBRANCH  19  20
ENDBRANCH  18  19
ENDBRANCH  17  18
ENDBRANCH  16  17
ENDBRANCH  15  16
ENDBRANCH   1  15
TORSDOF 22
ENDMDL
MODEL 6
REMARK VINA RESULT:    -4.567      2.770      6.395
REMARK INTER + INTRA:         -13.193
REMARK INTER:                  -9.952
REMARK INTRA:                  -3.241
REMARK UNBOUND:                -2.752
REMARK SMILES CCCCCCCCCCCCCCCCCCCCCCCC(=O)[O-]
REMARK SMILES IDX 13 1 14 2 15 3 16 4 17 5 18 6 19 7 20 8 21 9 22 10 23 11
REMARK SMILES IDX 24 12 25 13 26 14 12 15 11 16 10 17 9 18 8 19 7 20 6 21 5 22
REMARK SMILES IDX 4 23 3 24 2 25 1 26
REMARK H PARENT
REMARK Flexibility Score: inf
ROOT
ATOM      1  C   UNL     1      -1.250  53.879  22.652  1.00  0.00     0.000 C 
ENDROOT
BRANCH   1   2
ATOM      2  C   UNL     1      -0.054  54.329  21.790  1.00  0.00     0.000 C 
BRANCH   2   3
ATOM      3  C   UNL     1       0.912  53.204  21.379  1.00  0.00     0.000 C 
BRANCH   3   4
ATOM      4  C   UNL     1       2.070  53.019  22.375  1.00  0.00     0.000 C 
BRANCH   4   5
ATOM      5  C   UNL     1       2.476  51.542  22.545  1.00  0.00     0.000 C 
BRANCH   5   6
ATOM      6  C   UNL     1       1.550  50.540  21.831  1.00  0.00     0.000 C 
BRANCH   6   7
ATOM      7  C   UNL     1       2.120  49.113  21.813  1.00  0.00     0.000 C 
BRANCH   7   8
ATOM      8  C   UNL     1       1.002  48.076  21.645  1.00  0.00     0.000 C 
BRANCH   8   9
ATOM      9  C   UNL     1       0.181  47.937  22.937  1.00  0.00     0.000 C 
BRANCH   9  10
ATOM     10  C   UNL     1      -0.533  46.581  23.040  1.00  0.00     0.006 C 
BRANCH  10  11
ATOM     11  C   UNL     1      -0.969  46.249  24.472  1.00  0.00     0.053 C 
BRANCH  11  12
ATOM     12  C   UNL     1      -2.437  45.961  24.520  1.00  0.00     0.041 C 
ATOM     13  O   UNL     1      -3.250  46.859  24.864  1.00  0.00    -0.550 OA
ATOM     14  O   UNL     1      -2.906  44.692  24.205  1.00  0.00    -0.550 OA
ENDBRANCH  11  12
ENDBRANCH  10  11
ENDBRANCH   9  10
ENDBRANCH   8   9
ENDBRANCH   7   8
ENDBRANCH   6   7
ENDBRANCH   5   6
ENDBRANCH   4   5
ENDBRANCH   3   4
ENDBRANCH   2   3
ENDBRANCH   1   2
BRANCH   1  15
ATOM     15  C   UNL     1      -1.501  52.359  22.684  1.00  0.00     0.000 C 
BRANCH  15  16
ATOM     16  C   UNL     1      -1.639  51.748  24.095  1.00  0.00     0.000 C 
BRANCH  16  17
ATOM     17  C   UNL     1      -0.369  51.826  24.963  1.00  0.00     0.000 C 
BRANCH  17  18
ATOM     18  C   UNL     1       0.233  50.463  25.351  1.00  0.00    -0.000 C 
BRANCH  18  19
ATOM     19  C   UNL     1       1.685  50.553  25.870  1.00  0.00    -0.000 C 
BRANCH  19  20
ATOM     20  C   UNL     1       2.505  49.295  25.534  1.00  0.00    -0.000 C 
BRANCH  20  21
ATOM     21  C   UNL     1       3.189  48.686  26.767  1.00  0.00    -0.000 C 
BRANCH  21  22
ATOM     22  C   UNL     1       2.569  49.163  28.090  1.00  0.00    -0.000 C 
BRANCH  22  23
ATOM     23  C   UNL     1       3.629  49.806  28.992  1.00  0.00    -0.000 C 
BRANCH  23  24
ATOM     24  C   UNL     1       3.009  50.296  30.308  1.00  0.00    -0.000 C 
BRANCH  24  25
ATOM     25  C   UNL     1       1.660  51.003  30.101  1.00  0.00    -0.003 C 
ATOM     26  C   UNL     1       1.811  52.399  29.498  1.00  0.00     0.004 C 
ENDBRANCH  24  25
ENDBRANCH  23  24
ENDBRANCH  22  23
ENDBRANCH  21  22
ENDBRANCH  20  21
ENDBRANCH  19  20
ENDBRANCH  18  19
ENDBRANCH  17  18
ENDBRANCH  16  17
ENDBRANCH  15  16
ENDBRANCH   1  15
TORSDOF 22
ENDMDL
MODEL 7
REMARK VINA RESULT:    -4.567      3.705      9.442
REMARK INTER + INTRA:         -13.193
REMARK INTER:                 -10.393
REMARK INTRA:                  -2.800
REMARK UNBOUND:                -2.752
REMARK SMILES CCCCCCCCCCCCCCCCCCCCCCCC(=O)[O-]
REMARK SMILES IDX 13 1 14 2 15 3 16 4 17 5 18 6 19 7 20 8 21 9 22 10 23 11
REMARK SMILES IDX 24 12 25 13 26 14 12 15 11 16 10 17 9 18 8 19 7 20 6 21 5 22
REMARK SMILES IDX 4 23 3 24 2 25 1 26
REMARK H PARENT
REMARK Flexibility Score: inf
ROOT
ATOM      1  C   UNL     1      -3.409  48.142  25.202  1.00  0.00     0.000 C 
ENDROOT
BRANCH   1   2
ATOM      2  C   UNL     1      -4.478  47.195  24.623  1.00  0.00     0.000 C 
BRANCH   2   3
ATOM      3  C   UNL     1      -4.467  45.768  25.201  1.00  0.00     0.000 C 
BRANCH   3   4
ATOM      4  C   UNL     1      -3.889  44.733  24.222  1.00  0.00     0.000 C 
BRANCH   4   5
ATOM      5  C   UNL     1      -4.895  43.619  23.875  1.00  0.00     0.000 C 
BRANCH   5   6
ATOM      6  C   UNL     1      -6.369  44.064  23.889  1.00  0.00     0.000 C 
BRANCH   6   7
ATOM      7  C   UNL     1      -7.323  42.945  24.335  1.00  0.00     0.000 C 
BRANCH   7   8
ATOM      8  C   UNL     1      -7.869  43.215  25.743  1.00  0.00     0.000 C 
BRANCH   8   9
ATOM      9  C   UNL     1      -7.899  44.722  26.041  1.00  0.00     0.000 C 
BRANCH   9  10
ATOM     10  C   UNL     1      -7.636  45.037  27.522  1.00  0.00     0.006 C 
BRANCH  10  11
ATOM     11  C   UNL     1      -7.511  46.541  27.794  1.00  0.00     0.053 C 
BRANCH  11  12
ATOM     12  C   UNL     1      -8.758  47.255  27.374  1.00  0.00     0.041 C 
ATOM     13  O   UNL     1      -8.712  48.137  26.477  1.00  0.00    -0.550 OA
ATOM     14  O   UNL     1      -9.967  46.960  27.990  1.00  0.00    -0.550 OA
ENDBRANCH  11  12
ENDBRANCH  10  11
ENDBRANCH   9  10
ENDBRANCH   8   9
ENDBRANCH   7   8
ENDBRANCH   6   7
ENDBRANCH   5   6
ENDBRANCH   4   5
ENDBRANCH   3   4
ENDBRANCH   2   3
ENDBRANCH   1   2
BRANCH   1  15
ATOM     15  C   UNL     1      -2.341  47.465  26.082  1.00  0.00     0.000 C 
BRANCH  15  16
ATOM     16  C   UNL     1      -0.903  47.517  25.524  1.00  0.00     0.000 C 
BRANCH  16  17
ATOM     17  C   UNL     1      -0.513  46.330  24.624  1.00  0.00     0.000 C 
BRANCH  17  18
ATOM     18  C   UNL     1      -0.516  46.636  23.115  1.00  0.00    -0.000 C 
BRANCH  18  19
ATOM     19  C   UNL     1       0.051  48.029  22.765  1.00  0.00    -0.000 C 
BRANCH  19  20
ATOM     20  C   UNL     1       1.142  47.962  21.683  1.00  0.00    -0.000 C 
BRANCH  20  21
ATOM     21  C   UNL     1       2.026  49.218  21.652  1.00  0.00    -0.000 C 
BRANCH  21  22
ATOM     22  C   UNL     1       1.303  50.468  22.177  1.00  0.00    -0.000 C 
BRANCH  22  23
ATOM     23  C   UNL     1       2.170  51.217  23.196  1.00  0.00    -0.000 C 
BRANCH  23  24
ATOM     24  C   UNL     1       1.750  50.877  24.633  1.00  0.00    -0.000 C 
BRANCH  24  25
ATOM     25  C   UNL     1       2.391  49.577  25.145  1.00  0.00    -0.003 C 
ATOM     26  C   UNL     1       2.036  49.275  26.599  1.00  0.00     0.004 C 
ENDBRANCH  24  25
ENDBRANCH  23  24
ENDBRANCH  22  23
ENDBRANCH  21  22
ENDBRANCH  20  21
ENDBRANCH  19  20
ENDBRANCH  18  19
ENDBRANCH  17  18
ENDBRANCH  16  17
ENDBRANCH  15  16
ENDBRANCH   1  15
TORSDOF 22
ENDMDL
MODEL 8
REMARK VINA RESULT:    -4.566      3.699      8.375
REMARK INTER + INTRA:         -13.189
REMARK INTER:                 -10.581
REMARK INTRA:                  -2.608
REMARK UNBOUND:                -2.752
REMARK SMILES CCCCCCCCCCCCCCCCCCCCCCCC(=O)[O-]
REMARK SMILES IDX 13 1 14 2 15 3 16 4 17 5 18 6 19 7 20 8 21 9 22 10 23 11
REMARK SMILES IDX 24 12 25 13 26 14 12 15 11 16 10 17 9 18 8 19 7 20 6 21 5 22
REMARK SMILES IDX 4 23 3 24 2 25 1 26
REMARK H PARENT
REMARK Flexibility Score: inf
ROOT
ATOM      1  C   UNL     1       2.025  49.356  22.105  1.00  0.00     0.000 C 
ENDROOT
BRANCH   1   2
ATOM      2  C   UNL     1       1.316  48.131  21.495  1.00  0.00     0.000 C 
BRANCH   2   3
ATOM      3  C   UNL     1       0.296  47.440  22.419  1.00  0.00     0.000 C 
BRANCH   3   4
ATOM      4  C   UNL     1       0.176  48.126  23.791  1.00  0.00     0.000 C 
BRANCH   4   5
ATOM      5  C   UNL     1      -0.551  47.250  24.830  1.00  0.00     0.000 C 
BRANCH   5   6
ATOM      6  C   UNL     1      -1.868  46.629  24.330  1.00  0.00     0.000 C 
BRANCH   6   7
ATOM      7  C   UNL     1      -2.905  46.455  25.451  1.00  0.00     0.000 C 
BRANCH   7   8
ATOM      8  C   UNL     1      -4.170  45.764  24.927  1.00  0.00     0.000 C 
BRANCH   8   9
ATOM      9  C   UNL     1      -3.823  44.449  24.212  1.00  0.00     0.000 C 
BRANCH   9  10
ATOM     10  C   UNL     1      -5.056  43.764  23.602  1.00  0.00     0.006 C 
BRANCH  10  11
ATOM     11  C   UNL     1      -5.824  42.911  24.620  1.00  0.00     0.053 C 
BRANCH  11  12
ATOM     12  C   UNL     1      -7.250  43.356  24.708  1.00  0.00     0.041 C 
ATOM     13  O   UNL     1      -7.910  43.584  23.659  1.00  0.00    -0.550 OA
ATOM     14  O   UNL     1      -7.844  43.541  25.949  1.00  0.00    -0.550 OA
ENDBRANCH  11  12
ENDBRANCH  10  11
ENDBRANCH   9  10
ENDBRANCH   8   9
ENDBRANCH   7   8
ENDBRANCH   6   7
ENDBRANCH   5   6
ENDBRANCH   4   5
ENDBRANCH   3   4
ENDBRANCH   2   3
ENDBRANCH   1   2
BRANCH   1  15
ATOM     15  C   UNL     1       1.657  50.711  21.469  1.00  0.00     0.000 C 
BRANCH  15  16
ATOM     16  C   UNL     1       0.388  51.379  22.040  1.00  0.00     0.000 C 
BRANCH  16  17
ATOM     17  C   UNL     1       0.236  52.874  21.704  1.00  0.00     0.000 C 
BRANCH  17  18
ATOM     18  C   UNL     1       1.563  53.629  21.501  1.00  0.00    -0.000 C 
BRANCH  18  19
ATOM     19  C   UNL     1       2.074  54.335  22.776  1.00  0.00    -0.000 C 
BRANCH  19  20
ATOM     20  C   UNL     1       3.480  53.861  23.184  1.00  0.00    -0.000 C 
BRANCH  20  21
ATOM     21  C   UNL     1       3.457  52.537  23.964  1.00  0.00    -0.000 C 
BRANCH  21  22
ATOM     22  C   UNL     1       2.288  52.451  24.957  1.00  0.00    -0.000 C 
BRANCH  22  23
ATOM     23  C   UNL     1       2.050  51.003  25.401  1.00  0.00    -0.000 C 
BRANCH  23  24
ATOM     24  C   UNL     1       2.011  50.893  26.931  1.00  0.00    -0.000 C 
BRANCH  24  25
ATOM     25  C   UNL     1       1.982  49.437  27.420  1.00  0.00    -0.003 C 
ATOM     26  C   UNL     1       2.850  48.510  26.570  1.00  0.00     0.004 C 
ENDBRANCH  24  25
ENDBRANCH  23  24
ENDBRANCH  22  23
ENDBRANCH  21  22
ENDBRANCH  20  21
ENDBRANCH  19  20
ENDBRANCH  18  19
ENDBRANCH  17  18
ENDBRANCH  16  17
ENDBRANCH  15  16
ENDBRANCH   1  15
TORSDOF 22
ENDMDL
MODEL 9
REMARK VINA RESULT:    -4.485      3.405      5.013
REMARK INTER + INTRA:         -13.006
REMARK INTER:                  -9.677
REMARK INTRA:                  -3.329
REMARK UNBOUND:                -2.752
REMARK SMILES CCCCCCCCCCCCCCCCCCCCCCCC(=O)[O-]
REMARK SMILES IDX 13 1 14 2 15 3 16 4 17 5 18 6 19 7 20 8 21 9 22 10 23 11
REMARK SMILES IDX 24 12 25 13 26 14 12 15 11 16 10 17 9 18 8 19 7 20 6 21 5 22
REMARK SMILES IDX 4 23 3 24 2 25 1 26
REMARK H PARENT
REMARK Flexibility Score: inf
ROOT
ATOM      1  C   UNL     1       0.214  47.968  22.927  1.00  0.00     0.000 C 
ENDROOT
BRANCH   1   2
ATOM      2  C   UNL     1       1.070  48.031  21.646  1.00  0.00     0.000 C 
BRANCH   2   3
ATOM      3  C   UNL     1       2.143  49.135  21.633  1.00  0.00     0.000 C 
BRANCH   3   4
ATOM      4  C   UNL     1       1.541  50.550  21.627  1.00  0.00     0.000 C 
BRANCH   4   5
ATOM      5  C   UNL     1       2.200  51.479  22.666  1.00  0.00     0.000 C 
BRANCH   5   6
ATOM      6  C   UNL     1       2.132  50.963  24.115  1.00  0.00     0.000 C 
BRANCH   6   7
ATOM      7  C   UNL     1       1.012  51.628  24.931  1.00  0.00     0.000 C 
BRANCH   7   8
ATOM      8  C   UNL     1      -0.149  50.655  25.167  1.00  0.00     0.000 C 
BRANCH   8   9
ATOM      9  C   UNL     1      -1.391  51.075  24.366  1.00  0.00     0.000 C 
BRANCH   9  10
ATOM     10  C   UNL     1      -1.310  52.526  23.867  1.00  0.00     0.006 C 
BRANCH  10  11
ATOM     11  C   UNL     1      -1.463  52.638  22.345  1.00  0.00     0.053 C 
BRANCH  11  12
ATOM     12  C   UNL     1      -2.678  53.439  21.997  1.00  0.00     0.041 C 
ATOM     13  O   UNL     1      -2.570  54.496  21.321  1.00  0.00    -0.550 OA
ATOM     14  O   UNL     1      -3.929  53.029  22.440  1.00  0.00    -0.550 OA
ENDBRANCH  11  12
ENDBRANCH  10  11
ENDBRANCH   9  10
ENDBRANCH   8   9
ENDBRANCH   7   8
ENDBRANCH   6   7
ENDBRANCH   5   6
ENDBRANCH   4   5
ENDBRANCH   3   4
ENDBRANCH   2   3
ENDBRANCH   1   2
BRANCH   1  15
ATOM     15  C   UNL     1      -0.534  46.640  23.152  1.00  0.00     0.000 C 
BRANCH  15  16
ATOM     16  C   UNL     1      -0.715  46.233  24.629  1.00  0.00     0.000 C 
BRANCH  16  17
ATOM     17  C   UNL     1      -1.811  47.006  25.385  1.00  0.00     0.000 C 
BRANCH  17  18
ATOM     18  C   UNL     1      -2.878  47.658  24.487  1.00  0.00    -0.000 C 
BRANCH  18  19
ATOM     19  C   UNL     1      -4.319  47.488  25.016  1.00  0.00    -0.000 C 
BRANCH  19  20
ATOM     20  C   UNL     1      -4.373  46.665  26.314  1.00  0.00    -0.000 C 
BRANCH  20  21
ATOM     21  C   UNL     1      -5.700  45.909  26.483  1.00  0.00    -0.000 C 
BRANCH  21  22
ATOM     22  C   UNL     1      -6.655  46.108  25.297  1.00  0.00    -0.000 C 
BRANCH  22  23
ATOM     23  C   UNL     1      -6.944  44.776  24.595  1.00  0.00    -0.000 C 
BRANCH  23  24
ATOM     24  C   UNL     1      -5.860  44.453  23.557  1.00  0.00    -0.000 C 
BRANCH  24  25
ATOM     25  C   UNL     1      -4.846  43.415  24.065  1.00  0.00    -0.003 C 
ATOM     26  C   UNL     1      -3.401  43.794  23.747  1.00  0.00     0.004 C 
ENDBRANCH  24  25
ENDBRANCH  23  24
ENDBRANCH  22  23
ENDBRANCH  21  22
ENDBRANCH  20  21
ENDBRANCH  19  20
ENDBRANCH  18  19
ENDBRANCH  17  18
ENDBRANCH  16  17
ENDBRANCH  15  16
ENDBRANCH   1  15
TORSDOF 22
ENDMDL
