MODEL 1
REMARK VINA RESULT:    -7.074      0.000      0.000
REMARK INTER + INTRA:          -8.810
REMARK INTER:                  -8.522
REMARK INTRA:                  -0.288
REMARK UNBOUND:                -0.288
REMARK SMILES O=c1c(O)c(-c2ccc(O)c(O)c2)oc2cc(O)cc(O)c12
REMARK SMILES IDX 5 1 3 2 2 3 1 4 22 5 20 6 19 7 17 8 16 9 15 10 14 11 6 12
REMARK SMILES IDX 7 13 8 14 9 15 13 16 11 17 10 18 12 20 4 22 21 24 18 26
REMARK H PARENT 10 19 12 21 4 23 21 25 18 27
REMARK Flexibility Score: inf
ROOT
ATOM      1  C   UNL     1     -14.150  -6.082  17.617  1.00  0.00     0.180 A 
ATOM      2  C   UNL     1     -13.304  -5.187  18.292  1.00  0.00     0.208 A 
ATOM      3  C   UNL     1     -13.776  -3.899  18.596  1.00  0.00     0.238 A 
ATOM      4  O   UNL     1     -13.032  -3.122  19.249  1.00  0.00    -0.285 OA
ATOM      5  C   UNL     1     -15.083  -3.519  18.207  1.00  0.00     0.111 A 
ATOM      6  C   UNL     1     -15.650  -2.228  18.427  1.00  0.00     0.134 A 
ATOM      7  C   UNL     1     -16.997  -2.003  18.117  1.00  0.00     0.093 A 
ATOM      8  C   UNL     1     -17.778  -3.003  17.533  1.00  0.00     0.123 A 
ATOM      9  C   UNL     1     -17.217  -4.248  17.259  1.00  0.00     0.094 A 
ATOM     10  C   UNL     1     -15.886  -4.514  17.591  1.00  0.00     0.146 A 
ATOM     11  O   UNL     1     -15.393  -5.717  17.323  1.00  0.00    -0.452 OA
ENDROOT
BRANCH   1  12
ATOM     12  C   UNL     1     -13.715  -7.446  17.239  1.00  0.00     0.025 A 
ATOM     13  C   UNL     1     -14.079  -8.568  18.003  1.00  0.00     0.016 A 
ATOM     14  C   UNL     1     -13.637  -9.843  17.641  1.00  0.00     0.051 A 
ATOM     15  C   UNL     1     -12.815 -10.014  16.520  1.00  0.00     0.157 A 
ATOM     16  C   UNL     1     -12.874  -7.620  16.127  1.00  0.00     0.062 A 
ATOM     17  C   UNL     1     -12.430  -8.899  15.763  1.00  0.00     0.158 A 
BRANCH  15  18
ATOM     18  O   UNL     1     -12.373 -11.284  16.154  1.00  0.00    -0.504 OA
ATOM     19  H   UNL     1     -13.021 -12.051  16.014  1.00  0.00     0.293 HD
ENDBRANCH  15  18
BRANCH  17  20
ATOM     20  O   UNL     1     -11.606  -9.070  14.651  1.00  0.00    -0.504 OA
ATOM     21  H   UNL     1     -10.653  -9.400  14.744  1.00  0.00     0.293 HD
ENDBRANCH  17  20
ENDBRANCH   1  12
BRANCH   2  22
ATOM     22  O   UNL     1     -12.025  -5.590  18.687  1.00  0.00    -0.502 OA
ATOM     23  H   UNL     1     -11.433  -6.171  18.105  1.00  0.00     0.293 HD
ENDBRANCH   2  22
BRANCH   6  24
ATOM     24  O   UNL     1     -14.932  -1.134  18.920  1.00  0.00    -0.507 OA
ATOM     25  H   UNL     1     -15.248  -0.526  19.661  1.00  0.00     0.293 HD
ENDBRANCH   6  24
BRANCH   8  26
ATOM     26  O   UNL     1     -19.113  -2.766  17.213  1.00  0.00    -0.508 OA
ATOM     27  H   UNL     1     -19.465  -1.827  17.067  1.00  0.00     0.293 HD
ENDBRANCH   8  26
TORSDOF 6
ENDMDL
MODEL 2
REMARK VINA RESULT:    -6.720      3.377      5.499
REMARK INTER + INTRA:          -8.383
REMARK INTER:                  -8.121
REMARK INTRA:                  -0.262
REMARK UNBOUND:                -0.288
REMARK SMILES O=c1c(O)c(-c2ccc(O)c(O)c2)oc2cc(O)cc(O)c12
REMARK SMILES IDX 5 1 3 2 2 3 1 4 22 5 20 6 19 7 17 8 16 9 15 10 14 11 6 12
REMARK SMILES IDX 7 13 8 14 9 15 13 16 11 17 10 18 12 20 4 22 21 24 18 26
REMARK H PARENT 10 19 12 21 4 23 21 25 18 27
REMARK Flexibility Score: inf
ROOT
ATOM      1  C   UNL     1     -11.620  -7.137  17.835  1.00  0.00     0.180 A 
ATOM      2  C   UNL     1     -12.334  -5.941  17.651  1.00  0.00     0.208 A 
ATOM      3  C   UNL     1     -11.794  -4.742  18.144  1.00  0.00     0.238 A 
ATOM      4  O   UNL     1     -12.412  -3.667  17.927  1.00  0.00    -0.285 OA
ATOM      5  C   UNL     1     -10.556  -4.757  18.829  1.00  0.00     0.111 A 
ATOM      6  C   UNL     1      -9.935  -3.608  19.406  1.00  0.00     0.134 A 
ATOM      7  C   UNL     1      -8.648  -3.717  19.946  1.00  0.00     0.093 A 
ATOM      8  C   UNL     1      -7.987  -4.947  19.990  1.00  0.00     0.123 A 
ATOM      9  C   UNL     1      -8.609  -6.085  19.484  1.00  0.00     0.094 A 
ATOM     10  C   UNL     1      -9.878  -6.002  18.905  1.00  0.00     0.146 A 
ATOM     11  O   UNL     1     -10.431  -7.108  18.425  1.00  0.00    -0.452 OA
ENDROOT
BRANCH   1  12
ATOM     12  C   UNL     1     -12.136  -8.443  17.367  1.00  0.00     0.025 A 
ATOM     13  C   UNL     1     -11.636  -9.053  16.203  1.00  0.00     0.016 A 
ATOM     14  C   UNL     1     -12.155 -10.275  15.767  1.00  0.00     0.051 A 
ATOM     15  C   UNL     1     -13.189 -10.898  16.479  1.00  0.00     0.157 A 
ATOM     16  C   UNL     1     -13.186  -9.062  18.066  1.00  0.00     0.062 A 
ATOM     17  C   UNL     1     -13.708 -10.289  17.629  1.00  0.00     0.158 A 
BRANCH  15  18
ATOM     18  O   UNL     1     -13.709 -12.118  16.048  1.00  0.00    -0.504 OA
ATOM     19  H   UNL     1     -14.632 -12.184  15.636  1.00  0.00     0.293 HD
ENDBRANCH  15  18
BRANCH  17  20
ATOM     20  O   UNL     1     -14.741 -10.907  18.332  1.00  0.00    -0.504 OA
ATOM     21  H   UNL     1     -14.941 -10.671  19.296  1.00  0.00     0.293 HD
ENDBRANCH  17  20
ENDBRANCH   1  12
BRANCH   2  22
ATOM     22  O   UNL     1     -13.544  -5.945  16.951  1.00  0.00    -0.502 OA
ATOM     23  H   UNL     1     -14.155  -5.138  16.915  1.00  0.00     0.293 HD
ENDBRANCH   2  22
BRANCH   6  24
ATOM     24  O   UNL     1     -10.545  -2.354  19.496  1.00  0.00    -0.507 OA
ATOM     25  H   UNL     1     -10.551  -1.775  20.322  1.00  0.00     0.293 HD
ENDBRANCH   6  24
BRANCH   8  26
ATOM     26  O   UNL     1      -6.712  -5.049  20.545  1.00  0.00    -0.508 OA
ATOM     27  H   UNL     1      -5.902  -4.648  20.088  1.00  0.00     0.293 HD
ENDBRANCH   8  26
TORSDOF 6
ENDMDL
MODEL 3
REMARK VINA RESULT:    -6.700      2.070      7.146
REMARK INTER + INTRA:          -8.358
REMARK INTER:                  -8.155
REMARK INTRA:                  -0.204
REMARK UNBOUND:                -0.288
REMARK SMILES O=c1c(O)c(-c2ccc(O)c(O)c2)oc2cc(O)cc(O)c12
REMARK SMILES IDX 5 1 3 2 2 3 1 4 22 5 20 6 19 7 17 8 16 9 15 10 14 11 6 12
REMARK SMILES IDX 7 13 8 14 9 15 13 16 11 17 10 18 12 20 4 22 21 24 18 26
REMARK H PARENT 10 19 12 21 4 23 21 25 18 27
REMARK Flexibility Score: inf
ROOT
ATOM      1  C   UNL     1     -15.155  -5.371  18.433  1.00  0.00     0.180 A 
ATOM      2  C   UNL     1     -15.457  -6.742  18.379  1.00  0.00     0.208 A 
ATOM      3  C   UNL     1     -14.404  -7.673  18.397  1.00  0.00     0.238 A 
ATOM      4  O   UNL     1     -14.684  -8.900  18.404  1.00  0.00    -0.285 OA
ATOM      5  C   UNL     1     -13.065  -7.219  18.451  1.00  0.00     0.111 A 
ATOM      6  C   UNL     1     -11.920  -8.071  18.433  1.00  0.00     0.134 A 
ATOM      7  C   UNL     1     -10.646  -7.521  18.624  1.00  0.00     0.093 A 
ATOM      8  C   UNL     1     -10.471  -6.142  18.765  1.00  0.00     0.123 A 
ATOM      9  C   UNL     1     -11.577  -5.297  18.724  1.00  0.00     0.094 A 
ATOM     10  C   UNL     1     -12.864  -5.819  18.573  1.00  0.00     0.146 A 
ATOM     11  O   UNL     1     -13.892  -4.980  18.550  1.00  0.00    -0.452 OA
ENDROOT
BRANCH   1  12
ATOM     12  C   UNL     1     -16.207  -4.330  18.393  1.00  0.00     0.025 A 
ATOM     13  C   UNL     1     -17.006  -4.140  17.251  1.00  0.00     0.016 A 
ATOM     14  C   UNL     1     -17.977  -3.136  17.228  1.00  0.00     0.051 A 
ATOM     15  C   UNL     1     -18.156  -2.300  18.337  1.00  0.00     0.157 A 
ATOM     16  C   UNL     1     -16.377  -3.476  19.495  1.00  0.00     0.062 A 
ATOM     17  C   UNL     1     -17.352  -2.468  19.472  1.00  0.00     0.158 A 
BRANCH  15  18
ATOM     18  O   UNL     1     -19.125  -1.298  18.319  1.00  0.00    -0.504 OA
ATOM     19  H   UNL     1     -18.907  -0.356  18.015  1.00  0.00     0.293 HD
ENDBRANCH  15  18
BRANCH  17  20
ATOM     20  O   UNL     1     -17.527  -1.630  20.573  1.00  0.00    -0.504 OA
ATOM     21  H   UNL     1     -18.370  -1.082  20.693  1.00  0.00     0.293 HD
ENDBRANCH  17  20
ENDBRANCH   1  12
BRANCH   2  22
ATOM     22  O   UNL     1     -16.787  -7.169  18.348  1.00  0.00    -0.502 OA
ATOM     23  H   UNL     1     -17.541  -6.635  18.765  1.00  0.00     0.293 HD
ENDBRANCH   2  22
BRANCH   6  24
ATOM     24  O   UNL     1     -11.976  -9.449  18.208  1.00  0.00    -0.507 OA
ATOM     25  H   UNL     1     -11.197 -10.082  18.314  1.00  0.00     0.293 HD
ENDBRANCH   6  24
BRANCH   8  26
ATOM     26  O   UNL     1      -9.199  -5.602  18.937  1.00  0.00    -0.508 OA
ATOM     27  H   UNL     1      -8.471  -5.727  18.244  1.00  0.00     0.293 HD
ENDBRANCH   8  26
TORSDOF 6
ENDMDL
MODEL 4
REMARK VINA RESULT:    -6.700      1.936      7.162
REMARK INTER + INTRA:          -8.358
REMARK INTER:                  -8.054
REMARK INTRA:                  -0.304
REMARK UNBOUND:                -0.288
REMARK SMILES O=c1c(O)c(-c2ccc(O)c(O)c2)oc2cc(O)cc(O)c12
REMARK SMILES IDX 5 1 3 2 2 3 1 4 22 5 20 6 19 7 17 8 16 9 15 10 14 11 6 12
REMARK SMILES IDX 7 13 8 14 9 15 13 16 11 17 10 18 12 20 4 22 21 24 18 26
REMARK H PARENT 10 19 12 21 4 23 21 25 18 27
REMARK Flexibility Score: inf
ROOT
ATOM      1  C   UNL     1     -15.642  -5.411  18.755  1.00  0.00     0.180 A 
ATOM      2  C   UNL     1     -16.047  -6.457  19.601  1.00  0.00     0.208 A 
ATOM      3  C   UNL     1     -15.580  -7.758  19.349  1.00  0.00     0.238 A 
ATOM      4  O   UNL     1     -15.903  -8.680  20.142  1.00  0.00    -0.285 OA
ATOM      5  C   UNL     1     -14.729  -7.998  18.244  1.00  0.00     0.111 A 
ATOM      6  C   UNL     1     -14.229  -9.281  17.870  1.00  0.00     0.134 A 
ATOM      7  C   UNL     1     -13.288  -9.383  16.838  1.00  0.00     0.093 A 
ATOM      8  C   UNL     1     -12.881  -8.255  16.122  1.00  0.00     0.123 A 
ATOM      9  C   UNL     1     -13.408  -7.006  16.439  1.00  0.00     0.094 A 
ATOM     10  C   UNL     1     -14.320  -6.867  17.489  1.00  0.00     0.146 A 
ATOM     11  O   UNL     1     -14.790  -5.657  17.767  1.00  0.00    -0.452 OA
ENDROOT
BRANCH   1  12
ATOM     12  C   UNL     1     -16.112  -4.020  18.941  1.00  0.00     0.025 A 
ATOM     13  C   UNL     1     -15.508  -3.163  19.879  1.00  0.00     0.016 A 
ATOM     14  C   UNL     1     -15.984  -1.860  20.054  1.00  0.00     0.051 A 
ATOM     15  C   UNL     1     -17.076  -1.401  19.307  1.00  0.00     0.157 A 
ATOM     16  C   UNL     1     -17.220  -3.560  18.209  1.00  0.00     0.062 A 
ATOM     17  C   UNL     1     -17.697  -2.253  18.385  1.00  0.00     0.158 A 
BRANCH  15  18
ATOM     18  O   UNL     1     -17.553  -0.102  19.478  1.00  0.00    -0.504 OA
ATOM     19  H   UNL     1     -16.975   0.626  19.881  1.00  0.00     0.293 HD
ENDBRANCH  15  18
BRANCH  17  20
ATOM     20  O   UNL     1     -18.789  -1.796  17.648  1.00  0.00    -0.504 OA
ATOM     21  H   UNL     1     -18.815  -0.858  17.267  1.00  0.00     0.293 HD
ENDBRANCH  17  20
ENDBRANCH   1  12
BRANCH   2  22
ATOM     22  O   UNL     1     -16.871  -6.194  20.699  1.00  0.00    -0.502 OA
ATOM     23  H   UNL     1     -17.287  -6.931  21.257  1.00  0.00     0.293 HD
ENDBRANCH   2  22
BRANCH   6  24
ATOM     24  O   UNL     1     -14.640 -10.480  18.459  1.00  0.00    -0.507 OA
ATOM     25  H   UNL     1     -15.585 -10.835  18.443  1.00  0.00     0.293 HD
ENDBRANCH   6  24
BRANCH   8  26
ATOM     26  O   UNL     1     -11.957  -8.367  15.085  1.00  0.00    -0.508 OA
ATOM     27  H   UNL     1     -11.149  -7.759  15.026  1.00  0.00     0.293 HD
ENDBRANCH   8  26
TORSDOF 6
ENDMDL
MODEL 5
REMARK VINA RESULT:    -6.522      5.208      7.520
REMARK INTER + INTRA:          -8.144
REMARK INTER:                  -7.856
REMARK INTRA:                  -0.288
REMARK UNBOUND:                -0.288
REMARK SMILES O=c1c(O)c(-c2ccc(O)c(O)c2)oc2cc(O)cc(O)c12
REMARK SMILES IDX 5 1 3 2 2 3 1 4 22 5 20 6 19 7 17 8 16 9 15 10 14 11 6 12
REMARK SMILES IDX 7 13 8 14 9 15 13 16 11 17 10 18 12 20 4 22 21 24 18 26
REMARK H PARENT 10 19 12 21 4 23 21 25 18 27
REMARK Flexibility Score: inf
ROOT
ATOM      1  C   UNL     1     -16.613  -6.698  21.357  1.00  0.00     0.180 A 
ATOM      2  C   UNL     1     -16.910  -8.058  21.552  1.00  0.00     0.208 A 
ATOM      3  C   UNL     1     -16.430  -8.702  22.704  1.00  0.00     0.238 A 
ATOM      4  O   UNL     1     -16.746  -9.905  22.899  1.00  0.00    -0.285 OA
ATOM      5  C   UNL     1     -15.646  -7.984  23.638  1.00  0.00     0.111 A 
ATOM      6  C   UNL     1     -15.074  -8.546  24.819  1.00  0.00     0.134 A 
ATOM      7  C   UNL     1     -14.427  -7.711  25.737  1.00  0.00     0.093 A 
ATOM      8  C   UNL     1     -14.272  -6.346  25.486  1.00  0.00     0.123 A 
ATOM      9  C   UNL     1     -14.774  -5.798  24.308  1.00  0.00     0.094 A 
ATOM     10  C   UNL     1     -15.458  -6.599  23.389  1.00  0.00     0.146 A 
ATOM     11  O   UNL     1     -15.931  -6.036  22.284  1.00  0.00    -0.452 OA
ENDROOT
BRANCH   1  12
ATOM     12  C   UNL     1     -17.061  -5.958  20.157  1.00  0.00     0.025 A 
ATOM     13  C   UNL     1     -18.382  -5.491  20.035  1.00  0.00     0.016 A 
ATOM     14  C   UNL     1     -18.789  -4.814  18.882  1.00  0.00     0.051 A 
ATOM     15  C   UNL     1     -17.888  -4.607  17.829  1.00  0.00     0.157 A 
ATOM     16  C   UNL     1     -16.168  -5.764  19.090  1.00  0.00     0.062 A 
ATOM     17  C   UNL     1     -16.576  -5.086  17.932  1.00  0.00     0.158 A 
BRANCH  15  18
ATOM     18  O   UNL     1     -18.289  -3.932  16.678  1.00  0.00    -0.504 OA
ATOM     19  H   UNL     1     -17.935  -4.187  15.764  1.00  0.00     0.293 HD
ENDBRANCH  15  18
BRANCH  17  20
ATOM     20  O   UNL     1     -15.683  -4.884  16.881  1.00  0.00    -0.504 OA
ATOM     21  H   UNL     1     -15.268  -5.662  16.382  1.00  0.00     0.293 HD
ENDBRANCH  17  20
ENDBRANCH   1  12
BRANCH   2  22
ATOM     22  O   UNL     1     -17.705  -8.743  20.628  1.00  0.00    -0.502 OA
ATOM     23  H   UNL     1     -17.996  -8.332  19.749  1.00  0.00     0.293 HD
ENDBRANCH   2  22
BRANCH   6  24
ATOM     24  O   UNL     1     -15.092  -9.911  25.120  1.00  0.00    -0.507 OA
ATOM     25  H   UNL     1     -14.337 -10.552  24.928  1.00  0.00     0.293 HD
ENDBRANCH   6  24
BRANCH   8  26
ATOM     26  O   UNL     1     -13.612  -5.525  26.398  1.00  0.00    -0.508 OA
ATOM     27  H   UNL     1     -13.087  -5.910  27.174  1.00  0.00     0.293 HD
ENDBRANCH   8  26
TORSDOF 6
ENDMDL
MODEL 6
REMARK VINA RESULT:    -6.504      2.870      4.879
REMARK INTER + INTRA:          -8.122
REMARK INTER:                  -7.788
REMARK INTRA:                  -0.334
REMARK UNBOUND:                -0.288
REMARK SMILES O=c1c(O)c(-c2ccc(O)c(O)c2)oc2cc(O)cc(O)c12
REMARK SMILES IDX 5 1 3 2 2 3 1 4 22 5 20 6 19 7 17 8 16 9 15 10 14 11 6 12
REMARK SMILES IDX 7 13 8 14 9 15 13 16 11 17 10 18 12 20 4 22 21 24 18 26
REMARK H PARENT 10 19 12 21 4 23 21 25 18 27
REMARK Flexibility Score: inf
ROOT
ATOM      1  C   UNL     1     -12.650  -4.943  18.188  1.00  0.00     0.180 A 
ATOM      2  C   UNL     1     -12.834  -6.289  18.546  1.00  0.00     0.208 A 
ATOM      3  C   UNL     1     -14.136  -6.818  18.565  1.00  0.00     0.238 A 
ATOM      4  O   UNL     1     -14.288  -8.038  18.834  1.00  0.00    -0.285 OA
ATOM      5  C   UNL     1     -15.237  -5.989  18.241  1.00  0.00     0.111 A 
ATOM      6  C   UNL     1     -16.601  -6.407  18.266  1.00  0.00     0.134 A 
ATOM      7  C   UNL     1     -17.598  -5.542  17.800  1.00  0.00     0.093 A 
ATOM      8  C   UNL     1     -17.287  -4.249  17.373  1.00  0.00     0.123 A 
ATOM      9  C   UNL     1     -15.965  -3.810  17.400  1.00  0.00     0.094 A 
ATOM     10  C   UNL     1     -14.943  -4.664  17.825  1.00  0.00     0.146 A 
ATOM     11  O   UNL     1     -13.696  -4.210  17.826  1.00  0.00    -0.452 OA
ENDROOT
BRANCH   1  12
ATOM     12  C   UNL     1     -11.313  -4.308  18.170  1.00  0.00     0.025 A 
ATOM     13  C   UNL     1     -10.769  -3.713  19.322  1.00  0.00     0.016 A 
ATOM     14  C   UNL     1      -9.515  -3.100  19.276  1.00  0.00     0.051 A 
ATOM     15  C   UNL     1      -8.792  -3.059  18.076  1.00  0.00     0.157 A 
ATOM     16  C   UNL     1     -10.592  -4.248  16.965  1.00  0.00     0.062 A 
ATOM     17  C   UNL     1      -9.333  -3.632  16.918  1.00  0.00     0.158 A 
BRANCH  15  18
ATOM     18  O   UNL     1      -7.540  -2.449  18.026  1.00  0.00    -0.504 OA
ATOM     19  H   UNL     1      -6.849  -2.597  18.752  1.00  0.00     0.293 HD
ENDBRANCH  15  18
BRANCH  17  20
ATOM     20  O   UNL     1      -8.615  -3.585  15.724  1.00  0.00    -0.504 OA
ATOM     21  H   UNL     1      -8.531  -4.396  15.124  1.00  0.00     0.293 HD
ENDBRANCH  17  20
ENDBRANCH   1  12
BRANCH   2  22
ATOM     22  O   UNL     1     -11.732  -7.096  18.842  1.00  0.00    -0.502 OA
ATOM     23  H   UNL     1     -10.931  -6.755  19.360  1.00  0.00     0.293 HD
ENDBRANCH   2  22
BRANCH   6  24
ATOM     24  O   UNL     1     -17.029  -7.643  18.760  1.00  0.00    -0.507 OA
ATOM     25  H   UNL     1     -17.969  -8.001  18.677  1.00  0.00     0.293 HD
ENDBRANCH   6  24
BRANCH   8  26
ATOM     26  O   UNL     1     -18.287  -3.388  16.926  1.00  0.00    -0.508 OA
ATOM     27  H   UNL     1     -18.582  -3.375  15.957  1.00  0.00     0.293 HD
ENDBRANCH   8  26
TORSDOF 6
ENDMDL
MODEL 7
REMARK VINA RESULT:    -6.449      1.329      6.670
REMARK INTER + INTRA:          -8.056
REMARK INTER:                  -8.364
REMARK INTRA:                   0.308
REMARK UNBOUND:                -0.288
REMARK SMILES O=c1c(O)c(-c2ccc(O)c(O)c2)oc2cc(O)cc(O)c12
REMARK SMILES IDX 5 1 3 2 2 3 1 4 22 5 20 6 19 7 17 8 16 9 15 10 14 11 6 12
REMARK SMILES IDX 7 13 8 14 9 15 13 16 11 17 10 18 12 20 4 22 21 24 18 26
REMARK H PARENT 10 19 12 21 4 23 21 25 18 27
REMARK Flexibility Score: inf
ROOT
ATOM      1  C   UNL     1     -14.294  -5.328  17.894  1.00  0.00     0.180 A 
ATOM      2  C   UNL     1     -13.162  -5.062  18.683  1.00  0.00     0.208 A 
ATOM      3  C   UNL     1     -12.112  -5.996  18.705  1.00  0.00     0.238 A 
ATOM      4  O   UNL     1     -11.078  -5.726  19.371  1.00  0.00    -0.285 OA
ATOM      5  C   UNL     1     -12.216  -7.190  17.953  1.00  0.00     0.111 A 
ATOM      6  C   UNL     1     -11.232  -8.224  17.933  1.00  0.00     0.134 A 
ATOM      7  C   UNL     1     -11.379  -9.301  17.051  1.00  0.00     0.093 A 
ATOM      8  C   UNL     1     -12.507  -9.415  16.236  1.00  0.00     0.123 A 
ATOM      9  C   UNL     1     -13.502  -8.442  16.291  1.00  0.00     0.094 A 
ATOM     10  C   UNL     1     -13.366  -7.336  17.134  1.00  0.00     0.146 A 
ATOM     11  O   UNL     1     -14.332  -6.426  17.148  1.00  0.00    -0.452 OA
ENDROOT
BRANCH   1  12
ATOM     12  C   UNL     1     -15.450  -4.406  17.839  1.00  0.00     0.025 A 
ATOM     13  C   UNL     1     -16.754  -4.879  17.612  1.00  0.00     0.016 A 
ATOM     14  C   UNL     1     -17.827  -3.986  17.541  1.00  0.00     0.051 A 
ATOM     15  C   UNL     1     -17.611  -2.609  17.681  1.00  0.00     0.157 A 
ATOM     16  C   UNL     1     -15.236  -3.022  17.959  1.00  0.00     0.062 A 
ATOM     17  C   UNL     1     -16.313  -2.126  17.887  1.00  0.00     0.158 A 
BRANCH  15  18
ATOM     18  O   UNL     1     -18.679  -1.716  17.611  1.00  0.00    -0.504 OA
ATOM     19  H   UNL     1     -19.394  -1.799  16.898  1.00  0.00     0.293 HD
ENDBRANCH  15  18
BRANCH  17  20
ATOM     20  O   UNL     1     -16.099  -0.754  18.020  1.00  0.00    -0.504 OA
ATOM     21  H   UNL     1     -16.866  -0.093  17.986  1.00  0.00     0.293 HD
ENDBRANCH  17  20
ENDBRANCH   1  12
BRANCH   2  22
ATOM     22  O   UNL     1     -13.070  -3.867  19.401  1.00  0.00    -0.502 OA
ATOM     23  H   UNL     1     -13.006  -3.842  20.412  1.00  0.00     0.293 HD
ENDBRANCH   2  22
BRANCH   6  24
ATOM     24  O   UNL     1     -10.114  -8.253  18.772  1.00  0.00    -0.507 OA
ATOM     25  H   UNL     1     -10.041  -8.804  19.614  1.00  0.00     0.293 HD
ENDBRANCH   6  24
BRANCH   8  26
ATOM     26  O   UNL     1     -12.653 -10.499  15.372  1.00  0.00    -0.508 OA
ATOM     27  H   UNL     1     -13.544 -10.719  14.943  1.00  0.00     0.293 HD
ENDBRANCH   8  26
TORSDOF 6
ENDMDL
MODEL 8
REMARK VINA RESULT:    -6.429      3.218      5.615
REMARK INTER + INTRA:          -8.032
REMARK INTER:                  -7.796
REMARK INTRA:                  -0.236
REMARK UNBOUND:                -0.288
REMARK SMILES O=c1c(O)c(-c2ccc(O)c(O)c2)oc2cc(O)cc(O)c12
REMARK SMILES IDX 5 1 3 2 2 3 1 4 22 5 20 6 19 7 17 8 16 9 15 10 14 11 6 12
REMARK SMILES IDX 7 13 8 14 9 15 13 16 11 17 10 18 12 20 4 22 21 24 18 26
REMARK H PARENT 10 19 12 21 4 23 21 25 18 27
REMARK Flexibility Score: inf
ROOT
ATOM      1  C   UNL     1     -12.670  -6.520  18.681  1.00  0.00     0.180 A 
ATOM      2  C   UNL     1     -12.741  -7.789  18.082  1.00  0.00     0.208 A 
ATOM      3  C   UNL     1     -13.875  -8.587  18.308  1.00  0.00     0.238 A 
ATOM      4  O   UNL     1     -13.956  -9.699  17.724  1.00  0.00    -0.285 OA
ATOM      5  C   UNL     1     -14.914  -8.113  19.143  1.00  0.00     0.111 A 
ATOM      6  C   UNL     1     -16.089  -8.853  19.474  1.00  0.00     0.134 A 
ATOM      7  C   UNL     1     -17.112  -8.234  20.203  1.00  0.00     0.093 A 
ATOM      8  C   UNL     1     -16.974  -6.925  20.670  1.00  0.00     0.123 A 
ATOM      9  C   UNL     1     -15.806  -6.215  20.404  1.00  0.00     0.094 A 
ATOM     10  C   UNL     1     -14.783  -6.792  19.646  1.00  0.00     0.146 A 
ATOM     11  O   UNL     1     -13.690  -6.078  19.406  1.00  0.00    -0.452 OA
ENDROOT
BRANCH   1  12
ATOM     12  C   UNL     1     -11.497  -5.633  18.510  1.00  0.00     0.025 A 
ATOM     13  C   UNL     1     -10.253  -5.945  19.086  1.00  0.00     0.016 A 
ATOM     14  C   UNL     1      -9.166  -5.080  18.931  1.00  0.00     0.051 A 
ATOM     15  C   UNL     1      -9.310  -3.886  18.212  1.00  0.00     0.157 A 
ATOM     16  C   UNL     1     -11.641  -4.425  17.807  1.00  0.00     0.062 A 
ATOM     17  C   UNL     1     -10.551  -3.557  17.651  1.00  0.00     0.158 A 
BRANCH  15  18
ATOM     18  O   UNL     1      -8.228  -3.022  18.054  1.00  0.00    -0.504 OA
ATOM     19  H   UNL     1      -7.600  -3.099  17.262  1.00  0.00     0.293 HD
ENDBRANCH  15  18
BRANCH  17  20
ATOM     20  O   UNL     1     -10.693  -2.365  16.941  1.00  0.00    -0.504 OA
ATOM     21  H   UNL     1     -11.446  -2.231  16.278  1.00  0.00     0.293 HD
ENDBRANCH  17  20
ENDBRANCH   1  12
BRANCH   2  22
ATOM     22  O   UNL     1     -11.713  -8.229  17.242  1.00  0.00    -0.502 OA
ATOM     23  H   UNL     1     -11.861  -8.920  16.516  1.00  0.00     0.293 HD
ENDBRANCH   2  22
BRANCH   6  24
ATOM     24  O   UNL     1     -16.287 -10.194  19.136  1.00  0.00    -0.507 OA
ATOM     25  H   UNL     1     -16.287 -10.556  18.194  1.00  0.00     0.293 HD
ENDBRANCH   6  24
BRANCH   8  26
ATOM     26  O   UNL     1     -17.990  -6.323  21.409  1.00  0.00    -0.508 OA
ATOM     27  H   UNL     1     -18.491  -6.828  22.131  1.00  0.00     0.293 HD
ENDBRANCH   8  26
TORSDOF 6
ENDMDL
MODEL 9
REMARK VINA RESULT:    -6.389      4.037      6.167
REMARK INTER + INTRA:          -7.984
REMARK INTER:                  -7.684
REMARK INTRA:                  -0.300
REMARK UNBOUND:                -0.288
REMARK SMILES O=c1c(O)c(-c2ccc(O)c(O)c2)oc2cc(O)cc(O)c12
REMARK SMILES IDX 5 1 3 2 2 3 1 4 22 5 20 6 19 7 17 8 16 9 15 10 14 11 6 12
REMARK SMILES IDX 7 13 8 14 9 15 13 16 11 17 10 18 12 20 4 22 21 24 18 26
REMARK H PARENT 10 19 12 21 4 23 21 25 18 27
REMARK Flexibility Score: inf
ROOT
ATOM      1  C   UNL     1     -10.421  -4.322  18.325  1.00  0.00     0.180 A 
ATOM      2  C   UNL     1     -11.342  -3.614  19.117  1.00  0.00     0.208 A 
ATOM      3  C   UNL     1     -12.710  -3.910  19.001  1.00  0.00     0.238 A 
ATOM      4  O   UNL     1     -13.524  -3.311  19.752  1.00  0.00    -0.285 OA
ATOM      5  C   UNL     1     -13.141  -4.898  18.083  1.00  0.00     0.111 A 
ATOM      6  C   UNL     1     -14.505  -5.251  17.853  1.00  0.00     0.134 A 
ATOM      7  C   UNL     1     -14.807  -6.333  17.018  1.00  0.00     0.093 A 
ATOM      8  C   UNL     1     -13.798  -7.033  16.352  1.00  0.00     0.123 A 
ATOM      9  C   UNL     1     -12.468  -6.658  16.523  1.00  0.00     0.094 A 
ATOM     10  C   UNL     1     -12.132  -5.606  17.379  1.00  0.00     0.146 A 
ATOM     11  O   UNL     1     -10.851  -5.287  17.522  1.00  0.00    -0.452 OA
ENDROOT
BRANCH   1  12
ATOM     12  C   UNL     1      -8.967  -4.048  18.373  1.00  0.00     0.025 A 
ATOM     13  C   UNL     1      -8.338  -3.261  17.393  1.00  0.00     0.016 A 
ATOM     14  C   UNL     1      -6.960  -3.036  17.446  1.00  0.00     0.051 A 
ATOM     15  C   UNL     1      -6.189  -3.604  18.469  1.00  0.00     0.157 A 
ATOM     16  C   UNL     1      -8.187  -4.632  19.386  1.00  0.00     0.062 A 
ATOM     17  C   UNL     1      -6.804  -4.407  19.439  1.00  0.00     0.158 A 
BRANCH  15  18
ATOM     18  O   UNL     1      -4.815  -3.381  18.526  1.00  0.00    -0.504 OA
ATOM     19  H   UNL     1      -4.282  -3.567  19.368  1.00  0.00     0.293 HD
ENDBRANCH  15  18
BRANCH  17  20
ATOM     20  O   UNL     1      -6.035  -4.977  20.452  1.00  0.00    -0.504 OA
ATOM     21  H   UNL     1      -5.057  -5.201  20.313  1.00  0.00     0.293 HD
ENDBRANCH  17  20
ENDBRANCH   1  12
BRANCH   2  22
ATOM     22  O   UNL     1     -10.893  -2.658  20.033  1.00  0.00    -0.502 OA
ATOM     23  H   UNL     1     -11.471  -1.885  20.340  1.00  0.00     0.293 HD
ENDBRANCH   2  22
BRANCH   6  24
ATOM     24  O   UNL     1     -15.592  -4.559  18.396  1.00  0.00    -0.507 OA
ATOM     25  H   UNL     1     -15.907  -3.651  18.089  1.00  0.00     0.293 HD
ENDBRANCH   6  24
BRANCH   8  26
ATOM     26  O   UNL     1     -14.109  -8.098  15.510  1.00  0.00    -0.508 OA
ATOM     27  H   UNL     1     -13.845  -9.049  15.738  1.00  0.00     0.293 HD
ENDBRANCH   8  26
TORSDOF 6
ENDMDL
