MODEL 1
REMARK VINA RESULT:    -1.583      0.000      0.000
REMARK INTER + INTRA:          -4.321
REMARK INTER:                  -2.694
REMARK INTRA:                  -1.628
REMARK UNBOUND:                -1.628
REMARK SMILES CCCCCCCCCCCCCC(=O)[O-]
REMARK SMILES IDX 8 1 9 2 10 3 11 4 12 5 13 6 14 7 15 8 16 9 7 10 6 11 5 12
REMARK SMILES IDX 4 13 3 14 2 15 1 16
REMARK H PARENT
REMARK Flexibility Score: inf
ROOT
ATOM      1  C   UNL     1      17.101 -32.729   2.451  1.00  0.00     0.000 C 
ENDROOT
BRANCH   1   2
ATOM      2  C   UNL     1      16.408 -33.847   1.653  1.00  0.00     0.000 C 
BRANCH   2   3
ATOM      3  C   UNL     1      14.928 -33.550   1.330  1.00  0.00     0.000 C 
BRANCH   3   4
ATOM      4  C   UNL     1      14.154 -34.819   0.932  1.00  0.00     0.000 C 
BRANCH   4   5
ATOM      5  C   UNL     1      13.478 -34.694  -0.442  1.00  0.00     0.006 C 
BRANCH   5   6
ATOM      6  C   UNL     1      14.479 -34.421  -1.571  1.00  0.00     0.053 C 
BRANCH   6   7
ATOM      7  C   UNL     1      15.377 -35.601  -1.769  1.00  0.00     0.041 C 
ATOM      8  O   UNL     1      16.620 -35.486  -1.607  1.00  0.00    -0.550 OA
ATOM      9  O   UNL     1      14.835 -36.842  -2.085  1.00  0.00    -0.550 OA
ENDBRANCH   6   7
ENDBRANCH   5   6
ENDBRANCH   4   5
ENDBRANCH   3   4
ENDBRANCH   2   3
ENDBRANCH   1   2
BRANCH   1  10
ATOM     10  C   UNL     1      16.124 -31.915   3.311  1.00  0.00     0.000 C 
BRANCH  10  11
ATOM     11  C   UNL     1      16.113 -30.442   2.887  1.00  0.00    -0.000 C 
BRANCH  11  12
ATOM     12  C   UNL     1      14.677 -29.899   2.827  1.00  0.00    -0.000 C 
BRANCH  12  13
ATOM     13  C   UNL     1      13.663 -30.825   3.519  1.00  0.00    -0.000 C 
BRANCH  13  14
ATOM     14  C   UNL     1      12.447 -31.138   2.631  1.00  0.00    -0.000 C 
BRANCH  14  15
ATOM     15  C   UNL     1      12.529 -30.455   1.257  1.00  0.00    -0.003 C 
ATOM     16  C   UNL     1      11.967 -31.321   0.129  1.00  0.00     0.004 C 
ENDBRANCH  14  15
ENDBRANCH  13  14
ENDBRANCH  12  13
ENDBRANCH  11  12
ENDBRANCH  10  11
ENDBRANCH   1  10
TORSDOF 12
ENDMDL
MODEL 2
REMARK VINA RESULT:    -1.579      7.203      9.059
REMARK INTER + INTRA:          -4.314
REMARK INTER:                  -2.428
REMARK INTRA:                  -1.885
REMARK UNBOUND:                -1.628
REMARK SMILES CCCCCCCCCCCCCC(=O)[O-]
REMARK SMILES IDX 8 1 9 2 10 3 11 4 12 5 13 6 14 7 15 8 16 9 7 10 6 11 5 12
REMARK SMILES IDX 4 13 3 14 2 15 1 16
REMARK H PARENT
REMARK Flexibility Score: inf
ROOT
ATOM      1  C   UNL     1      23.542 -28.408  -1.059  1.00  0.00     0.000 C 
ENDROOT
BRANCH   1   2
ATOM      2  C   UNL     1      23.134 -29.713  -1.762  1.00  0.00     0.000 C 
BRANCH   2   3
ATOM      3  C   UNL     1      21.765 -30.261  -1.303  1.00  0.00     0.000 C 
BRANCH   3   4
ATOM      4  C   UNL     1      20.626 -29.256  -1.549  1.00  0.00     0.000 C 
BRANCH   4   5
ATOM      5  C   UNL     1      19.886 -28.870  -0.259  1.00  0.00     0.006 C 
BRANCH   5   6
ATOM      6  C   UNL     1      20.597 -29.375   1.003  1.00  0.00     0.053 C 
BRANCH   6   7
ATOM      7  C   UNL     1      19.698 -30.284   1.780  1.00  0.00     0.041 C 
ATOM      8  O   UNL     1      19.562 -31.487   1.434  1.00  0.00    -0.550 OA
ATOM      9  O   UNL     1      19.050 -29.817   2.916  1.00  0.00    -0.550 OA
ENDBRANCH   6   7
ENDBRANCH   5   6
ENDBRANCH   4   5
ENDBRANCH   3   4
ENDBRANCH   2   3
ENDBRANCH   1   2
BRANCH   1  10
ATOM     10  C   UNL     1      23.961 -27.305  -2.041  1.00  0.00     0.000 C 
BRANCH  10  11
ATOM     11  C   UNL     1      23.016 -26.101  -1.953  1.00  0.00    -0.000 C 
BRANCH  11  12
ATOM     12  C   UNL     1      22.319 -26.049  -0.585  1.00  0.00    -0.000 C 
BRANCH  12  13
ATOM     13  C   UNL     1      20.985 -25.287  -0.627  1.00  0.00    -0.000 C 
BRANCH  13  14
ATOM     14  C   UNL     1      20.448 -24.957   0.776  1.00  0.00    -0.000 C 
BRANCH  14  15
ATOM     15  C   UNL     1      21.163 -25.751   1.881  1.00  0.00    -0.003 C 
ATOM     16  C   UNL     1      20.221 -26.183   3.006  1.00  0.00     0.004 C 
ENDBRANCH  14  15
ENDBRANCH  13  14
ENDBRANCH  12  13
ENDBRANCH  11  12
ENDBRANCH  10  11
ENDBRANCH   1  10
TORSDOF 12
ENDMDL
MODEL 3
REMARK VINA RESULT:    -1.574      2.240      4.328
REMARK INTER + INTRA:          -4.306
REMARK INTER:                  -2.462
REMARK INTRA:                  -1.845
REMARK UNBOUND:                -1.628
REMARK SMILES CCCCCCCCCCCCCC(=O)[O-]
REMARK SMILES IDX 8 1 9 2 10 3 11 4 12 5 13 6 14 7 15 8 16 9 7 10 6 11 5 12
REMARK SMILES IDX 4 13 3 14 2 15 1 16
REMARK H PARENT
REMARK Flexibility Score: inf
ROOT
ATOM      1  C   UNL     1      16.900 -31.704   4.126  1.00  0.00     0.000 C 
ENDROOT
BRANCH   1   2
ATOM      2  C   UNL     1      16.015 -31.755   2.869  1.00  0.00     0.000 C 
BRANCH   2   3
ATOM      3  C   UNL     1      14.842 -32.752   2.979  1.00  0.00     0.000 C 
BRANCH   3   4
ATOM      4  C   UNL     1      14.083 -32.906   1.649  1.00  0.00     0.000 C 
BRANCH   4   5
ATOM      5  C   UNL     1      14.329 -34.266   0.980  1.00  0.00     0.006 C 
BRANCH   5   6
ATOM      6  C   UNL     1      14.524 -34.151  -0.538  1.00  0.00     0.053 C 
BRANCH   6   7
ATOM      7  C   UNL     1      13.211 -33.919  -1.216  1.00  0.00     0.041 C 
ATOM      8  O   UNL     1      12.926 -32.779  -1.671  1.00  0.00    -0.550 OA
ATOM      9  O   UNL     1      12.323 -34.973  -1.392  1.00  0.00    -0.550 OA
ENDBRANCH   6   7
ENDBRANCH   5   6
ENDBRANCH   4   5
ENDBRANCH   3   4
ENDBRANCH   2   3
ENDBRANCH   1   2
BRANCH   1  10
ATOM     10  C   UNL     1      18.368 -31.380   3.811  1.00  0.00     0.000 C 
BRANCH  10  11
ATOM     11  C   UNL     1      18.532 -30.929   2.355  1.00  0.00    -0.000 C 
BRANCH  11  12
ATOM     12  C   UNL     1      19.567 -31.799   1.625  1.00  0.00    -0.000 C 
BRANCH  12  13
ATOM     13  C   UNL     1      19.439 -33.291   1.973  1.00  0.00    -0.000 C 
BRANCH  13  14
ATOM     14  C   UNL     1      18.366 -34.004   1.132  1.00  0.00    -0.000 C 
BRANCH  14  15
ATOM     15  C   UNL     1      17.719 -35.180   1.880  1.00  0.00    -0.003 C 
ATOM     16  C   UNL     1      17.968 -35.134   3.389  1.00  0.00     0.004 C 
ENDBRANCH  14  15
ENDBRANCH  13  14
ENDBRANCH  12  13
ENDBRANCH  11  12
ENDBRANCH  10  11
ENDBRANCH   1  10
TORSDOF 12
ENDMDL
MODEL 4
REMARK VINA RESULT:    -1.570      7.767     10.332
REMARK INTER + INTRA:          -4.299
REMARK INTER:                  -2.119
REMARK INTRA:                  -2.180
REMARK UNBOUND:                -1.628
REMARK SMILES CCCCCCCCCCCCCC(=O)[O-]
REMARK SMILES IDX 8 1 9 2 10 3 11 4 12 5 13 6 14 7 15 8 16 9 7 10 6 11 5 12
REMARK SMILES IDX 4 13 3 14 2 15 1 16
REMARK H PARENT
REMARK Flexibility Score: inf
ROOT
ATOM      1  C   UNL     1      20.941 -28.974  -1.563  1.00  0.00     0.000 C 
ENDROOT
BRANCH   1   2
ATOM      2  C   UNL     1      21.300 -27.588  -2.125  1.00  0.00     0.000 C 
BRANCH   2   3
ATOM      3  C   UNL     1      21.064 -26.436  -1.124  1.00  0.00     0.000 C 
BRANCH   3   4
ATOM      4  C   UNL     1      22.308 -26.152  -0.263  1.00  0.00     0.000 C 
BRANCH   4   5
ATOM      5  C   UNL     1      21.988 -26.091   1.239  1.00  0.00     0.006 C 
BRANCH   5   6
ATOM      6  C   UNL     1      20.493 -25.887   1.516  1.00  0.00     0.053 C 
BRANCH   6   7
ATOM      7  C   UNL     1      20.160 -26.307   2.913  1.00  0.00     0.041 C 
ATOM      8  O   UNL     1      19.201 -25.767   3.525  1.00  0.00    -0.550 OA
ATOM      9  O   UNL     1      20.877 -27.330   3.521  1.00  0.00    -0.550 OA
ENDBRANCH   6   7
ENDBRANCH   5   6
ENDBRANCH   4   5
ENDBRANCH   3   4
ENDBRANCH   2   3
ENDBRANCH   1   2
BRANCH   1  10
ATOM     10  C   UNL     1      19.815 -28.924  -0.520  1.00  0.00     0.000 C 
BRANCH  10  11
ATOM     11  C   UNL     1      20.250 -29.587   0.792  1.00  0.00    -0.000 C 
BRANCH  11  12
ATOM     12  C   UNL     1      21.580 -30.334   0.615  1.00  0.00    -0.000 C 
BRANCH  12  13
ATOM     13  C   UNL     1      22.684 -29.809   1.546  1.00  0.00    -0.000 C 
BRANCH  13  14
ATOM     14  C   UNL     1      23.910 -29.289   0.775  1.00  0.00    -0.000 C 
BRANCH  14  15
ATOM     15  C   UNL     1      24.859 -28.469   1.663  1.00  0.00    -0.003 C 
ATOM     16  C   UNL     1      24.320 -28.266   3.079  1.00  0.00     0.004 C 
ENDBRANCH  14  15
ENDBRANCH  13  14
ENDBRANCH  12  13
ENDBRANCH  11  12
ENDBRANCH  10  11
ENDBRANCH   1  10
TORSDOF 12
ENDMDL
MODEL 5
REMARK VINA RESULT:    -1.558      7.739     10.098
REMARK INTER + INTRA:          -4.278
REMARK INTER:                  -2.362
REMARK INTRA:                  -1.916
REMARK UNBOUND:                -1.628
REMARK SMILES CCCCCCCCCCCCCC(=O)[O-]
REMARK SMILES IDX 8 1 9 2 10 3 11 4 12 5 13 6 14 7 15 8 16 9 7 10 6 11 5 12
REMARK SMILES IDX 4 13 3 14 2 15 1 16
REMARK H PARENT
REMARK Flexibility Score: inf
ROOT
ATOM      1  C   UNL     1      21.708 -26.856  -0.985  1.00  0.00     0.000 C 
ENDROOT
BRANCH   1   2
ATOM      2  C   UNL     1      21.101 -25.448  -0.862  1.00  0.00     0.000 C 
BRANCH   2   3
ATOM      3  C   UNL     1      20.696 -25.074   0.581  1.00  0.00     0.000 C 
BRANCH   3   4
ATOM      4  C   UNL     1      21.061 -26.176   1.590  1.00  0.00     0.000 C 
BRANCH   4   5
ATOM      5  C   UNL     1      20.173 -26.151   2.844  1.00  0.00     0.006 C 
BRANCH   5   6
ATOM      6  C   UNL     1      20.221 -27.468   3.629  1.00  0.00     0.053 C 
BRANCH   6   7
ATOM      7  C   UNL     1      20.648 -27.218   5.041  1.00  0.00     0.041 C 
ATOM      8  O   UNL     1      21.626 -26.463   5.283  1.00  0.00    -0.550 OA
ATOM      9  O   UNL     1      19.934 -27.779   6.093  1.00  0.00    -0.550 OA
ENDBRANCH   6   7
ENDBRANCH   5   6
ENDBRANCH   4   5
ENDBRANCH   3   4
ENDBRANCH   2   3
ENDBRANCH   1   2
BRANCH   1  10
ATOM     10  C   UNL     1      21.034 -27.705  -2.072  1.00  0.00     0.000 C 
BRANCH  10  11
ATOM     11  C   UNL     1      20.664 -29.093  -1.537  1.00  0.00    -0.000 C 
BRANCH  11  12
ATOM     12  C   UNL     1      19.738 -28.981  -0.316  1.00  0.00    -0.000 C 
BRANCH  12  13
ATOM     13  C   UNL     1      20.130 -29.943   0.817  1.00  0.00    -0.000 C 
BRANCH  13  14
ATOM     14  C   UNL     1      21.589 -30.421   0.707  1.00  0.00    -0.000 C 
BRANCH  14  15
ATOM     15  C   UNL     1      22.443 -29.981   1.906  1.00  0.00    -0.003 C 
ATOM     16  C   UNL     1      23.484 -28.922   1.536  1.00  0.00     0.004 C 
ENDBRANCH  14  15
ENDBRANCH  13  14
ENDBRANCH  12  13
ENDBRANCH  11  12
ENDBRANCH  10  11
ENDBRANCH   1  10
TORSDOF 12
ENDMDL
MODEL 6
REMARK VINA RESULT:    -1.557      4.231      6.562
REMARK INTER + INTRA:          -4.276
REMARK INTER:                  -2.257
REMARK INTRA:                  -2.020
REMARK UNBOUND:                -1.628
REMARK SMILES CCCCCCCCCCCCCC(=O)[O-]
REMARK SMILES IDX 8 1 9 2 10 3 11 4 12 5 13 6 14 7 15 8 16 9 7 10 6 11 5 12
REMARK SMILES IDX 4 13 3 14 2 15 1 16
REMARK H PARENT
REMARK Flexibility Score: inf
ROOT
ATOM      1  C   UNL     1      20.012 -31.773   1.309  1.00  0.00     0.000 C 
ENDROOT
BRANCH   1   2
ATOM      2  C   UNL     1      20.008 -31.789   2.847  1.00  0.00     0.000 C 
BRANCH   2   3
ATOM      3  C   UNL     1      19.038 -30.763   3.472  1.00  0.00     0.000 C 
BRANCH   3   4
ATOM      4  C   UNL     1      17.712 -30.670   2.697  1.00  0.00     0.000 C 
BRANCH   4   5
ATOM      5  C   UNL     1      16.586 -31.490   3.346  1.00  0.00     0.006 C 
BRANCH   5   6
ATOM      6  C   UNL     1      15.994 -32.538   2.395  1.00  0.00     0.053 C 
BRANCH   6   7
ATOM      7  C   UNL     1      16.921 -33.705   2.263  1.00  0.00     0.041 C 
ATOM      8  O   UNL     1      17.313 -34.322   3.288  1.00  0.00    -0.550 OA
ATOM      9  O   UNL     1      17.313 -34.143   1.003  1.00  0.00    -0.550 OA
ENDBRANCH   6   7
ENDBRANCH   5   6
ENDBRANCH   4   5
ENDBRANCH   3   4
ENDBRANCH   2   3
ENDBRANCH   1   2
BRANCH   1  10
ATOM     10  C   UNL     1      21.327 -31.242   0.720  1.00  0.00     0.000 C 
BRANCH  10  11
ATOM     11  C   UNL     1      21.061 -30.172  -0.345  1.00  0.00    -0.000 C 
BRANCH  11  12
ATOM     12  C   UNL     1      19.944 -29.216   0.104  1.00  0.00    -0.000 C 
BRANCH  12  13
ATOM     13  C   UNL     1      20.484 -27.863   0.594  1.00  0.00    -0.000 C 
BRANCH  13  14
ATOM     14  C   UNL     1      20.662 -27.816   2.121  1.00  0.00    -0.000 C 
BRANCH  14  15
ATOM     15  C   UNL     1      22.101 -28.131   2.556  1.00  0.00    -0.003 C 
ATOM     16  C   UNL     1      22.170 -28.858   3.900  1.00  0.00     0.004 C 
ENDBRANCH  14  15
ENDBRANCH  13  14
ENDBRANCH  12  13
ENDBRANCH  11  12
ENDBRANCH  10  11
ENDBRANCH   1  10
TORSDOF 12
ENDMDL
MODEL 7
REMARK VINA RESULT:    -1.527      6.998      8.566
REMARK INTER + INTRA:          -4.226
REMARK INTER:                  -1.883
REMARK INTRA:                  -2.343
REMARK UNBOUND:                -1.628
REMARK SMILES CCCCCCCCCCCCCC(=O)[O-]
REMARK SMILES IDX 8 1 9 2 10 3 11 4 12 5 13 6 14 7 15 8 16 9 7 10 6 11 5 12
REMARK SMILES IDX 4 13 3 14 2 15 1 16
REMARK H PARENT
REMARK Flexibility Score: inf
ROOT
ATOM      1  C   UNL     1      22.372 -30.773   2.618  1.00  0.00     0.000 C 
ENDROOT
BRANCH   1   2
ATOM      2  C   UNL     1      21.077 -31.298   1.975  1.00  0.00     0.000 C 
BRANCH   2   3
ATOM      3  C   UNL     1      20.844 -30.776   0.540  1.00  0.00     0.000 C 
BRANCH   3   4
ATOM      4  C   UNL     1      19.906 -29.556   0.511  1.00  0.00     0.000 C 
BRANCH   4   5
ATOM      5  C   UNL     1      20.055 -28.724  -0.772  1.00  0.00     0.006 C 
BRANCH   5   6
ATOM      6  C   UNL     1      20.870 -27.443  -0.554  1.00  0.00     0.053 C 
BRANCH   6   7
ATOM      7  C   UNL     1      22.125 -27.479  -1.368  1.00  0.00     0.041 C 
ATOM      8  O   UNL     1      22.657 -26.407  -1.761  1.00  0.00    -0.550 OA
ATOM      9  O   UNL     1      22.736 -28.695  -1.651  1.00  0.00    -0.550 OA
ENDBRANCH   6   7
ENDBRANCH   5   6
ENDBRANCH   4   5
ENDBRANCH   3   4
ENDBRANCH   2   3
ENDBRANCH   1   2
BRANCH   1  10
ATOM     10  C   UNL     1      23.308 -30.094   1.608  1.00  0.00     0.000 C 
BRANCH  10  11
ATOM     11  C   UNL     1      23.474 -28.604   1.926  1.00  0.00    -0.000 C 
BRANCH  11  12
ATOM     12  C   UNL     1      22.661 -28.215   3.170  1.00  0.00    -0.000 C 
BRANCH  12  13
ATOM     13  C   UNL     1      21.795 -26.965   2.945  1.00  0.00    -0.000 C 
BRANCH  13  14
ATOM     14  C   UNL     1      20.311 -27.207   3.274  1.00  0.00    -0.000 C 
BRANCH  14  15
ATOM     15  C   UNL     1      20.112 -28.336   4.297  1.00  0.00    -0.003 C 
ATOM     16  C   UNL     1      18.827 -29.131   4.061  1.00  0.00     0.004 C 
ENDBRANCH  14  15
ENDBRANCH  13  14
ENDBRANCH  12  13
ENDBRANCH  11  12
ENDBRANCH  10  11
ENDBRANCH   1  10
TORSDOF 12
ENDMDL
MODEL 8
REMARK VINA RESULT:    -1.519      6.094      8.438
REMARK INTER + INTRA:          -4.212
REMARK INTER:                  -2.238
REMARK INTRA:                  -1.975
REMARK UNBOUND:                -1.628
REMARK SMILES CCCCCCCCCCCCCC(=O)[O-]
REMARK SMILES IDX 8 1 9 2 10 3 11 4 12 5 13 6 14 7 15 8 16 9 7 10 6 11 5 12
REMARK SMILES IDX 4 13 3 14 2 15 1 16
REMARK H PARENT
REMARK Flexibility Score: inf
ROOT
ATOM      1  C   UNL     1      22.133 -26.280   1.884  1.00  0.00     0.000 C 
ENDROOT
BRANCH   1   2
ATOM      2  C   UNL     1      21.142 -27.356   2.359  1.00  0.00     0.000 C 
BRANCH   2   3
ATOM      3  C   UNL     1      21.807 -28.501   3.153  1.00  0.00     0.000 C 
BRANCH   3   4
ATOM      4  C   UNL     1      20.877 -29.717   3.308  1.00  0.00     0.000 C 
BRANCH   4   5
ATOM      5  C   UNL     1      19.425 -29.407   2.913  1.00  0.00     0.006 C 
BRANCH   5   6
ATOM      6  C   UNL     1      18.669 -30.647   2.420  1.00  0.00     0.053 C 
BRANCH   6   7
ATOM      7  C   UNL     1      17.279 -30.666   2.973  1.00  0.00     0.041 C 
ATOM      8  O   UNL     1      16.473 -31.572   2.633  1.00  0.00    -0.550 OA
ATOM      9  O   UNL     1      16.888 -29.710   3.903  1.00  0.00    -0.550 OA
ENDBRANCH   6   7
ENDBRANCH   5   6
ENDBRANCH   4   5
ENDBRANCH   3   4
ENDBRANCH   2   3
ENDBRANCH   1   2
BRANCH   1  10
ATOM     10  C   UNL     1      22.240 -26.200   0.354  1.00  0.00     0.000 C 
BRANCH  10  11
ATOM     11  C   UNL     1      20.908 -26.565  -0.311  1.00  0.00    -0.000 C 
BRANCH  11  12
ATOM     12  C   UNL     1      21.122 -26.988  -1.772  1.00  0.00    -0.000 C 
BRANCH  12  13
ATOM     13  C   UNL     1      20.781 -28.466  -2.018  1.00  0.00    -0.000 C 
BRANCH  13  14
ATOM     14  C   UNL     1      20.298 -29.181  -0.744  1.00  0.00    -0.000 C 
BRANCH  14  15
ATOM     15  C   UNL     1      21.224 -30.335  -0.329  1.00  0.00    -0.003 C 
ATOM     16  C   UNL     1      22.679 -29.897  -0.159  1.00  0.00     0.004 C 
ENDBRANCH  14  15
ENDBRANCH  13  14
ENDBRANCH  12  13
ENDBRANCH  11  12
ENDBRANCH  10  11
ENDBRANCH   1  10
TORSDOF 12
ENDMDL
