MODEL 1
REMARK VINA RESULT:    -5.783      0.000      0.000
REMARK INTER + INTRA:          -6.779
REMARK INTER:                  -6.629
REMARK INTRA:                  -0.151
REMARK UNBOUND:                -0.151
REMARK SMILES O=C([O-])C=Cc1ccc(O)cc1
REMARK SMILES IDX 6 1 7 2 12 3 8 4 11 5 9 6 5 7 4 8 2 9 1 10 3 11 10 12
REMARK H PARENT 10 13
REMARK Flexibility Score: inf
ROOT
ATOM      1  C   UNL     1     -33.552  15.376  57.186  1.00  0.00    -0.025 A 
ATOM      2  C   UNL     1     -33.963  15.654  55.871  1.00  0.00     0.012 A 
ATOM      3  C   UNL     1     -34.346  14.524  57.980  1.00  0.00     0.012 A 
ATOM      4  C   UNL     1     -35.150  15.115  55.367  1.00  0.00     0.047 A 
ATOM      5  C   UNL     1     -35.533  13.986  57.472  1.00  0.00     0.047 A 
ATOM      6  C   UNL     1     -35.939  14.280  56.168  1.00  0.00     0.115 A 
ENDROOT
BRANCH   1   7
ATOM      7  C   UNL     1     -32.279  15.965  57.671  1.00  0.00     0.010 C 
ATOM      8  C   UNL     1     -31.611  16.932  57.025  1.00  0.00     0.025 C 
BRANCH   8   9
ATOM      9  C   UNL     1     -30.343  17.484  57.531  1.00  0.00     0.064 C 
ATOM     10  O   UNL     1     -29.262  16.849  57.411  1.00  0.00    -0.545 OA
ATOM     11  O   UNL     1     -30.340  18.725  58.154  1.00  0.00    -0.545 OA
ENDBRANCH   8   9
ENDBRANCH   1   7
BRANCH   6  12
ATOM     12  O   UNL     1     -37.125  13.738  55.678  1.00  0.00    -0.508 OA
ATOM     13  H   UNL     1     -37.206  12.751  55.462  1.00  0.00     0.293 HD
ENDBRANCH   6  12
TORSDOF 3
ENDMDL
MODEL 2
REMARK VINA RESULT:    -5.732      0.776      1.565
REMARK INTER + INTRA:          -6.720
REMARK INTER:                  -6.573
REMARK INTRA:                  -0.148
REMARK UNBOUND:                -0.151
REMARK SMILES O=C([O-])C=Cc1ccc(O)cc1
REMARK SMILES IDX 6 1 7 2 12 3 8 4 11 5 9 6 5 7 4 8 2 9 1 10 3 11 10 12
REMARK H PARENT 10 13
REMARK Flexibility Score: inf
ROOT
ATOM      1  C   UNL     1     -33.890  15.440  56.594  1.00  0.00    -0.025 A 
ATOM      2  C   UNL     1     -34.305  14.844  57.798  1.00  0.00     0.012 A 
ATOM      3  C   UNL     1     -34.589  15.136  55.409  1.00  0.00     0.012 A 
ATOM      4  C   UNL     1     -35.375  13.946  57.816  1.00  0.00     0.047 A 
ATOM      5  C   UNL     1     -35.662  14.237  55.431  1.00  0.00     0.047 A 
ATOM      6  C   UNL     1     -36.055  13.639  56.630  1.00  0.00     0.115 A 
ENDROOT
BRANCH   1   7
ATOM      7  C   UNL     1     -32.754  16.394  56.630  1.00  0.00     0.010 C 
ATOM      8  C   UNL     1     -31.745  16.319  57.510  1.00  0.00     0.025 C 
BRANCH   8   9
ATOM      9  C   UNL     1     -30.639  17.292  57.523  1.00  0.00     0.064 C 
ATOM     10  O   UNL     1     -29.441  16.916  57.613  1.00  0.00    -0.545 OA
ATOM     11  O   UNL     1     -30.924  18.649  57.439  1.00  0.00    -0.545 OA
ENDBRANCH   8   9
ENDBRANCH   1   7
BRANCH   6  12
ATOM     12  O   UNL     1     -37.124  12.745  56.635  1.00  0.00    -0.508 OA
ATOM     13  H   UNL     1     -37.713  12.628  57.451  1.00  0.00     0.293 HD
ENDBRANCH   6  12
TORSDOF 3
ENDMDL
MODEL 3
REMARK VINA RESULT:    -5.707      2.225      2.540
REMARK INTER + INTRA:          -6.691
REMARK INTER:                  -6.540
REMARK INTRA:                  -0.151
REMARK UNBOUND:                -0.151
REMARK SMILES O=C([O-])C=Cc1ccc(O)cc1
REMARK SMILES IDX 6 1 7 2 12 3 8 4 11 5 9 6 5 7 4 8 2 9 1 10 3 11 10 12
REMARK H PARENT 10 13
REMARK Flexibility Score: inf
ROOT
ATOM      1  C   UNL     1     -32.960  14.174  57.707  1.00  0.00    -0.025 A 
ATOM      2  C   UNL     1     -33.827  14.806  58.615  1.00  0.00     0.012 A 
ATOM      3  C   UNL     1     -33.198  12.828  57.366  1.00  0.00     0.012 A 
ATOM      4  C   UNL     1     -34.891  14.106  59.189  1.00  0.00     0.047 A 
ATOM      5  C   UNL     1     -34.265  12.129  57.942  1.00  0.00     0.047 A 
ATOM      6  C   UNL     1     -35.111  12.764  58.854  1.00  0.00     0.115 A 
ENDROOT
BRANCH   1   7
ATOM      7  C   UNL     1     -31.851  14.964  57.118  1.00  0.00     0.010 C 
ATOM      8  C   UNL     1     -31.559  16.223  57.477  1.00  0.00     0.025 C 
BRANCH   8   9
ATOM      9  C   UNL     1     -30.457  16.982  56.861  1.00  0.00     0.064 C 
ATOM     10  O   UNL     1     -30.661  17.752  55.885  1.00  0.00    -0.545 OA
ATOM     11  O   UNL     1     -29.170  16.842  57.362  1.00  0.00    -0.545 OA
ENDBRANCH   8   9
ENDBRANCH   1   7
BRANCH   6  12
ATOM     12  O   UNL     1     -36.168  12.054  59.421  1.00  0.00    -0.508 OA
ATOM     13  H   UNL     1     -36.009  11.334  60.116  1.00  0.00     0.293 HD
ENDBRANCH   6  12
TORSDOF 3
ENDMDL
MODEL 4
REMARK VINA RESULT:    -5.703      3.052      7.146
REMARK INTER + INTRA:          -6.687
REMARK INTER:                  -6.538
REMARK INTRA:                  -0.149
REMARK UNBOUND:                -0.151
REMARK SMILES O=C([O-])C=Cc1ccc(O)cc1
REMARK SMILES IDX 6 1 7 2 12 3 8 4 11 5 9 6 5 7 4 8 2 9 1 10 3 11 10 12
REMARK H PARENT 10 13
REMARK Flexibility Score: inf
ROOT
ATOM      1  C   UNL     1     -29.231  17.849  57.539  1.00  0.00    -0.025 A 
ATOM      2  C   UNL     1     -29.465  19.127  57.003  1.00  0.00     0.012 A 
ATOM      3  C   UNL     1     -28.022  17.611  58.224  1.00  0.00     0.012 A 
ATOM      4  C   UNL     1     -28.507  20.137  57.123  1.00  0.00     0.047 A 
ATOM      5  C   UNL     1     -27.064  18.625  58.343  1.00  0.00     0.047 A 
ATOM      6  C   UNL     1     -27.302  19.887  57.793  1.00  0.00     0.115 A 
ENDROOT
BRANCH   1   7
ATOM      7  C   UNL     1     -30.284  16.815  57.394  1.00  0.00     0.010 C 
ATOM      8  C   UNL     1     -31.211  16.826  56.425  1.00  0.00     0.025 C 
BRANCH   8   9
ATOM      9  C   UNL     1     -32.250  15.787  56.318  1.00  0.00     0.064 C 
ATOM     10  O   UNL     1     -33.473  16.088  56.295  1.00  0.00    -0.545 OA
ATOM     11  O   UNL     1     -31.875  14.452  56.247  1.00  0.00    -0.545 OA
ENDBRANCH   8   9
ENDBRANCH   1   7
BRANCH   6  12
ATOM     12  O   UNL     1     -26.338  20.885  57.919  1.00  0.00    -0.508 OA
ATOM     13  H   UNL     1     -26.531  21.844  57.653  1.00  0.00     0.293 HD
ENDBRANCH   6  12
TORSDOF 3
ENDMDL
MODEL 5
REMARK VINA RESULT:    -5.689      2.978      7.218
REMARK INTER + INTRA:          -6.671
REMARK INTER:                  -6.533
REMARK INTRA:                  -0.138
REMARK UNBOUND:                -0.151
REMARK SMILES O=C([O-])C=Cc1ccc(O)cc1
REMARK SMILES IDX 6 1 7 2 12 3 8 4 11 5 9 6 5 7 4 8 2 9 1 10 3 11 10 12
REMARK H PARENT 10 13
REMARK Flexibility Score: inf
ROOT
ATOM      1  C   UNL     1     -29.322  17.913  57.456  1.00  0.00    -0.025 A 
ATOM      2  C   UNL     1     -28.124  17.598  58.120  1.00  0.00     0.012 A 
ATOM      3  C   UNL     1     -29.460  19.187  56.869  1.00  0.00     0.012 A 
ATOM      4  C   UNL     1     -27.097  18.540  58.219  1.00  0.00     0.047 A 
ATOM      5  C   UNL     1     -28.428  20.128  56.970  1.00  0.00     0.047 A 
ATOM      6  C   UNL     1     -27.248  19.809  57.645  1.00  0.00     0.115 A 
ENDROOT
BRANCH   1   7
ATOM      7  C   UNL     1     -30.379  16.875  57.369  1.00  0.00     0.010 C 
ATOM      8  C   UNL     1     -31.440  16.957  56.552  1.00  0.00     0.025 C 
BRANCH   8   9
ATOM      9  C   UNL     1     -32.475  15.911  56.501  1.00  0.00     0.064 C 
ATOM     10  O   UNL     1     -33.623  16.107  56.981  1.00  0.00    -0.545 OA
ATOM     11  O   UNL     1     -32.180  14.687  55.917  1.00  0.00    -0.545 OA
ENDBRANCH   8   9
ENDBRANCH   1   7
BRANCH   6  12
ATOM     12  O   UNL     1     -26.231  20.757  57.739  1.00  0.00    -0.508 OA
ATOM     13  H   UNL     1     -25.433  20.619  58.347  1.00  0.00     0.293 HD
ENDBRANCH   6  12
TORSDOF 3
ENDMDL
MODEL 6
REMARK VINA RESULT:    -5.680      3.137      6.949
REMARK INTER + INTRA:          -6.661
REMARK INTER:                  -6.522
REMARK INTRA:                  -0.139
REMARK UNBOUND:                -0.151
REMARK SMILES O=C([O-])C=Cc1ccc(O)cc1
REMARK SMILES IDX 6 1 7 2 12 3 8 4 11 5 9 6 5 7 4 8 2 9 1 10 3 11 10 12
REMARK H PARENT 10 13
REMARK Flexibility Score: inf
ROOT
ATOM      1  C   UNL     1     -29.747  18.289  56.199  1.00  0.00    -0.025 A 
ATOM      2  C   UNL     1     -29.124  18.535  54.963  1.00  0.00     0.012 A 
ATOM      3  C   UNL     1     -29.360  19.052  57.319  1.00  0.00     0.012 A 
ATOM      4  C   UNL     1     -28.121  19.502  54.851  1.00  0.00     0.047 A 
ATOM      5  C   UNL     1     -28.356  20.019  57.203  1.00  0.00     0.047 A 
ATOM      6  C   UNL     1     -27.733  20.245  55.973  1.00  0.00     0.115 A 
ENDROOT
BRANCH   1   7
ATOM      7  C   UNL     1     -30.814  17.259  56.262  1.00  0.00     0.010 C 
ATOM      8  C   UNL     1     -31.490  16.954  57.380  1.00  0.00     0.025 C 
BRANCH   8   9
ATOM      9  C   UNL     1     -32.535  15.917  57.408  1.00  0.00     0.064 C 
ATOM     10  O   UNL     1     -33.673  16.124  56.911  1.00  0.00    -0.545 OA
ATOM     11  O   UNL     1     -32.262  14.690  57.997  1.00  0.00    -0.545 OA
ENDBRANCH   8   9
ENDBRANCH   1   7
BRANCH   6  12
ATOM     12  O   UNL     1     -26.734  21.211  55.875  1.00  0.00    -0.508 OA
ATOM     13  H   UNL     1     -26.170  21.472  56.676  1.00  0.00     0.293 HD
ENDBRANCH   6  12
TORSDOF 3
ENDMDL
MODEL 7
REMARK VINA RESULT:    -5.635      3.226      6.982
REMARK INTER + INTRA:          -6.610
REMARK INTER:                  -6.471
REMARK INTRA:                  -0.139
REMARK UNBOUND:                -0.151
REMARK SMILES O=C([O-])C=Cc1ccc(O)cc1
REMARK SMILES IDX 6 1 7 2 12 3 8 4 11 5 9 6 5 7 4 8 2 9 1 10 3 11 10 12
REMARK H PARENT 10 13
REMARK Flexibility Score: inf
ROOT
ATOM      1  C   UNL     1     -30.126  18.787  57.347  1.00  0.00    -0.025 A 
ATOM      2  C   UNL     1     -30.491  20.053  57.836  1.00  0.00     0.012 A 
ATOM      3  C   UNL     1     -28.806  18.588  56.894  1.00  0.00     0.012 A 
ATOM      4  C   UNL     1     -29.569  21.103  57.851  1.00  0.00     0.047 A 
ATOM      5  C   UNL     1     -27.886  19.642  56.911  1.00  0.00     0.047 A 
ATOM      6  C   UNL     1     -28.264  20.900  57.386  1.00  0.00     0.115 A 
ENDROOT
BRANCH   1   7
ATOM      7  C   UNL     1     -31.139  17.702  57.362  1.00  0.00     0.010 C 
ATOM      8  C   UNL     1     -30.850  16.410  57.149  1.00  0.00     0.025 C 
BRANCH   8   9
ATOM      9  C   UNL     1     -31.883  15.361  57.160  1.00  0.00     0.064 C 
ATOM     10  O   UNL     1     -31.894  14.446  56.295  1.00  0.00    -0.545 OA
ATOM     11  O   UNL     1     -32.867  15.383  58.140  1.00  0.00    -0.545 OA
ENDBRANCH   8   9
ENDBRANCH   1   7
BRANCH   6  12
ATOM     12  O   UNL     1     -27.336  21.939  57.395  1.00  0.00    -0.508 OA
ATOM     13  H   UNL     1     -27.512  22.802  57.896  1.00  0.00     0.293 HD
ENDBRANCH   6  12
TORSDOF 3
ENDMDL
MODEL 8
REMARK VINA RESULT:    -5.428      4.324      6.587
REMARK INTER + INTRA:          -6.371
REMARK INTER:                  -6.225
REMARK INTRA:                  -0.147
REMARK UNBOUND:                -0.151
REMARK SMILES O=C([O-])C=Cc1ccc(O)cc1
REMARK SMILES IDX 6 1 7 2 12 3 8 4 11 5 9 6 5 7 4 8 2 9 1 10 3 11 10 12
REMARK H PARENT 10 13
REMARK Flexibility Score: inf
ROOT
ATOM      1  C   UNL     1     -28.562  19.427  56.631  1.00  0.00    -0.025 A 
ATOM      2  C   UNL     1     -29.253  19.551  57.849  1.00  0.00     0.012 A 
ATOM      3  C   UNL     1     -29.117  18.625  55.614  1.00  0.00     0.012 A 
ATOM      4  C   UNL     1     -30.456  18.870  58.058  1.00  0.00     0.047 A 
ATOM      5  C   UNL     1     -30.322  17.946  55.826  1.00  0.00     0.047 A 
ATOM      6  C   UNL     1     -30.992  18.064  57.046  1.00  0.00     0.115 A 
ENDROOT
BRANCH   1   7
ATOM      7  C   UNL     1     -27.295  20.179  56.456  1.00  0.00     0.010 C 
ATOM      8  C   UNL     1     -27.059  21.381  57.001  1.00  0.00     0.025 C 
BRANCH   8   9
ATOM      9  C   UNL     1     -25.792  22.103  56.795  1.00  0.00     0.064 C 
ATOM     10  O   UNL     1     -25.501  22.603  55.677  1.00  0.00    -0.545 OA
ATOM     11  O   UNL     1     -24.900  22.231  57.852  1.00  0.00    -0.545 OA
ENDBRANCH   8   9
ENDBRANCH   1   7
BRANCH   6  12
ATOM     12  O   UNL     1     -32.190  17.379  57.242  1.00  0.00    -0.508 OA
ATOM     13  H   UNL     1     -33.068  17.872  57.355  1.00  0.00     0.293 HD
ENDBRANCH   6  12
TORSDOF 3
ENDMDL
MODEL 9
REMARK VINA RESULT:    -4.896      2.008      5.766
REMARK INTER + INTRA:          -5.762
REMARK INTER:                  -5.621
REMARK INTRA:                  -0.141
REMARK UNBOUND:                -0.151
REMARK SMILES O=C([O-])C=Cc1ccc(O)cc1
REMARK SMILES IDX 6 1 7 2 12 3 8 4 11 5 9 6 5 7 4 8 2 9 1 10 3 11 10 12
REMARK H PARENT 10 13
REMARK Flexibility Score: inf
ROOT
ATOM      1  C   UNL     1     -33.586  14.816  57.692  1.00  0.00    -0.025 A 
ATOM      2  C   UNL     1     -32.245  14.933  58.098  1.00  0.00     0.012 A 
ATOM      3  C   UNL     1     -34.020  15.541  56.563  1.00  0.00     0.012 A 
ATOM      4  C   UNL     1     -31.364  15.772  57.410  1.00  0.00     0.047 A 
ATOM      5  C   UNL     1     -33.134  16.379  55.877  1.00  0.00     0.047 A 
ATOM      6  C   UNL     1     -31.808  16.499  56.299  1.00  0.00     0.115 A 
ENDROOT
BRANCH   1   7
ATOM      7  C   UNL     1     -34.479  13.905  58.449  1.00  0.00     0.010 C 
ATOM      8  C   UNL     1     -35.642  13.436  57.973  1.00  0.00     0.025 C 
BRANCH   8   9
ATOM      9  C   UNL     1     -36.509  12.541  58.759  1.00  0.00     0.064 C 
ATOM     10  O   UNL     1     -36.700  12.732  59.989  1.00  0.00    -0.545 OA
ATOM     11  O   UNL     1     -37.125  11.466  58.132  1.00  0.00    -0.545 OA
ENDBRANCH   8   9
ENDBRANCH   1   7
BRANCH   6  12
ATOM     12  O   UNL     1     -30.939  17.340  55.605  1.00  0.00    -0.508 OA
ATOM     13  H   UNL     1     -30.255  16.972  54.954  1.00  0.00     0.293 HD
ENDBRANCH   6  12
TORSDOF 3
ENDMDL
