MODEL 1
REMARK VINA RESULT:    -2.319      0.000      0.000
REMARK INTER + INTRA:         -11.988
REMARK INTER:                  -6.114
REMARK INTRA:                  -5.874
REMARK UNBOUND:                -5.874
REMARK SMILES CCCCCCCCCCCCCCCCCCCCCCCCCCCCCC(=O)[O-]
REMARK SMILES IDX 16 1 17 2 18 3 19 4 20 5 21 6 22 7 23 8 24 9 25 10 26 11
REMARK SMILES IDX 27 12 28 13 29 14 30 15 31 16 32 17 15 18 14 19 13 20 12 21
REMARK SMILES IDX 11 22 10 23 9 24 8 25 7 26 6 27 5 28 4 29 3 30 2 31 1 32
REMARK H PARENT
REMARK Flexibility Score: inf
ROOT
ATOM      1  C   UNL     1     -20.715  14.461 -19.790  1.00  0.00     0.000 C 
ENDROOT
BRANCH   1   2
ATOM      2  C   UNL     1     -21.192  13.476 -18.706  1.00  0.00     0.000 C 
BRANCH   2   3
ATOM      3  C   UNL     1     -20.035  12.771 -17.982  1.00  0.00     0.000 C 
BRANCH   3   4
ATOM      4  C   UNL     1     -20.561  11.869 -16.857  1.00  0.00     0.000 C 
BRANCH   4   5
ATOM      5  C   UNL     1     -21.985  12.249 -16.421  1.00  0.00     0.000 C 
BRANCH   5   6
ATOM      6  C   UNL     1     -22.152  12.233 -14.892  1.00  0.00     0.000 C 
BRANCH   6   7
ATOM      7  C   UNL     1     -23.584  12.565 -14.442  1.00  0.00     0.000 C 
BRANCH   7   8
ATOM      8  C   UNL     1     -24.342  13.436 -15.456  1.00  0.00     0.000 C 
BRANCH   8   9
ATOM      9  C   UNL     1     -24.066  14.926 -15.218  1.00  0.00     0.000 C 
BRANCH   9  10
ATOM     10  C   UNL     1     -23.787  15.653 -16.539  1.00  0.00     0.000 C 
BRANCH  10  11
ATOM     11  C   UNL     1     -22.325  16.120 -16.609  1.00  0.00     0.000 C 
BRANCH  11  12
ATOM     12  C   UNL     1     -21.586  15.965 -15.270  1.00  0.00     0.000 C 
BRANCH  12  13
ATOM     13  C   UNL     1     -20.140  15.470 -15.446  1.00  0.00     0.006 C 
BRANCH  13  14
ATOM     14  C   UNL     1     -19.444  16.130 -16.645  1.00  0.00     0.053 C 
BRANCH  14  15
ATOM     15  C   UNL     1     -18.904  17.483 -16.299  1.00  0.00     0.041 C 
ATOM     16  O   UNL     1     -19.228  18.490 -16.983  1.00  0.00    -0.550 OA
ATOM     17  O   UNL     1     -18.068  17.639 -15.200  1.00  0.00    -0.550 OA
ENDBRANCH  14  15
ENDBRANCH  13  14
ENDBRANCH  12  13
ENDBRANCH  11  12
ENDBRANCH  10  11
ENDBRANCH   9  10
ENDBRANCH   8   9
ENDBRANCH   7   8
ENDBRANCH   6   7
ENDBRANCH   5   6
ENDBRANCH   4   5
ENDBRANCH   3   4
ENDBRANCH   2   3
ENDBRANCH   1   2
BRANCH   1  18
ATOM     18  C   UNL     1     -21.115  14.090 -21.231  1.00  0.00     0.000 C 
BRANCH  18  19
ATOM     19  C   UNL     1     -21.635  15.288 -22.038  1.00  0.00     0.000 C 
BRANCH  19  20
ATOM     20  C   UNL     1     -22.377  14.824 -23.300  1.00  0.00     0.000 C 
BRANCH  20  21
ATOM     21  C   UNL     1     -21.751  13.568 -23.927  1.00  0.00     0.000 C 
BRANCH  21  22
ATOM     22  C   UNL     1     -20.492  13.882 -24.758  1.00  0.00     0.000 C 
BRANCH  22  23
ATOM     23  C   UNL     1     -19.312  12.959 -24.421  1.00  0.00     0.000 C 
BRANCH  23  24
ATOM     24  C   UNL     1     -18.291  13.622 -23.477  1.00  0.00    -0.000 C 
BRANCH  24  25
ATOM     25  C   UNL     1     -18.219  15.153 -23.653  1.00  0.00    -0.000 C 
BRANCH  25  26
ATOM     26  C   UNL     1     -17.458  15.883 -22.531  1.00  0.00    -0.000 C 
BRANCH  26  27
ATOM     27  C   UNL     1     -18.353  16.820 -21.709  1.00  0.00    -0.000 C 
BRANCH  27  28
ATOM     28  C   UNL     1     -17.975  16.791 -20.220  1.00  0.00    -0.000 C 
BRANCH  28  29
ATOM     29  C   UNL     1     -16.765  15.875 -19.945  1.00  0.00    -0.000 C 
BRANCH  29  30
ATOM     30  C   UNL     1     -17.109  14.606 -19.141  1.00  0.00    -0.000 C 
BRANCH  30  31
ATOM     31  C   UNL     1     -17.069  13.303 -19.964  1.00  0.00    -0.003 C 
ATOM     32  C   UNL     1     -15.651  12.912 -20.384  1.00  0.00     0.004 C 
ENDBRANCH  30  31
ENDBRANCH  29  30
ENDBRANCH  28  29
ENDBRANCH  27  28
ENDBRANCH  26  27
ENDBRANCH  25  26
ENDBRANCH  24  25
ENDBRANCH  23  24
ENDBRANCH  22  23
ENDBRANCH  21  22
ENDBRANCH  20  21
ENDBRANCH  19  20
ENDBRANCH  18  19
ENDBRANCH   1  18
TORSDOF 28
ENDMDL
MODEL 2
REMARK VINA RESULT:    -2.266     11.174     13.809
REMARK INTER + INTRA:         -11.850
REMARK INTER:                  -6.005
REMARK INTRA:                  -5.846
REMARK UNBOUND:                -5.874
REMARK SMILES CCCCCCCCCCCCCCCCCCCCCCCCCCCCCC(=O)[O-]
REMARK SMILES IDX 16 1 17 2 18 3 19 4 20 5 21 6 22 7 23 8 24 9 25 10 26 11
REMARK SMILES IDX 27 12 28 13 29 14 30 15 31 16 32 17 15 18 14 19 13 20 12 21
REMARK SMILES IDX 11 22 10 23 9 24 8 25 7 26 6 27 5 28 4 29 3 30 2 31 1 32
REMARK H PARENT
REMARK Flexibility Score: inf
ROOT
ATOM      1  C   UNL     1     -21.896  27.730 -21.504  1.00  0.00     0.000 C 
ENDROOT
BRANCH   1   2
ATOM      2  C   UNL     1     -23.359  28.103 -21.807  1.00  0.00     0.000 C 
BRANCH   2   3
ATOM      3  C   UNL     1     -23.606  29.619 -21.804  1.00  0.00     0.000 C 
BRANCH   3   4
ATOM      4  C   UNL     1     -24.921  29.959 -21.087  1.00  0.00     0.000 C 
BRANCH   4   5
ATOM      5  C   UNL     1     -25.037  29.266 -19.720  1.00  0.00     0.000 C 
BRANCH   5   6
ATOM      6  C   UNL     1     -24.389  30.088 -18.592  1.00  0.00     0.000 C 
BRANCH   6   7
ATOM      7  C   UNL     1     -23.840  29.214 -17.454  1.00  0.00     0.000 C 
BRANCH   7   8
ATOM      8  C   UNL     1     -22.478  28.584 -17.786  1.00  0.00     0.000 C 
BRANCH   8   9
ATOM      9  C   UNL     1     -22.589  27.059 -17.898  1.00  0.00     0.000 C 
BRANCH   9  10
ATOM     10  C   UNL     1     -21.360  26.371 -17.293  1.00  0.00     0.000 C 
BRANCH  10  11
ATOM     11  C   UNL     1     -20.525  25.681 -18.382  1.00  0.00     0.000 C 
BRANCH  11  12
ATOM     12  C   UNL     1     -21.374  24.803 -19.316  1.00  0.00     0.000 C 
BRANCH  12  13
ATOM     13  C   UNL     1     -20.517  23.920 -20.239  1.00  0.00     0.006 C 
BRANCH  13  14
ATOM     14  C   UNL     1     -19.696  24.750 -21.235  1.00  0.00     0.053 C 
BRANCH  14  15
ATOM     15  C   UNL     1     -19.509  24.030 -22.536  1.00  0.00     0.041 C 
ATOM     16  O   UNL     1     -20.203  24.343 -23.539  1.00  0.00    -0.550 OA
ATOM     17  O   UNL     1     -18.544  23.038 -22.650  1.00  0.00    -0.550 OA
ENDBRANCH  14  15
ENDBRANCH  13  14
ENDBRANCH  12  13
ENDBRANCH  11  12
ENDBRANCH  10  11
ENDBRANCH   9  10
ENDBRANCH   8   9
ENDBRANCH   7   8
ENDBRANCH   6   7
ENDBRANCH   5   6
ENDBRANCH   4   5
ENDBRANCH   3   4
ENDBRANCH   2   3
ENDBRANCH   1   2
BRANCH   1  18
ATOM     18  C   UNL     1     -21.012  28.894 -21.016  1.00  0.00     0.000 C 
BRANCH  18  19
ATOM     19  C   UNL     1     -19.558  28.476 -20.753  1.00  0.00     0.000 C 
BRANCH  19  20
ATOM     20  C   UNL     1     -19.119  28.867 -19.335  1.00  0.00     0.000 C 
BRANCH  20  21
ATOM     21  C   UNL     1     -17.829  29.703 -19.324  1.00  0.00     0.000 C 
BRANCH  21  22
ATOM     22  C   UNL     1     -17.624  30.498 -20.627  1.00  0.00     0.000 C 
BRANCH  22  23
ATOM     23  C   UNL     1     -16.332  30.114 -21.362  1.00  0.00     0.000 C 
BRANCH  23  24
ATOM     24  C   UNL     1     -16.556  29.861 -22.865  1.00  0.00    -0.000 C 
BRANCH  24  25
ATOM     25  C   UNL     1     -15.450  28.991 -23.497  1.00  0.00    -0.000 C 
BRANCH  25  26
ATOM     26  C   UNL     1     -15.975  27.830 -24.361  1.00  0.00    -0.000 C 
BRANCH  26  27
ATOM     27  C   UNL     1     -16.898  26.876 -23.591  1.00  0.00    -0.000 C 
BRANCH  27  28
ATOM     28  C   UNL     1     -16.196  25.543 -23.287  1.00  0.00    -0.000 C 
BRANCH  28  29
ATOM     29  C   UNL     1     -15.858  25.391 -21.791  1.00  0.00    -0.000 C 
BRANCH  29  30
ATOM     30  C   UNL     1     -16.533  26.439 -20.885  1.00  0.00    -0.000 C 
BRANCH  30  31
ATOM     31  C   UNL     1     -15.885  26.587 -19.494  1.00  0.00    -0.003 C 
ATOM     32  C   UNL     1     -16.809  26.140 -18.360  1.00  0.00     0.004 C 
ENDBRANCH  30  31
ENDBRANCH  29  30
ENDBRANCH  28  29
ENDBRANCH  27  28
ENDBRANCH  26  27
ENDBRANCH  25  26
ENDBRANCH  24  25
ENDBRANCH  23  24
ENDBRANCH  22  23
ENDBRANCH  21  22
ENDBRANCH  20  21
ENDBRANCH  19  20
ENDBRANCH  18  19
ENDBRANCH   1  18
TORSDOF 28
ENDMDL
MODEL 3
REMARK VINA RESULT:    -2.242     11.472     14.242
REMARK INTER + INTRA:         -11.787
REMARK INTER:                  -6.249
REMARK INTRA:                  -5.539
REMARK UNBOUND:                -5.874
REMARK SMILES CCCCCCCCCCCCCCCCCCCCCCCCCCCCCC(=O)[O-]
REMARK SMILES IDX 16 1 17 2 18 3 19 4 20 5 21 6 22 7 23 8 24 9 25 10 26 11
REMARK SMILES IDX 27 12 28 13 29 14 30 15 31 16 32 17 15 18 14 19 13 20 12 21
REMARK SMILES IDX 11 22 10 23 9 24 8 25 7 26 6 27 5 28 4 29 3 30 2 31 1 32
REMARK H PARENT
REMARK Flexibility Score: inf
ROOT
ATOM      1  C   UNL     1     -17.650  28.712 -18.458  1.00  0.00     0.000 C 
ENDROOT
BRANCH   1   2
ATOM      2  C   UNL     1     -18.880  29.004 -17.578  1.00  0.00     0.000 C 
BRANCH   2   3
ATOM      3  C   UNL     1     -20.171  29.185 -18.389  1.00  0.00     0.000 C 
BRANCH   3   4
ATOM      4  C   UNL     1     -20.183  28.261 -19.615  1.00  0.00     0.000 C 
BRANCH   4   5
ATOM      5  C   UNL     1     -21.124  28.769 -20.720  1.00  0.00     0.000 C 
BRANCH   5   6
ATOM      6  C   UNL     1     -21.892  27.625 -21.405  1.00  0.00     0.000 C 
BRANCH   6   7
ATOM      7  C   UNL     1     -23.216  28.086 -22.034  1.00  0.00     0.000 C 
BRANCH   7   8
ATOM      8  C   UNL     1     -23.539  29.558 -21.736  1.00  0.00     0.000 C 
BRANCH   8   9
ATOM      9  C   UNL     1     -24.933  29.701 -21.111  1.00  0.00     0.000 C 
BRANCH   9  10
ATOM     10  C   UNL     1     -24.966  29.109 -19.697  1.00  0.00     0.000 C 
BRANCH  10  11
ATOM     11  C   UNL     1     -24.072  29.915 -18.743  1.00  0.00     0.000 C 
BRANCH  11  12
ATOM     12  C   UNL     1     -23.727  29.146 -17.458  1.00  0.00     0.000 C 
BRANCH  12  13
ATOM     13  C   UNL     1     -24.098  27.655 -17.543  1.00  0.00     0.006 C 
BRANCH  13  14
ATOM     14  C   UNL     1     -22.874  26.767 -17.807  1.00  0.00     0.053 C 
BRANCH  14  15
ATOM     15  C   UNL     1     -22.255  26.280 -16.532  1.00  0.00     0.041 C 
ATOM     16  O   UNL     1     -21.535  27.050 -15.843  1.00  0.00    -0.550 OA
ATOM     17  O   UNL     1     -22.502  24.988 -16.088  1.00  0.00    -0.550 OA
ENDBRANCH  14  15
ENDBRANCH  13  14
ENDBRANCH  12  13
ENDBRANCH  11  12
ENDBRANCH  10  11
ENDBRANCH   9  10
ENDBRANCH   8   9
ENDBRANCH   7   8
ENDBRANCH   6   7
ENDBRANCH   5   6
ENDBRANCH   4   5
ENDBRANCH   3   4
ENDBRANCH   2   3
ENDBRANCH   1   2
BRANCH   1  18
ATOM     18  C   UNL     1     -16.338  29.366 -17.985  1.00  0.00     0.000 C 
BRANCH  18  19
ATOM     19  C   UNL     1     -16.128  30.775 -18.559  1.00  0.00     0.000 C 
BRANCH  19  20
ATOM     20  C   UNL     1     -16.866  30.943 -19.895  1.00  0.00     0.000 C 
BRANCH  20  21
ATOM     21  C   UNL     1     -15.908  31.124 -21.083  1.00  0.00     0.000 C 
BRANCH  21  22
ATOM     22  C   UNL     1     -16.247  30.201 -22.268  1.00  0.00     0.000 C 
BRANCH  22  23
ATOM     23  C   UNL     1     -17.562  29.433 -22.067  1.00  0.00     0.000 C 
BRANCH  23  24
ATOM     24  C   UNL     1     -17.448  27.948 -22.462  1.00  0.00    -0.000 C 
BRANCH  24  25
ATOM     25  C   UNL     1     -16.599  27.128 -21.469  1.00  0.00    -0.000 C 
BRANCH  25  26
ATOM     26  C   UNL     1     -17.282  25.844 -20.963  1.00  0.00    -0.000 C 
BRANCH  26  27
ATOM     27  C   UNL     1     -18.681  25.633 -21.557  1.00  0.00    -0.000 C 
BRANCH  27  28
ATOM     28  C   UNL     1     -18.735  24.365 -22.424  1.00  0.00    -0.000 C 
BRANCH  28  29
ATOM     29  C   UNL     1     -19.422  24.616 -23.781  1.00  0.00    -0.000 C 
BRANCH  29  30
ATOM     30  C   UNL     1     -18.444  24.759 -24.963  1.00  0.00    -0.000 C 
BRANCH  30  31
ATOM     31  C   UNL     1     -16.957  24.650 -24.572  1.00  0.00    -0.003 C 
ATOM     32  C   UNL     1     -16.120  25.821 -25.093  1.00  0.00     0.004 C 
ENDBRANCH  30  31
ENDBRANCH  29  30
ENDBRANCH  28  29
ENDBRANCH  27  28
ENDBRANCH  26  27
ENDBRANCH  25  26
ENDBRANCH  24  25
ENDBRANCH  23  24
ENDBRANCH  22  23
ENDBRANCH  21  22
ENDBRANCH  20  21
ENDBRANCH  19  20
ENDBRANCH  18  19
ENDBRANCH   1  18
TORSDOF 28
ENDMDL
MODEL 4
REMARK VINA RESULT:    -2.213     11.261     13.885
REMARK INTER + INTRA:         -11.709
REMARK INTER:                  -6.185
REMARK INTRA:                  -5.523
REMARK UNBOUND:                -5.874
REMARK SMILES CCCCCCCCCCCCCCCCCCCCCCCCCCCCCC(=O)[O-]
REMARK SMILES IDX 16 1 17 2 18 3 19 4 20 5 21 6 22 7 23 8 24 9 25 10 26 11
REMARK SMILES IDX 27 12 28 13 29 14 30 15 31 16 32 17 15 18 14 19 13 20 12 21
REMARK SMILES IDX 11 22 10 23 9 24 8 25 7 26 6 27 5 28 4 29 3 30 2 31 1 32
REMARK H PARENT
REMARK Flexibility Score: inf
ROOT
ATOM      1  C   UNL     1     -18.891  29.456 -21.270  1.00  0.00     0.000 C 
ENDROOT
BRANCH   1   2
ATOM      2  C   UNL     1     -19.777  28.208 -21.095  1.00  0.00     0.000 C 
BRANCH   2   3
ATOM      3  C   UNL     1     -21.258  28.548 -20.872  1.00  0.00     0.000 C 
BRANCH   3   4
ATOM      4  C   UNL     1     -22.166  27.580 -21.643  1.00  0.00     0.000 C 
BRANCH   4   5
ATOM      5  C   UNL     1     -23.363  28.294 -22.292  1.00  0.00     0.000 C 
BRANCH   5   6
ATOM      6  C   UNL     1     -23.535  29.732 -21.774  1.00  0.00     0.000 C 
BRANCH   6   7
ATOM      7  C   UNL     1     -24.772  29.901 -20.878  1.00  0.00     0.000 C 
BRANCH   7   8
ATOM      8  C   UNL     1     -24.433  29.877 -19.379  1.00  0.00     0.000 C 
BRANCH   8   9
ATOM      9  C   UNL     1     -24.454  28.444 -18.833  1.00  0.00     0.000 C 
BRANCH   9  10
ATOM     10  C   UNL     1     -23.747  28.362 -17.474  1.00  0.00     0.000 C 
BRANCH  10  11
ATOM     11  C   UNL     1     -23.362  26.912 -17.143  1.00  0.00     0.000 C 
BRANCH  11  12
ATOM     12  C   UNL     1     -22.312  26.340 -18.110  1.00  0.00     0.000 C 
BRANCH  12  13
ATOM     13  C   UNL     1     -20.972  26.037 -17.416  1.00  0.00     0.006 C 
BRANCH  13  14
ATOM     14  C   UNL     1     -19.887  27.059 -17.782  1.00  0.00     0.053 C 
BRANCH  14  15
ATOM     15  C   UNL     1     -20.008  28.313 -16.971  1.00  0.00     0.041 C 
ATOM     16  O   UNL     1     -20.063  28.253 -15.714  1.00  0.00    -0.550 OA
ATOM     17  O   UNL     1     -20.026  29.550 -17.602  1.00  0.00    -0.550 OA
ENDBRANCH  14  15
ENDBRANCH  13  14
ENDBRANCH  12  13
ENDBRANCH  11  12
ENDBRANCH  10  11
ENDBRANCH   9  10
ENDBRANCH   8   9
ENDBRANCH   7   8
ENDBRANCH   6   7
ENDBRANCH   5   6
ENDBRANCH   4   5
ENDBRANCH   3   4
ENDBRANCH   2   3
ENDBRANCH   1   2
BRANCH   1  18
ATOM     18  C   UNL     1     -17.682  29.537 -20.318  1.00  0.00     0.000 C 
BRANCH  18  19
ATOM     19  C   UNL     1     -16.831  30.797 -20.534  1.00  0.00     0.000 C 
BRANCH  19  20
ATOM     20  C   UNL     1     -16.122  30.758 -21.896  1.00  0.00     0.000 C 
BRANCH  20  21
ATOM     21  C   UNL     1     -14.778  30.015 -21.843  1.00  0.00     0.000 C 
BRANCH  21  22
ATOM     22  C   UNL     1     -14.818  28.660 -22.574  1.00  0.00     0.000 C 
BRANCH  22  23
ATOM     23  C   UNL     1     -15.984  28.554 -23.568  1.00  0.00     0.000 C 
BRANCH  23  24
ATOM     24  C   UNL     1     -16.884  27.333 -23.299  1.00  0.00    -0.000 C 
BRANCH  24  25
ATOM     25  C   UNL     1     -16.140  26.188 -22.581  1.00  0.00    -0.000 C 
BRANCH  25  26
ATOM     26  C   UNL     1     -16.794  25.740 -21.261  1.00  0.00    -0.000 C 
BRANCH  26  27
ATOM     27  C   UNL     1     -16.764  24.219 -21.060  1.00  0.00    -0.000 C 
BRANCH  27  28
ATOM     28  C   UNL     1     -18.120  23.693 -20.563  1.00  0.00    -0.000 C 
BRANCH  28  29
ATOM     29  C   UNL     1     -19.239  24.745 -20.703  1.00  0.00    -0.000 C 
BRANCH  29  30
ATOM     30  C   UNL     1     -20.233  24.455 -21.845  1.00  0.00    -0.000 C 
BRANCH  30  31
ATOM     31  C   UNL     1     -19.867  25.120 -23.187  1.00  0.00    -0.003 C 
ATOM     32  C   UNL     1     -20.819  24.729 -24.320  1.00  0.00     0.004 C 
ENDBRANCH  30  31
ENDBRANCH  29  30
ENDBRANCH  28  29
ENDBRANCH  27  28
ENDBRANCH  26  27
ENDBRANCH  25  26
ENDBRANCH  24  25
ENDBRANCH  23  24
ENDBRANCH  22  23
ENDBRANCH  21  22
ENDBRANCH  20  21
ENDBRANCH  19  20
ENDBRANCH  18  19
ENDBRANCH   1  18
TORSDOF 28
ENDMDL
MODEL 5
REMARK VINA RESULT:    -2.210     11.183     13.806
REMARK INTER + INTRA:         -11.702
REMARK INTER:                  -5.854
REMARK INTRA:                  -5.848
REMARK UNBOUND:                -5.874
REMARK SMILES CCCCCCCCCCCCCCCCCCCCCCCCCCCCCC(=O)[O-]
REMARK SMILES IDX 16 1 17 2 18 3 19 4 20 5 21 6 22 7 23 8 24 9 25 10 26 11
REMARK SMILES IDX 27 12 28 13 29 14 30 15 31 16 32 17 15 18 14 19 13 20 12 21
REMARK SMILES IDX 11 22 10 23 9 24 8 25 7 26 6 27 5 28 4 29 3 30 2 31 1 32
REMARK H PARENT
REMARK Flexibility Score: inf
ROOT
ATOM      1  C   UNL     1     -18.782  29.007 -21.365  1.00  0.00     0.000 C 
ENDROOT
BRANCH   1   2
ATOM      2  C   UNL     1     -19.768  28.057 -20.659  1.00  0.00     0.000 C 
BRANCH   2   3
ATOM      3  C   UNL     1     -21.233  28.497 -20.800  1.00  0.00     0.000 C 
BRANCH   3   4
ATOM      4  C   UNL     1     -22.035  27.477 -21.621  1.00  0.00     0.000 C 
BRANCH   4   5
ATOM      5  C   UNL     1     -23.310  28.088 -22.226  1.00  0.00     0.000 C 
BRANCH   5   6
ATOM      6  C   UNL     1     -23.484  29.569 -21.845  1.00  0.00     0.000 C 
BRANCH   6   7
ATOM      7  C   UNL     1     -24.818  29.851 -21.135  1.00  0.00     0.000 C 
BRANCH   7   8
ATOM      8  C   UNL     1     -24.662  30.027 -19.616  1.00  0.00     0.000 C 
BRANCH   8   9
ATOM      9  C   UNL     1     -25.038  28.741 -18.871  1.00  0.00     0.000 C 
BRANCH   9  10
ATOM     10  C   UNL     1     -23.820  28.140 -18.158  1.00  0.00     0.000 C 
BRANCH  10  11
ATOM     11  C   UNL     1     -22.789  29.228 -17.823  1.00  0.00     0.000 C 
BRANCH  11  12
ATOM     12  C   UNL     1     -21.788  28.787 -16.743  1.00  0.00     0.000 C 
BRANCH  12  13
ATOM     13  C   UNL     1     -20.332  29.114 -17.118  1.00  0.00     0.006 C 
BRANCH  13  14
ATOM     14  C   UNL     1     -19.330  28.190 -16.412  1.00  0.00     0.053 C 
BRANCH  14  15
ATOM     15  C   UNL     1     -18.014  28.148 -17.125  1.00  0.00     0.041 C 
ATOM     16  O   UNL     1     -17.742  27.191 -17.898  1.00  0.00    -0.550 OA
ATOM     17  O   UNL     1     -17.101  29.182 -16.964  1.00  0.00    -0.550 OA
ENDBRANCH  14  15
ENDBRANCH  13  14
ENDBRANCH  12  13
ENDBRANCH  11  12
ENDBRANCH  10  11
ENDBRANCH   9  10
ENDBRANCH   8   9
ENDBRANCH   7   8
ENDBRANCH   6   7
ENDBRANCH   5   6
ENDBRANCH   4   5
ENDBRANCH   3   4
ENDBRANCH   2   3
ENDBRANCH   1   2
BRANCH   1  18
ATOM     18  C   UNL     1     -17.884  29.834 -20.424  1.00  0.00     0.000 C 
BRANCH  18  19
ATOM     19  C   UNL     1     -16.518  30.169 -21.038  1.00  0.00     0.000 C 
BRANCH  19  20
ATOM     20  C   UNL     1     -16.546  30.015 -22.566  1.00  0.00     0.000 C 
BRANCH  20  21
ATOM     21  C   UNL     1     -15.425  29.104 -23.090  1.00  0.00     0.000 C 
BRANCH  21  22
ATOM     22  C   UNL     1     -15.928  27.698 -23.467  1.00  0.00     0.000 C 
BRANCH  22  23
ATOM     23  C   UNL     1     -15.935  26.730 -22.276  1.00  0.00     0.000 C 
BRANCH  23  24
ATOM     24  C   UNL     1     -17.017  25.640 -22.403  1.00  0.00    -0.000 C 
BRANCH  24  25
ATOM     25  C   UNL     1     -18.160  26.040 -23.358  1.00  0.00    -0.000 C 
BRANCH  25  26
ATOM     26  C   UNL     1     -19.388  25.114 -23.298  1.00  0.00    -0.000 C 
BRANCH  26  27
ATOM     27  C   UNL     1     -19.316  24.092 -22.155  1.00  0.00    -0.000 C 
BRANCH  27  28
ATOM     28  C   UNL     1     -20.484  24.268 -21.172  1.00  0.00    -0.000 C 
BRANCH  28  29
ATOM     29  C   UNL     1     -20.210  23.590 -19.815  1.00  0.00    -0.000 C 
BRANCH  29  30
ATOM     30  C   UNL     1     -19.984  24.578 -18.654  1.00  0.00    -0.000 C 
BRANCH  30  31
ATOM     31  C   UNL     1     -21.174  25.521 -18.383  1.00  0.00    -0.003 C 
ATOM     32  C   UNL     1     -22.001  25.096 -17.168  1.00  0.00     0.004 C 
ENDBRANCH  30  31
ENDBRANCH  29  30
ENDBRANCH  28  29
ENDBRANCH  27  28
ENDBRANCH  26  27
ENDBRANCH  25  26
ENDBRANCH  24  25
ENDBRANCH  23  24
ENDBRANCH  22  23
ENDBRANCH  21  22
ENDBRANCH  20  21
ENDBRANCH  19  20
ENDBRANCH  18  19
ENDBRANCH   1  18
TORSDOF 28
ENDMDL
MODEL 6
REMARK VINA RESULT:    -2.207      2.232      6.863
REMARK INTER + INTRA:         -11.693
REMARK INTER:                  -6.207
REMARK INTRA:                  -5.486
REMARK UNBOUND:                -5.874
REMARK SMILES CCCCCCCCCCCCCCCCCCCCCCCCCCCCCC(=O)[O-]
REMARK SMILES IDX 16 1 17 2 18 3 19 4 20 5 21 6 22 7 23 8 24 9 25 10 26 11
REMARK SMILES IDX 27 12 28 13 29 14 30 15 31 16 32 17 15 18 14 19 13 20 12 21
REMARK SMILES IDX 11 22 10 23 9 24 8 25 7 26 6 27 5 28 4 29 3 30 2 31 1 32
REMARK H PARENT
REMARK Flexibility Score: inf
ROOT
ATOM      1  C   UNL     1     -17.382  13.682 -22.804  1.00  0.00     0.000 C 
ENDROOT
BRANCH   1   2
ATOM      2  C   UNL     1     -17.837  14.781 -23.783  1.00  0.00     0.000 C 
BRANCH   2   3
ATOM      3  C   UNL     1     -18.655  14.235 -24.963  1.00  0.00     0.000 C 
BRANCH   3   4
ATOM      4  C   UNL     1     -19.537  13.058 -24.520  1.00  0.00     0.000 C 
BRANCH   4   5
ATOM      5  C   UNL     1     -21.027  13.305 -24.809  1.00  0.00     0.000 C 
BRANCH   5   6
ATOM      6  C   UNL     1     -21.898  13.154 -23.550  1.00  0.00     0.000 C 
BRANCH   6   7
ATOM      7  C   UNL     1     -21.299  13.858 -22.321  1.00  0.00     0.000 C 
BRANCH   7   8
ATOM      8  C   UNL     1     -21.374  15.390 -22.413  1.00  0.00     0.000 C 
BRANCH   8   9
ATOM      9  C   UNL     1     -20.811  16.046 -21.146  1.00  0.00     0.000 C 
BRANCH   9  10
ATOM     10  C   UNL     1     -19.638  16.975 -21.480  1.00  0.00     0.000 C 
BRANCH  10  11
ATOM     11  C   UNL     1     -19.084  17.637 -20.210  1.00  0.00     0.000 C 
BRANCH  11  12
ATOM     12  C   UNL     1     -17.694  17.110 -19.821  1.00  0.00     0.000 C 
BRANCH  12  13
ATOM     13  C   UNL     1     -16.554  17.898 -20.489  1.00  0.00     0.006 C 
BRANCH  13  14
ATOM     14  C   UNL     1     -16.023  17.196 -21.746  1.00  0.00     0.053 C 
BRANCH  14  15
ATOM     15  C   UNL     1     -14.884  16.276 -21.430  1.00  0.00     0.041 C 
ATOM     16  O   UNL     1     -14.373  15.565 -22.336  1.00  0.00    -0.550 OA
ATOM     17  O   UNL     1     -14.364  16.229 -20.144  1.00  0.00    -0.550 OA
ENDBRANCH  14  15
ENDBRANCH  13  14
ENDBRANCH  12  13
ENDBRANCH  11  12
ENDBRANCH  10  11
ENDBRANCH   9  10
ENDBRANCH   8   9
ENDBRANCH   7   8
ENDBRANCH   6   7
ENDBRANCH   5   6
ENDBRANCH   4   5
ENDBRANCH   3   4
ENDBRANCH   2   3
ENDBRANCH   1   2
BRANCH   1  18
ATOM     18  C   UNL     1     -17.808  13.895 -21.339  1.00  0.00     0.000 C 
BRANCH  18  19
ATOM     19  C   UNL     1     -16.809  13.309 -20.331  1.00  0.00     0.000 C 
BRANCH  19  20
ATOM     20  C   UNL     1     -17.524  12.835 -19.057  1.00  0.00     0.000 C 
BRANCH  20  21
ATOM     21  C   UNL     1     -17.658  13.947 -18.005  1.00  0.00     0.000 C 
BRANCH  21  22
ATOM     22  C   UNL     1     -19.124  14.338 -17.736  1.00  0.00     0.000 C 
BRANCH  22  23
ATOM     23  C   UNL     1     -20.111  13.210 -18.068  1.00  0.00     0.000 C 
BRANCH  23  24
ATOM     24  C   UNL     1     -21.483  13.738 -18.531  1.00  0.00    -0.000 C 
BRANCH  24  25
ATOM     25  C   UNL     1     -21.790  15.153 -17.997  1.00  0.00    -0.000 C 
BRANCH  25  26
ATOM     26  C   UNL     1     -22.667  15.174 -16.732  1.00  0.00    -0.000 C 
BRANCH  26  27
ATOM     27  C   UNL     1     -23.263  13.802 -16.390  1.00  0.00    -0.000 C 
BRANCH  27  28
ATOM     28  C   UNL     1     -22.640  13.226 -15.108  1.00  0.00    -0.000 C 
BRANCH  28  29
ATOM     29  C   UNL     1     -22.016  11.835 -15.338  1.00  0.00    -0.000 C 
BRANCH  29  30
ATOM     30  C   UNL     1     -20.769  11.557 -14.477  1.00  0.00    -0.000 C 
BRANCH  30  31
ATOM     31  C   UNL     1     -19.523  11.138 -15.282  1.00  0.00    -0.003 C 
ATOM     32  C   UNL     1     -18.269  11.919 -14.881  1.00  0.00     0.004 C 
ENDBRANCH  30  31
ENDBRANCH  29  30
ENDBRANCH  28  29
ENDBRANCH  27  28
ENDBRANCH  26  27
ENDBRANCH  25  26
ENDBRANCH  24  25
ENDBRANCH  23  24
ENDBRANCH  22  23
ENDBRANCH  21  22
ENDBRANCH  20  21
ENDBRANCH  19  20
ENDBRANCH  18  19
ENDBRANCH   1  18
TORSDOF 28
ENDMDL
MODEL 7
REMARK VINA RESULT:    -2.185      1.932      4.839
REMARK INTER + INTRA:         -11.636
REMARK INTER:                  -5.859
REMARK INTRA:                  -5.777
REMARK UNBOUND:                -5.874
REMARK SMILES CCCCCCCCCCCCCCCCCCCCCCCCCCCCCC(=O)[O-]
REMARK SMILES IDX 16 1 17 2 18 3 19 4 20 5 21 6 22 7 23 8 24 9 25 10 26 11
REMARK SMILES IDX 27 12 28 13 29 14 30 15 31 16 32 17 15 18 14 19 13 20 12 21
REMARK SMILES IDX 11 22 10 23 9 24 8 25 7 26 6 27 5 28 4 29 3 30 2 31 1 32
REMARK H PARENT
REMARK Flexibility Score: inf
ROOT
ATOM      1  C   UNL     1     -18.984  18.289 -20.072  1.00  0.00     0.000 C 
ENDROOT
BRANCH   1   2
ATOM      2  C   UNL     1     -20.217  18.937 -19.414  1.00  0.00     0.000 C 
BRANCH   2   3
ATOM      3  C   UNL     1     -20.548  18.340 -18.039  1.00  0.00     0.000 C 
BRANCH   3   4
ATOM      4  C   UNL     1     -22.051  18.048 -17.915  1.00  0.00     0.000 C 
BRANCH   4   5
ATOM      5  C   UNL     1     -22.508  17.951 -16.451  1.00  0.00     0.000 C 
BRANCH   5   6
ATOM      6  C   UNL     1     -23.234  16.628 -16.152  1.00  0.00     0.000 C 
BRANCH   6   7
ATOM      7  C   UNL     1     -22.294  15.539 -15.609  1.00  0.00     0.000 C 
BRANCH   7   8
ATOM      8  C   UNL     1     -22.985  14.176 -15.450  1.00  0.00     0.000 C 
BRANCH   8   9
ATOM      9  C   UNL     1     -22.597  13.225 -16.588  1.00  0.00     0.000 C 
BRANCH   9  10
ATOM     10  C   UNL     1     -21.924  11.959 -16.044  1.00  0.00     0.000 C 
BRANCH  10  11
ATOM     11  C   UNL     1     -20.661  11.619 -16.849  1.00  0.00     0.000 C 
BRANCH  11  12
ATOM     12  C   UNL     1     -19.371  11.777 -16.028  1.00  0.00     0.000 C 
BRANCH  12  13
ATOM     13  C   UNL     1     -19.154  13.220 -15.538  1.00  0.00     0.006 C 
BRANCH  13  14
ATOM     14  C   UNL     1     -17.874  13.362 -14.704  1.00  0.00     0.053 C 
BRANCH  14  15
ATOM     15  C   UNL     1     -16.738  13.905 -15.516  1.00  0.00     0.041 C 
ATOM     16  O   UNL     1     -16.049  13.135 -16.237  1.00  0.00    -0.550 OA
ATOM     17  O   UNL     1     -16.462  15.266 -15.502  1.00  0.00    -0.550 OA
ENDBRANCH  14  15
ENDBRANCH  13  14
ENDBRANCH  12  13
ENDBRANCH  11  12
ENDBRANCH  10  11
ENDBRANCH   9  10
ENDBRANCH   8   9
ENDBRANCH   7   8
ENDBRANCH   6   7
ENDBRANCH   5   6
ENDBRANCH   4   5
ENDBRANCH   3   4
ENDBRANCH   2   3
ENDBRANCH   1   2
BRANCH   1  18
ATOM     18  C   UNL     1     -19.030  18.211 -21.611  1.00  0.00     0.000 C 
BRANCH  18  19
ATOM     19  C   UNL     1     -18.306  16.979 -22.172  1.00  0.00     0.000 C 
BRANCH  19  20
ATOM     20  C   UNL     1     -17.639  16.171 -21.049  1.00  0.00     0.000 C 
BRANCH  20  21
ATOM     21  C   UNL     1     -17.688  14.656 -21.299  1.00  0.00     0.000 C 
BRANCH  21  22
ATOM     22  C   UNL     1     -18.284  13.876 -20.112  1.00  0.00     0.000 C 
BRANCH  22  23
ATOM     23  C   UNL     1     -18.564  14.767 -18.894  1.00  0.00     0.000 C 
BRANCH  23  24
ATOM     24  C   UNL     1     -20.067  14.873 -18.568  1.00  0.00    -0.000 C 
BRANCH  24  25
ATOM     25  C   UNL     1     -20.966  14.459 -19.752  1.00  0.00    -0.000 C 
BRANCH  25  26
ATOM     26  C   UNL     1     -21.518  15.641 -20.569  1.00  0.00    -0.000 C 
BRANCH  26  27
ATOM     27  C   UNL     1     -21.651  15.329 -22.065  1.00  0.00    -0.000 C 
BRANCH  27  28
ATOM     28  C   UNL     1     -21.356  13.849 -22.356  1.00  0.00    -0.000 C 
BRANCH  28  29
ATOM     29  C   UNL     1     -21.821  13.429 -23.765  1.00  0.00    -0.000 C 
BRANCH  29  30
ATOM     30  C   UNL     1     -20.712  12.801 -24.631  1.00  0.00    -0.000 C 
BRANCH  30  31
ATOM     31  C   UNL     1     -19.378  13.572 -24.610  1.00  0.00    -0.003 C 
ATOM     32  C   UNL     1     -18.172  12.662 -24.368  1.00  0.00     0.004 C 
ENDBRANCH  30  31
ENDBRANCH  29  30
ENDBRANCH  28  29
ENDBRANCH  27  28
ENDBRANCH  26  27
ENDBRANCH  25  26
ENDBRANCH  24  25
ENDBRANCH  23  24
ENDBRANCH  22  23
ENDBRANCH  21  22
ENDBRANCH  20  21
ENDBRANCH  19  20
ENDBRANCH  18  19
ENDBRANCH   1  18
TORSDOF 28
ENDMDL
MODEL 8
REMARK VINA RESULT:    -2.183      2.697      7.250
REMARK INTER + INTRA:         -11.631
REMARK INTER:                  -5.190
REMARK INTRA:                  -6.440
REMARK UNBOUND:                -5.874
REMARK SMILES CCCCCCCCCCCCCCCCCCCCCCCCCCCCCC(=O)[O-]
REMARK SMILES IDX 16 1 17 2 18 3 19 4 20 5 21 6 22 7 23 8 24 9 25 10 26 11
REMARK SMILES IDX 27 12 28 13 29 14 30 15 31 16 32 17 15 18 14 19 13 20 12 21
REMARK SMILES IDX 11 22 10 23 9 24 8 25 7 26 6 27 5 28 4 29 3 30 2 31 1 32
REMARK H PARENT
REMARK Flexibility Score: inf
ROOT
ATOM      1  C   UNL     1     -20.265  11.759 -16.841  1.00  0.00     0.000 C 
ENDROOT
BRANCH   1   2
ATOM      2  C   UNL     1     -19.990  12.674 -18.049  1.00  0.00     0.000 C 
BRANCH   2   3
ATOM      3  C   UNL     1     -21.219  13.488 -18.479  1.00  0.00     0.000 C 
BRANCH   3   4
ATOM      4  C   UNL     1     -20.799  14.815 -19.128  1.00  0.00     0.000 C 
BRANCH   4   5
ATOM      5  C   UNL     1     -21.867  15.908 -18.964  1.00  0.00     0.000 C 
BRANCH   5   6
ATOM      6  C   UNL     1     -21.247  17.304 -18.773  1.00  0.00     0.000 C 
BRANCH   6   7
ATOM      7  C   UNL     1     -21.185  18.115 -20.077  1.00  0.00     0.000 C 
BRANCH   7   8
ATOM      8  C   UNL     1     -19.796  18.086 -20.734  1.00  0.00     0.000 C 
BRANCH   8   9
ATOM      9  C   UNL     1     -18.699  17.841 -19.691  1.00  0.00     0.000 C 
BRANCH   9  10
ATOM     10  C   UNL     1     -17.742  16.732 -20.147  1.00  0.00     0.000 C 
BRANCH  10  11
ATOM     11  C   UNL     1     -18.216  16.108 -21.468  1.00  0.00     0.000 C 
BRANCH  11  12
ATOM     12  C   UNL     1     -17.985  14.590 -21.526  1.00  0.00     0.000 C 
BRANCH  12  13
ATOM     13  C   UNL     1     -18.874  13.896 -22.573  1.00  0.00     0.006 C 
BRANCH  13  14
ATOM     14  C   UNL     1     -20.280  14.508 -22.635  1.00  0.00     0.053 C 
BRANCH  14  15
ATOM     15  C   UNL     1     -21.082  13.944 -23.768  1.00  0.00     0.041 C 
ATOM     16  O   UNL     1     -22.014  13.127 -23.541  1.00  0.00    -0.550 OA
ATOM     17  O   UNL     1     -20.822  14.345 -25.072  1.00  0.00    -0.550 OA
ENDBRANCH  14  15
ENDBRANCH  13  14
ENDBRANCH  12  13
ENDBRANCH  11  12
ENDBRANCH  10  11
ENDBRANCH   9  10
ENDBRANCH   8   9
ENDBRANCH   7   8
ENDBRANCH   6   7
ENDBRANCH   5   6
ENDBRANCH   4   5
ENDBRANCH   3   4
ENDBRANCH   2   3
ENDBRANCH   1   2
BRANCH   1  18
ATOM     18  C   UNL     1     -21.625  11.979 -16.150  1.00  0.00     0.000 C 
BRANCH  18  19
ATOM     19  C   UNL     1     -21.545  11.877 -14.621  1.00  0.00     0.000 C 
BRANCH  19  20
ATOM     20  C   UNL     1     -22.877  12.280 -13.970  1.00  0.00     0.000 C 
BRANCH  20  21
ATOM     21  C   UNL     1     -23.918  12.754 -14.997  1.00  0.00     0.000 C 
BRANCH  21  22
ATOM     22  C   UNL     1     -24.389  14.199 -14.744  1.00  0.00     0.000 C 
BRANCH  22  23
ATOM     23  C   UNL     1     -24.086  15.138 -15.921  1.00  0.00     0.000 C 
BRANCH  23  24
ATOM     24  C   UNL     1     -23.039  16.212 -15.569  1.00  0.00    -0.000 C 
BRANCH  24  25
ATOM     25  C   UNL     1     -22.445  16.029 -14.156  1.00  0.00    -0.000 C 
BRANCH  25  26
ATOM     26  C   UNL     1     -20.966  15.604 -14.144  1.00  0.00    -0.000 C 
BRANCH  26  27
ATOM     27  C   UNL     1     -20.390  15.384 -15.549  1.00  0.00    -0.000 C 
BRANCH  27  28
ATOM     28  C   UNL     1     -19.200  16.318 -15.819  1.00  0.00    -0.000 C 
BRANCH  28  29
ATOM     29  C   UNL     1     -18.073  15.614 -16.600  1.00  0.00    -0.000 C 
BRANCH  29  30
ATOM     30  C   UNL     1     -17.337  14.525 -15.794  1.00  0.00    -0.000 C 
BRANCH  30  31
ATOM     31  C   UNL     1     -16.632  13.463 -16.661  1.00  0.00    -0.003 C 
ATOM     32  C   UNL     1     -16.535  13.869 -18.133  1.00  0.00     0.004 C 
ENDBRANCH  30  31
ENDBRANCH  29  30
ENDBRANCH  28  29
ENDBRANCH  27  28
ENDBRANCH  26  27
ENDBRANCH  25  26
ENDBRANCH  24  25
ENDBRANCH  23  24
ENDBRANCH  22  23
ENDBRANCH  21  22
ENDBRANCH  20  21
ENDBRANCH  19  20
ENDBRANCH  18  19
ENDBRANCH   1  18
TORSDOF 28
ENDMDL
MODEL 9
REMARK VINA RESULT:    -2.130      2.671      7.798
REMARK INTER + INTRA:         -11.490
REMARK INTER:                  -5.929
REMARK INTRA:                  -5.562
REMARK UNBOUND:                -5.874
REMARK SMILES CCCCCCCCCCCCCCCCCCCCCCCCCCCCCC(=O)[O-]
REMARK SMILES IDX 16 1 17 2 18 3 19 4 20 5 21 6 22 7 23 8 24 9 25 10 26 11
REMARK SMILES IDX 27 12 28 13 29 14 30 15 31 16 32 17 15 18 14 19 13 20 12 21
REMARK SMILES IDX 11 22 10 23 9 24 8 25 7 26 6 27 5 28 4 29 3 30 2 31 1 32
REMARK H PARENT
REMARK Flexibility Score: inf
ROOT
ATOM      1  C   UNL     1     -18.986  16.573 -15.219  1.00  0.00     0.000 C 
ENDROOT
BRANCH   1   2
ATOM      2  C   UNL     1     -19.134  15.601 -16.404  1.00  0.00     0.000 C 
BRANCH   2   3
ATOM      3  C   UNL     1     -19.023  16.296 -17.769  1.00  0.00     0.000 C 
BRANCH   3   4
ATOM      4  C   UNL     1     -17.956  15.621 -18.643  1.00  0.00     0.000 C 
BRANCH   4   5
ATOM      5  C   UNL     1     -18.297  14.154 -18.952  1.00  0.00     0.000 C 
BRANCH   5   6
ATOM      6  C   UNL     1     -18.396  13.883 -20.463  1.00  0.00     0.000 C 
BRANCH   6   7
ATOM      7  C   UNL     1     -19.274  14.910 -21.198  1.00  0.00     0.000 C 
BRANCH   7   8
ATOM      8  C   UNL     1     -20.766  14.774 -20.858  1.00  0.00     0.000 C 
BRANCH   8   9
ATOM      9  C   UNL     1     -21.638  15.042 -22.090  1.00  0.00     0.000 C 
BRANCH   9  10
ATOM     10  C   UNL     1     -21.846  13.762 -22.909  1.00  0.00     0.000 C 
BRANCH  10  11
ATOM     11  C   UNL     1     -21.495  13.993 -24.386  1.00  0.00     0.000 C 
BRANCH  11  12
ATOM     12  C   UNL     1     -20.573  12.904 -24.957  1.00  0.00     0.000 C 
BRANCH  12  13
ATOM     13  C   UNL     1     -19.131  13.014 -24.430  1.00  0.00     0.006 C 
BRANCH  13  14
ATOM     14  C   UNL     1     -18.484  14.358 -24.789  1.00  0.00     0.053 C 
BRANCH  14  15
ATOM     15  C   UNL     1     -17.023  14.379 -24.458  1.00  0.00     0.041 C 
ATOM     16  O   UNL     1     -16.251  15.182 -25.046  1.00  0.00    -0.550 OA
ATOM     17  O   UNL     1     -16.520  13.534 -23.478  1.00  0.00    -0.550 OA
ENDBRANCH  14  15
ENDBRANCH  13  14
ENDBRANCH  12  13
ENDBRANCH  11  12
ENDBRANCH  10  11
ENDBRANCH   9  10
ENDBRANCH   8   9
ENDBRANCH   7   8
ENDBRANCH   6   7
ENDBRANCH   5   6
ENDBRANCH   4   5
ENDBRANCH   3   4
ENDBRANCH   2   3
ENDBRANCH   1   2
BRANCH   1  18
ATOM     18  C   UNL     1     -20.207  16.651 -14.281  1.00  0.00     0.000 C 
BRANCH  18  19
ATOM     19  C   UNL     1     -21.244  17.691 -14.729  1.00  0.00     0.000 C 
BRANCH  19  20
ATOM     20  C   UNL     1     -22.495  17.011 -15.305  1.00  0.00     0.000 C 
BRANCH  20  21
ATOM     21  C   UNL     1     -22.558  17.088 -16.839  1.00  0.00     0.000 C 
BRANCH  21  22
ATOM     22  C   UNL     1     -22.700  15.703 -17.499  1.00  0.00     0.000 C 
BRANCH  22  23
ATOM     23  C   UNL     1     -23.399  14.680 -16.592  1.00  0.00     0.000 C 
BRANCH  23  24
ATOM     24  C   UNL     1     -22.916  13.238 -16.841  1.00  0.00    -0.000 C 
BRANCH  24  25
ATOM     25  C   UNL     1     -21.587  13.178 -17.622  1.00  0.00    -0.000 C 
BRANCH  25  26
ATOM     26  C   UNL     1     -20.658  12.025 -17.201  1.00  0.00    -0.000 C 
BRANCH  26  27
ATOM     27  C   UNL     1     -20.765  11.680 -15.710  1.00  0.00    -0.000 C 
BRANCH  27  28
ATOM     28  C   UNL     1     -19.652  12.360 -14.897  1.00  0.00    -0.000 C 
BRANCH  28  29
ATOM     29  C   UNL     1     -20.200  13.080 -13.649  1.00  0.00    -0.000 C 
BRANCH  29  30
ATOM     30  C   UNL     1     -21.723  12.940 -13.462  1.00  0.00    -0.000 C 
BRANCH  30  31
ATOM     31  C   UNL     1     -22.387  14.132 -12.745  1.00  0.00    -0.003 C 
ATOM     32  C   UNL     1     -23.893  14.214 -13.003  1.00  0.00     0.004 C 
ENDBRANCH  30  31
ENDBRANCH  29  30
ENDBRANCH  28  29
ENDBRANCH  27  28
ENDBRANCH  26  27
ENDBRANCH  25  26
ENDBRANCH  24  25
ENDBRANCH  23  24
ENDBRANCH  22  23
ENDBRANCH  21  22
ENDBRANCH  20  21
ENDBRANCH  19  20
ENDBRANCH  18  19
ENDBRANCH   1  18
TORSDOF 28
ENDMDL
