MODEL 1
REMARK VINA RESULT:    -4.510      0.000      0.000
REMARK INTER + INTRA:         -13.288
REMARK INTER:                 -10.310
REMARK INTRA:                  -2.978
REMARK UNBOUND:                -2.978
REMARK SMILES CCCCCCCCCCCCCCCCCCCCCCCC(=O)[O-]
REMARK SMILES IDX 13 1 14 2 15 3 16 4 17 5 18 6 19 7 20 8 21 9 22 10 23 11
REMARK SMILES IDX 24 12 25 13 26 14 12 15 11 16 10 17 9 18 8 19 7 20 6 21 5 22
REMARK SMILES IDX 4 23 3 24 2 25 1 26
REMARK H PARENT
REMARK Flexibility Score: inf
ROOT
ATOM      1  C   UNL     1      57.841  28.917  75.116  1.00  0.00     0.000 C 
ENDROOT
BRANCH   1   2
ATOM      2  C   UNL     1      57.075  30.237  75.320  1.00  0.00     0.000 C 
BRANCH   2   3
ATOM      3  C   UNL     1      56.058  30.581  74.216  1.00  0.00     0.000 C 
BRANCH   3   4
ATOM      4  C   UNL     1      56.567  31.656  73.245  1.00  0.00     0.000 C 
BRANCH   4   5
ATOM      5  C   UNL     1      57.808  32.364  73.810  1.00  0.00     0.000 C 
BRANCH   5   6
ATOM      6  C   UNL     1      57.455  33.564  74.705  1.00  0.00     0.000 C 
BRANCH   6   7
ATOM      7  C   UNL     1      58.318  33.713  75.975  1.00  0.00     0.000 C 
BRANCH   7   8
ATOM      8  C   UNL     1      57.537  33.980  77.275  1.00  0.00     0.000 C 
BRANCH   8   9
ATOM      9  C   UNL     1      57.970  33.062  78.430  1.00  0.00     0.000 C 
BRANCH   9  10
ATOM     10  C   UNL     1      59.126  33.650  79.259  1.00  0.00     0.006 C 
BRANCH  10  11
ATOM     11  C   UNL     1      58.681  34.485  80.472  1.00  0.00     0.053 C 
BRANCH  11  12
ATOM     12  C   UNL     1      58.797  35.956  80.217  1.00  0.00     0.041 C 
ATOM     13  O   UNL     1      59.478  36.380  79.246  1.00  0.00    -0.550 OA
ATOM     14  O   UNL     1      58.129  36.858  81.038  1.00  0.00    -0.550 OA
ENDBRANCH  11  12
ENDBRANCH  10  11
ENDBRANCH   9  10
ENDBRANCH   8   9
ENDBRANCH   7   8
ENDBRANCH   6   7
ENDBRANCH   5   6
ENDBRANCH   4   5
ENDBRANCH   3   4
ENDBRANCH   2   3
ENDBRANCH   1   2
BRANCH   1  15
ATOM     15  C   UNL     1      59.200  28.896  75.838  1.00  0.00     0.000 C 
BRANCH  15  16
ATOM     16  C   UNL     1      59.611  30.275  76.381  1.00  0.00     0.000 C 
BRANCH  16  17
ATOM     17  C   UNL     1      60.751  30.976  75.613  1.00  0.00     0.000 C 
BRANCH  17  18
ATOM     18  C   UNL     1      61.970  30.090  75.294  1.00  0.00    -0.000 C 
BRANCH  18  19
ATOM     19  C   UNL     1      63.054  30.156  76.383  1.00  0.00    -0.000 C 
BRANCH  19  20
ATOM     20  C   UNL     1      63.256  28.814  77.112  1.00  0.00    -0.000 C 
BRANCH  20  21
ATOM     21  C   UNL     1      62.730  27.578  76.358  1.00  0.00    -0.000 C 
BRANCH  21  22
ATOM     22  C   UNL     1      61.694  26.778  77.169  1.00  0.00    -0.000 C 
BRANCH  22  23
ATOM     23  C   UNL     1      61.699  27.148  78.662  1.00  0.00    -0.000 C 
BRANCH  23  24
ATOM     24  C   UNL     1      61.849  25.920  79.573  1.00  0.00    -0.000 C 
BRANCH  24  25
ATOM     25  C   UNL     1      62.802  26.214  80.737  1.00  0.00    -0.003 C 
ATOM     26  C   UNL     1      63.548  27.529  80.521  1.00  0.00     0.004 C 
ENDBRANCH  24  25
ENDBRANCH  23  24
ENDBRANCH  22  23
ENDBRANCH  21  22
ENDBRANCH  20  21
ENDBRANCH  19  20
ENDBRANCH  18  19
ENDBRANCH  17  18
ENDBRANCH  16  17
ENDBRANCH  15  16
ENDBRANCH   1  15
TORSDOF 22
ENDMDL
MODEL 2
REMARK VINA RESULT:    -4.486      3.477      6.624
REMARK INTER + INTRA:         -13.233
REMARK INTER:                  -9.970
REMARK INTRA:                  -3.263
REMARK UNBOUND:                -2.978
REMARK SMILES CCCCCCCCCCCCCCCCCCCCCCCC(=O)[O-]
REMARK SMILES IDX 13 1 14 2 15 3 16 4 17 5 18 6 19 7 20 8 21 9 22 10 23 11
REMARK SMILES IDX 24 12 25 13 26 14 12 15 11 16 10 17 9 18 8 19 7 20 6 21 5 22
REMARK SMILES IDX 4 23 3 24 2 25 1 26
REMARK H PARENT
REMARK Flexibility Score: inf
ROOT
ATOM      1  C   UNL     1      57.754  33.549  79.257  1.00  0.00     0.000 C 
ENDROOT
BRANCH   1   2
ATOM      2  C   UNL     1      58.802  34.337  80.064  1.00  0.00     0.000 C 
BRANCH   2   3
ATOM      3  C   UNL     1      58.849  35.849  79.777  1.00  0.00     0.000 C 
BRANCH   3   4
ATOM      4  C   UNL     1      57.488  36.536  79.960  1.00  0.00     0.000 C 
BRANCH   4   5
ATOM      5  C   UNL     1      56.899  36.959  78.605  1.00  0.00     0.000 C 
BRANCH   5   6
ATOM      6  C   UNL     1      57.236  38.414  78.236  1.00  0.00     0.000 C 
BRANCH   6   7
ATOM      7  C   UNL     1      57.799  38.616  76.814  1.00  0.00     0.000 C 
BRANCH   7   8
ATOM      8  C   UNL     1      58.312  37.339  76.122  1.00  0.00     0.000 C 
BRANCH   8   9
ATOM      9  C   UNL     1      57.570  37.032  74.811  1.00  0.00     0.000 C 
BRANCH   9  10
ATOM     10  C   UNL     1      56.039  37.032  74.977  1.00  0.00     0.006 C 
BRANCH  10  11
ATOM     11  C   UNL     1      55.255  36.986  73.655  1.00  0.00     0.053 C 
BRANCH  11  12
ATOM     12  C   UNL     1      54.690  38.324  73.287  1.00  0.00     0.041 C 
ATOM     13  O   UNL     1      55.359  39.372  73.487  1.00  0.00    -0.550 OA
ATOM     14  O   UNL     1      53.434  38.409  72.697  1.00  0.00    -0.550 OA
ENDBRANCH  11  12
ENDBRANCH  10  11
ENDBRANCH   9  10
ENDBRANCH   8   9
ENDBRANCH   7   8
ENDBRANCH   6   7
ENDBRANCH   5   6
ENDBRANCH   4   5
ENDBRANCH   3   4
ENDBRANCH   2   3
ENDBRANCH   1   2
BRANCH   1  15
ATOM     15  C   UNL     1      58.281  33.074  77.892  1.00  0.00     0.000 C 
BRANCH  15  16
ATOM     16  C   UNL     1      57.557  33.738  76.707  1.00  0.00     0.000 C 
BRANCH  16  17
ATOM     17  C   UNL     1      58.199  33.503  75.324  1.00  0.00     0.000 C 
BRANCH  17  18
ATOM     18  C   UNL     1      57.206  33.349  74.156  1.00  0.00    -0.000 C 
BRANCH  18  19
ATOM     19  C   UNL     1      57.385  32.025  73.394  1.00  0.00    -0.000 C 
BRANCH  19  20
ATOM     20  C   UNL     1      56.069  31.238  73.244  1.00  0.00    -0.000 C 
BRANCH  20  21
ATOM     21  C   UNL     1      55.922  30.029  74.188  1.00  0.00    -0.000 C 
BRANCH  21  22
ATOM     22  C   UNL     1      57.000  29.992  75.286  1.00  0.00    -0.000 C 
BRANCH  22  23
ATOM     23  C   UNL     1      57.714  28.632  75.368  1.00  0.00    -0.000 C 
BRANCH  23  24
ATOM     24  C   UNL     1      59.184  28.763  75.793  1.00  0.00    -0.000 C 
BRANCH  24  25
ATOM     25  C   UNL     1      59.844  29.973  75.122  1.00  0.00    -0.003 C 
ATOM     26  C   UNL     1      60.587  30.832  76.141  1.00  0.00     0.004 C 
ENDBRANCH  24  25
ENDBRANCH  23  24
ENDBRANCH  22  23
ENDBRANCH  21  22
ENDBRANCH  20  21
ENDBRANCH  19  20
ENDBRANCH  18  19
ENDBRANCH  17  18
ENDBRANCH  16  17
ENDBRANCH  15  16
ENDBRANCH   1  15
TORSDOF 22
ENDMDL
MODEL 3
REMARK VINA RESULT:    -4.445      3.704      7.561
REMARK INTER + INTRA:         -13.140
REMARK INTER:                  -9.843
REMARK INTRA:                  -3.297
REMARK UNBOUND:                -2.978
REMARK SMILES CCCCCCCCCCCCCCCCCCCCCCCC(=O)[O-]
REMARK SMILES IDX 13 1 14 2 15 3 16 4 17 5 18 6 19 7 20 8 21 9 22 10 23 11
REMARK SMILES IDX 24 12 25 13 26 14 12 15 11 16 10 17 9 18 8 19 7 20 6 21 5 22
REMARK SMILES IDX 4 23 3 24 2 25 1 26
REMARK H PARENT
REMARK Flexibility Score: inf
ROOT
ATOM      1  C   UNL     1      60.076  30.877  76.386  1.00  0.00     0.000 C 
ENDROOT
BRANCH   1   2
ATOM      2  C   UNL     1      59.560  29.963  75.259  1.00  0.00     0.000 C 
BRANCH   2   3
ATOM      3  C   UNL     1      58.883  28.662  75.729  1.00  0.00     0.000 C 
BRANCH   3   4
ATOM      4  C   UNL     1      57.380  28.623  75.421  1.00  0.00     0.000 C 
BRANCH   4   5
ATOM      5  C   UNL     1      56.853  30.024  75.075  1.00  0.00     0.000 C 
BRANCH   5   6
ATOM      6  C   UNL     1      55.800  30.006  73.952  1.00  0.00     0.000 C 
BRANCH   6   7
ATOM      7  C   UNL     1      55.879  31.184  72.960  1.00  0.00     0.000 C 
BRANCH   7   8
ATOM      8  C   UNL     1      57.014  32.191  73.224  1.00  0.00     0.000 C 
BRANCH   8   9
ATOM      9  C   UNL     1      57.443  32.951  71.957  1.00  0.00     0.000 C 
BRANCH   9  10
ATOM     10  C   UNL     1      58.971  33.096  71.837  1.00  0.00     0.006 C 
BRANCH  10  11
ATOM     11  C   UNL     1      59.742  32.819  73.138  1.00  0.00     0.053 C 
BRANCH  11  12
ATOM     12  C   UNL     1      61.198  32.571  72.890  1.00  0.00     0.041 C 
ATOM     13  O   UNL     1      62.019  33.525  72.926  1.00  0.00    -0.550 OA
ATOM     14  O   UNL     1      61.651  31.280  72.646  1.00  0.00    -0.550 OA
ENDBRANCH  11  12
ENDBRANCH  10  11
ENDBRANCH   9  10
ENDBRANCH   8   9
ENDBRANCH   7   8
ENDBRANCH   6   7
ENDBRANCH   5   6
ENDBRANCH   4   5
ENDBRANCH   3   4
ENDBRANCH   2   3
ENDBRANCH   1   2
BRANCH   1  15
ATOM     15  C   UNL     1      59.186  32.112  76.611  1.00  0.00     0.000 C 
BRANCH  15  16
ATOM     16  C   UNL     1      58.177  31.922  77.757  1.00  0.00     0.000 C 
BRANCH  16  17
ATOM     17  C   UNL     1      57.861  33.191  78.577  1.00  0.00     0.000 C 
BRANCH  17  18
ATOM     18  C   UNL     1      59.070  33.840  79.277  1.00  0.00    -0.000 C 
BRANCH  18  19
ATOM     19  C   UNL     1      58.736  34.351  80.688  1.00  0.00    -0.000 C 
BRANCH  19  20
ATOM     20  C   UNL     1      58.634  35.886  80.762  1.00  0.00    -0.000 C 
BRANCH  20  21
ATOM     21  C   UNL     1      59.118  36.633  79.504  1.00  0.00    -0.000 C 
BRANCH  21  22
ATOM     22  C   UNL     1      58.035  37.543  78.895  1.00  0.00    -0.000 C 
BRANCH  22  23
ATOM     23  C   UNL     1      57.708  37.178  77.437  1.00  0.00    -0.000 C 
BRANCH  23  24
ATOM     24  C   UNL     1      56.507  36.226  77.323  1.00  0.00    -0.000 C 
BRANCH  24  25
ATOM     25  C   UNL     1      56.469  35.555  75.946  1.00  0.00    -0.003 C 
ATOM     26  C   UNL     1      57.878  35.297  75.417  1.00  0.00     0.004 C 
ENDBRANCH  24  25
ENDBRANCH  23  24
ENDBRANCH  22  23
ENDBRANCH  21  22
ENDBRANCH  20  21
ENDBRANCH  19  20
ENDBRANCH  18  19
ENDBRANCH  17  18
ENDBRANCH  16  17
ENDBRANCH  15  16
ENDBRANCH   1  15
TORSDOF 22
ENDMDL
MODEL 4
REMARK VINA RESULT:    -4.430      2.737      5.324
REMARK INTER + INTRA:         -13.105
REMARK INTER:                 -10.920
REMARK INTRA:                  -2.184
REMARK UNBOUND:                -2.978
REMARK SMILES CCCCCCCCCCCCCCCCCCCCCCCC(=O)[O-]
REMARK SMILES IDX 13 1 14 2 15 3 16 4 17 5 18 6 19 7 20 8 21 9 22 10 23 11
REMARK SMILES IDX 24 12 25 13 26 14 12 15 11 16 10 17 9 18 8 19 7 20 6 21 5 22
REMARK SMILES IDX 4 23 3 24 2 25 1 26
REMARK H PARENT
REMARK Flexibility Score: inf
ROOT
ATOM      1  C   UNL     1      57.952  33.340  78.367  1.00  0.00     0.000 C 
ENDROOT
BRANCH   1   2
ATOM      2  C   UNL     1      59.048  33.759  79.365  1.00  0.00     0.000 C 
BRANCH   2   3
ATOM      3  C   UNL     1      58.537  34.230  80.739  1.00  0.00     0.000 C 
BRANCH   3   4
ATOM      4  C   UNL     1      59.027  35.637  81.110  1.00  0.00     0.000 C 
BRANCH   4   5
ATOM      5  C   UNL     1      58.097  36.714  80.530  1.00  0.00     0.000 C 
BRANCH   5   6
ATOM      6  C   UNL     1      58.727  37.474  79.350  1.00  0.00     0.000 C 
BRANCH   6   7
ATOM      7  C   UNL     1      57.923  37.424  78.034  1.00  0.00     0.000 C 
BRANCH   7   8
ATOM      8  C   UNL     1      56.601  36.637  78.100  1.00  0.00     0.000 C 
BRANCH   8   9
ATOM      9  C   UNL     1      55.860  36.603  76.753  1.00  0.00     0.000 C 
BRANCH   9  10
ATOM     10  C   UNL     1      56.561  35.716  75.708  1.00  0.00     0.006 C 
BRANCH  10  11
ATOM     11  C   UNL     1      56.702  36.359  74.318  1.00  0.00     0.053 C 
BRANCH  11  12
ATOM     12  C   UNL     1      55.473  36.171  73.482  1.00  0.00     0.041 C 
ATOM     13  O   UNL     1      55.142  35.021  73.092  1.00  0.00    -0.550 OA
ATOM     14  O   UNL     1      54.680  37.266  73.158  1.00  0.00    -0.550 OA
ENDBRANCH  11  12
ENDBRANCH  10  11
ENDBRANCH   9  10
ENDBRANCH   8   9
ENDBRANCH   7   8
ENDBRANCH   6   7
ENDBRANCH   5   6
ENDBRANCH   4   5
ENDBRANCH   3   4
ENDBRANCH   2   3
ENDBRANCH   1   2
BRANCH   1  15
ATOM     15  C   UNL     1      58.376  32.164  77.470  1.00  0.00     0.000 C 
BRANCH  15  16
ATOM     16  C   UNL     1      58.203  32.463  75.971  1.00  0.00     0.000 C 
BRANCH  16  17
ATOM     17  C   UNL     1      57.700  31.283  75.114  1.00  0.00     0.000 C 
BRANCH  17  18
ATOM     18  C   UNL     1      57.289  30.026  75.904  1.00  0.00    -0.000 C 
BRANCH  18  19
ATOM     19  C   UNL     1      57.821  28.727  75.275  1.00  0.00    -0.000 C 
BRANCH  19  20
ATOM     20  C   UNL     1      59.354  28.717  75.127  1.00  0.00    -0.000 C 
BRANCH  20  21
ATOM     21  C   UNL     1      60.137  28.626  76.451  1.00  0.00    -0.000 C 
BRANCH  21  22
ATOM     22  C   UNL     1      60.531  27.183  76.816  1.00  0.00    -0.000 C 
BRANCH  22  23
ATOM     23  C   UNL     1      61.901  27.102  77.508  1.00  0.00    -0.000 C 
BRANCH  23  24
ATOM     24  C   UNL     1      62.225  25.688  78.013  1.00  0.00    -0.000 C 
BRANCH  24  25
ATOM     25  C   UNL     1      62.765  25.728  79.447  1.00  0.00    -0.003 C 
ATOM     26  C   UNL     1      61.976  26.713  80.307  1.00  0.00     0.004 C 
ENDBRANCH  24  25
ENDBRANCH  23  24
ENDBRANCH  22  23
ENDBRANCH  21  22
ENDBRANCH  20  21
ENDBRANCH  19  20
ENDBRANCH  18  19
ENDBRANCH  17  18
ENDBRANCH  16  17
ENDBRANCH  15  16
ENDBRANCH   1  15
TORSDOF 22
ENDMDL
MODEL 5
REMARK VINA RESULT:    -4.407      3.656      6.289
REMARK INTER + INTRA:         -13.053
REMARK INTER:                  -9.576
REMARK INTRA:                  -3.477
REMARK UNBOUND:                -2.978
REMARK SMILES CCCCCCCCCCCCCCCCCCCCCCCC(=O)[O-]
REMARK SMILES IDX 13 1 14 2 15 3 16 4 17 5 18 6 19 7 20 8 21 9 22 10 23 11
REMARK SMILES IDX 24 12 25 13 26 14 12 15 11 16 10 17 9 18 8 19 7 20 6 21 5 22
REMARK SMILES IDX 4 23 3 24 2 25 1 26
REMARK H PARENT
REMARK Flexibility Score: inf
ROOT
ATOM      1  C   UNL     1      57.941  33.129  78.987  1.00  0.00     0.000 C 
ENDROOT
BRANCH   1   2
ATOM      2  C   UNL     1      59.129  33.878  79.619  1.00  0.00     0.000 C 
BRANCH   2   3
ATOM      3  C   UNL     1      58.771  34.791  80.807  1.00  0.00     0.000 C 
BRANCH   3   4
ATOM      4  C   UNL     1      58.471  36.236  80.383  1.00  0.00     0.000 C 
BRANCH   4   5
ATOM      5  C   UNL     1      59.155  36.570  79.049  1.00  0.00     0.000 C 
BRANCH   5   6
ATOM      6  C   UNL     1      58.167  37.071  77.981  1.00  0.00     0.000 C 
BRANCH   6   7
ATOM      7  C   UNL     1      56.860  36.259  77.865  1.00  0.00     0.000 C 
BRANCH   7   8
ATOM      8  C   UNL     1      56.005  36.564  76.621  1.00  0.00     0.000 C 
BRANCH   8   9
ATOM      9  C   UNL     1      56.675  37.569  75.668  1.00  0.00     0.000 C 
BRANCH   9  10
ATOM     10  C   UNL     1      56.279  37.351  74.196  1.00  0.00     0.006 C 
BRANCH  10  11
ATOM     11  C   UNL     1      56.998  36.178  73.510  1.00  0.00     0.053 C 
BRANCH  11  12
ATOM     12  C   UNL     1      56.397  35.849  72.178  1.00  0.00     0.041 C 
ATOM     13  O   UNL     1      55.405  36.498  71.753  1.00  0.00    -0.550 OA
ATOM     14  O   UNL     1      56.953  34.845  71.394  1.00  0.00    -0.550 OA
ENDBRANCH  11  12
ENDBRANCH  10  11
ENDBRANCH   9  10
ENDBRANCH   8   9
ENDBRANCH   7   8
ENDBRANCH   6   7
ENDBRANCH   5   6
ENDBRANCH   4   5
ENDBRANCH   3   4
ENDBRANCH   2   3
ENDBRANCH   1   2
BRANCH   1  15
ATOM     15  C   UNL     1      58.315  32.402  77.685  1.00  0.00     0.000 C 
BRANCH  15  16
ATOM     16  C   UNL     1      57.691  33.050  76.437  1.00  0.00     0.000 C 
BRANCH  16  17
ATOM     17  C   UNL     1      58.695  33.563  75.384  1.00  0.00     0.000 C 
BRANCH  17  18
ATOM     18  C   UNL     1      58.588  32.904  73.996  1.00  0.00    -0.000 C 
BRANCH  18  19
ATOM     19  C   UNL     1      59.782  31.988  73.678  1.00  0.00    -0.000 C 
BRANCH  19  20
ATOM     20  C   UNL     1      60.613  31.631  74.924  1.00  0.00    -0.000 C 
BRANCH  20  21
ATOM     21  C   UNL     1      61.410  30.317  74.823  1.00  0.00    -0.000 C 
BRANCH  21  22
ATOM     22  C   UNL     1      60.508  29.068  74.830  1.00  0.00    -0.000 C 
BRANCH  22  23
ATOM     23  C   UNL     1      59.408  29.141  75.902  1.00  0.00    -0.000 C 
BRANCH  23  24
ATOM     24  C   UNL     1      58.054  28.624  75.393  1.00  0.00    -0.000 C 
BRANCH  24  25
ATOM     25  C   UNL     1      56.942  29.644  75.663  1.00  0.00    -0.003 C 
ATOM     26  C   UNL     1      56.190  29.993  74.381  1.00  0.00     0.004 C 
ENDBRANCH  24  25
ENDBRANCH  23  24
ENDBRANCH  22  23
ENDBRANCH  21  22
ENDBRANCH  20  21
ENDBRANCH  19  20
ENDBRANCH  18  19
ENDBRANCH  17  18
ENDBRANCH  16  17
ENDBRANCH  15  16
ENDBRANCH   1  15
TORSDOF 22
ENDMDL
MODEL 6
REMARK VINA RESULT:    -4.401      3.136      6.244
REMARK INTER + INTRA:         -13.039
REMARK INTER:                  -9.501
REMARK INTRA:                  -3.537
REMARK UNBOUND:                -2.978
REMARK SMILES CCCCCCCCCCCCCCCCCCCCCCCC(=O)[O-]
REMARK SMILES IDX 13 1 14 2 15 3 16 4 17 5 18 6 19 7 20 8 21 9 22 10 23 11
REMARK SMILES IDX 24 12 25 13 26 14 12 15 11 16 10 17 9 18 8 19 7 20 6 21 5 22
REMARK SMILES IDX 4 23 3 24 2 25 1 26
REMARK H PARENT
REMARK Flexibility Score: inf
ROOT
ATOM      1  C   UNL     1      58.055  33.094  78.390  1.00  0.00     0.000 C 
ENDROOT
BRANCH   1   2
ATOM      2  C   UNL     1      58.321  33.832  79.715  1.00  0.00     0.000 C 
BRANCH   2   3
ATOM      3  C   UNL     1      59.095  35.157  79.583  1.00  0.00     0.000 C 
BRANCH   3   4
ATOM      4  C   UNL     1      58.405  36.328  80.296  1.00  0.00     0.000 C 
BRANCH   4   5
ATOM      5  C   UNL     1      56.988  36.550  79.744  1.00  0.00     0.000 C 
BRANCH   5   6
ATOM      6  C   UNL     1      56.826  37.910  79.043  1.00  0.00     0.000 C 
BRANCH   6   7
ATOM      7  C   UNL     1      58.073  38.409  78.285  1.00  0.00     0.000 C 
BRANCH   7   8
ATOM      8  C   UNL     1      57.853  39.656  77.408  1.00  0.00     0.000 C 
BRANCH   8   9
ATOM      9  C   UNL     1      57.741  39.321  75.911  1.00  0.00     0.000 C 
BRANCH   9  10
ATOM     10  C   UNL     1      58.200  37.889  75.584  1.00  0.00     0.006 C 
BRANCH  10  11
ATOM     11  C   UNL     1      57.278  37.130  74.614  1.00  0.00     0.053 C 
BRANCH  11  12
ATOM     12  C   UNL     1      55.854  37.122  75.078  1.00  0.00     0.041 C 
ATOM     13  O   UNL     1      54.956  37.660  74.378  1.00  0.00    -0.550 OA
ATOM     14  O   UNL     1      55.516  36.495  76.271  1.00  0.00    -0.550 OA
ENDBRANCH  11  12
ENDBRANCH  10  11
ENDBRANCH   9  10
ENDBRANCH   8   9
ENDBRANCH   7   8
ENDBRANCH   6   7
ENDBRANCH   5   6
ENDBRANCH   4   5
ENDBRANCH   3   4
ENDBRANCH   2   3
ENDBRANCH   1   2
BRANCH   1  15
ATOM     15  C   UNL     1      57.707  34.047  77.233  1.00  0.00     0.000 C 
BRANCH  15  16
ATOM     16  C   UNL     1      57.699  33.347  75.863  1.00  0.00     0.000 C 
BRANCH  16  17
ATOM     17  C   UNL     1      58.761  33.843  74.860  1.00  0.00     0.000 C 
BRANCH  17  18
ATOM     18  C   UNL     1      59.101  32.862  73.723  1.00  0.00    -0.000 C 
BRANCH  18  19
ATOM     19  C   UNL     1      60.527  32.296  73.831  1.00  0.00    -0.000 C 
BRANCH  19  20
ATOM     20  C   UNL     1      60.564  30.867  74.403  1.00  0.00    -0.000 C 
BRANCH  20  21
ATOM     21  C   UNL     1      60.593  30.780  75.941  1.00  0.00    -0.000 C 
BRANCH  21  22
ATOM     22  C   UNL     1      59.334  30.114  76.527  1.00  0.00    -0.000 C 
BRANCH  22  23
ATOM     23  C   UNL     1      58.458  29.456  75.449  1.00  0.00    -0.000 C 
BRANCH  23  24
ATOM     24  C   UNL     1      56.959  29.709  75.672  1.00  0.00    -0.000 C 
BRANCH  24  25
ATOM     25  C   UNL     1      56.174  29.539  74.366  1.00  0.00    -0.003 C 
ATOM     26  C   UNL     1      56.086  30.856  73.599  1.00  0.00     0.004 C 
ENDBRANCH  24  25
ENDBRANCH  23  24
ENDBRANCH  22  23
ENDBRANCH  21  22
ENDBRANCH  20  21
ENDBRANCH  19  20
ENDBRANCH  18  19
ENDBRANCH  17  18
ENDBRANCH  16  17
ENDBRANCH  15  16
ENDBRANCH   1  15
TORSDOF 22
ENDMDL
MODEL 7
REMARK VINA RESULT:    -4.386      4.348      7.453
REMARK INTER + INTRA:         -13.005
REMARK INTER:                  -9.533
REMARK INTRA:                  -3.472
REMARK UNBOUND:                -2.978
REMARK SMILES CCCCCCCCCCCCCCCCCCCCCCCC(=O)[O-]
REMARK SMILES IDX 13 1 14 2 15 3 16 4 17 5 18 6 19 7 20 8 21 9 22 10 23 11
REMARK SMILES IDX 24 12 25 13 26 14 12 15 11 16 10 17 9 18 8 19 7 20 6 21 5 22
REMARK SMILES IDX 4 23 3 24 2 25 1 26
REMARK H PARENT
REMARK Flexibility Score: inf
ROOT
ATOM      1  C   UNL     1      58.765  33.509  79.025  1.00  0.00     0.000 C 
ENDROOT
BRANCH   1   2
ATOM      2  C   UNL     1      58.344  33.891  80.456  1.00  0.00     0.000 C 
BRANCH   2   3
ATOM      3  C   UNL     1      59.027  35.147  81.026  1.00  0.00     0.000 C 
BRANCH   3   4
ATOM      4  C   UNL     1      59.112  36.296  80.011  1.00  0.00     0.000 C 
BRANCH   4   5
ATOM      5  C   UNL     1      58.128  37.420  80.370  1.00  0.00     0.000 C 
BRANCH   5   6
ATOM      6  C   UNL     1      56.731  37.207  79.763  1.00  0.00     0.000 C 
BRANCH   6   7
ATOM      7  C   UNL     1      56.613  37.530  78.259  1.00  0.00     0.000 C 
BRANCH   7   8
ATOM      8  C   UNL     1      56.310  36.325  77.349  1.00  0.00     0.000 C 
BRANCH   8   9
ATOM      9  C   UNL     1      57.424  36.059  76.322  1.00  0.00     0.000 C 
BRANCH   9  10
ATOM     10  C   UNL     1      56.902  36.008  74.875  1.00  0.00     0.006 C 
BRANCH  10  11
ATOM     11  C   UNL     1      55.805  37.037  74.556  1.00  0.00     0.053 C 
BRANCH  11  12
ATOM     12  C   UNL     1      55.123  36.750  73.253  1.00  0.00     0.041 C 
ATOM     13  O   UNL     1      55.137  35.585  72.774  1.00  0.00    -0.550 OA
ATOM     14  O   UNL     1      54.449  37.764  72.584  1.00  0.00    -0.550 OA
ENDBRANCH  11  12
ENDBRANCH  10  11
ENDBRANCH   9  10
ENDBRANCH   8   9
ENDBRANCH   7   8
ENDBRANCH   6   7
ENDBRANCH   5   6
ENDBRANCH   4   5
ENDBRANCH   3   4
ENDBRANCH   2   3
ENDBRANCH   1   2
BRANCH   1  15
ATOM     15  C   UNL     1      57.648  32.798  78.240  1.00  0.00     0.000 C 
BRANCH  15  16
ATOM     16  C   UNL     1      58.077  32.398  76.818  1.00  0.00     0.000 C 
BRANCH  16  17
ATOM     17  C   UNL     1      58.221  30.882  76.572  1.00  0.00     0.000 C 
BRANCH  17  18
ATOM     18  C   UNL     1      58.049  30.434  75.109  1.00  0.00    -0.000 C 
BRANCH  18  19
ATOM     19  C   UNL     1      56.573  30.316  74.693  1.00  0.00    -0.000 C 
BRANCH  19  20
ATOM     20  C   UNL     1      56.261  31.049  73.374  1.00  0.00    -0.000 C 
BRANCH  20  21
ATOM     21  C   UNL     1      56.694  32.527  73.331  1.00  0.00    -0.000 C 
BRANCH  21  22
ATOM     22  C   UNL     1      57.406  32.905  72.019  1.00  0.00    -0.000 C 
BRANCH  22  23
ATOM     23  C   UNL     1      58.926  33.055  72.194  1.00  0.00    -0.000 C 
BRANCH  23  24
ATOM     24  C   UNL     1      59.317  33.464  73.623  1.00  0.00    -0.000 C 
BRANCH  24  25
ATOM     25  C   UNL     1      60.245  34.684  73.609  1.00  0.00    -0.003 C 
ATOM     26  C   UNL     1      59.814  35.694  72.549  1.00  0.00     0.004 C 
ENDBRANCH  24  25
ENDBRANCH  23  24
ENDBRANCH  22  23
ENDBRANCH  21  22
ENDBRANCH  20  21
ENDBRANCH  19  20
ENDBRANCH  18  19
ENDBRANCH  17  18
ENDBRANCH  16  17
ENDBRANCH  15  16
ENDBRANCH   1  15
TORSDOF 22
ENDMDL
MODEL 8
REMARK VINA RESULT:    -4.382      3.923      8.370
REMARK INTER + INTRA:         -12.996
REMARK INTER:                  -9.369
REMARK INTRA:                  -3.626
REMARK UNBOUND:                -2.978
REMARK SMILES CCCCCCCCCCCCCCCCCCCCCCCC(=O)[O-]
REMARK SMILES IDX 13 1 14 2 15 3 16 4 17 5 18 6 19 7 20 8 21 9 22 10 23 11
REMARK SMILES IDX 24 12 25 13 26 14 12 15 11 16 10 17 9 18 8 19 7 20 6 21 5 22
REMARK SMILES IDX 4 23 3 24 2 25 1 26
REMARK H PARENT
REMARK Flexibility Score: inf
ROOT
ATOM      1  C   UNL     1      59.125  33.731  79.468  1.00  0.00     0.000 C 
ENDROOT
BRANCH   1   2
ATOM      2  C   UNL     1      58.116  33.075  78.507  1.00  0.00     0.000 C 
BRANCH   2   3
ATOM      3  C   UNL     1      58.740  32.318  77.320  1.00  0.00     0.000 C 
BRANCH   3   4
ATOM      4  C   UNL     1      57.977  31.035  76.959  1.00  0.00     0.000 C 
BRANCH   4   5
ATOM      5  C   UNL     1      58.884  30.050  76.205  1.00  0.00     0.000 C 
BRANCH   5   6
ATOM      6  C   UNL     1      58.217  29.469  74.946  1.00  0.00     0.000 C 
BRANCH   6   7
ATOM      7  C   UNL     1      56.732  29.084  75.109  1.00  0.00     0.000 C 
BRANCH   7   8
ATOM      8  C   UNL     1      55.725  30.071  74.489  1.00  0.00     0.000 C 
BRANCH   8   9
ATOM      9  C   UNL     1      56.281  30.787  73.246  1.00  0.00     0.000 C 
BRANCH   9  10
ATOM     10  C   UNL     1      56.599  32.271  73.504  1.00  0.00     0.006 C 
BRANCH  10  11
ATOM     11  C   UNL     1      58.083  32.641  73.346  1.00  0.00     0.053 C 
BRANCH  11  12
ATOM     12  C   UNL     1      58.316  33.553  72.181  1.00  0.00     0.041 C 
ATOM     13  O   UNL     1      59.053  34.567  72.307  1.00  0.00    -0.550 OA
ATOM     14  O   UNL     1      57.741  33.267  70.949  1.00  0.00    -0.550 OA
ENDBRANCH  11  12
ENDBRANCH  10  11
ENDBRANCH   9  10
ENDBRANCH   8   9
ENDBRANCH   7   8
ENDBRANCH   6   7
ENDBRANCH   5   6
ENDBRANCH   4   5
ENDBRANCH   3   4
ENDBRANCH   2   3
ENDBRANCH   1   2
BRANCH   1  15
ATOM     15  C   UNL     1      58.451  34.411  80.672  1.00  0.00     0.000 C 
BRANCH  15  16
ATOM     16  C   UNL     1      58.859  35.886  80.832  1.00  0.00     0.000 C 
BRANCH  16  17
ATOM     17  C   UNL     1      57.755  36.917  80.516  1.00  0.00     0.000 C 
BRANCH  17  18
ATOM     18  C   UNL     1      57.110  36.783  79.123  1.00  0.00    -0.000 C 
BRANCH  18  19
ATOM     19  C   UNL     1      57.042  38.121  78.367  1.00  0.00    -0.000 C 
BRANCH  19  20
ATOM     20  C   UNL     1      58.342  38.446  77.607  1.00  0.00    -0.000 C 
BRANCH  20  21
ATOM     21  C   UNL     1      59.247  37.234  77.313  1.00  0.00    -0.000 C 
BRANCH  21  22
ATOM     22  C   UNL     1      59.227  36.818  75.831  1.00  0.00    -0.000 C 
BRANCH  22  23
ATOM     23  C   UNL     1      58.633  35.417  75.618  1.00  0.00    -0.000 C 
BRANCH  23  24
ATOM     24  C   UNL     1      57.099  35.406  75.712  1.00  0.00    -0.000 C 
BRANCH  24  25
ATOM     25  C   UNL     1      56.471  36.078  74.486  1.00  0.00    -0.003 C 
ATOM     26  C   UNL     1      55.661  37.309  74.885  1.00  0.00     0.004 C 
ENDBRANCH  24  25
ENDBRANCH  23  24
ENDBRANCH  22  23
ENDBRANCH  21  22
ENDBRANCH  20  21
ENDBRANCH  19  20
ENDBRANCH  18  19
ENDBRANCH  17  18
ENDBRANCH  16  17
ENDBRANCH  15  16
ENDBRANCH   1  15
TORSDOF 22
ENDMDL
MODEL 9
REMARK VINA RESULT:    -4.365      3.929      7.067
REMARK INTER + INTRA:         -12.957
REMARK INTER:                  -9.420
REMARK INTRA:                  -3.537
REMARK UNBOUND:                -2.978
REMARK SMILES CCCCCCCCCCCCCCCCCCCCCCCC(=O)[O-]
REMARK SMILES IDX 13 1 14 2 15 3 16 4 17 5 18 6 19 7 20 8 21 9 22 10 23 11
REMARK SMILES IDX 24 12 25 13 26 14 12 15 11 16 10 17 9 18 8 19 7 20 6 21 5 22
REMARK SMILES IDX 4 23 3 24 2 25 1 26
REMARK H PARENT
REMARK Flexibility Score: inf
ROOT
ATOM      1  C   UNL     1      58.868  33.912  79.484  1.00  0.00     0.000 C 
ENDROOT
BRANCH   1   2
ATOM      2  C   UNL     1      58.120  35.142  80.031  1.00  0.00     0.000 C 
BRANCH   2   3
ATOM      3  C   UNL     1      57.430  36.014  78.966  1.00  0.00     0.000 C 
BRANCH   3   4
ATOM      4  C   UNL     1      57.741  37.510  79.122  1.00  0.00     0.000 C 
BRANCH   4   5
ATOM      5  C   UNL     1      58.464  38.052  77.880  1.00  0.00     0.000 C 
BRANCH   5   6
ATOM      6  C   UNL     1      59.590  37.124  77.392  1.00  0.00     0.000 C 
BRANCH   6   7
ATOM      7  C   UNL     1      59.905  37.212  75.884  1.00  0.00     0.000 C 
BRANCH   7   8
ATOM      8  C   UNL     1      58.805  36.675  74.950  1.00  0.00     0.000 C 
BRANCH   8   9
ATOM      9  C   UNL     1      58.197  35.351  75.445  1.00  0.00     0.000 C 
BRANCH   9  10
ATOM     10  C   UNL     1      56.658  35.352  75.415  1.00  0.00     0.006 C 
BRANCH  10  11
ATOM     11  C   UNL     1      56.022  36.753  75.410  1.00  0.00     0.053 C 
BRANCH  11  12
ATOM     12  C   UNL     1      55.253  37.019  74.152  1.00  0.00     0.041 C 
ATOM     13  O   UNL     1      54.670  38.123  73.987  1.00  0.00    -0.550 OA
ATOM     14  O   UNL     1      55.206  36.056  73.150  1.00  0.00    -0.550 OA
ENDBRANCH  11  12
ENDBRANCH  10  11
ENDBRANCH   9  10
ENDBRANCH   8   9
ENDBRANCH   7   8
ENDBRANCH   6   7
ENDBRANCH   5   6
ENDBRANCH   4   5
ENDBRANCH   3   4
ENDBRANCH   2   3
ENDBRANCH   1   2
BRANCH   1  15
ATOM     15  C   UNL     1      57.971  32.992  78.638  1.00  0.00     0.000 C 
BRANCH  15  16
ATOM     16  C   UNL     1      58.726  32.325  77.475  1.00  0.00     0.000 C 
BRANCH  16  17
ATOM     17  C   UNL     1      58.001  31.136  76.811  1.00  0.00     0.000 C 
BRANCH  17  18
ATOM     18  C   UNL     1      58.891  30.225  75.944  1.00  0.00    -0.000 C 
BRANCH  18  19
ATOM     19  C   UNL     1      58.082  29.183  75.153  1.00  0.00    -0.000 C 
BRANCH  19  20
ATOM     20  C   UNL     1      56.636  29.034  75.661  1.00  0.00    -0.000 C 
BRANCH  20  21
ATOM     21  C   UNL     1      55.562  29.700  74.779  1.00  0.00    -0.000 C 
BRANCH  21  22
ATOM     22  C   UNL     1      56.113  30.173  73.421  1.00  0.00    -0.000 C 
BRANCH  22  23
ATOM     23  C   UNL     1      56.015  31.698  73.244  1.00  0.00    -0.000 C 
BRANCH  23  24
ATOM     24  C   UNL     1      57.387  32.387  73.293  1.00  0.00    -0.000 C 
BRANCH  24  25
ATOM     25  C   UNL     1      57.480  33.498  72.242  1.00  0.00    -0.003 C 
ATOM     26  C   UNL     1      58.107  32.984  70.948  1.00  0.00     0.004 C 
ENDBRANCH  24  25
ENDBRANCH  23  24
ENDBRANCH  22  23
ENDBRANCH  21  22
ENDBRANCH  20  21
ENDBRANCH  19  20
ENDBRANCH  18  19
ENDBRANCH  17  18
ENDBRANCH  16  17
ENDBRANCH  15  16
ENDBRANCH   1  15
TORSDOF 22
ENDMDL
