MODEL 1
REMARK VINA RESULT:    -6.618      0.000      0.000
REMARK INTER + INTRA:          -8.061
REMARK INTER:                  -7.779
REMARK INTRA:                  -0.282
REMARK UNBOUND:                -0.282
REMARK SMILES O=c1cc(-c2ccc(O)c(O)c2)oc2cc(O)cc(O)c12
REMARK SMILES IDX 4 1 3 2 2 3 1 4 21 5 19 6 18 7 16 8 15 9 14 10 13 11 5 12
REMARK SMILES IDX 6 13 7 14 8 15 12 16 10 17 9 18 11 20 20 22 17 24
REMARK H PARENT 9 19 11 21 20 23 17 25
REMARK Flexibility Score: inf
ROOT
ATOM      1  C   UNL     1       6.000 -38.964  32.392  1.00  0.00     0.138 A 
ATOM      2  C   UNL     1       5.925 -40.046  33.279  1.00  0.00     0.100 A 
ATOM      3  C   UNL     1       6.799 -40.110  34.365  1.00  0.00     0.197 A 
ATOM      4  O   UNL     1       6.749 -41.125  35.108  1.00  0.00    -0.289 OA
ATOM      5  C   UNL     1       7.732 -39.068  34.580  1.00  0.00     0.107 A 
ATOM      6  C   UNL     1       8.644 -39.006  35.676  1.00  0.00     0.134 A 
ATOM      7  C   UNL     1       9.600 -37.984  35.722  1.00  0.00     0.093 A 
ATOM      8  C   UNL     1       9.638 -36.988  34.743  1.00  0.00     0.123 A 
ATOM      9  C   UNL     1       8.717 -37.009  33.697  1.00  0.00     0.094 A 
ATOM     10  C   UNL     1       7.773 -38.035  33.607  1.00  0.00     0.146 A 
ATOM     11  O   UNL     1       6.922 -38.026  32.586  1.00  0.00    -0.456 OA
ENDROOT
BRANCH   1  12
ATOM     12  C   UNL     1       5.095 -38.846  31.221  1.00  0.00     0.021 A 
ATOM     13  C   UNL     1       4.973 -39.880  30.273  1.00  0.00     0.016 A 
ATOM     14  C   UNL     1       4.104 -39.747  29.187  1.00  0.00     0.051 A 
ATOM     15  C   UNL     1       3.339 -38.588  29.031  1.00  0.00     0.157 A 
ATOM     16  C   UNL     1       4.311 -37.689  31.066  1.00  0.00     0.062 A 
ATOM     17  C   UNL     1       3.438 -37.554  29.976  1.00  0.00     0.158 A 
BRANCH  15  18
ATOM     18  O   UNL     1       2.482 -38.485  27.935  1.00  0.00    -0.504 OA
ATOM     19  H   UNL     1       2.684 -37.876  27.150  1.00  0.00     0.293 HD
ENDBRANCH  15  18
BRANCH  17  20
ATOM     20  O   UNL     1       2.674 -36.398  29.828  1.00  0.00    -0.504 OA
ATOM     21  H   UNL     1       1.869 -36.216  30.415  1.00  0.00     0.293 HD
ENDBRANCH  17  20
ENDBRANCH   1  12
BRANCH   6  22
ATOM     22  O   UNL     1       8.636 -39.902  36.750  1.00  0.00    -0.507 OA
ATOM     23  H   UNL     1       9.380 -40.002  37.423  1.00  0.00     0.293 HD
ENDBRANCH   6  22
BRANCH   8  24
ATOM     24  O   UNL     1      10.583 -35.967  34.804  1.00  0.00    -0.508 OA
ATOM     25  H   UNL     1      11.519 -36.088  34.437  1.00  0.00     0.293 HD
ENDBRANCH   8  24
TORSDOF 5
ENDMDL
MODEL 2
REMARK VINA RESULT:    -6.344      1.514      2.854
REMARK INTER + INTRA:          -7.739
REMARK INTER:                  -7.463
REMARK INTRA:                  -0.277
REMARK UNBOUND:                -0.282
REMARK SMILES O=c1cc(-c2ccc(O)c(O)c2)oc2cc(O)cc(O)c12
REMARK SMILES IDX 4 1 3 2 2 3 1 4 21 5 19 6 18 7 16 8 15 9 14 10 13 11 5 12
REMARK SMILES IDX 6 13 7 14 8 15 12 16 10 17 9 18 11 20 20 22 17 24
REMARK H PARENT 9 19 11 21 20 23 17 25
REMARK Flexibility Score: inf
ROOT
ATOM      1  C   UNL     1       5.790 -37.837  31.939  1.00  0.00     0.138 A 
ATOM      2  C   UNL     1       6.314 -36.549  32.123  1.00  0.00     0.100 A 
ATOM      3  C   UNL     1       7.337 -36.347  33.051  1.00  0.00     0.197 A 
ATOM      4  O   UNL     1       7.742 -35.170  33.240  1.00  0.00    -0.289 OA
ATOM      5  C   UNL     1       7.859 -37.445  33.774  1.00  0.00     0.107 A 
ATOM      6  C   UNL     1       8.929 -37.365  34.714  1.00  0.00     0.134 A 
ATOM      7  C   UNL     1       9.284 -38.499  35.455  1.00  0.00     0.093 A 
ATOM      8  C   UNL     1       8.648 -39.726  35.245  1.00  0.00     0.123 A 
ATOM      9  C   UNL     1       7.638 -39.827  34.290  1.00  0.00     0.094 A 
ATOM     10  C   UNL     1       7.239 -38.705  33.560  1.00  0.00     0.146 A 
ATOM     11  O   UNL     1       6.262 -38.841  32.670  1.00  0.00    -0.456 OA
ENDROOT
BRANCH   1  12
ATOM     12  C   UNL     1       4.703 -38.108  30.966  1.00  0.00     0.021 A 
ATOM     13  C   UNL     1       4.882 -37.914  29.583  1.00  0.00     0.016 A 
ATOM     14  C   UNL     1       3.844 -38.189  28.688  1.00  0.00     0.051 A 
ATOM     15  C   UNL     1       2.616 -38.666  29.154  1.00  0.00     0.157 A 
ATOM     16  C   UNL     1       3.470 -38.602  31.426  1.00  0.00     0.062 A 
ATOM     17  C   UNL     1       2.427 -38.878  30.529  1.00  0.00     0.158 A 
BRANCH  15  18
ATOM     18  O   UNL     1       1.599 -38.929  28.236  1.00  0.00    -0.504 OA
ATOM     19  H   UNL     1       1.164 -39.842  28.162  1.00  0.00     0.293 HD
ENDBRANCH  15  18
BRANCH  17  20
ATOM     20  O   UNL     1       1.206 -39.358  30.999  1.00  0.00    -0.504 OA
ATOM     21  H   UNL     1       1.145 -39.925  31.837  1.00  0.00     0.293 HD
ENDBRANCH  17  20
ENDBRANCH   1  12
BRANCH   6  22
ATOM     22  O   UNL     1       9.686 -36.211  34.939  1.00  0.00    -0.507 OA
ATOM     23  H   UNL     1       9.414 -35.279  34.666  1.00  0.00     0.293 HD
ENDBRANCH   6  22
BRANCH   8  24
ATOM     24  O   UNL     1       9.017 -40.852  35.975  1.00  0.00    -0.508 OA
ATOM     25  H   UNL     1       8.548 -41.742  35.852  1.00  0.00     0.293 HD
ENDBRANCH   8  24
TORSDOF 5
ENDMDL
MODEL 3
REMARK VINA RESULT:    -6.193      1.376      7.226
REMARK INTER + INTRA:          -7.562
REMARK INTER:                  -7.296
REMARK INTRA:                  -0.266
REMARK UNBOUND:                -0.282
REMARK SMILES O=c1cc(-c2ccc(O)c(O)c2)oc2cc(O)cc(O)c12
REMARK SMILES IDX 4 1 3 2 2 3 1 4 21 5 19 6 18 7 16 8 15 9 14 10 13 11 5 12
REMARK SMILES IDX 6 13 7 14 8 15 12 16 10 17 9 18 11 20 20 22 17 24
REMARK H PARENT 9 19 11 21 20 23 17 25
REMARK Flexibility Score: inf
ROOT
ATOM      1  C   UNL     1       5.830 -38.463  32.068  1.00  0.00     0.138 A 
ATOM      2  C   UNL     1       4.803 -37.510  32.086  1.00  0.00     0.100 A 
ATOM      3  C   UNL     1       3.886 -37.464  31.035  1.00  0.00     0.197 A 
ATOM      4  O   UNL     1       3.013 -36.557  31.047  1.00  0.00    -0.289 OA
ATOM      5  C   UNL     1       3.981 -38.399  29.977  1.00  0.00     0.107 A 
ATOM      6  C   UNL     1       3.078 -38.474  28.875  1.00  0.00     0.134 A 
ATOM      7  C   UNL     1       3.339 -39.367  27.828  1.00  0.00     0.093 A 
ATOM      8  C   UNL     1       4.437 -40.230  27.873  1.00  0.00     0.123 A 
ATOM      9  C   UNL     1       5.295 -40.202  28.971  1.00  0.00     0.094 A 
ATOM     10  C   UNL     1       5.079 -39.299  30.015  1.00  0.00     0.146 A 
ATOM     11  O   UNL     1       5.929 -39.294  31.036  1.00  0.00    -0.456 OA
ENDROOT
BRANCH   1  12
ATOM     12  C   UNL     1       6.832 -38.555  33.160  1.00  0.00     0.021 A 
ATOM     13  C   UNL     1       6.820 -39.616  34.087  1.00  0.00     0.016 A 
ATOM     14  C   UNL     1       7.782 -39.683  35.099  1.00  0.00     0.051 A 
ATOM     15  C   UNL     1       8.773 -38.704  35.199  1.00  0.00     0.157 A 
ATOM     16  C   UNL     1       7.841 -37.581  33.258  1.00  0.00     0.062 A 
ATOM     17  C   UNL     1       8.807 -37.648  34.274  1.00  0.00     0.158 A 
BRANCH  15  18
ATOM     18  O   UNL     1       9.719 -38.799  36.221  1.00  0.00    -0.504 OA
ATOM     19  H   UNL     1      10.663 -39.125  36.051  1.00  0.00     0.293 HD
ENDBRANCH  15  18
BRANCH  17  20
ATOM     20  O   UNL     1       9.795 -36.671  34.366  1.00  0.00    -0.504 OA
ATOM     21  H   UNL     1       9.687 -35.861  34.965  1.00  0.00     0.293 HD
ENDBRANCH  17  20
ENDBRANCH   1  12
BRANCH   6  22
ATOM     22  O   UNL     1       1.906 -37.718  28.772  1.00  0.00    -0.507 OA
ATOM     23  H   UNL     1       1.757 -36.822  29.210  1.00  0.00     0.293 HD
ENDBRANCH   6  22
BRANCH   8  24
ATOM     24  O   UNL     1       4.681 -41.125  26.835  1.00  0.00    -0.508 OA
ATOM     25  H   UNL     1       5.607 -41.500  26.664  1.00  0.00     0.293 HD
ENDBRANCH   8  24
TORSDOF 5
ENDMDL
MODEL 4
REMARK VINA RESULT:    -6.158      2.958      4.247
REMARK INTER + INTRA:          -7.521
REMARK INTER:                  -7.258
REMARK INTRA:                  -0.263
REMARK UNBOUND:                -0.282
REMARK SMILES O=c1cc(-c2ccc(O)c(O)c2)oc2cc(O)cc(O)c12
REMARK SMILES IDX 4 1 3 2 2 3 1 4 21 5 19 6 18 7 16 8 15 9 14 10 13 11 5 12
REMARK SMILES IDX 6 13 7 14 8 15 12 16 10 17 9 18 11 20 20 22 17 24
REMARK H PARENT 9 19 11 21 20 23 17 25
REMARK Flexibility Score: inf
ROOT
ATOM      1  C   UNL     1       4.070 -37.954  30.652  1.00  0.00     0.138 A 
ATOM      2  C   UNL     1       5.369 -38.429  30.876  1.00  0.00     0.100 A 
ATOM      3  C   UNL     1       6.273 -37.650  31.600  1.00  0.00     0.197 A 
ATOM      4  O   UNL     1       7.451 -38.075  31.730  1.00  0.00    -0.289 OA
ATOM      5  C   UNL     1       5.863 -36.404  32.129  1.00  0.00     0.107 A 
ATOM      6  C   UNL     1       6.685 -35.544  32.918  1.00  0.00     0.134 A 
ATOM      7  C   UNL     1       6.207 -34.282  33.289  1.00  0.00     0.093 A 
ATOM      8  C   UNL     1       4.914 -33.872  32.952  1.00  0.00     0.123 A 
ATOM      9  C   UNL     1       4.084 -34.726  32.229  1.00  0.00     0.094 A 
ATOM     10  C   UNL     1       4.545 -35.978  31.815  1.00  0.00     0.146 A 
ATOM     11  O   UNL     1       3.726 -36.756  31.114  1.00  0.00    -0.456 OA
ENDROOT
BRANCH   1  12
ATOM     12  C   UNL     1       3.069 -38.741  29.889  1.00  0.00     0.021 A 
ATOM     13  C   UNL     1       2.168 -39.613  30.531  1.00  0.00     0.016 A 
ATOM     14  C   UNL     1       1.228 -40.333  29.789  1.00  0.00     0.051 A 
ATOM     15  C   UNL     1       1.165 -40.193  28.400  1.00  0.00     0.157 A 
ATOM     16  C   UNL     1       2.990 -38.594  28.493  1.00  0.00     0.062 A 
ATOM     17  C   UNL     1       2.047 -39.317  27.747  1.00  0.00     0.158 A 
BRANCH  15  18
ATOM     18  O   UNL     1       0.217 -40.927  27.687  1.00  0.00    -0.504 OA
ATOM     19  H   UNL     1      -0.734 -40.599  27.563  1.00  0.00     0.293 HD
ENDBRANCH  15  18
BRANCH  17  20
ATOM     20  O   UNL     1       1.987 -39.169  26.363  1.00  0.00    -0.504 OA
ATOM     21  H   UNL     1       1.955 -38.254  25.927  1.00  0.00     0.293 HD
ENDBRANCH  17  20
ENDBRANCH   1  12
BRANCH   6  22
ATOM     22  O   UNL     1       7.958 -35.890  33.380  1.00  0.00    -0.507 OA
ATOM     23  H   UNL     1       8.754 -35.270  33.396  1.00  0.00     0.293 HD
ENDBRANCH   6  22
BRANCH   8  24
ATOM     24  O   UNL     1       4.441 -32.621  33.339  1.00  0.00    -0.508 OA
ATOM     25  H   UNL     1       5.016 -31.979  33.873  1.00  0.00     0.293 HD
ENDBRANCH   8  24
TORSDOF 5
ENDMDL
MODEL 5
REMARK VINA RESULT:    -6.126      1.498      3.019
REMARK INTER + INTRA:          -7.483
REMARK INTER:                  -7.213
REMARK INTRA:                  -0.271
REMARK UNBOUND:                -0.282
REMARK SMILES O=c1cc(-c2ccc(O)c(O)c2)oc2cc(O)cc(O)c12
REMARK SMILES IDX 4 1 3 2 2 3 1 4 21 5 19 6 18 7 16 8 15 9 14 10 13 11 5 12
REMARK SMILES IDX 6 13 7 14 8 15 12 16 10 17 9 18 11 20 20 22 17 24
REMARK H PARENT 9 19 11 21 20 23 17 25
REMARK Flexibility Score: inf
ROOT
ATOM      1  C   UNL     1       5.147 -38.296  31.683  1.00  0.00     0.138 A 
ATOM      2  C   UNL     1       5.647 -36.986  31.684  1.00  0.00     0.100 A 
ATOM      3  C   UNL     1       6.738 -36.665  32.493  1.00  0.00     0.197 A 
ATOM      4  O   UNL     1       7.124 -35.467  32.520  1.00  0.00    -0.289 OA
ATOM      5  C   UNL     1       7.350 -37.668  33.281  1.00  0.00     0.107 A 
ATOM      6  C   UNL     1       8.493 -37.466  34.111  1.00  0.00     0.134 A 
ATOM      7  C   UNL     1       8.941 -38.506  34.934  1.00  0.00     0.093 A 
ATOM      8  C   UNL     1       8.325 -39.760  34.911  1.00  0.00     0.123 A 
ATOM      9  C   UNL     1       7.241 -39.984  34.064  1.00  0.00     0.094 A 
ATOM     10  C   UNL     1       6.750 -38.955  33.256  1.00  0.00     0.146 A 
ATOM     11  O   UNL     1       5.706 -39.206  32.473  1.00  0.00    -0.456 OA
ENDROOT
BRANCH   1  12
ATOM     12  C   UNL     1       3.989 -38.692  30.842  1.00  0.00     0.021 A 
ATOM     13  C   UNL     1       2.855 -39.317  31.393  1.00  0.00     0.016 A 
ATOM     14  C   UNL     1       1.774 -39.669  30.579  1.00  0.00     0.051 A 
ATOM     15  C   UNL     1       1.803 -39.398  29.208  1.00  0.00     0.157 A 
ATOM     16  C   UNL     1       4.006 -38.409  29.465  1.00  0.00     0.062 A 
ATOM     17  C   UNL     1       2.922 -38.762  28.647  1.00  0.00     0.158 A 
BRANCH  15  18
ATOM     18  O   UNL     1       0.709 -39.763  28.423  1.00  0.00    -0.504 OA
ATOM     19  H   UNL     1      -0.130 -39.197  28.373  1.00  0.00     0.293 HD
ENDBRANCH  15  18
BRANCH  17  20
ATOM     20  O   UNL     1       2.955 -38.485  27.282  1.00  0.00    -0.504 OA
ATOM     21  H   UNL     1       3.434 -37.670  26.916  1.00  0.00     0.293 HD
ENDBRANCH  17  20
ENDBRANCH   1  12
BRANCH   6  22
ATOM     22  O   UNL     1       9.233 -36.280  34.145  1.00  0.00    -0.507 OA
ATOM     23  H   UNL     1       8.896 -35.399  34.503  1.00  0.00     0.293 HD
ENDBRANCH   6  22
BRANCH   8  24
ATOM     24  O   UNL     1       8.786 -40.793  35.722  1.00  0.00    -0.508 OA
ATOM     25  H   UNL     1       9.538 -41.405  35.426  1.00  0.00     0.293 HD
ENDBRANCH   8  24
TORSDOF 5
ENDMDL
MODEL 6
REMARK VINA RESULT:    -6.049      1.840      7.338
REMARK INTER + INTRA:          -7.393
REMARK INTER:                  -7.106
REMARK INTRA:                  -0.287
REMARK UNBOUND:                -0.282
REMARK SMILES O=c1cc(-c2ccc(O)c(O)c2)oc2cc(O)cc(O)c12
REMARK SMILES IDX 4 1 3 2 2 3 1 4 21 5 19 6 18 7 16 8 15 9 14 10 13 11 5 12
REMARK SMILES IDX 6 13 7 14 8 15 12 16 10 17 9 18 11 20 20 22 17 24
REMARK H PARENT 9 19 11 21 20 23 17 25
REMARK Flexibility Score: inf
ROOT
ATOM      1  C   UNL     1       5.983 -38.704  32.164  1.00  0.00     0.138 A 
ATOM      2  C   UNL     1       6.305 -38.155  30.915  1.00  0.00     0.100 A 
ATOM      3  C   UNL     1       5.368 -38.196  29.881  1.00  0.00     0.197 A 
ATOM      4  O   UNL     1       5.708 -37.752  28.753  1.00  0.00    -0.289 OA
ATOM      5  C   UNL     1       4.091 -38.762  30.110  1.00  0.00     0.107 A 
ATOM      6  C   UNL     1       3.043 -38.821  29.144  1.00  0.00     0.134 A 
ATOM      7  C   UNL     1       1.861 -39.509  29.448  1.00  0.00     0.093 A 
ATOM      8  C   UNL     1       1.667 -40.087  30.706  1.00  0.00     0.123 A 
ATOM      9  C   UNL     1       2.664 -39.988  31.675  1.00  0.00     0.094 A 
ATOM     10  C   UNL     1       3.867 -39.337  31.389  1.00  0.00     0.146 A 
ATOM     11  O   UNL     1       4.797 -39.278  32.336  1.00  0.00    -0.456 OA
ENDROOT
BRANCH   1  12
ATOM     12  C   UNL     1       6.942 -38.687  33.297  1.00  0.00     0.021 A 
ATOM     13  C   UNL     1       6.920 -39.677  34.298  1.00  0.00     0.016 A 
ATOM     14  C   UNL     1       7.843 -39.642  35.348  1.00  0.00     0.051 A 
ATOM     15  C   UNL     1       8.803 -38.629  35.414  1.00  0.00     0.157 A 
ATOM     16  C   UNL     1       7.919 -37.679  33.361  1.00  0.00     0.062 A 
ATOM     17  C   UNL     1       8.845 -37.643  34.415  1.00  0.00     0.158 A 
BRANCH  15  18
ATOM     18  O   UNL     1       9.708 -38.622  36.476  1.00  0.00    -0.504 OA
ATOM     19  H   UNL     1       9.509 -38.145  37.348  1.00  0.00     0.293 HD
ENDBRANCH  15  18
BRANCH  17  20
ATOM     20  O   UNL     1       9.803 -36.632  34.473  1.00  0.00    -0.504 OA
ATOM     21  H   UNL     1       9.660 -35.739  34.017  1.00  0.00     0.293 HD
ENDBRANCH  17  20
ENDBRANCH   1  12
BRANCH   6  22
ATOM     22  O   UNL     1       3.101 -38.205  27.890  1.00  0.00    -0.507 OA
ATOM     23  H   UNL     1       2.741 -38.601  27.035  1.00  0.00     0.293 HD
ENDBRANCH   6  22
BRANCH   8  24
ATOM     24  O   UNL     1       0.483 -40.756  31.005  1.00  0.00    -0.508 OA
ATOM     25  H   UNL     1      -0.406 -40.271  31.036  1.00  0.00     0.293 HD
ENDBRANCH   8  24
TORSDOF 5
ENDMDL
MODEL 7
REMARK VINA RESULT:    -5.996      3.801      9.492
REMARK INTER + INTRA:          -7.329
REMARK INTER:                  -7.065
REMARK INTRA:                  -0.264
REMARK UNBOUND:                -0.282
REMARK SMILES O=c1cc(-c2ccc(O)c(O)c2)oc2cc(O)cc(O)c12
REMARK SMILES IDX 4 1 3 2 2 3 1 4 21 5 19 6 18 7 16 8 15 9 14 10 13 11 5 12
REMARK SMILES IDX 6 13 7 14 8 15 12 16 10 17 9 18 11 20 20 22 17 24
REMARK H PARENT 9 19 11 21 20 23 17 25
REMARK Flexibility Score: inf
ROOT
ATOM      1  C   UNL     1       2.579 -39.033  27.948  1.00  0.00     0.138 A 
ATOM      2  C   UNL     1       1.299 -39.222  28.489  1.00  0.00     0.100 A 
ATOM      3  C   UNL     1       0.215 -39.436  27.637  1.00  0.00     0.197 A 
ATOM      4  O   UNL     1      -0.931 -39.539  28.148  1.00  0.00    -0.289 OA
ATOM      5  C   UNL     1       0.419 -39.491  26.237  1.00  0.00     0.107 A 
ATOM      6  C   UNL     1      -0.604 -39.744  25.276  1.00  0.00     0.134 A 
ATOM      7  C   UNL     1      -0.303 -39.661  23.910  1.00  0.00     0.093 A 
ATOM      8  C   UNL     1       0.997 -39.394  23.473  1.00  0.00     0.123 A 
ATOM      9  C   UNL     1       2.014 -39.199  24.405  1.00  0.00     0.094 A 
ATOM     10  C   UNL     1       1.738 -39.242  25.773  1.00  0.00     0.146 A 
ATOM     11  O   UNL     1       2.734 -39.036  26.629  1.00  0.00    -0.456 OA
ENDROOT
BRANCH   1  12
ATOM     12  C   UNL     1       3.766 -38.803  28.809  1.00  0.00     0.021 A 
ATOM     13  C   UNL     1       4.880 -39.664  28.778  1.00  0.00     0.016 A 
ATOM     14  C   UNL     1       5.990 -39.416  29.591  1.00  0.00     0.051 A 
ATOM     15  C   UNL     1       6.012 -38.307  30.440  1.00  0.00     0.157 A 
ATOM     16  C   UNL     1       3.801 -37.680  29.654  1.00  0.00     0.062 A 
ATOM     17  C   UNL     1       4.914 -37.431  30.471  1.00  0.00     0.158 A 
BRANCH  15  18
ATOM     18  O   UNL     1       7.133 -38.088  31.240  1.00  0.00    -0.504 OA
ATOM     19  H   UNL     1       7.731 -38.847  31.547  1.00  0.00     0.293 HD
ENDBRANCH  15  18
BRANCH  17  20
ATOM     20  O   UNL     1       4.932 -36.320  31.312  1.00  0.00    -0.504 OA
ATOM     21  H   UNL     1       5.659 -36.191  32.007  1.00  0.00     0.293 HD
ENDBRANCH  17  20
ENDBRANCH   1  12
BRANCH   6  22
ATOM     22  O   UNL     1      -1.914 -40.103  25.605  1.00  0.00    -0.507 OA
ATOM     23  H   UNL     1      -2.185 -40.978  26.027  1.00  0.00     0.293 HD
ENDBRANCH   6  22
BRANCH   8  24
ATOM     24  O   UNL     1       1.289 -39.328  22.113  1.00  0.00    -0.508 OA
ATOM     25  H   UNL     1       1.526 -38.451  21.663  1.00  0.00     0.293 HD
ENDBRANCH   8  24
TORSDOF 5
ENDMDL
MODEL 8
REMARK VINA RESULT:    -5.920     13.232     15.086
REMARK INTER + INTRA:          -7.241
REMARK INTER:                  -6.955
REMARK INTRA:                  -0.286
REMARK UNBOUND:                -0.282
REMARK SMILES O=c1cc(-c2ccc(O)c(O)c2)oc2cc(O)cc(O)c12
REMARK SMILES IDX 4 1 3 2 2 3 1 4 21 5 19 6 18 7 16 8 15 9 14 10 13 11 5 12
REMARK SMILES IDX 6 13 7 14 8 15 12 16 10 17 9 18 11 20 20 22 17 24
REMARK H PARENT 9 19 11 21 20 23 17 25
REMARK Flexibility Score: inf
ROOT
ATOM      1  C   UNL     1       8.786 -25.265  38.051  1.00  0.00     0.138 A 
ATOM      2  C   UNL     1       9.334 -23.980  37.934  1.00  0.00     0.100 A 
ATOM      3  C   UNL     1      10.565 -23.809  37.300  1.00  0.00     0.197 A 
ATOM      4  O   UNL     1      11.061 -22.652  37.267  1.00  0.00    -0.289 OA
ATOM      5  C   UNL     1      11.236 -24.928  36.751  1.00  0.00     0.107 A 
ATOM      6  C   UNL     1      12.475 -24.869  36.047  1.00  0.00     0.134 A 
ATOM      7  C   UNL     1      13.101 -26.057  35.649  1.00  0.00     0.093 A 
ATOM      8  C   UNL     1      12.502 -27.299  35.879  1.00  0.00     0.123 A 
ATOM      9  C   UNL     1      11.266 -27.364  36.518  1.00  0.00     0.094 A 
ATOM     10  C   UNL     1      10.633 -26.198  36.956  1.00  0.00     0.146 A 
ATOM     11  O   UNL     1       9.462 -26.305  37.575  1.00  0.00    -0.456 OA
ENDROOT
BRANCH   1  12
ATOM     12  C   UNL     1       7.480 -25.502  38.715  1.00  0.00     0.021 A 
ATOM     13  C   UNL     1       7.201 -26.708  39.387  1.00  0.00     0.016 A 
ATOM     14  C   UNL     1       5.967 -26.900  40.015  1.00  0.00     0.051 A 
ATOM     15  C   UNL     1       4.996 -25.895  39.989  1.00  0.00     0.157 A 
ATOM     16  C   UNL     1       6.505 -24.490  38.706  1.00  0.00     0.062 A 
ATOM     17  C   UNL     1       5.265 -24.682  39.335  1.00  0.00     0.158 A 
BRANCH  15  18
ATOM     18  O   UNL     1       3.773 -26.119  40.623  1.00  0.00    -0.504 OA
ATOM     19  H   UNL     1       3.707 -26.274  41.622  1.00  0.00     0.293 HD
ENDBRANCH  15  18
BRANCH  17  20
ATOM     20  O   UNL     1       4.303 -23.675  39.310  1.00  0.00    -0.504 OA
ATOM     21  H   UNL     1       4.351 -22.911  38.645  1.00  0.00     0.293 HD
ENDBRANCH  17  20
ENDBRANCH   1  12
BRANCH   6  22
ATOM     22  O   UNL     1      13.115 -23.678  35.692  1.00  0.00    -0.507 OA
ATOM     23  H   UNL     1      12.914 -22.773  36.090  1.00  0.00     0.293 HD
ENDBRANCH   6  22
BRANCH   8  24
ATOM     24  O   UNL     1      13.125 -28.474  35.467  1.00  0.00    -0.508 OA
ATOM     25  H   UNL     1      12.912 -29.366  35.898  1.00  0.00     0.293 HD
ENDBRANCH   8  24
TORSDOF 5
ENDMDL
