MODEL 1
REMARK VINA RESULT:    -3.768      0.000      0.000
REMARK INTER + INTRA:         -10.389
REMARK INTER:                  -7.293
REMARK INTRA:                  -3.096
REMARK UNBOUND:                -3.096
REMARK SMILES CCCCCCCCCCCCCCCCCC(=O)[O-]
REMARK SMILES IDX 10 1 11 2 12 3 13 4 14 5 15 6 16 7 17 8 18 9 19 10 20 11
REMARK SMILES IDX 9 12 8 13 7 14 6 15 5 16 4 17 3 18 2 19 1 20
REMARK H PARENT
REMARK Flexibility Score: inf
ROOT
ATOM      1  C   UNL     1      20.270  53.219  37.123  1.00  0.00     0.000 C 
ENDROOT
BRANCH   1   2
ATOM      2  C   UNL     1      20.348  53.481  38.638  1.00  0.00     0.000 C 
BRANCH   2   3
ATOM      3  C   UNL     1      21.741  53.283  39.263  1.00  0.00     0.000 C 
BRANCH   3   4
ATOM      4  C   UNL     1      22.561  52.185  38.567  1.00  0.00     0.000 C 
BRANCH   4   5
ATOM      5  C   UNL     1      22.520  50.879  39.374  1.00  0.00     0.000 C 
BRANCH   5   6
ATOM      6  C   UNL     1      21.377  49.943  38.946  1.00  0.00     0.000 C 
BRANCH   6   7
ATOM      7  C   UNL     1      20.213  49.837  39.948  1.00  0.00     0.006 C 
BRANCH   7   8
ATOM      8  C   UNL     1      20.554  50.421  41.324  1.00  0.00     0.053 C 
BRANCH   8   9
ATOM      9  C   UNL     1      19.566  51.478  41.703  1.00  0.00     0.041 C 
ATOM     10  O   UNL     1      19.942  52.498  42.338  1.00  0.00    -0.550 OA
ATOM     11  O   UNL     1      18.220  51.314  41.399  1.00  0.00    -0.550 OA
ENDBRANCH   8   9
ENDBRANCH   7   8
ENDBRANCH   6   7
ENDBRANCH   5   6
ENDBRANCH   4   5
ENDBRANCH   3   4
ENDBRANCH   2   3
ENDBRANCH   1   2
BRANCH   1  12
ATOM     12  C   UNL     1      19.117  52.282  36.737  1.00  0.00     0.000 C 
BRANCH  12  13
ATOM     13  C   UNL     1      18.221  51.983  37.945  1.00  0.00    -0.000 C 
BRANCH  13  14
ATOM     14  C   UNL     1      16.820  51.543  37.497  1.00  0.00    -0.000 C 
BRANCH  14  15
ATOM     15  C   UNL     1      16.481  50.099  37.908  1.00  0.00    -0.000 C 
BRANCH  15  16
ATOM     16  C   UNL     1      16.965  49.010  36.934  1.00  0.00    -0.000 C 
BRANCH  16  17
ATOM     17  C   UNL     1      18.035  48.091  37.547  1.00  0.00    -0.000 C 
BRANCH  17  18
ATOM     18  C   UNL     1      19.201  47.817  36.585  1.00  0.00    -0.000 C 
BRANCH  18  19
ATOM     19  C   UNL     1      19.324  48.881  35.485  1.00  0.00    -0.003 C 
ATOM     20  C   UNL     1      20.777  49.318  35.307  1.00  0.00     0.004 C 
ENDBRANCH  18  19
ENDBRANCH  17  18
ENDBRANCH  16  17
ENDBRANCH  15  16
ENDBRANCH  14  15
ENDBRANCH  13  14
ENDBRANCH  12  13
ENDBRANCH   1  12
TORSDOF 16
ENDMDL
MODEL 2
REMARK VINA RESULT:    -3.746      2.779      4.466
REMARK INTER + INTRA:         -10.346
REMARK INTER:                  -7.384
REMARK INTRA:                  -2.962
REMARK UNBOUND:                -3.096
REMARK SMILES CCCCCCCCCCCCCCCCCC(=O)[O-]
REMARK SMILES IDX 10 1 11 2 12 3 13 4 14 5 15 6 16 7 17 8 18 9 19 10 20 11
REMARK SMILES IDX 9 12 8 13 7 14 6 15 5 16 4 17 3 18 2 19 1 20
REMARK H PARENT
REMARK Flexibility Score: inf
ROOT
ATOM      1  C   UNL     1      21.999  50.776  40.442  1.00  0.00     0.000 C 
ENDROOT
BRANCH   1   2
ATOM      2  C   UNL     1      22.305  52.158  39.835  1.00  0.00     0.000 C 
BRANCH   2   3
ATOM      3  C   UNL     1      21.231  53.232  40.086  1.00  0.00     0.000 C 
BRANCH   3   4
ATOM      4  C   UNL     1      20.292  53.434  38.887  1.00  0.00     0.000 C 
BRANCH   4   5
ATOM      5  C   UNL     1      20.909  52.858  37.605  1.00  0.00     0.000 C 
BRANCH   5   6
ATOM      6  C   UNL     1      20.078  51.715  36.998  1.00  0.00     0.000 C 
BRANCH   6   7
ATOM      7  C   UNL     1      20.853  50.410  36.744  1.00  0.00     0.006 C 
BRANCH   7   8
ATOM      8  C   UNL     1      20.028  49.154  37.051  1.00  0.00     0.053 C 
BRANCH   8   9
ATOM      9  C   UNL     1      20.366  48.058  36.091  1.00  0.00     0.041 C 
ATOM     10  O   UNL     1      21.224  48.248  35.190  1.00  0.00    -0.550 OA
ATOM     11  O   UNL     1      19.698  46.842  36.161  1.00  0.00    -0.550 OA
ENDBRANCH   8   9
ENDBRANCH   7   8
ENDBRANCH   6   7
ENDBRANCH   5   6
ENDBRANCH   4   5
ENDBRANCH   3   4
ENDBRANCH   2   3
ENDBRANCH   1   2
BRANCH   1  12
ATOM     12  C   UNL     1      20.994  50.840  41.601  1.00  0.00     0.000 C 
BRANCH  12  13
ATOM     13  C   UNL     1      19.893  49.786  41.434  1.00  0.00    -0.000 C 
BRANCH  13  14
ATOM     14  C   UNL     1      18.905  50.191  40.330  1.00  0.00    -0.000 C 
BRANCH  14  15
ATOM     15  C   UNL     1      18.014  51.382  40.726  1.00  0.00    -0.000 C 
BRANCH  15  16
ATOM     16  C   UNL     1      16.792  51.615  39.820  1.00  0.00    -0.000 C 
BRANCH  16  17
ATOM     17  C   UNL     1      16.791  50.716  38.573  1.00  0.00    -0.000 C 
BRANCH  17  18
ATOM     18  C   UNL     1      16.449  51.487  37.288  1.00  0.00    -0.000 C 
BRANCH  18  19
ATOM     19  C   UNL     1      16.078  50.560  36.122  1.00  0.00    -0.003 C 
ATOM     20  C   UNL     1      17.107  50.657  34.998  1.00  0.00     0.004 C 
ENDBRANCH  18  19
ENDBRANCH  17  18
ENDBRANCH  16  17
ENDBRANCH  15  16
ENDBRANCH  14  15
ENDBRANCH  13  14
ENDBRANCH  12  13
ENDBRANCH   1  12
TORSDOF 16
ENDMDL
MODEL 3
REMARK VINA RESULT:    -3.710      9.837     12.101
REMARK INTER + INTRA:         -10.276
REMARK INTER:                  -7.658
REMARK INTRA:                  -2.618
REMARK UNBOUND:                -3.096
REMARK SMILES CCCCCCCCCCCCCCCCCC(=O)[O-]
REMARK SMILES IDX 10 1 11 2 12 3 13 4 14 5 15 6 16 7 17 8 18 9 19 10 20 11
REMARK SMILES IDX 9 12 8 13 7 14 6 15 5 16 4 17 3 18 2 19 1 20
REMARK H PARENT
REMARK Flexibility Score: inf
ROOT
ATOM      1  C   UNL     1      18.054  49.948  30.940  1.00  0.00     0.000 C 
ENDROOT
BRANCH   1   2
ATOM      2  C   UNL     1      17.357  50.899  31.931  1.00  0.00     0.000 C 
BRANCH   2   3
ATOM      3  C   UNL     1      16.733  52.155  31.299  1.00  0.00     0.000 C 
BRANCH   3   4
ATOM      4  C   UNL     1      15.432  51.861  30.535  1.00  0.00     0.000 C 
BRANCH   4   5
ATOM      5  C   UNL     1      14.666  53.159  30.241  1.00  0.00     0.000 C 
BRANCH   5   6
ATOM      6  C   UNL     1      15.312  53.999  29.125  1.00  0.00     0.000 C 
BRANCH   6   7
ATOM      7  C   UNL     1      14.437  54.202  27.875  1.00  0.00     0.006 C 
BRANCH   7   8
ATOM      8  C   UNL     1      13.024  53.626  28.033  1.00  0.00     0.053 C 
BRANCH   8   9
ATOM      9  C   UNL     1      12.696  52.723  26.887  1.00  0.00     0.041 C 
ATOM     10  O   UNL     1      12.258  53.202  25.808  1.00  0.00    -0.550 OA
ATOM     11  O   UNL     1      12.826  51.347  27.026  1.00  0.00    -0.550 OA
ENDBRANCH   8   9
ENDBRANCH   7   8
ENDBRANCH   6   7
ENDBRANCH   5   6
ENDBRANCH   4   5
ENDBRANCH   3   4
ENDBRANCH   2   3
ENDBRANCH   1   2
BRANCH   1  12
ATOM     12  C   UNL     1      19.380  50.507  30.406  1.00  0.00     0.000 C 
BRANCH  12  13
ATOM     13  C   UNL     1      19.392  50.523  28.872  1.00  0.00    -0.000 C 
BRANCH  13  14
ATOM     14  C   UNL     1      19.014  51.911  28.333  1.00  0.00    -0.000 C 
BRANCH  14  15
ATOM     15  C   UNL     1      17.788  51.883  27.404  1.00  0.00    -0.000 C 
BRANCH  15  16
ATOM     16  C   UNL     1      17.029  50.544  27.361  1.00  0.00    -0.000 C 
BRANCH  16  17
ATOM     17  C   UNL     1      16.021  50.464  26.202  1.00  0.00    -0.000 C 
BRANCH  17  18
ATOM     18  C   UNL     1      16.500  51.216  24.951  1.00  0.00    -0.000 C 
BRANCH  18  19
ATOM     19  C   UNL     1      15.404  52.097  24.334  1.00  0.00    -0.003 C 
ATOM     20  C   UNL     1      15.745  53.578  24.480  1.00  0.00     0.004 C 
ENDBRANCH  18  19
ENDBRANCH  17  18
ENDBRANCH  16  17
ENDBRANCH  15  16
ENDBRANCH  14  15
ENDBRANCH  13  14
ENDBRANCH  12  13
ENDBRANCH   1  12
TORSDOF 16
ENDMDL
MODEL 4
REMARK VINA RESULT:    -3.707      8.422     10.442
REMARK INTER + INTRA:         -10.270
REMARK INTER:                  -7.636
REMARK INTRA:                  -2.634
REMARK UNBOUND:                -3.096
REMARK SMILES CCCCCCCCCCCCCCCCCC(=O)[O-]
REMARK SMILES IDX 10 1 11 2 12 3 13 4 14 5 15 6 16 7 17 8 18 9 19 10 20 11
REMARK SMILES IDX 9 12 8 13 7 14 6 15 5 16 4 17 3 18 2 19 1 20
REMARK H PARENT
REMARK Flexibility Score: inf
ROOT
ATOM      1  C   UNL     1      15.381  50.688  26.271  1.00  0.00     0.000 C 
ENDROOT
BRANCH   1   2
ATOM      2  C   UNL     1      16.843  50.759  26.747  1.00  0.00     0.000 C 
BRANCH   2   3
ATOM      3  C   UNL     1      17.447  52.174  26.789  1.00  0.00     0.000 C 
BRANCH   3   4
ATOM      4  C   UNL     1      18.865  52.205  27.379  1.00  0.00     0.000 C 
BRANCH   4   5
ATOM      5  C   UNL     1      19.022  51.148  28.482  1.00  0.00     0.000 C 
BRANCH   5   6
ATOM      6  C   UNL     1      19.528  51.736  29.811  1.00  0.00     0.000 C 
BRANCH   6   7
ATOM      7  C   UNL     1      19.592  50.737  30.981  1.00  0.00     0.006 C 
BRANCH   7   8
ATOM      8  C   UNL     1      19.320  51.391  32.341  1.00  0.00     0.053 C 
BRANCH   8   9
ATOM      9  C   UNL     1      19.554  50.413  33.448  1.00  0.00     0.041 C 
ATOM     10  O   UNL     1      18.748  50.344  34.413  1.00  0.00    -0.550 OA
ATOM     11  O   UNL     1      20.688  49.612  33.440  1.00  0.00    -0.550 OA
ENDBRANCH   8   9
ENDBRANCH   7   8
ENDBRANCH   6   7
ENDBRANCH   5   6
ENDBRANCH   4   5
ENDBRANCH   3   4
ENDBRANCH   2   3
ENDBRANCH   1   2
BRANCH   1  12
ATOM     12  C   UNL     1      15.020  51.802  25.279  1.00  0.00     0.000 C 
BRANCH  12  13
ATOM     13  C   UNL     1      13.851  52.648  25.801  1.00  0.00    -0.000 C 
BRANCH  13  14
ATOM     14  C   UNL     1      13.351  52.120  27.154  1.00  0.00    -0.000 C 
BRANCH  14  15
ATOM     15  C   UNL     1      13.277  53.211  28.237  1.00  0.00    -0.000 C 
BRANCH  15  16
ATOM     16  C   UNL     1      14.323  54.333  28.108  1.00  0.00    -0.000 C 
BRANCH  16  17
ATOM     17  C   UNL     1      15.316  54.362  29.282  1.00  0.00    -0.000 C 
BRANCH  17  18
ATOM     18  C   UNL     1      14.969  53.339  30.375  1.00  0.00    -0.000 C 
BRANCH  18  19
ATOM     19  C   UNL     1      16.131  52.385  30.684  1.00  0.00    -0.003 C 
ATOM     20  C   UNL     1      15.746  50.938  30.385  1.00  0.00     0.004 C 
ENDBRANCH  18  19
ENDBRANCH  17  18
ENDBRANCH  16  17
ENDBRANCH  15  16
ENDBRANCH  14  15
ENDBRANCH  13  14
ENDBRANCH  12  13
ENDBRANCH   1  12
TORSDOF 16
ENDMDL
MODEL 5
REMARK VINA RESULT:    -3.677      2.630      5.857
REMARK INTER + INTRA:         -10.212
REMARK INTER:                  -7.058
REMARK INTRA:                  -3.154
REMARK UNBOUND:                -3.096
REMARK SMILES CCCCCCCCCCCCCCCCCC(=O)[O-]
REMARK SMILES IDX 10 1 11 2 12 3 13 4 14 5 15 6 16 7 17 8 18 9 19 10 20 11
REMARK SMILES IDX 9 12 8 13 7 14 6 15 5 16 4 17 3 18 2 19 1 20
REMARK H PARENT
REMARK Flexibility Score: inf
ROOT
ATOM      1  C   UNL     1      20.771  52.092  38.061  1.00  0.00     0.000 C 
ENDROOT
BRANCH   1   2
ATOM      2  C   UNL     1      19.352  52.482  38.517  1.00  0.00     0.000 C 
BRANCH   2   3
ATOM      3  C   UNL     1      18.682  51.487  39.482  1.00  0.00     0.000 C 
BRANCH   3   4
ATOM      4  C   UNL     1      17.149  51.501  39.389  1.00  0.00     0.000 C 
BRANCH   4   5
ATOM      5  C   UNL     1      16.653  50.463  38.373  1.00  0.00     0.000 C 
BRANCH   5   6
ATOM      6  C   UNL     1      17.569  49.230  38.277  1.00  0.00     0.000 C 
BRANCH   6   7
ATOM      7  C   UNL     1      18.025  48.868  36.852  1.00  0.00     0.006 C 
BRANCH   7   8
ATOM      8  C   UNL     1      17.587  49.898  35.803  1.00  0.00     0.053 C 
BRANCH   8   9
ATOM      9  C   UNL     1      18.776  50.603  35.233  1.00  0.00     0.041 C 
ATOM     10  O   UNL     1      19.831  49.964  34.983  1.00  0.00    -0.550 OA
ATOM     11  O   UNL     1      18.736  51.975  35.022  1.00  0.00    -0.550 OA
ENDBRANCH   8   9
ENDBRANCH   7   8
ENDBRANCH   6   7
ENDBRANCH   5   6
ENDBRANCH   4   5
ENDBRANCH   3   4
ENDBRANCH   2   3
ENDBRANCH   1   2
BRANCH   1  12
ATOM     12  C   UNL     1      21.051  50.589  38.197  1.00  0.00     0.000 C 
BRANCH  12  13
ATOM     13  C   UNL     1      22.192  50.329  39.189  1.00  0.00    -0.000 C 
BRANCH  13  14
ATOM     14  C   UNL     1      22.833  51.646  39.649  1.00  0.00    -0.000 C 
BRANCH  14  15
ATOM     15  C   UNL     1      22.745  51.861  41.170  1.00  0.00    -0.000 C 
BRANCH  15  16
ATOM     16  C   UNL     1      21.799  52.989  41.619  1.00  0.00    -0.000 C 
BRANCH  16  17
ATOM     17  C   UNL     1      20.569  52.471  42.383  1.00  0.00    -0.000 C 
BRANCH  17  18
ATOM     18  C   UNL     1      20.729  51.012  42.838  1.00  0.00    -0.000 C 
BRANCH  18  19
ATOM     19  C   UNL     1      19.391  50.259  42.892  1.00  0.00    -0.003 C 
ATOM     20  C   UNL     1      19.413  49.038  41.974  1.00  0.00     0.004 C 
ENDBRANCH  18  19
ENDBRANCH  17  18
ENDBRANCH  16  17
ENDBRANCH  15  16
ENDBRANCH  14  15
ENDBRANCH  13  14
ENDBRANCH  12  13
ENDBRANCH   1  12
TORSDOF 16
ENDMDL
MODEL 6
REMARK VINA RESULT:    -3.664     10.410     12.660
REMARK INTER + INTRA:         -10.188
REMARK INTER:                  -7.494
REMARK INTRA:                  -2.694
REMARK UNBOUND:                -3.096
REMARK SMILES CCCCCCCCCCCCCCCCCC(=O)[O-]
REMARK SMILES IDX 10 1 11 2 12 3 13 4 14 5 15 6 16 7 17 8 18 9 19 10 20 11
REMARK SMILES IDX 9 12 8 13 7 14 6 15 5 16 4 17 3 18 2 19 1 20
REMARK H PARENT
REMARK Flexibility Score: inf
ROOT
ATOM      1  C   UNL     1      16.651  52.445  31.555  1.00  0.00     0.000 C 
ENDROOT
BRANCH   1   2
ATOM      2  C   UNL     1      15.741  53.610  31.124  1.00  0.00     0.000 C 
BRANCH   2   3
ATOM      3  C   UNL     1      15.876  54.030  29.649  1.00  0.00     0.000 C 
BRANCH   3   4
ATOM      4  C   UNL     1      14.529  54.382  29.000  1.00  0.00     0.000 C 
BRANCH   4   5
ATOM      5  C   UNL     1      13.608  53.154  28.951  1.00  0.00     0.000 C 
BRANCH   5   6
ATOM      6  C   UNL     1      14.145  52.035  28.042  1.00  0.00     0.000 C 
BRANCH   6   7
ATOM      7  C   UNL     1      13.410  51.881  26.698  1.00  0.00     0.006 C 
BRANCH   7   8
ATOM      8  C   UNL     1      13.438  53.159  25.850  1.00  0.00     0.053 C 
BRANCH   8   9
ATOM      9  C   UNL     1      12.047  53.635  25.576  1.00  0.00     0.041 C 
ATOM     10  O   UNL     1      11.287  53.954  26.528  1.00  0.00    -0.550 OA
ATOM     11  O   UNL     1      11.571  53.679  24.271  1.00  0.00    -0.550 OA
ENDBRANCH   8   9
ENDBRANCH   7   8
ENDBRANCH   6   7
ENDBRANCH   5   6
ENDBRANCH   4   5
ENDBRANCH   3   4
ENDBRANCH   2   3
ENDBRANCH   1   2
BRANCH   1  12
ATOM     12  C   UNL     1      16.046  51.068  31.248  1.00  0.00     0.000 C 
BRANCH  12  13
ATOM     13  C   UNL     1      16.813  50.368  30.119  1.00  0.00    -0.000 C 
BRANCH  13  14
ATOM     14  C   UNL     1      18.288  50.795  30.107  1.00  0.00    -0.000 C 
BRANCH  14  15
ATOM     15  C   UNL     1      18.848  50.991  28.687  1.00  0.00    -0.000 C 
BRANCH  15  16
ATOM     16  C   UNL     1      18.086  52.006  27.817  1.00  0.00    -0.000 C 
BRANCH  16  17
ATOM     17  C   UNL     1      17.428  51.363  26.584  1.00  0.00    -0.000 C 
BRANCH  17  18
ATOM     18  C   UNL     1      17.115  52.385  25.480  1.00  0.00    -0.000 C 
BRANCH  18  19
ATOM     19  C   UNL     1      16.522  51.735  24.222  1.00  0.00    -0.003 C 
ATOM     20  C   UNL     1      16.185  50.266  24.472  1.00  0.00     0.004 C 
ENDBRANCH  18  19
ENDBRANCH  17  18
ENDBRANCH  16  17
ENDBRANCH  15  16
ENDBRANCH  14  15
ENDBRANCH  13  14
ENDBRANCH  12  13
ENDBRANCH   1  12
TORSDOF 16
ENDMDL
MODEL 7
REMARK VINA RESULT:    -3.658      3.322      6.209
REMARK INTER + INTRA:         -10.175
REMARK INTER:                  -7.456
REMARK INTRA:                  -2.719
REMARK UNBOUND:                -3.096
REMARK SMILES CCCCCCCCCCCCCCCCCC(=O)[O-]
REMARK SMILES IDX 10 1 11 2 12 3 13 4 14 5 15 6 16 7 17 8 18 9 19 10 20 11
REMARK SMILES IDX 9 12 8 13 7 14 6 15 5 16 4 17 3 18 2 19 1 20
REMARK H PARENT
REMARK Flexibility Score: inf
ROOT
ATOM      1  C   UNL     1      18.489  51.364  41.055  1.00  0.00     0.000 C 
ENDROOT
BRANCH   1   2
ATOM      2  C   UNL     1      17.730  51.040  39.755  1.00  0.00     0.000 C 
BRANCH   2   3
ATOM      3  C   UNL     1      18.133  49.718  39.077  1.00  0.00     0.000 C 
BRANCH   3   4
ATOM      4  C   UNL     1      17.288  49.397  37.835  1.00  0.00     0.000 C 
BRANCH   4   5
ATOM      5  C   UNL     1      16.142  50.407  37.678  1.00  0.00     0.000 C 
BRANCH   5   6
ATOM      6  C   UNL     1      16.254  51.250  36.396  1.00  0.00     0.000 C 
BRANCH   6   7
ATOM      7  C   UNL     1      17.491  50.953  35.529  1.00  0.00     0.006 C 
BRANCH   7   8
ATOM      8  C   UNL     1      17.761  52.039  34.480  1.00  0.00     0.053 C 
BRANCH   8   9
ATOM      9  C   UNL     1      18.004  51.424  33.139  1.00  0.00     0.041 C 
ATOM     10  O   UNL     1      19.163  51.058  32.811  1.00  0.00    -0.550 OA
ATOM     11  O   UNL     1      16.960  51.298  32.232  1.00  0.00    -0.550 OA
ENDBRANCH   8   9
ENDBRANCH   7   8
ENDBRANCH   6   7
ENDBRANCH   5   6
ENDBRANCH   4   5
ENDBRANCH   3   4
ENDBRANCH   2   3
ENDBRANCH   1   2
BRANCH   1  12
ATOM     12  C   UNL     1      19.299  50.173  41.588  1.00  0.00     0.000 C 
BRANCH  12  13
ATOM     13  C   UNL     1      20.707  50.611  42.011  1.00  0.00    -0.000 C 
BRANCH  13  14
ATOM     14  C   UNL     1      21.085  51.951  41.363  1.00  0.00    -0.000 C 
BRANCH  14  15
ATOM     15  C   UNL     1      22.360  51.867  40.504  1.00  0.00    -0.000 C 
BRANCH  15  16
ATOM     16  C   UNL     1      22.587  50.517  39.801  1.00  0.00    -0.000 C 
BRANCH  16  17
ATOM     17  C   UNL     1      21.772  50.372  38.505  1.00  0.00    -0.000 C 
BRANCH  17  18
ATOM     18  C   UNL     1      21.740  51.668  37.679  1.00  0.00    -0.000 C 
BRANCH  18  19
ATOM     19  C   UNL     1      20.312  52.115  37.334  1.00  0.00    -0.003 C 
ATOM     20  C   UNL     1      20.040  53.525  37.854  1.00  0.00     0.004 C 
ENDBRANCH  18  19
ENDBRANCH  17  18
ENDBRANCH  16  17
ENDBRANCH  15  16
ENDBRANCH  14  15
ENDBRANCH  13  14
ENDBRANCH  12  13
ENDBRANCH   1  12
TORSDOF 16
ENDMDL
MODEL 8
REMARK VINA RESULT:    -3.655      2.969      5.827
REMARK INTER + INTRA:         -10.170
REMARK INTER:                  -7.315
REMARK INTRA:                  -2.854
REMARK UNBOUND:                -3.096
REMARK SMILES CCCCCCCCCCCCCCCCCC(=O)[O-]
REMARK SMILES IDX 10 1 11 2 12 3 13 4 14 5 15 6 16 7 17 8 18 9 19 10 20 11
REMARK SMILES IDX 9 12 8 13 7 14 6 15 5 16 4 17 3 18 2 19 1 20
REMARK H PARENT
REMARK Flexibility Score: inf
ROOT
ATOM      1  C   UNL     1      17.734  51.403  40.042  1.00  0.00     0.000 C 
ENDROOT
BRANCH   1   2
ATOM      2  C   UNL     1      16.502  51.337  39.121  1.00  0.00     0.000 C 
BRANCH   2   3
ATOM      3  C   UNL     1      16.696  50.521  37.830  1.00  0.00     0.000 C 
BRANCH   3   4
ATOM      4  C   UNL     1      17.321  51.339  36.690  1.00  0.00     0.000 C 
BRANCH   4   5
ATOM      5  C   UNL     1      18.071  50.426  35.709  1.00  0.00     0.000 C 
BRANCH   5   6
ATOM      6  C   UNL     1      19.275  49.714  36.351  1.00  0.00     0.000 C 
BRANCH   6   7
ATOM      7  C   UNL     1      20.650  50.150  35.815  1.00  0.00     0.006 C 
BRANCH   7   8
ATOM      8  C   UNL     1      21.667  49.002  35.771  1.00  0.00     0.053 C 
BRANCH   8   9
ATOM      9  C   UNL     1      21.207  47.930  34.835  1.00  0.00     0.041 C 
ATOM     10  O   UNL     1      21.136  48.157  33.599  1.00  0.00    -0.550 OA
ATOM     11  O   UNL     1      20.808  46.696  35.333  1.00  0.00    -0.550 OA
ENDBRANCH   8   9
ENDBRANCH   7   8
ENDBRANCH   6   7
ENDBRANCH   5   6
ENDBRANCH   4   5
ENDBRANCH   3   4
ENDBRANCH   2   3
ENDBRANCH   1   2
BRANCH   1  12
ATOM     12  C   UNL     1      18.566  50.113  40.021  1.00  0.00     0.000 C 
BRANCH  12  13
ATOM     13  C   UNL     1      19.430  49.995  41.283  1.00  0.00    -0.000 C 
BRANCH  13  14
ATOM     14  C   UNL     1      20.907  50.271  40.968  1.00  0.00    -0.000 C 
BRANCH  14  15
ATOM     15  C   UNL     1      21.205  50.308  39.458  1.00  0.00    -0.000 C 
BRANCH  15  16
ATOM     16  C   UNL     1      22.461  51.102  39.057  1.00  0.00    -0.000 C 
BRANCH  16  17
ATOM     17  C   UNL     1      22.132  52.421  38.339  1.00  0.00    -0.000 C 
BRANCH  17  18
ATOM     18  C   UNL     1      21.110  53.273  39.109  1.00  0.00    -0.000 C 
BRANCH  18  19
ATOM     19  C   UNL     1      19.873  53.619  38.267  1.00  0.00    -0.003 C 
ATOM     20  C   UNL     1      20.219  53.664  36.780  1.00  0.00     0.004 C 
ENDBRANCH  18  19
ENDBRANCH  17  18
ENDBRANCH  16  17
ENDBRANCH  15  16
ENDBRANCH  14  15
ENDBRANCH  13  14
ENDBRANCH  12  13
ENDBRANCH   1  12
TORSDOF 16
ENDMDL
MODEL 9
REMARK VINA RESULT:    -3.651      9.405     11.432
REMARK INTER + INTRA:         -10.161
REMARK INTER:                  -7.750
REMARK INTRA:                  -2.411
REMARK UNBOUND:                -3.096
REMARK SMILES CCCCCCCCCCCCCCCCCC(=O)[O-]
REMARK SMILES IDX 10 1 11 2 12 3 13 4 14 5 15 6 16 7 17 8 18 9 19 10 20 11
REMARK SMILES IDX 9 12 8 13 7 14 6 15 5 16 4 17 3 18 2 19 1 20
REMARK H PARENT
REMARK Flexibility Score: inf
ROOT
ATOM      1  C   UNL     1      16.143  50.563  25.530  1.00  0.00     0.000 C 
ENDROOT
BRANCH   1   2
ATOM      2  C   UNL     1      15.809  51.049  26.952  1.00  0.00     0.000 C 
BRANCH   2   3
ATOM      3  C   UNL     1      16.975  50.980  27.954  1.00  0.00     0.000 C 
BRANCH   3   4
ATOM      4  C   UNL     1      17.973  52.137  27.795  1.00  0.00     0.000 C 
BRANCH   4   5
ATOM      5  C   UNL     1      19.305  51.809  28.484  1.00  0.00     0.000 C 
BRANCH   5   6
ATOM      6  C   UNL     1      19.435  50.324  28.866  1.00  0.00     0.000 C 
BRANCH   6   7
ATOM      7  C   UNL     1      19.537  50.047  30.377  1.00  0.00     0.006 C 
BRANCH   7   8
ATOM      8  C   UNL     1      19.770  51.318  31.203  1.00  0.00     0.053 C 
BRANCH   8   9
ATOM      9  C   UNL     1      18.581  51.609  32.062  1.00  0.00     0.041 C 
ATOM     10  O   UNL     1      17.425  51.308  31.666  1.00  0.00    -0.550 OA
ATOM     11  O   UNL     1      18.745  52.258  33.280  1.00  0.00    -0.550 OA
ENDBRANCH   8   9
ENDBRANCH   7   8
ENDBRANCH   6   7
ENDBRANCH   5   6
ENDBRANCH   4   5
ENDBRANCH   3   4
ENDBRANCH   2   3
ENDBRANCH   1   2
BRANCH   1  12
ATOM     12  C   UNL     1      16.178  51.702  24.501  1.00  0.00     0.000 C 
BRANCH  12  13
ATOM     13  C   UNL     1      15.599  52.995  25.091  1.00  0.00    -0.000 C 
BRANCH  13  14
ATOM     14  C   UNL     1      14.200  53.280  24.526  1.00  0.00    -0.000 C 
BRANCH  14  15
ATOM     15  C   UNL     1      13.287  54.016  25.522  1.00  0.00    -0.000 C 
BRANCH  15  16
ATOM     16  C   UNL     1      12.464  53.107  26.452  1.00  0.00    -0.000 C 
BRANCH  16  17
ATOM     17  C   UNL     1      12.896  53.208  27.924  1.00  0.00    -0.000 C 
BRANCH  17  18
ATOM     18  C   UNL     1      13.914  54.334  28.165  1.00  0.00    -0.000 C 
BRANCH  18  19
ATOM     19  C   UNL     1      14.977  53.959  29.208  1.00  0.00    -0.003 C 
ATOM     20  C   UNL     1      14.461  52.871  30.148  1.00  0.00     0.004 C 
ENDBRANCH  18  19
ENDBRANCH  17  18
ENDBRANCH  16  17
ENDBRANCH  15  16
ENDBRANCH  14  15
ENDBRANCH  13  14
ENDBRANCH  12  13
ENDBRANCH   1  12
TORSDOF 16
ENDMDL
