MODEL 1
REMARK VINA RESULT:    -3.581      0.000      0.000
REMARK INTER + INTRA:         -14.162
REMARK INTER:                  -9.443
REMARK INTRA:                  -4.718
REMARK UNBOUND:                -4.718
REMARK SMILES CCCCCCCCCCCCCCCCCCCCCCCCCCCCCC(=O)[O-]
REMARK SMILES IDX 16 1 17 2 18 3 19 4 20 5 21 6 22 7 23 8 24 9 25 10 26 11
REMARK SMILES IDX 27 12 28 13 29 14 30 15 31 16 32 17 15 18 14 19 13 20 12 21
REMARK SMILES IDX 11 22 10 23 9 24 8 25 7 26 6 27 5 28 4 29 3 30 2 31 1 32
REMARK H PARENT
REMARK Flexibility Score: inf
ROOT
ATOM      1  C   UNL     1      21.530  10.206  35.628  1.00  0.00     0.000 C 
ENDROOT
BRANCH   1   2
ATOM      2  C   UNL     1      20.063   9.730  35.673  1.00  0.00     0.000 C 
BRANCH   2   3
ATOM      3  C   UNL     1      19.809   8.673  36.759  1.00  0.00     0.000 C 
BRANCH   3   4
ATOM      4  C   UNL     1      19.522   7.278  36.172  1.00  0.00     0.000 C 
BRANCH   4   5
ATOM      5  C   UNL     1      20.429   6.862  34.998  1.00  0.00     0.000 C 
BRANCH   5   6
ATOM      6  C   UNL     1      19.687   6.374  33.737  1.00  0.00     0.000 C 
BRANCH   6   7
ATOM      7  C   UNL     1      19.710   7.356  32.551  1.00  0.00     0.000 C 
BRANCH   7   8
ATOM      8  C   UNL     1      18.581   8.397  32.616  1.00  0.00     0.000 C 
BRANCH   8   9
ATOM      9  C   UNL     1      19.087   9.784  32.201  1.00  0.00     0.000 C 
BRANCH   9  10
ATOM     10  C   UNL     1      20.607   9.778  31.986  1.00  0.00     0.000 C 
BRANCH  10  11
ATOM     11  C   UNL     1      21.008  10.179  30.555  1.00  0.00     0.000 C 
BRANCH  11  12
ATOM     12  C   UNL     1      20.071   9.587  29.490  1.00  0.00     0.000 C 
BRANCH  12  13
ATOM     13  C   UNL     1      20.636   8.281  28.918  1.00  0.00     0.006 C 
BRANCH  13  14
ATOM     14  C   UNL     1      19.575   7.179  28.919  1.00  0.00     0.053 C 
BRANCH  14  15
ATOM     15  C   UNL     1      20.217   5.828  28.931  1.00  0.00     0.041 C 
ATOM     16  O   UNL     1      21.469   5.721  29.029  1.00  0.00    -0.550 OA
ATOM     17  O   UNL     1      19.428   4.683  28.876  1.00  0.00    -0.550 OA
ENDBRANCH  14  15
ENDBRANCH  13  14
ENDBRANCH  12  13
ENDBRANCH  11  12
ENDBRANCH  10  11
ENDBRANCH   9  10
ENDBRANCH   8   9
ENDBRANCH   7   8
ENDBRANCH   6   7
ENDBRANCH   5   6
ENDBRANCH   4   5
ENDBRANCH   3   4
ENDBRANCH   2   3
ENDBRANCH   1   2
BRANCH   1  18
ATOM     18  C   UNL     1      21.731  11.738  35.580  1.00  0.00     0.000 C 
BRANCH  18  19
ATOM     19  C   UNL     1      20.426  12.554  35.523  1.00  0.00     0.000 C 
BRANCH  19  20
ATOM     20  C   UNL     1      20.164  13.144  34.126  1.00  0.00     0.000 C 
BRANCH  20  21
ATOM     21  C   UNL     1      21.377  12.999  33.189  1.00  0.00     0.000 C 
BRANCH  21  22
ATOM     22  C   UNL     1      21.540  14.140  32.156  1.00  0.00     0.000 C 
BRANCH  22  23
ATOM     23  C   UNL     1      21.865  13.690  30.713  1.00  0.00     0.000 C 
BRANCH  23  24
ATOM     24  C   UNL     1      20.678  13.765  29.729  1.00  0.00    -0.000 C 
BRANCH  24  25
ATOM     25  C   UNL     1      19.518  14.619  30.275  1.00  0.00    -0.000 C 
BRANCH  25  26
ATOM     26  C   UNL     1      18.933  15.580  29.219  1.00  0.00    -0.000 C 
BRANCH  26  27
ATOM     27  C   UNL     1      19.278  17.069  29.451  1.00  0.00    -0.000 C 
BRANCH  27  28
ATOM     28  C   UNL     1      20.786  17.366  29.551  1.00  0.00    -0.000 C 
BRANCH  28  29
ATOM     29  C   UNL     1      21.277  17.674  30.979  1.00  0.00    -0.000 C 
BRANCH  29  30
ATOM     30  C   UNL     1      22.790  17.955  31.023  1.00  0.00    -0.000 C 
BRANCH  30  31
ATOM     31  C   UNL     1      23.534  17.385  29.807  1.00  0.00    -0.003 C 
ATOM     32  C   UNL     1      24.443  16.212  30.161  1.00  0.00     0.004 C 
ENDBRANCH  30  31
ENDBRANCH  29  30
ENDBRANCH  28  29
ENDBRANCH  27  28
ENDBRANCH  26  27
ENDBRANCH  25  26
ENDBRANCH  24  25
ENDBRANCH  23  24
ENDBRANCH  22  23
ENDBRANCH  21  22
ENDBRANCH  20  21
ENDBRANCH  19  20
ENDBRANCH  18  19
ENDBRANCH   1  18
TORSDOF 28
ENDMDL
MODEL 2
REMARK VINA RESULT:    -3.572      2.457      4.076
REMARK INTER + INTRA:         -14.138
REMARK INTER:                  -9.974
REMARK INTRA:                  -4.163
REMARK UNBOUND:                -4.718
REMARK SMILES CCCCCCCCCCCCCCCCCCCCCCCCCCCCCC(=O)[O-]
REMARK SMILES IDX 16 1 17 2 18 3 19 4 20 5 21 6 22 7 23 8 24 9 25 10 26 11
REMARK SMILES IDX 27 12 28 13 29 14 30 15 31 16 32 17 15 18 14 19 13 20 12 21
REMARK SMILES IDX 11 22 10 23 9 24 8 25 7 26 6 27 5 28 4 29 3 30 2 31 1 32
REMARK H PARENT
REMARK Flexibility Score: inf
ROOT
ATOM      1  C   UNL     1      21.145  12.519  35.786  1.00  0.00     0.000 C 
ENDROOT
BRANCH   1   2
ATOM      2  C   UNL     1      19.686  12.168  36.144  1.00  0.00     0.000 C 
BRANCH   2   3
ATOM      3  C   UNL     1      18.680  13.222  35.657  1.00  0.00     0.000 C 
BRANCH   3   4
ATOM      4  C   UNL     1      18.202  12.963  34.216  1.00  0.00     0.000 C 
BRANCH   4   5
ATOM      5  C   UNL     1      17.882  11.492  33.887  1.00  0.00     0.000 C 
BRANCH   5   6
ATOM      6  C   UNL     1      18.050  11.100  32.405  1.00  0.00     0.000 C 
BRANCH   6   7
ATOM      7  C   UNL     1      18.010   9.586  32.126  1.00  0.00     0.000 C 
BRANCH   7   8
ATOM      8  C   UNL     1      18.668   9.207  30.791  1.00  0.00     0.000 C 
BRANCH   8   9
ATOM      9  C   UNL     1      19.729   8.118  30.990  1.00  0.00     0.000 C 
BRANCH   9  10
ATOM     10  C   UNL     1      20.013   7.886  32.482  1.00  0.00     0.000 C 
BRANCH  10  11
ATOM     11  C   UNL     1      20.021   6.395  32.861  1.00  0.00     0.000 C 
BRANCH  11  12
ATOM     12  C   UNL     1      18.668   5.914  33.409  1.00  0.00     0.000 C 
BRANCH  12  13
ATOM     13  C   UNL     1      18.201   6.789  34.578  1.00  0.00     0.006 C 
BRANCH  13  14
ATOM     14  C   UNL     1      19.026   6.507  35.836  1.00  0.00     0.053 C 
BRANCH  14  15
ATOM     15  C   UNL     1      19.499   7.785  36.454  1.00  0.00     0.041 C 
ATOM     16  O   UNL     1      20.063   8.661  35.746  1.00  0.00    -0.550 OA
ATOM     17  O   UNL     1      19.279   8.025  37.806  1.00  0.00    -0.550 OA
ENDBRANCH  14  15
ENDBRANCH  13  14
ENDBRANCH  12  13
ENDBRANCH  11  12
ENDBRANCH  10  11
ENDBRANCH   9  10
ENDBRANCH   8   9
ENDBRANCH   7   8
ENDBRANCH   6   7
ENDBRANCH   5   6
ENDBRANCH   4   5
ENDBRANCH   3   4
ENDBRANCH   2   3
ENDBRANCH   1   2
BRANCH   1  18
ATOM     18  C   UNL     1      22.094  11.311  35.606  1.00  0.00     0.000 C 
BRANCH  18  19
ATOM     19  C   UNL     1      22.647  11.138  34.180  1.00  0.00     0.000 C 
BRANCH  19  20
ATOM     20  C   UNL     1      21.574  11.374  33.102  1.00  0.00     0.000 C 
BRANCH  20  21
ATOM     21  C   UNL     1      21.631  12.797  32.517  1.00  0.00     0.000 C 
BRANCH  21  22
ATOM     22  C   UNL     1      21.860  12.861  30.987  1.00  0.00     0.000 C 
BRANCH  22  23
ATOM     23  C   UNL     1      20.777  12.174  30.123  1.00  0.00     0.000 C 
BRANCH  23  24
ATOM     24  C   UNL     1      19.742  13.135  29.499  1.00  0.00    -0.000 C 
BRANCH  24  25
ATOM     25  C   UNL     1      19.437  14.339  30.410  1.00  0.00    -0.000 C 
BRANCH  25  26
ATOM     26  C   UNL     1      19.368  15.673  29.638  1.00  0.00    -0.000 C 
BRANCH  26  27
ATOM     27  C   UNL     1      20.710  16.437  29.563  1.00  0.00    -0.000 C 
BRANCH  27  28
ATOM     28  C   UNL     1      21.510  16.453  30.880  1.00  0.00    -0.000 C 
BRANCH  28  29
ATOM     29  C   UNL     1      22.063  17.838  31.266  1.00  0.00    -0.000 C 
BRANCH  29  30
ATOM     30  C   UNL     1      23.403  18.140  30.570  1.00  0.00    -0.000 C 
BRANCH  30  31
ATOM     31  C   UNL     1      24.316  16.909  30.483  1.00  0.00    -0.003 C 
ATOM     32  C   UNL     1      24.500  16.403  29.055  1.00  0.00     0.004 C 
ENDBRANCH  30  31
ENDBRANCH  29  30
ENDBRANCH  28  29
ENDBRANCH  27  28
ENDBRANCH  26  27
ENDBRANCH  25  26
ENDBRANCH  24  25
ENDBRANCH  23  24
ENDBRANCH  22  23
ENDBRANCH  21  22
ENDBRANCH  20  21
ENDBRANCH  19  20
ENDBRANCH  18  19
ENDBRANCH   1  18
TORSDOF 28
ENDMDL
MODEL 3
REMARK VINA RESULT:    -3.360      3.374      7.837
REMARK INTER + INTRA:         -13.578
REMARK INTER:                  -8.511
REMARK INTRA:                  -5.068
REMARK UNBOUND:                -4.718
REMARK SMILES CCCCCCCCCCCCCCCCCCCCCCCCCCCCCC(=O)[O-]
REMARK SMILES IDX 16 1 17 2 18 3 19 4 20 5 21 6 22 7 23 8 24 9 25 10 26 11
REMARK SMILES IDX 27 12 28 13 29 14 30 15 31 16 32 17 15 18 14 19 13 20 12 21
REMARK SMILES IDX 11 22 10 23 9 24 8 25 7 26 6 27 5 28 4 29 3 30 2 31 1 32
REMARK H PARENT
REMARK Flexibility Score: inf
ROOT
ATOM      1  C   UNL     1      21.548  11.742  35.443  1.00  0.00     0.000 C 
ENDROOT
BRANCH   1   2
ATOM      2  C   UNL     1      20.668  12.975  35.150  1.00  0.00     0.000 C 
BRANCH   2   3
ATOM      3  C   UNL     1      19.406  13.031  36.025  1.00  0.00     0.000 C 
BRANCH   3   4
ATOM      4  C   UNL     1      18.116  12.786  35.220  1.00  0.00     0.000 C 
BRANCH   4   5
ATOM      5  C   UNL     1      17.994  11.386  34.588  1.00  0.00     0.000 C 
BRANCH   5   6
ATOM      6  C   UNL     1      17.876  11.368  33.051  1.00  0.00     0.000 C 
BRANCH   6   7
ATOM      7  C   UNL     1      18.089  12.732  32.369  1.00  0.00     0.000 C 
BRANCH   7   8
ATOM      8  C   UNL     1      17.896  12.675  30.845  1.00  0.00     0.000 C 
BRANCH   8   9
ATOM      9  C   UNL     1      18.607  13.845  30.156  1.00  0.00     0.000 C 
BRANCH   9  10
ATOM     10  C   UNL     1      20.084  13.918  30.570  1.00  0.00     0.000 C 
BRANCH  10  11
ATOM     11  C   UNL     1      21.044  13.598  29.410  1.00  0.00     0.000 C 
BRANCH  11  12
ATOM     12  C   UNL     1      22.470  14.112  29.662  1.00  0.00     0.000 C 
BRANCH  12  13
ATOM     13  C   UNL     1      22.494  15.151  30.789  1.00  0.00     0.006 C 
BRANCH  13  14
ATOM     14  C   UNL     1      23.326  16.372  30.390  1.00  0.00     0.053 C 
BRANCH  14  15
ATOM     15  C   UNL     1      22.458  17.422  29.771  1.00  0.00     0.041 C 
ATOM     16  O   UNL     1      22.960  18.292  29.010  1.00  0.00    -0.550 OA
ATOM     17  O   UNL     1      21.086  17.413  30.001  1.00  0.00    -0.550 OA
ENDBRANCH  14  15
ENDBRANCH  13  14
ENDBRANCH  12  13
ENDBRANCH  11  12
ENDBRANCH  10  11
ENDBRANCH   9  10
ENDBRANCH   8   9
ENDBRANCH   7   8
ENDBRANCH   6   7
ENDBRANCH   5   6
ENDBRANCH   4   5
ENDBRANCH   3   4
ENDBRANCH   2   3
ENDBRANCH   1   2
BRANCH   1  18
ATOM     18  C   UNL     1      22.487  11.307  34.293  1.00  0.00     0.000 C 
BRANCH  18  19
ATOM     19  C   UNL     1      21.926  11.550  32.881  1.00  0.00     0.000 C 
BRANCH  19  20
ATOM     20  C   UNL     1      20.989  10.419  32.419  1.00  0.00     0.000 C 
BRANCH  20  21
ATOM     21  C   UNL     1      20.895  10.323  30.885  1.00  0.00     0.000 C 
BRANCH  21  22
ATOM     22  C   UNL     1      19.654   9.563  30.357  1.00  0.00     0.000 C 
BRANCH  22  23
ATOM     23  C   UNL     1      19.918   8.592  29.182  1.00  0.00     0.000 C 
BRANCH  23  24
ATOM     24  C   UNL     1      20.393   7.184  29.602  1.00  0.00    -0.000 C 
BRANCH  24  25
ATOM     25  C   UNL     1      19.275   6.131  29.486  1.00  0.00    -0.000 C 
BRANCH  25  26
ATOM     26  C   UNL     1      18.883   5.520  30.848  1.00  0.00    -0.000 C 
BRANCH  26  27
ATOM     27  C   UNL     1      18.230   6.519  31.830  1.00  0.00    -0.000 C 
BRANCH  27  28
ATOM     28  C   UNL     1      18.739   6.413  33.280  1.00  0.00    -0.000 C 
BRANCH  28  29
ATOM     29  C   UNL     1      20.250   6.669  33.439  1.00  0.00    -0.000 C 
BRANCH  29  30
ATOM     30  C   UNL     1      20.632   6.994  34.895  1.00  0.00    -0.000 C 
BRANCH  30  31
ATOM     31  C   UNL     1      20.194   8.402  35.322  1.00  0.00    -0.003 C 
ATOM     32  C   UNL     1      19.639   8.448  36.743  1.00  0.00     0.004 C 
ENDBRANCH  30  31
ENDBRANCH  29  30
ENDBRANCH  28  29
ENDBRANCH  27  28
ENDBRANCH  26  27
ENDBRANCH  25  26
ENDBRANCH  24  25
ENDBRANCH  23  24
ENDBRANCH  22  23
ENDBRANCH  21  22
ENDBRANCH  20  21
ENDBRANCH  19  20
ENDBRANCH  18  19
ENDBRANCH   1  18
TORSDOF 28
ENDMDL
MODEL 4
REMARK VINA RESULT:    -3.101      3.475      8.380
REMARK INTER + INTRA:         -12.894
REMARK INTER:                  -9.074
REMARK INTRA:                  -3.820
REMARK UNBOUND:                -4.718
REMARK SMILES CCCCCCCCCCCCCCCCCCCCCCCCCCCCCC(=O)[O-]
REMARK SMILES IDX 16 1 17 2 18 3 19 4 20 5 21 6 22 7 23 8 24 9 25 10 26 11
REMARK SMILES IDX 27 12 28 13 29 14 30 15 31 16 32 17 15 18 14 19 13 20 12 21
REMARK SMILES IDX 11 22 10 23 9 24 8 25 7 26 6 27 5 28 4 29 3 30 2 31 1 32
REMARK H PARENT
REMARK Flexibility Score: inf
ROOT
ATOM      1  C   UNL     1      19.987  11.088  35.743  1.00  0.00     0.000 C 
ENDROOT
BRANCH   1   2
ATOM      2  C   UNL     1      19.168  12.394  35.721  1.00  0.00     0.000 C 
BRANCH   2   3
ATOM      3  C   UNL     1      18.093  12.408  34.623  1.00  0.00     0.000 C 
BRANCH   3   4
ATOM      4  C   UNL     1      18.624  12.951  33.282  1.00  0.00     0.000 C 
BRANCH   4   5
ATOM      5  C   UNL     1      17.944  12.371  32.026  1.00  0.00     0.000 C 
BRANCH   5   6
ATOM      6  C   UNL     1      17.878  13.325  30.817  1.00  0.00     0.000 C 
BRANCH   6   7
ATOM      7  C   UNL     1      19.246  13.791  30.284  1.00  0.00     0.000 C 
BRANCH   7   8
ATOM      8  C   UNL     1      19.957  12.719  29.444  1.00  0.00     0.000 C 
BRANCH   8   9
ATOM      9  C   UNL     1      21.441  13.058  29.260  1.00  0.00     0.000 C 
BRANCH   9  10
ATOM     10  C   UNL     1      21.941  13.983  30.379  1.00  0.00     0.000 C 
BRANCH  10  11
ATOM     11  C   UNL     1      23.012  14.977  29.896  1.00  0.00     0.000 C 
BRANCH  11  12
ATOM     12  C   UNL     1      22.454  16.393  29.681  1.00  0.00     0.000 C 
BRANCH  12  13
ATOM     13  C   UNL     1      21.596  16.836  30.872  1.00  0.00     0.006 C 
BRANCH  13  14
ATOM     14  C   UNL     1      21.033  18.242  30.648  1.00  0.00     0.053 C 
BRANCH  14  15
ATOM     15  C   UNL     1      19.598  18.175  30.233  1.00  0.00     0.041 C 
ATOM     16  O   UNL     1      19.204  17.265  29.455  1.00  0.00    -0.550 OA
ATOM     17  O   UNL     1      18.685  19.095  30.739  1.00  0.00    -0.550 OA
ENDBRANCH  14  15
ENDBRANCH  13  14
ENDBRANCH  12  13
ENDBRANCH  11  12
ENDBRANCH  10  11
ENDBRANCH   9  10
ENDBRANCH   8   9
ENDBRANCH   7   8
ENDBRANCH   6   7
ENDBRANCH   5   6
ENDBRANCH   4   5
ENDBRANCH   3   4
ENDBRANCH   2   3
ENDBRANCH   1   2
BRANCH   1  18
ATOM     18  C   UNL     1      21.514  11.263  35.920  1.00  0.00     0.000 C 
BRANCH  18  19
ATOM     19  C   UNL     1      22.346  10.930  34.669  1.00  0.00     0.000 C 
BRANCH  19  20
ATOM     20  C   UNL     1      21.930  11.769  33.447  1.00  0.00     0.000 C 
BRANCH  20  21
ATOM     21  C   UNL     1      21.631  10.899  32.211  1.00  0.00     0.000 C 
BRANCH  21  22
ATOM     22  C   UNL     1      20.370  10.010  32.333  1.00  0.00     0.000 C 
BRANCH  22  23
ATOM     23  C   UNL     1      19.942   9.281  31.037  1.00  0.00     0.000 C 
BRANCH  23  24
ATOM     24  C   UNL     1      18.947   8.119  31.248  1.00  0.00    -0.000 C 
BRANCH  24  25
ATOM     25  C   UNL     1      17.970   8.388  32.407  1.00  0.00    -0.000 C 
BRANCH  25  26
ATOM     26  C   UNL     1      18.017   7.297  33.497  1.00  0.00    -0.000 C 
BRANCH  26  27
ATOM     27  C   UNL     1      19.089   6.209  33.263  1.00  0.00    -0.000 C 
BRANCH  27  28
ATOM     28  C   UNL     1      20.526   6.642  33.614  1.00  0.00    -0.000 C 
BRANCH  28  29
ATOM     29  C   UNL     1      20.802   6.749  35.126  1.00  0.00    -0.000 C 
BRANCH  29  30
ATOM     30  C   UNL     1      19.686   7.509  35.865  1.00  0.00    -0.000 C 
BRANCH  30  31
ATOM     31  C   UNL     1      19.188   6.765  37.112  1.00  0.00    -0.003 C 
ATOM     32  C   UNL     1      18.347   5.536  36.777  1.00  0.00     0.004 C 
ENDBRANCH  30  31
ENDBRANCH  29  30
ENDBRANCH  28  29
ENDBRANCH  27  28
ENDBRANCH  26  27
ENDBRANCH  25  26
ENDBRANCH  24  25
ENDBRANCH  23  24
ENDBRANCH  22  23
ENDBRANCH  21  22
ENDBRANCH  20  21
ENDBRANCH  19  20
ENDBRANCH  18  19
ENDBRANCH   1  18
TORSDOF 28
ENDMDL
MODEL 5
REMARK VINA RESULT:    -2.979      3.248      6.144
REMARK INTER + INTRA:         -12.573
REMARK INTER:                  -8.507
REMARK INTRA:                  -4.066
REMARK UNBOUND:                -4.718
REMARK SMILES CCCCCCCCCCCCCCCCCCCCCCCCCCCCCC(=O)[O-]
REMARK SMILES IDX 16 1 17 2 18 3 19 4 20 5 21 6 22 7 23 8 24 9 25 10 26 11
REMARK SMILES IDX 27 12 28 13 29 14 30 15 31 16 32 17 15 18 14 19 13 20 12 21
REMARK SMILES IDX 11 22 10 23 9 24 8 25 7 26 6 27 5 28 4 29 3 30 2 31 1 32
REMARK H PARENT
REMARK Flexibility Score: inf
ROOT
ATOM      1  C   UNL     1      20.632   6.297  34.708  1.00  0.00     0.000 C 
ENDROOT
BRANCH   1   2
ATOM      2  C   UNL     1      20.113   6.076  33.272  1.00  0.00     0.000 C 
BRANCH   2   3
ATOM      3  C   UNL     1      18.612   6.366  33.127  1.00  0.00     0.000 C 
BRANCH   3   4
ATOM      4  C   UNL     1      17.893   5.337  32.233  1.00  0.00     0.000 C 
BRANCH   4   5
ATOM      5  C   UNL     1      18.460   5.201  30.806  1.00  0.00     0.000 C 
BRANCH   5   6
ATOM      6  C   UNL     1      18.819   6.531  30.114  1.00  0.00     0.000 C 
BRANCH   6   7
ATOM      7  C   UNL     1      20.323   6.745  29.861  1.00  0.00     0.000 C 
BRANCH   7   8
ATOM      8  C   UNL     1      20.611   7.949  28.950  1.00  0.00     0.000 C 
BRANCH   8   9
ATOM      9  C   UNL     1      20.432   9.269  29.710  1.00  0.00     0.000 C 
BRANCH   9  10
ATOM     10  C   UNL     1      21.635  10.199  29.497  1.00  0.00     0.000 C 
BRANCH  10  11
ATOM     11  C   UNL     1      21.226  11.673  29.329  1.00  0.00     0.000 C 
BRANCH  11  12
ATOM     12  C   UNL     1      22.009  12.615  30.257  1.00  0.00     0.000 C 
BRANCH  12  13
ATOM     13  C   UNL     1      21.272  13.946  30.446  1.00  0.00     0.006 C 
BRANCH  13  14
ATOM     14  C   UNL     1      21.911  14.773  31.563  1.00  0.00     0.053 C 
BRANCH  14  15
ATOM     15  C   UNL     1      22.519  16.024  31.012  1.00  0.00     0.041 C 
ATOM     16  O   UNL     1      23.411  15.959  30.125  1.00  0.00    -0.550 OA
ATOM     17  O   UNL     1      22.069  17.266  31.450  1.00  0.00    -0.550 OA
ENDBRANCH  14  15
ENDBRANCH  13  14
ENDBRANCH  12  13
ENDBRANCH  11  12
ENDBRANCH  10  11
ENDBRANCH   9  10
ENDBRANCH   8   9
ENDBRANCH   7   8
ENDBRANCH   6   7
ENDBRANCH   5   6
ENDBRANCH   4   5
ENDBRANCH   3   4
ENDBRANCH   2   3
ENDBRANCH   1   2
BRANCH   1  18
ATOM     18  C   UNL     1      19.649   7.006  35.669  1.00  0.00     0.000 C 
BRANCH  18  19
ATOM     19  C   UNL     1      19.929   8.504  35.881  1.00  0.00     0.000 C 
BRANCH  19  20
ATOM     20  C   UNL     1      18.916   9.400  35.146  1.00  0.00     0.000 C 
BRANCH  20  21
ATOM     21  C   UNL     1      19.263   9.580  33.657  1.00  0.00     0.000 C 
BRANCH  21  22
ATOM     22  C   UNL     1      18.085  10.048  32.768  1.00  0.00     0.000 C 
BRANCH  22  23
ATOM     23  C   UNL     1      18.445  11.085  31.677  1.00  0.00     0.000 C 
BRANCH  23  24
ATOM     24  C   UNL     1      18.050  12.539  32.013  1.00  0.00    -0.000 C 
BRANCH  24  25
ATOM     25  C   UNL     1      18.888  13.123  33.165  1.00  0.00    -0.000 C 
BRANCH  25  26
ATOM     26  C   UNL     1      18.175  13.033  34.531  1.00  0.00    -0.000 C 
BRANCH  26  27
ATOM     27  C   UNL     1      19.085  13.320  35.746  1.00  0.00    -0.000 C 
BRANCH  27  28
ATOM     28  C   UNL     1      20.265  12.342  35.905  1.00  0.00    -0.000 C 
BRANCH  28  29
ATOM     29  C   UNL     1      21.555  12.786  35.187  1.00  0.00    -0.000 C 
BRANCH  29  30
ATOM     30  C   UNL     1      22.175  11.648  34.355  1.00  0.00    -0.000 C 
BRANCH  30  31
ATOM     31  C   UNL     1      22.798  10.549  35.226  1.00  0.00    -0.003 C 
ATOM     32  C   UNL     1      24.207  10.892  35.701  1.00  0.00     0.004 C 
ENDBRANCH  30  31
ENDBRANCH  29  30
ENDBRANCH  28  29
ENDBRANCH  27  28
ENDBRANCH  26  27
ENDBRANCH  25  26
ENDBRANCH  24  25
ENDBRANCH  23  24
ENDBRANCH  22  23
ENDBRANCH  21  22
ENDBRANCH  20  21
ENDBRANCH  19  20
ENDBRANCH  18  19
ENDBRANCH   1  18
TORSDOF 28
ENDMDL
MODEL 6
REMARK VINA RESULT:    -2.906      1.744      2.918
REMARK INTER + INTRA:         -12.380
REMARK INTER:                  -9.221
REMARK INTRA:                  -3.159
REMARK UNBOUND:                -4.718
REMARK SMILES CCCCCCCCCCCCCCCCCCCCCCCCCCCCCC(=O)[O-]
REMARK SMILES IDX 16 1 17 2 18 3 19 4 20 5 21 6 22 7 23 8 24 9 25 10 26 11
REMARK SMILES IDX 27 12 28 13 29 14 30 15 31 16 32 17 15 18 14 19 13 20 12 21
REMARK SMILES IDX 11 22 10 23 9 24 8 25 7 26 6 27 5 28 4 29 3 30 2 31 1 32
REMARK H PARENT
REMARK Flexibility Score: inf
ROOT
ATOM      1  C   UNL     1      21.713  11.366  35.671  1.00  0.00     0.000 C 
ENDROOT
BRANCH   1   2
ATOM      2  C   UNL     1      21.633  10.165  34.706  1.00  0.00     0.000 C 
BRANCH   2   3
ATOM      3  C   UNL     1      20.208   9.902  34.194  1.00  0.00     0.000 C 
BRANCH   3   4
ATOM      4  C   UNL     1      19.224   9.566  35.331  1.00  0.00     0.000 C 
BRANCH   4   5
ATOM      5  C   UNL     1      19.863   8.947  36.589  1.00  0.00     0.000 C 
BRANCH   5   6
ATOM      6  C   UNL     1      19.183   7.664  37.106  1.00  0.00     0.000 C 
BRANCH   6   7
ATOM      7  C   UNL     1      19.307   6.444  36.175  1.00  0.00     0.000 C 
BRANCH   7   8
ATOM      8  C   UNL     1      17.945   5.899  35.717  1.00  0.00     0.000 C 
BRANCH   8   9
ATOM      9  C   UNL     1      17.875   5.806  34.188  1.00  0.00     0.000 C 
BRANCH   9  10
ATOM     10  C   UNL     1      18.946   6.687  33.529  1.00  0.00     0.000 C 
BRANCH  10  11
ATOM     11  C   UNL     1      19.743   5.943  32.443  1.00  0.00     0.000 C 
BRANCH  11  12
ATOM     12  C   UNL     1      18.927   5.717  31.160  1.00  0.00     0.000 C 
BRANCH  12  13
ATOM     13  C   UNL     1      18.735   7.027  30.387  1.00  0.00     0.006 C 
BRANCH  13  14
ATOM     14  C   UNL     1      19.939   7.953  30.571  1.00  0.00     0.053 C 
BRANCH  14  15
ATOM     15  C   UNL     1      19.589   9.356  30.186  1.00  0.00     0.041 C 
ATOM     16  O   UNL     1      18.825  10.043  30.916  1.00  0.00    -0.550 OA
ATOM     17  O   UNL     1      20.142   9.920  29.041  1.00  0.00    -0.550 OA
ENDBRANCH  14  15
ENDBRANCH  13  14
ENDBRANCH  12  13
ENDBRANCH  11  12
ENDBRANCH  10  11
ENDBRANCH   9  10
ENDBRANCH   8   9
ENDBRANCH   7   8
ENDBRANCH   6   7
ENDBRANCH   5   6
ENDBRANCH   4   5
ENDBRANCH   3   4
ENDBRANCH   2   3
ENDBRANCH   1   2
BRANCH   1  18
ATOM     18  C   UNL     1      22.016  12.731  35.011  1.00  0.00     0.000 C 
BRANCH  18  19
ATOM     19  C   UNL     1      20.850  13.323  34.198  1.00  0.00     0.000 C 
BRANCH  19  20
ATOM     20  C   UNL     1      21.276  13.742  32.780  1.00  0.00     0.000 C 
BRANCH  20  21
ATOM     21  C   UNL     1      21.158  12.588  31.766  1.00  0.00     0.000 C 
BRANCH  21  22
ATOM     22  C   UNL     1      21.967  12.785  30.461  1.00  0.00     0.000 C 
BRANCH  22  23
ATOM     23  C   UNL     1      21.168  13.343  29.260  1.00  0.00     0.000 C 
BRANCH  23  24
ATOM     24  C   UNL     1      21.241  14.876  29.091  1.00  0.00    -0.000 C 
BRANCH  24  25
ATOM     25  C   UNL     1      20.055  15.597  29.758  1.00  0.00    -0.000 C 
BRANCH  25  26
ATOM     26  C   UNL     1      20.016  17.107  29.442  1.00  0.00    -0.000 C 
BRANCH  26  27
ATOM     27  C   UNL     1      20.522  18.011  30.589  1.00  0.00    -0.000 C 
BRANCH  27  28
ATOM     28  C   UNL     1      21.688  18.941  30.201  1.00  0.00    -0.000 C 
BRANCH  28  29
ATOM     29  C   UNL     1      22.903  18.211  29.595  1.00  0.00    -0.000 C 
BRANCH  29  30
ATOM     30  C   UNL     1      23.845  17.658  30.679  1.00  0.00    -0.000 C 
BRANCH  30  31
ATOM     31  C   UNL     1      24.389  16.264  30.336  1.00  0.00    -0.003 C 
ATOM     32  C   UNL     1      24.817  16.133  28.877  1.00  0.00     0.004 C 
ENDBRANCH  30  31
ENDBRANCH  29  30
ENDBRANCH  28  29
ENDBRANCH  27  28
ENDBRANCH  26  27
ENDBRANCH  25  26
ENDBRANCH  24  25
ENDBRANCH  23  24
ENDBRANCH  22  23
ENDBRANCH  21  22
ENDBRANCH  20  21
ENDBRANCH  19  20
ENDBRANCH  18  19
ENDBRANCH   1  18
TORSDOF 28
ENDMDL
MODEL 7
REMARK VINA RESULT:    -2.822      1.472      2.510
REMARK INTER + INTRA:         -12.160
REMARK INTER:                  -8.962
REMARK INTRA:                  -3.198
REMARK UNBOUND:                -4.718
REMARK SMILES CCCCCCCCCCCCCCCCCCCCCCCCCCCCCC(=O)[O-]
REMARK SMILES IDX 16 1 17 2 18 3 19 4 20 5 21 6 22 7 23 8 24 9 25 10 26 11
REMARK SMILES IDX 27 12 28 13 29 14 30 15 31 16 32 17 15 18 14 19 13 20 12 21
REMARK SMILES IDX 11 22 10 23 9 24 8 25 7 26 6 27 5 28 4 29 3 30 2 31 1 32
REMARK H PARENT
REMARK Flexibility Score: inf
ROOT
ATOM      1  C   UNL     1      21.989  10.081  35.759  1.00  0.00     0.000 C 
ENDROOT
BRANCH   1   2
ATOM      2  C   UNL     1      20.895   9.029  35.487  1.00  0.00     0.000 C 
BRANCH   2   3
ATOM      3  C   UNL     1      19.706   9.138  36.454  1.00  0.00     0.000 C 
BRANCH   3   4
ATOM      4  C   UNL     1      19.302   7.777  37.051  1.00  0.00     0.000 C 
BRANCH   4   5
ATOM      5  C   UNL     1      19.459   6.572  36.103  1.00  0.00     0.000 C 
BRANCH   5   6
ATOM      6  C   UNL     1      18.152   6.071  35.457  1.00  0.00     0.000 C 
BRANCH   6   7
ATOM      7  C   UNL     1      18.129   6.121  33.918  1.00  0.00     0.000 C 
BRANCH   7   8
ATOM      8  C   UNL     1      17.910   7.540  33.369  1.00  0.00     0.000 C 
BRANCH   8   9
ATOM      9  C   UNL     1      19.152   8.038  32.621  1.00  0.00     0.000 C 
BRANCH   9  10
ATOM     10  C   UNL     1      18.885   8.146  31.113  1.00  0.00     0.000 C 
BRANCH  10  11
ATOM     11  C   UNL     1      19.997   8.901  30.363  1.00  0.00     0.000 C 
BRANCH  11  12
ATOM     12  C   UNL     1      20.429   8.190  29.071  1.00  0.00     0.000 C 
BRANCH  12  13
ATOM     13  C   UNL     1      19.999   6.718  29.078  1.00  0.00     0.006 C 
BRANCH  13  14
ATOM     14  C   UNL     1      21.206   5.794  28.898  1.00  0.00     0.053 C 
BRANCH  14  15
ATOM     15  C   UNL     1      21.099   4.605  29.798  1.00  0.00     0.041 C 
ATOM     16  O   UNL     1      20.270   3.690  29.545  1.00  0.00    -0.550 OA
ATOM     17  O   UNL     1      21.946   4.486  30.896  1.00  0.00    -0.550 OA
ENDBRANCH  14  15
ENDBRANCH  13  14
ENDBRANCH  12  13
ENDBRANCH  11  12
ENDBRANCH  10  11
ENDBRANCH   9  10
ENDBRANCH   8   9
ENDBRANCH   7   8
ENDBRANCH   6   7
ENDBRANCH   5   6
ENDBRANCH   4   5
ENDBRANCH   3   4
ENDBRANCH   2   3
ENDBRANCH   1   2
BRANCH   1  18
ATOM     18  C   UNL     1      22.068  11.240  34.738  1.00  0.00     0.000 C 
BRANCH  18  19
ATOM     19  C   UNL     1      21.990  12.647  35.358  1.00  0.00     0.000 C 
BRANCH  19  20
ATOM     20  C   UNL     1      20.822  13.474  34.793  1.00  0.00     0.000 C 
BRANCH  20  21
ATOM     21  C   UNL     1      19.449  12.913  35.208  1.00  0.00     0.000 C 
BRANCH  21  22
ATOM     22  C   UNL     1      18.849  11.873  34.230  1.00  0.00     0.000 C 
BRANCH  22  23
ATOM     23  C   UNL     1      18.311  12.446  32.898  1.00  0.00     0.000 C 
BRANCH  23  24
ATOM     24  C   UNL     1      19.390  13.039  31.966  1.00  0.00    -0.000 C 
BRANCH  24  25
ATOM     25  C   UNL     1      20.348  11.963  31.422  1.00  0.00    -0.000 C 
BRANCH  25  26
ATOM     26  C   UNL     1      21.809  12.451  31.334  1.00  0.00    -0.000 C 
BRANCH  26  27
ATOM     27  C   UNL     1      22.283  12.792  29.903  1.00  0.00    -0.000 C 
BRANCH  27  28
ATOM     28  C   UNL     1      22.169  14.283  29.531  1.00  0.00    -0.000 C 
BRANCH  28  29
ATOM     29  C   UNL     1      21.726  15.192  30.693  1.00  0.00    -0.000 C 
BRANCH  29  30
ATOM     30  C   UNL     1      21.420  16.625  30.222  1.00  0.00    -0.000 C 
BRANCH  30  31
ATOM     31  C   UNL     1      22.687  17.409  29.849  1.00  0.00    -0.003 C 
ATOM     32  C   UNL     1      23.410  17.986  31.063  1.00  0.00     0.004 C 
ENDBRANCH  30  31
ENDBRANCH  29  30
ENDBRANCH  28  29
ENDBRANCH  27  28
ENDBRANCH  26  27
ENDBRANCH  25  26
ENDBRANCH  24  25
ENDBRANCH  23  24
ENDBRANCH  22  23
ENDBRANCH  21  22
ENDBRANCH  20  21
ENDBRANCH  19  20
ENDBRANCH  18  19
ENDBRANCH   1  18
TORSDOF 28
ENDMDL
MODEL 8
REMARK VINA RESULT:    -2.808      3.327      8.029
REMARK INTER + INTRA:         -12.122
REMARK INTER:                  -7.973
REMARK INTRA:                  -4.149
REMARK UNBOUND:                -4.718
REMARK SMILES CCCCCCCCCCCCCCCCCCCCCCCCCCCCCC(=O)[O-]
REMARK SMILES IDX 16 1 17 2 18 3 19 4 20 5 21 6 22 7 23 8 24 9 25 10 26 11
REMARK SMILES IDX 27 12 28 13 29 14 30 15 31 16 32 17 15 18 14 19 13 20 12 21
REMARK SMILES IDX 11 22 10 23 9 24 8 25 7 26 6 27 5 28 4 29 3 30 2 31 1 32
REMARK H PARENT
REMARK Flexibility Score: inf
ROOT
ATOM      1  C   UNL     1      19.695  10.488  35.693  1.00  0.00     0.000 C 
ENDROOT
BRANCH   1   2
ATOM      2  C   UNL     1      19.328  11.809  36.399  1.00  0.00     0.000 C 
BRANCH   2   3
ATOM      3  C   UNL     1      18.625  12.810  35.469  1.00  0.00     0.000 C 
BRANCH   3   4
ATOM      4  C   UNL     1      19.615  13.603  34.595  1.00  0.00     0.000 C 
BRANCH   4   5
ATOM      5  C   UNL     1      19.456  13.400  33.076  1.00  0.00     0.000 C 
BRANCH   5   6
ATOM      6  C   UNL     1      18.201  12.612  32.648  1.00  0.00     0.000 C 
BRANCH   6   7
ATOM      7  C   UNL     1      17.935  12.591  31.131  1.00  0.00     0.000 C 
BRANCH   7   8
ATOM      8  C   UNL     1      18.424  13.863  30.421  1.00  0.00     0.000 C 
BRANCH   8   9
ATOM      9  C   UNL     1      19.643  13.568  29.540  1.00  0.00     0.000 C 
BRANCH   9  10
ATOM     10  C   UNL     1      20.323  14.865  29.080  1.00  0.00     0.000 C 
BRANCH  10  11
ATOM     11  C   UNL     1      19.633  16.126  29.629  1.00  0.00     0.000 C 
BRANCH  11  12
ATOM     12  C   UNL     1      20.570  16.989  30.489  1.00  0.00     0.000 C 
BRANCH  12  13
ATOM     13  C   UNL     1      21.776  17.476  29.676  1.00  0.00     0.006 C 
BRANCH  13  14
ATOM     14  C   UNL     1      22.656  18.411  30.509  1.00  0.00     0.053 C 
BRANCH  14  15
ATOM     15  C   UNL     1      23.985  17.781  30.781  1.00  0.00     0.041 C 
ATOM     16  O   UNL     1      24.832  18.373  31.502  1.00  0.00    -0.550 OA
ATOM     17  O   UNL     1      24.272  16.518  30.272  1.00  0.00    -0.550 OA
ENDBRANCH  14  15
ENDBRANCH  13  14
ENDBRANCH  12  13
ENDBRANCH  11  12
ENDBRANCH  10  11
ENDBRANCH   9  10
ENDBRANCH   8   9
ENDBRANCH   7   8
ENDBRANCH   6   7
ENDBRANCH   5   6
ENDBRANCH   4   5
ENDBRANCH   3   4
ENDBRANCH   2   3
ENDBRANCH   1   2
BRANCH   1  18
ATOM     18  C   UNL     1      21.174  10.054  35.821  1.00  0.00     0.000 C 
BRANCH  18  19
ATOM     19  C   UNL     1      22.196  11.172  35.549  1.00  0.00     0.000 C 
BRANCH  19  20
ATOM     20  C   UNL     1      22.875  11.026  34.176  1.00  0.00     0.000 C 
BRANCH  20  21
ATOM     21  C   UNL     1      22.012  11.586  33.030  1.00  0.00     0.000 C 
BRANCH  21  22
ATOM     22  C   UNL     1      21.197  10.525  32.252  1.00  0.00     0.000 C 
BRANCH  22  23
ATOM     23  C   UNL     1      21.194  10.683  30.714  1.00  0.00     0.000 C 
BRANCH  23  24
ATOM     24  C   UNL     1      20.046   9.948  29.990  1.00  0.00    -0.000 C 
BRANCH  24  25
ATOM     25  C   UNL     1      20.257   8.423  29.956  1.00  0.00    -0.000 C 
BRANCH  25  26
ATOM     26  C   UNL     1      18.964   7.632  30.244  1.00  0.00    -0.000 C 
BRANCH  26  27
ATOM     27  C   UNL     1      18.188   8.111  31.492  1.00  0.00    -0.000 C 
BRANCH  27  28
ATOM     28  C   UNL     1      18.399   7.242  32.747  1.00  0.00    -0.000 C 
BRANCH  28  29
ATOM     29  C   UNL     1      19.654   7.606  33.563  1.00  0.00    -0.000 C 
BRANCH  29  30
ATOM     30  C   UNL     1      20.171   6.415  34.390  1.00  0.00    -0.000 C 
BRANCH  30  31
ATOM     31  C   UNL     1      20.116   6.675  35.902  1.00  0.00    -0.003 C 
ATOM     32  C   UNL     1      18.693   6.700  36.451  1.00  0.00     0.004 C 
ENDBRANCH  30  31
ENDBRANCH  29  30
ENDBRANCH  28  29
ENDBRANCH  27  28
ENDBRANCH  26  27
ENDBRANCH  25  26
ENDBRANCH  24  25
ENDBRANCH  23  24
ENDBRANCH  22  23
ENDBRANCH  21  22
ENDBRANCH  20  21
ENDBRANCH  19  20
ENDBRANCH  18  19
ENDBRANCH   1  18
TORSDOF 28
ENDMDL
MODEL 9
REMARK VINA RESULT:    -2.806      2.646      4.473
REMARK INTER + INTRA:         -12.119
REMARK INTER:                  -8.475
REMARK INTRA:                  -3.644
REMARK UNBOUND:                -4.718
REMARK SMILES CCCCCCCCCCCCCCCCCCCCCCCCCCCCCC(=O)[O-]
REMARK SMILES IDX 16 1 17 2 18 3 19 4 20 5 21 6 22 7 23 8 24 9 25 10 26 11
REMARK SMILES IDX 27 12 28 13 29 14 30 15 31 16 32 17 15 18 14 19 13 20 12 21
REMARK SMILES IDX 11 22 10 23 9 24 8 25 7 26 6 27 5 28 4 29 3 30 2 31 1 32
REMARK H PARENT
REMARK Flexibility Score: inf
ROOT
ATOM      1  C   UNL     1      21.535  11.423  35.201  1.00  0.00     0.000 C 
ENDROOT
BRANCH   1   2
ATOM      2  C   UNL     1      20.784  12.759  35.371  1.00  0.00     0.000 C 
BRANCH   2   3
ATOM      3  C   UNL     1      19.524  12.631  36.241  1.00  0.00     0.000 C 
BRANCH   3   4
ATOM      4  C   UNL     1      18.231  12.939  35.460  1.00  0.00     0.000 C 
BRANCH   4   5
ATOM      5  C   UNL     1      17.896  11.945  34.332  1.00  0.00     0.000 C 
BRANCH   5   6
ATOM      6  C   UNL     1      18.168  12.459  32.904  1.00  0.00     0.000 C 
BRANCH   6   7
ATOM      7  C   UNL     1      17.875  11.443  31.783  1.00  0.00     0.000 C 
BRANCH   7   8
ATOM      8  C   UNL     1      18.200   9.997  32.188  1.00  0.00     0.000 C 
BRANCH   8   9
ATOM      9  C   UNL     1      19.153   9.344  31.179  1.00  0.00     0.000 C 
BRANCH   9  10
ATOM     10  C   UNL     1      20.072   8.323  31.865  1.00  0.00     0.000 C 
BRANCH  10  11
ATOM     11  C   UNL     1      19.744   6.871  31.475  1.00  0.00     0.000 C 
BRANCH  11  12
ATOM     12  C   UNL     1      19.482   5.973  32.695  1.00  0.00     0.000 C 
BRANCH  12  13
ATOM     13  C   UNL     1      19.012   6.798  33.899  1.00  0.00     0.006 C 
BRANCH  13  14
ATOM     14  C   UNL     1      20.154   7.016  34.893  1.00  0.00     0.053 C 
BRANCH  14  15
ATOM     15  C   UNL     1      19.619   7.419  36.231  1.00  0.00     0.041 C 
ATOM     16  O   UNL     1      19.712   8.615  36.617  1.00  0.00    -0.550 OA
ATOM     17  O   UNL     1      18.978   6.481  37.034  1.00  0.00    -0.550 OA
ENDBRANCH  14  15
ENDBRANCH  13  14
ENDBRANCH  12  13
ENDBRANCH  11  12
ENDBRANCH  10  11
ENDBRANCH   9  10
ENDBRANCH   8   9
ENDBRANCH   7   8
ENDBRANCH   6   7
ENDBRANCH   5   6
ENDBRANCH   4   5
ENDBRANCH   3   4
ENDBRANCH   2   3
ENDBRANCH   1   2
BRANCH   1  18
ATOM     18  C   UNL     1      21.498  10.815  33.780  1.00  0.00     0.000 C 
BRANCH  18  19
ATOM     19  C   UNL     1      22.374  11.546  32.747  1.00  0.00     0.000 C 
BRANCH  19  20
ATOM     20  C   UNL     1      21.557  12.079  31.557  1.00  0.00     0.000 C 
BRANCH  20  21
ATOM     21  C   UNL     1      21.891  11.351  30.241  1.00  0.00     0.000 C 
BRANCH  21  22
ATOM     22  C   UNL     1      21.517  12.129  28.956  1.00  0.00     0.000 C 
BRANCH  22  23
ATOM     23  C   UNL     1      21.918  13.623  28.942  1.00  0.00     0.000 C 
BRANCH  23  24
ATOM     24  C   UNL     1      23.409  13.895  29.236  1.00  0.00    -0.000 C 
BRANCH  24  25
ATOM     25  C   UNL     1      23.639  15.283  29.862  1.00  0.00    -0.000 C 
BRANCH  25  26
ATOM     26  C   UNL     1      22.414  16.212  29.727  1.00  0.00    -0.000 C 
BRANCH  26  27
ATOM     27  C   UNL     1      21.854  16.729  31.071  1.00  0.00    -0.000 C 
BRANCH  27  28
ATOM     28  C   UNL     1      21.735  18.262  31.166  1.00  0.00    -0.000 C 
BRANCH  28  29
ATOM     29  C   UNL     1      21.652  18.975  29.802  1.00  0.00    -0.000 C 
BRANCH  29  30
ATOM     30  C   UNL     1      20.208  19.370  29.444  1.00  0.00    -0.000 C 
BRANCH  30  31
ATOM     31  C   UNL     1      19.170  18.740  30.383  1.00  0.00    -0.003 C 
ATOM     32  C   UNL     1      18.453  17.544  29.762  1.00  0.00     0.004 C 
ENDBRANCH  30  31
ENDBRANCH  29  30
ENDBRANCH  28  29
ENDBRANCH  27  28
ENDBRANCH  26  27
ENDBRANCH  25  26
ENDBRANCH  24  25
ENDBRANCH  23  24
ENDBRANCH  22  23
ENDBRANCH  21  22
ENDBRANCH  20  21
ENDBRANCH  19  20
ENDBRANCH  18  19
ENDBRANCH   1  18
TORSDOF 28
ENDMDL
