MODEL 1
REMARK VINA RESULT:    -5.100      0.000      0.000
REMARK INTER + INTRA:         -10.547
REMARK INTER:                  -9.273
REMARK INTRA:                  -1.274
REMARK UNBOUND:                -1.274
REMARK SMILES CCCCCCCCCCCCCCCC(=O)[O-]
REMARK SMILES IDX 9 1 10 2 11 3 12 4 13 5 14 6 15 7 16 8 17 9 18 10 8 11 7 12
REMARK SMILES IDX 6 13 5 14 4 15 3 16 2 17 1 18
REMARK H PARENT
REMARK Flexibility Score: inf
ROOT
ATOM      1  C   UNL     1       6.088  42.077  44.957  1.00  0.00     0.000 C 
ENDROOT
BRANCH   1   2
ATOM      2  C   UNL     1       5.086  42.533  46.034  1.00  0.00     0.000 C 
BRANCH   2   3
ATOM      3  C   UNL     1       4.973  41.544  47.208  1.00  0.00     0.000 C 
BRANCH   3   4
ATOM      4  C   UNL     1       5.225  42.205  48.576  1.00  0.00     0.000 C 
BRANCH   4   5
ATOM      5  C   UNL     1       6.466  41.699  49.333  1.00  0.00     0.000 C 
BRANCH   5   6
ATOM      6  C   UNL     1       7.267  40.654  48.543  1.00  0.00     0.006 C 
BRANCH   6   7
ATOM      7  C   UNL     1       8.729  40.625  48.999  1.00  0.00     0.053 C 
BRANCH   7   8
ATOM      8  C   UNL     1       9.523  39.682  48.151  1.00  0.00     0.041 C 
ATOM      9  O   UNL     1      10.423  40.121  47.386  1.00  0.00    -0.550 OA
ATOM     10  O   UNL     1       9.307  38.313  48.245  1.00  0.00    -0.550 OA
ENDBRANCH   7   8
ENDBRANCH   6   7
ENDBRANCH   5   6
ENDBRANCH   4   5
ENDBRANCH   3   4
ENDBRANCH   2   3
ENDBRANCH   1   2
BRANCH   1  11
ATOM     11  C   UNL     1       6.047  42.879  43.644  1.00  0.00     0.000 C 
BRANCH  11  12
ATOM     12  C   UNL     1       6.754  44.240  43.751  1.00  0.00    -0.000 C 
BRANCH  12  13
ATOM     13  C   UNL     1       7.413  44.679  42.430  1.00  0.00    -0.000 C 
BRANCH  13  14
ATOM     14  C   UNL     1       7.833  43.526  41.499  1.00  0.00    -0.000 C 
BRANCH  14  15
ATOM     15  C   UNL     1       9.358  43.327  41.441  1.00  0.00    -0.000 C 
BRANCH  15  16
ATOM     16  C   UNL     1       9.760  41.845  41.522  1.00  0.00    -0.000 C 
BRANCH  16  17
ATOM     17  C   UNL     1       8.687  40.978  42.195  1.00  0.00    -0.003 C 
ATOM     18  C   UNL     1       9.263  40.218  43.387  1.00  0.00     0.004 C 
ENDBRANCH  16  17
ENDBRANCH  15  16
ENDBRANCH  14  15
ENDBRANCH  13  14
ENDBRANCH  12  13
ENDBRANCH  11  12
ENDBRANCH   1  11
TORSDOF 14
ENDMDL
MODEL 2
REMARK VINA RESULT:    -4.914      1.892      3.492
REMARK INTER + INTRA:         -10.210
REMARK INTER:                  -9.374
REMARK INTRA:                  -0.836
REMARK UNBOUND:                -1.274
REMARK SMILES CCCCCCCCCCCCCCCC(=O)[O-]
REMARK SMILES IDX 9 1 10 2 11 3 12 4 13 5 14 6 15 7 16 8 17 9 18 10 8 11 7 12
REMARK SMILES IDX 6 13 5 14 4 15 3 16 2 17 1 18
REMARK H PARENT
REMARK Flexibility Score: inf
ROOT
ATOM      1  C   UNL     1       4.846  42.320  46.544  1.00  0.00     0.000 C 
ENDROOT
BRANCH   1   2
ATOM      2  C   UNL     1       5.227  41.878  47.969  1.00  0.00     0.000 C 
BRANCH   2   3
ATOM      3  C   UNL     1       6.280  40.755  47.988  1.00  0.00     0.000 C 
BRANCH   3   4
ATOM      4  C   UNL     1       7.414  41.012  48.997  1.00  0.00     0.000 C 
BRANCH   4   5
ATOM      5  C   UNL     1       8.783  40.422  48.614  1.00  0.00     0.000 C 
BRANCH   5   6
ATOM      6  C   UNL     1       8.794  39.789  47.214  1.00  0.00     0.006 C 
BRANCH   6   7
ATOM      7  C   UNL     1      10.119  39.069  46.949  1.00  0.00     0.053 C 
BRANCH   7   8
ATOM      8  C   UNL     1      10.979  39.877  46.028  1.00  0.00     0.041 C 
ATOM      9  O   UNL     1      11.684  40.817  46.482  1.00  0.00    -0.550 OA
ATOM     10  O   UNL     1      11.043  39.558  44.678  1.00  0.00    -0.550 OA
ENDBRANCH   7   8
ENDBRANCH   6   7
ENDBRANCH   5   6
ENDBRANCH   4   5
ENDBRANCH   3   4
ENDBRANCH   2   3
ENDBRANCH   1   2
BRANCH   1  11
ATOM     11  C   UNL     1       5.982  42.240  45.508  1.00  0.00     0.000 C 
BRANCH  11  12
ATOM     12  C   UNL     1       5.522  42.600  44.086  1.00  0.00    -0.000 C 
BRANCH  12  13
ATOM     13  C   UNL     1       6.681  43.041  43.174  1.00  0.00    -0.000 C 
BRANCH  13  14
ATOM     14  C   UNL     1       7.103  44.514  43.324  1.00  0.00    -0.000 C 
BRANCH  14  15
ATOM     15  C   UNL     1       8.146  44.951  42.281  1.00  0.00    -0.000 C 
BRANCH  15  16
ATOM     16  C   UNL     1       7.533  45.804  41.158  1.00  0.00    -0.000 C 
BRANCH  16  17
ATOM     17  C   UNL     1       7.931  47.284  41.257  1.00  0.00    -0.003 C 
ATOM     18  C   UNL     1       6.817  48.111  41.891  1.00  0.00     0.004 C 
ENDBRANCH  16  17
ENDBRANCH  15  16
ENDBRANCH  14  15
ENDBRANCH  13  14
ENDBRANCH  12  13
ENDBRANCH  11  12
ENDBRANCH   1  11
TORSDOF 14
ENDMDL
MODEL 3
REMARK VINA RESULT:    -4.872      3.674      7.332
REMARK INTER + INTRA:         -10.134
REMARK INTER:                  -9.425
REMARK INTRA:                  -0.709
REMARK UNBOUND:                -1.274
REMARK SMILES CCCCCCCCCCCCCCCC(=O)[O-]
REMARK SMILES IDX 9 1 10 2 11 3 12 4 13 5 14 6 15 7 16 8 17 9 18 10 8 11 7 12
REMARK SMILES IDX 6 13 5 14 4 15 3 16 2 17 1 18
REMARK H PARENT
REMARK Flexibility Score: inf
ROOT
ATOM      1  C   UNL     1       5.978  41.843  46.047  1.00  0.00     0.000 C 
ENDROOT
BRANCH   1   2
ATOM      2  C   UNL     1       5.306  42.554  44.858  1.00  0.00     0.000 C 
BRANCH   2   3
ATOM      3  C   UNL     1       6.238  43.555  44.152  1.00  0.00     0.000 C 
BRANCH   3   4
ATOM      4  C   UNL     1       7.026  42.925  42.989  1.00  0.00     0.000 C 
BRANCH   4   5
ATOM      5  C   UNL     1       7.477  43.905  41.892  1.00  0.00     0.000 C 
BRANCH   5   6
ATOM      6  C   UNL     1       7.467  45.370  42.353  1.00  0.00     0.006 C 
BRANCH   6   7
ATOM      7  C   UNL     1       7.292  46.319  41.164  1.00  0.00     0.053 C 
BRANCH   7   8
ATOM      8  C   UNL     1       8.614  46.611  40.528  1.00  0.00     0.041 C 
ATOM      9  O   UNL     1       9.649  46.719  41.238  1.00  0.00    -0.550 OA
ATOM     10  O   UNL     1       8.714  46.711  39.146  1.00  0.00    -0.550 OA
ENDBRANCH   7   8
ENDBRANCH   6   7
ENDBRANCH   5   6
ENDBRANCH   4   5
ENDBRANCH   3   4
ENDBRANCH   2   3
ENDBRANCH   1   2
BRANCH   1  11
ATOM     11  C   UNL     1       5.191  41.896  47.370  1.00  0.00     0.000 C 
BRANCH  11  12
ATOM     12  C   UNL     1       6.035  41.477  48.585  1.00  0.00    -0.000 C 
BRANCH  12  13
ATOM     13  C   UNL     1       6.907  40.238  48.311  1.00  0.00    -0.000 C 
BRANCH  13  14
ATOM     14  C   UNL     1       8.405  40.416  48.622  1.00  0.00    -0.000 C 
BRANCH  14  15
ATOM     15  C   UNL     1       9.317  39.675  47.629  1.00  0.00    -0.000 C 
BRANCH  15  16
ATOM     16  C   UNL     1      10.749  40.233  47.617  1.00  0.00    -0.000 C 
BRANCH  16  17
ATOM     17  C   UNL     1      11.348  40.354  49.026  1.00  0.00    -0.003 C 
ATOM     18  C   UNL     1      11.914  39.018  49.498  1.00  0.00     0.004 C 
ENDBRANCH  16  17
ENDBRANCH  15  16
ENDBRANCH  14  15
ENDBRANCH  13  14
ENDBRANCH  12  13
ENDBRANCH  11  12
ENDBRANCH   1  11
TORSDOF 14
ENDMDL
MODEL 4
REMARK VINA RESULT:    -4.868      3.181      6.321
REMARK INTER + INTRA:         -10.126
REMARK INTER:                  -9.048
REMARK INTRA:                  -1.079
REMARK UNBOUND:                -1.274
REMARK SMILES CCCCCCCCCCCCCCCC(=O)[O-]
REMARK SMILES IDX 9 1 10 2 11 3 12 4 13 5 14 6 15 7 16 8 17 9 18 10 8 11 7 12
REMARK SMILES IDX 6 13 5 14 4 15 3 16 2 17 1 18
REMARK H PARENT
REMARK Flexibility Score: inf
ROOT
ATOM      1  C   UNL     1       6.026  41.120  48.864  1.00  0.00     0.000 C 
ENDROOT
BRANCH   1   2
ATOM      2  C   UNL     1       5.499  42.289  48.011  1.00  0.00     0.000 C 
BRANCH   2   3
ATOM      3  C   UNL     1       4.807  41.825  46.717  1.00  0.00     0.000 C 
BRANCH   3   4
ATOM      4  C   UNL     1       5.268  42.608  45.474  1.00  0.00     0.000 C 
BRANCH   4   5
ATOM      5  C   UNL     1       5.922  41.762  44.368  1.00  0.00     0.000 C 
BRANCH   5   6
ATOM      6  C   UNL     1       7.096  42.476  43.680  1.00  0.00     0.006 C 
BRANCH   6   7
ATOM      7  C   UNL     1       6.882  43.992  43.664  1.00  0.00     0.053 C 
BRANCH   7   8
ATOM      8  C   UNL     1       7.283  44.564  42.341  1.00  0.00     0.041 C 
ATOM      9  O   UNL     1       7.340  45.812  42.181  1.00  0.00    -0.550 OA
ATOM     10  O   UNL     1       7.646  43.719  41.300  1.00  0.00    -0.550 OA
ENDBRANCH   7   8
ENDBRANCH   6   7
ENDBRANCH   5   6
ENDBRANCH   4   5
ENDBRANCH   3   4
ENDBRANCH   2   3
ENDBRANCH   1   2
BRANCH   1  11
ATOM     11  C   UNL     1       6.696  39.982  48.072  1.00  0.00     0.000 C 
BRANCH  11  12
ATOM     12  C   UNL     1       8.165  40.280  47.724  1.00  0.00    -0.000 C 
BRANCH  12  13
ATOM     13  C   UNL     1       9.060  40.414  48.970  1.00  0.00    -0.000 C 
BRANCH  13  14
ATOM     14  C   UNL     1      10.375  39.614  48.914  1.00  0.00    -0.000 C 
BRANCH  14  15
ATOM     15  C   UNL     1      11.622  40.491  49.122  1.00  0.00    -0.000 C 
BRANCH  15  16
ATOM     16  C   UNL     1      12.640  40.347  47.980  1.00  0.00    -0.000 C 
BRANCH  16  17
ATOM     17  C   UNL     1      12.089  40.836  46.632  1.00  0.00    -0.003 C 
ATOM     18  C   UNL     1      12.955  41.955  46.060  1.00  0.00     0.004 C 
ENDBRANCH  16  17
ENDBRANCH  15  16
ENDBRANCH  14  15
ENDBRANCH  13  14
ENDBRANCH  12  13
ENDBRANCH  11  12
ENDBRANCH   1  11
TORSDOF 14
ENDMDL
MODEL 5
REMARK VINA RESULT:    -4.849      1.809      3.497
REMARK INTER + INTRA:         -10.092
REMARK INTER:                  -9.379
REMARK INTRA:                  -0.713
REMARK UNBOUND:                -1.274
REMARK SMILES CCCCCCCCCCCCCCCC(=O)[O-]
REMARK SMILES IDX 9 1 10 2 11 3 12 4 13 5 14 6 15 7 16 8 17 9 18 10 8 11 7 12
REMARK SMILES IDX 6 13 5 14 4 15 3 16 2 17 1 18
REMARK H PARENT
REMARK Flexibility Score: inf
ROOT
ATOM      1  C   UNL     1       5.129  42.047  47.206  1.00  0.00     0.000 C 
ENDROOT
BRANCH   1   2
ATOM      2  C   UNL     1       5.615  41.227  48.416  1.00  0.00     0.000 C 
BRANCH   2   3
ATOM      3  C   UNL     1       7.128  40.946  48.382  1.00  0.00     0.000 C 
BRANCH   3   4
ATOM      4  C   UNL     1       7.459  39.443  48.330  1.00  0.00     0.000 C 
BRANCH   4   5
ATOM      5  C   UNL     1       8.788  39.085  47.641  1.00  0.00     0.000 C 
BRANCH   5   6
ATOM      6  C   UNL     1       9.899  40.112  47.908  1.00  0.00     0.006 C 
BRANCH   6   7
ATOM      7  C   UNL     1      10.580  39.845  49.253  1.00  0.00     0.053 C 
BRANCH   7   8
ATOM      8  C   UNL     1      11.988  39.385  49.045  1.00  0.00     0.041 C 
ATOM      9  O   UNL     1      12.731  39.973  48.215  1.00  0.00    -0.550 OA
ATOM     10  O   UNL     1      12.497  38.339  49.805  1.00  0.00    -0.550 OA
ENDBRANCH   7   8
ENDBRANCH   6   7
ENDBRANCH   5   6
ENDBRANCH   4   5
ENDBRANCH   3   4
ENDBRANCH   2   3
ENDBRANCH   1   2
BRANCH   1  11
ATOM     11  C   UNL     1       5.958  41.870  45.921  1.00  0.00     0.000 C 
BRANCH  11  12
ATOM     12  C   UNL     1       5.351  42.603  44.712  1.00  0.00    -0.000 C 
BRANCH  12  13
ATOM     13  C   UNL     1       6.361  43.518  43.996  1.00  0.00    -0.000 C 
BRANCH  13  14
ATOM     14  C   UNL     1       7.157  42.845  42.862  1.00  0.00    -0.000 C 
BRANCH  14  15
ATOM     15  C   UNL     1       7.689  43.849  41.824  1.00  0.00    -0.000 C 
BRANCH  15  16
ATOM     16  C   UNL     1       7.218  45.286  42.101  1.00  0.00    -0.000 C 
BRANCH  16  17
ATOM     17  C   UNL     1       7.735  46.288  41.059  1.00  0.00    -0.003 C 
ATOM     18  C   UNL     1       7.430  47.723  41.480  1.00  0.00     0.004 C 
ENDBRANCH  16  17
ENDBRANCH  15  16
ENDBRANCH  14  15
ENDBRANCH  13  14
ENDBRANCH  12  13
ENDBRANCH  11  12
ENDBRANCH   1  11
TORSDOF 14
ENDMDL
MODEL 6
REMARK VINA RESULT:    -4.826      2.894      5.852
REMARK INTER + INTRA:         -10.050
REMARK INTER:                  -8.360
REMARK INTRA:                  -1.690
REMARK UNBOUND:                -1.274
REMARK SMILES CCCCCCCCCCCCCCCC(=O)[O-]
REMARK SMILES IDX 9 1 10 2 11 3 12 4 13 5 14 6 15 7 16 8 17 9 18 10 8 11 7 12
REMARK SMILES IDX 6 13 5 14 4 15 3 16 2 17 1 18
REMARK H PARENT
REMARK Flexibility Score: inf
ROOT
ATOM      1  C   UNL     1       8.201  40.626  48.644  1.00  0.00     0.000 C 
ENDROOT
BRANCH   1   2
ATOM      2  C   UNL     1       7.272  39.463  48.250  1.00  0.00     0.000 C 
BRANCH   2   3
ATOM      3  C   UNL     1       5.848  39.925  47.894  1.00  0.00     0.000 C 
BRANCH   3   4
ATOM      4  C   UNL     1       5.634  41.434  48.114  1.00  0.00     0.000 C 
BRANCH   4   5
ATOM      5  C   UNL     1       5.124  42.212  46.888  1.00  0.00     0.000 C 
BRANCH   5   6
ATOM      6  C   UNL     1       5.932  41.924  45.614  1.00  0.00     0.006 C 
BRANCH   6   7
ATOM      7  C   UNL     1       5.415  42.755  44.437  1.00  0.00     0.053 C 
BRANCH   7   8
ATOM      8  C   UNL     1       6.557  43.297  43.636  1.00  0.00     0.041 C 
ATOM      9  O   UNL     1       7.137  42.570  42.786  1.00  0.00    -0.550 OA
ATOM     10  O   UNL     1       6.948  44.621  43.790  1.00  0.00    -0.550 OA
ENDBRANCH   7   8
ENDBRANCH   6   7
ENDBRANCH   5   6
ENDBRANCH   4   5
ENDBRANCH   3   4
ENDBRANCH   2   3
ENDBRANCH   1   2
BRANCH   1  11
ATOM     11  C   UNL     1       9.642  40.219  49.004  1.00  0.00     0.000 C 
BRANCH  11  12
ATOM     12  C   UNL     1      10.013  38.817  48.493  1.00  0.00    -0.000 C 
BRANCH  12  13
ATOM     13  C   UNL     1      11.531  38.556  48.507  1.00  0.00    -0.000 C 
BRANCH  13  14
ATOM     14  C   UNL     1      12.225  38.683  47.138  1.00  0.00    -0.000 C 
BRANCH  14  15
ATOM     15  C   UNL     1      11.527  37.870  46.033  1.00  0.00    -0.000 C 
BRANCH  15  16
ATOM     16  C   UNL     1      11.278  38.699  44.763  1.00  0.00    -0.000 C 
BRANCH  16  17
ATOM     17  C   UNL     1      10.472  39.976  45.040  1.00  0.00    -0.003 C 
ATOM     18  C   UNL     1       8.972  39.710  44.947  1.00  0.00     0.004 C 
ENDBRANCH  16  17
ENDBRANCH  15  16
ENDBRANCH  14  15
ENDBRANCH  13  14
ENDBRANCH  12  13
ENDBRANCH  11  12
ENDBRANCH   1  11
TORSDOF 14
ENDMDL
MODEL 7
REMARK VINA RESULT:    -4.786      1.849      5.798
REMARK INTER + INTRA:          -9.976
REMARK INTER:                  -8.608
REMARK INTRA:                  -1.368
REMARK UNBOUND:                -1.274
REMARK SMILES CCCCCCCCCCCCCCCC(=O)[O-]
REMARK SMILES IDX 9 1 10 2 11 3 12 4 13 5 14 6 15 7 16 8 17 9 18 10 8 11 7 12
REMARK SMILES IDX 6 13 5 14 4 15 3 16 2 17 1 18
REMARK H PARENT
REMARK Flexibility Score: inf
ROOT
ATOM      1  C   UNL     1       5.558  42.400  45.926  1.00  0.00     0.000 C 
ENDROOT
BRANCH   1   2
ATOM      2  C   UNL     1       5.533  42.588  44.397  1.00  0.00     0.000 C 
BRANCH   2   3
ATOM      3  C   UNL     1       6.479  43.701  43.912  1.00  0.00     0.000 C 
BRANCH   3   4
ATOM      4  C   UNL     1       7.289  43.298  42.666  1.00  0.00     0.000 C 
BRANCH   4   5
ATOM      5  C   UNL     1       7.392  41.784  42.407  1.00  0.00     0.000 C 
BRANCH   5   6
ATOM      6  C   UNL     1       8.782  41.213  42.724  1.00  0.00     0.006 C 
BRANCH   6   7
ATOM      7  C   UNL     1       8.727  40.276  43.934  1.00  0.00     0.053 C 
BRANCH   7   8
ATOM      8  C   UNL     1       9.879  39.321  43.909  1.00  0.00     0.041 C 
ATOM      9  O   UNL     1       9.759  38.171  44.408  1.00  0.00    -0.550 OA
ATOM     10  O   UNL     1      11.069  39.683  43.290  1.00  0.00    -0.550 OA
ENDBRANCH   7   8
ENDBRANCH   6   7
ENDBRANCH   5   6
ENDBRANCH   4   5
ENDBRANCH   3   4
ENDBRANCH   2   3
ENDBRANCH   1   2
BRANCH   1  11
ATOM     11  C   UNL     1       6.008  41.009  46.406  1.00  0.00     0.000 C 
BRANCH  11  12
ATOM     12  C   UNL     1       6.041  40.886  47.939  1.00  0.00    -0.000 C 
BRANCH  12  13
ATOM     13  C   UNL     1       7.466  40.716  48.496  1.00  0.00    -0.000 C 
BRANCH  13  14
ATOM     14  C   UNL     1       8.402  39.849  47.633  1.00  0.00    -0.000 C 
BRANCH  14  15
ATOM     15  C   UNL     1       9.726  39.509  48.339  1.00  0.00    -0.000 C 
BRANCH  15  16
ATOM     16  C   UNL     1       9.989  40.406  49.559  1.00  0.00    -0.000 C 
BRANCH  16  17
ATOM     17  C   UNL     1      11.462  40.825  49.678  1.00  0.00    -0.003 C 
ATOM     18  C   UNL     1      12.212  40.571  48.374  1.00  0.00     0.004 C 
ENDBRANCH  16  17
ENDBRANCH  15  16
ENDBRANCH  14  15
ENDBRANCH  13  14
ENDBRANCH  12  13
ENDBRANCH  11  12
ENDBRANCH   1  11
TORSDOF 14
ENDMDL
MODEL 8
REMARK VINA RESULT:    -4.776      2.062      3.310
REMARK INTER + INTRA:          -9.959
REMARK INTER:                  -9.270
REMARK INTRA:                  -0.688
REMARK UNBOUND:                -1.274
REMARK SMILES CCCCCCCCCCCCCCCC(=O)[O-]
REMARK SMILES IDX 9 1 10 2 11 3 12 4 13 5 14 6 15 7 16 8 17 9 18 10 8 11 7 12
REMARK SMILES IDX 6 13 5 14 4 15 3 16 2 17 1 18
REMARK H PARENT
REMARK Flexibility Score: inf
ROOT
ATOM      1  C   UNL     1       6.319  43.355  43.966  1.00  0.00     0.000 C 
ENDROOT
BRANCH   1   2
ATOM      2  C   UNL     1       5.278  42.549  44.765  1.00  0.00     0.000 C 
BRANCH   2   3
ATOM      3  C   UNL     1       5.862  41.906  46.035  1.00  0.00     0.000 C 
BRANCH   3   4
ATOM      4  C   UNL     1       5.102  42.303  47.314  1.00  0.00     0.000 C 
BRANCH   4   5
ATOM      5  C   UNL     1       5.603  41.641  48.610  1.00  0.00     0.000 C 
BRANCH   5   6
ATOM      6  C   UNL     1       6.577  40.482  48.355  1.00  0.00     0.006 C 
BRANCH   6   7
ATOM      7  C   UNL     1       7.976  40.815  48.883  1.00  0.00     0.053 C 
BRANCH   7   8
ATOM      8  C   UNL     1       9.021  40.110  48.076  1.00  0.00     0.041 C 
ATOM      9  O   UNL     1       8.754  39.694  46.918  1.00  0.00    -0.550 OA
ATOM     10  O   UNL     1      10.305  39.959  48.583  1.00  0.00    -0.550 OA
ENDBRANCH   7   8
ENDBRANCH   6   7
ENDBRANCH   5   6
ENDBRANCH   4   5
ENDBRANCH   3   4
ENDBRANCH   2   3
ENDBRANCH   1   2
BRANCH   1  11
ATOM     11  C   UNL     1       6.921  42.623  42.752  1.00  0.00     0.000 C 
BRANCH  11  12
ATOM     12  C   UNL     1       8.162  43.330  42.182  1.00  0.00    -0.000 C 
BRANCH  12  13
ATOM     13  C   UNL     1       7.809  44.507  41.255  1.00  0.00    -0.000 C 
BRANCH  13  14
ATOM     14  C   UNL     1       7.717  45.878  41.951  1.00  0.00    -0.000 C 
BRANCH  14  15
ATOM     15  C   UNL     1       7.434  47.031  40.971  1.00  0.00    -0.000 C 
BRANCH  15  16
ATOM     16  C   UNL     1       8.219  46.891  39.657  1.00  0.00    -0.000 C 
BRANCH  16  17
ATOM     17  C   UNL     1       9.669  47.384  39.779  1.00  0.00    -0.003 C 
ATOM     18  C   UNL     1      10.528  46.848  38.637  1.00  0.00     0.004 C 
ENDBRANCH  16  17
ENDBRANCH  15  16
ENDBRANCH  14  15
ENDBRANCH  13  14
ENDBRANCH  12  13
ENDBRANCH  11  12
ENDBRANCH   1  11
TORSDOF 14
ENDMDL
MODEL 9
REMARK VINA RESULT:    -4.764      2.687      6.215
REMARK INTER + INTRA:          -9.937
REMARK INTER:                  -8.524
REMARK INTRA:                  -1.413
REMARK UNBOUND:                -1.274
REMARK SMILES CCCCCCCCCCCCCCCC(=O)[O-]
REMARK SMILES IDX 9 1 10 2 11 3 12 4 13 5 14 6 15 7 16 8 17 9 18 10 8 11 7 12
REMARK SMILES IDX 6 13 5 14 4 15 3 16 2 17 1 18
REMARK H PARENT
REMARK Flexibility Score: inf
ROOT
ATOM      1  C   UNL     1       6.971  40.108  48.265  1.00  0.00     0.000 C 
ENDROOT
BRANCH   1   2
ATOM      2  C   UNL     1       6.283  41.393  48.763  1.00  0.00     0.000 C 
BRANCH   2   3
ATOM      3  C   UNL     1       5.212  41.917  47.790  1.00  0.00     0.000 C 
BRANCH   3   4
ATOM      4  C   UNL     1       5.555  41.642  46.314  1.00  0.00     0.000 C 
BRANCH   4   5
ATOM      5  C   UNL     1       5.283  42.808  45.346  1.00  0.00     0.000 C 
BRANCH   5   6
ATOM      6  C   UNL     1       5.808  42.547  43.927  1.00  0.00     0.006 C 
BRANCH   6   7
ATOM      7  C   UNL     1       6.920  41.494  43.939  1.00  0.00     0.053 C 
BRANCH   7   8
ATOM      8  C   UNL     1       7.807  41.656  42.745  1.00  0.00     0.041 C 
ATOM      9  O   UNL     1       7.363  41.423  41.589  1.00  0.00    -0.550 OA
ATOM     10  O   UNL     1       9.109  42.115  42.903  1.00  0.00    -0.550 OA
ENDBRANCH   7   8
ENDBRANCH   6   7
ENDBRANCH   5   6
ENDBRANCH   4   5
ENDBRANCH   3   4
ENDBRANCH   2   3
ENDBRANCH   1   2
BRANCH   1  11
ATOM     11  C   UNL     1       8.504  40.190  48.146  1.00  0.00     0.000 C 
BRANCH  11  12
ATOM     12  C   UNL     1       9.021  39.764  46.762  1.00  0.00    -0.000 C 
BRANCH  12  13
ATOM     13  C   UNL     1       9.719  38.392  46.779  1.00  0.00    -0.000 C 
BRANCH  13  14
ATOM     14  C   UNL     1      10.067  37.857  48.181  1.00  0.00    -0.000 C 
BRANCH  14  15
ATOM     15  C   UNL     1      11.528  37.389  48.299  1.00  0.00    -0.000 C 
BRANCH  15  16
ATOM     16  C   UNL     1      12.413  38.407  49.037  1.00  0.00    -0.000 C 
BRANCH  16  17
ATOM     17  C   UNL     1      13.084  39.407  48.084  1.00  0.00    -0.003 C 
ATOM     18  C   UNL     1      12.378  40.760  48.123  1.00  0.00     0.004 C 
ENDBRANCH  16  17
ENDBRANCH  15  16
ENDBRANCH  14  15
ENDBRANCH  13  14
ENDBRANCH  12  13
ENDBRANCH  11  12
ENDBRANCH   1  11
TORSDOF 14
ENDMDL
