MODEL 1
REMARK VINA RESULT:    -5.266      0.000      0.000
REMARK INTER + INTRA:          -6.312
REMARK INTER:                  -6.036
REMARK INTRA:                  -0.276
REMARK UNBOUND:                -0.276
REMARK SMILES O=C([O-])C=Cc1ccc(O)cc1
REMARK SMILES IDX 6 1 7 2 12 3 8 4 11 5 9 6 5 7 4 8 2 9 1 10 3 11 10 12
REMARK H PARENT 10 13
REMARK Flexibility Score: inf
ROOT
ATOM      1  C   UNL     1     -37.088  -6.674 -13.477  1.00  0.00    -0.025 A 
ATOM      2  C   UNL     1     -36.947  -8.049 -13.716  1.00  0.00     0.012 A 
ATOM      3  C   UNL     1     -38.377  -6.121 -13.379  1.00  0.00     0.012 A 
ATOM      4  C   UNL     1     -38.076  -8.870 -13.805  1.00  0.00     0.047 A 
ATOM      5  C   UNL     1     -39.504  -6.943 -13.468  1.00  0.00     0.047 A 
ATOM      6  C   UNL     1     -39.359  -8.318 -13.678  1.00  0.00     0.115 A 
ENDROOT
BRANCH   1   7
ATOM      7  C   UNL     1     -35.883  -5.820 -13.440  1.00  0.00     0.010 C 
ATOM      8  C   UNL     1     -35.248  -5.326 -14.515  1.00  0.00     0.025 C 
BRANCH   8   9
ATOM      9  C   UNL     1     -35.743  -5.385 -15.904  1.00  0.00     0.064 C 
ATOM     10  O   UNL     1     -35.154  -6.122 -16.736  1.00  0.00    -0.545 OA
ATOM     11  O   UNL     1     -36.799  -4.591 -16.332  1.00  0.00    -0.545 OA
ENDBRANCH   8   9
ENDBRANCH   1   7
BRANCH   6  12
ATOM     12  O   UNL     1     -40.491  -9.125 -13.762  1.00  0.00    -0.508 OA
ATOM     13  H   UNL     1     -41.402  -8.791 -13.470  1.00  0.00     0.293 HD
ENDBRANCH   6  12
TORSDOF 3
ENDMDL
MODEL 2
REMARK VINA RESULT:    -5.041      1.599      4.609
REMARK INTER + INTRA:          -6.054
REMARK INTER:                  -5.809
REMARK INTRA:                  -0.245
REMARK UNBOUND:                -0.276
REMARK SMILES O=C([O-])C=Cc1ccc(O)cc1
REMARK SMILES IDX 6 1 7 2 12 3 8 4 11 5 9 6 5 7 4 8 2 9 1 10 3 11 10 12
REMARK H PARENT 10 13
REMARK Flexibility Score: inf
ROOT
ATOM      1  C   UNL     1     -36.159  -6.759 -13.977  1.00  0.00    -0.025 A 
ATOM      2  C   UNL     1     -36.025  -6.611 -15.365  1.00  0.00     0.012 A 
ATOM      3  C   UNL     1     -35.912  -5.656 -13.140  1.00  0.00     0.012 A 
ATOM      4  C   UNL     1     -35.699  -5.367 -15.914  1.00  0.00     0.047 A 
ATOM      5  C   UNL     1     -35.587  -4.413 -13.691  1.00  0.00     0.047 A 
ATOM      6  C   UNL     1     -35.483  -4.263 -15.077  1.00  0.00     0.115 A 
ENDROOT
BRANCH   1   7
ATOM      7  C   UNL     1     -36.451  -8.095 -13.417  1.00  0.00     0.010 C 
ATOM      8  C   UNL     1     -37.674  -8.637 -13.298  1.00  0.00     0.025 C 
BRANCH   8   9
ATOM      9  C   UNL     1     -38.915  -8.085 -13.874  1.00  0.00     0.064 C 
ATOM     10  O   UNL     1     -39.195  -8.327 -15.076  1.00  0.00    -0.545 OA
ATOM     11  O   UNL     1     -39.744  -7.245 -13.141  1.00  0.00    -0.545 OA
ENDBRANCH   8   9
ENDBRANCH   1   7
BRANCH   6  12
ATOM     12  O   UNL     1     -35.160  -3.018 -15.613  1.00  0.00    -0.508 OA
ATOM     13  H   UNL     1     -34.859  -2.251 -15.023  1.00  0.00     0.293 HD
ENDBRANCH   6  12
TORSDOF 3
ENDMDL
MODEL 3
REMARK VINA RESULT:    -4.981      1.674      4.646
REMARK INTER + INTRA:          -5.985
REMARK INTER:                  -5.765
REMARK INTRA:                  -0.219
REMARK UNBOUND:                -0.276
REMARK SMILES O=C([O-])C=Cc1ccc(O)cc1
REMARK SMILES IDX 6 1 7 2 12 3 8 4 11 5 9 6 5 7 4 8 2 9 1 10 3 11 10 12
REMARK H PARENT 10 13
REMARK Flexibility Score: inf
ROOT
ATOM      1  C   UNL     1     -36.058  -6.695 -13.990  1.00  0.00    -0.025 A 
ATOM      2  C   UNL     1     -35.954  -5.585 -13.139  1.00  0.00     0.012 A 
ATOM      3  C   UNL     1     -35.927  -6.513 -15.378  1.00  0.00     0.012 A 
ATOM      4  C   UNL     1     -35.669  -4.319 -13.662  1.00  0.00     0.047 A 
ATOM      5  C   UNL     1     -35.643  -5.247 -15.898  1.00  0.00     0.047 A 
ATOM      6  C   UNL     1     -35.510  -4.148 -15.044  1.00  0.00     0.115 A 
ENDROOT
BRANCH   1   7
ATOM      7  C   UNL     1     -36.412  -8.012 -13.420  1.00  0.00     0.010 C 
ATOM      8  C   UNL     1     -37.643  -8.549 -13.411  1.00  0.00     0.025 C 
BRANCH   8   9
ATOM      9  C   UNL     1     -38.815  -8.016 -14.131  1.00  0.00     0.064 C 
ATOM     10  O   UNL     1     -39.009  -8.355 -15.327  1.00  0.00    -0.545 OA
ATOM     11  O   UNL     1     -39.669  -7.091 -13.542  1.00  0.00    -0.545 OA
ENDBRANCH   8   9
ENDBRANCH   1   7
BRANCH   6  12
ATOM     12  O   UNL     1     -35.224  -2.893 -15.576  1.00  0.00    -0.508 OA
ATOM     13  H   UNL     1     -34.468  -2.759 -16.238  1.00  0.00     0.293 HD
ENDBRANCH   6  12
TORSDOF 3
ENDMDL
MODEL 4
REMARK VINA RESULT:    -4.853      2.059      2.600
REMARK INTER + INTRA:          -5.838
REMARK INTER:                  -5.550
REMARK INTRA:                  -0.288
REMARK UNBOUND:                -0.276
REMARK SMILES O=C([O-])C=Cc1ccc(O)cc1
REMARK SMILES IDX 6 1 7 2 12 3 8 4 11 5 9 6 5 7 4 8 2 9 1 10 3 11 10 12
REMARK H PARENT 10 13
REMARK Flexibility Score: inf
ROOT
ATOM      1  C   UNL     1     -36.289  -6.412 -14.987  1.00  0.00    -0.025 A 
ATOM      2  C   UNL     1     -37.250  -6.229 -15.993  1.00  0.00     0.012 A 
ATOM      3  C   UNL     1     -36.526  -7.356 -13.972  1.00  0.00     0.012 A 
ATOM      4  C   UNL     1     -38.406  -7.015 -16.016  1.00  0.00     0.047 A 
ATOM      5  C   UNL     1     -37.683  -8.141 -13.997  1.00  0.00     0.047 A 
ATOM      6  C   UNL     1     -38.624  -7.976 -15.018  1.00  0.00     0.115 A 
ENDROOT
BRANCH   1   7
ATOM      7  C   UNL     1     -35.101  -5.533 -14.953  1.00  0.00     0.010 C 
ATOM      8  C   UNL     1     -35.042  -4.329 -14.363  1.00  0.00     0.025 C 
BRANCH   8   9
ATOM      9  C   UNL     1     -36.079  -3.755 -13.484  1.00  0.00     0.064 C 
ATOM     10  O   UNL     1     -36.123  -4.101 -12.276  1.00  0.00    -0.545 OA
ATOM     11  O   UNL     1     -37.053  -2.896 -13.978  1.00  0.00    -0.545 OA
ENDBRANCH   8   9
ENDBRANCH   1   7
BRANCH   6  12
ATOM     12  O   UNL     1     -39.771  -8.766 -15.032  1.00  0.00    -0.508 OA
ATOM     13  H   UNL     1     -40.243  -8.999 -15.898  1.00  0.00     0.293 HD
ENDBRANCH   6  12
TORSDOF 3
ENDMDL
MODEL 5
REMARK VINA RESULT:    -4.775      2.153      5.087
REMARK INTER + INTRA:          -5.748
REMARK INTER:                  -5.456
REMARK INTRA:                  -0.293
REMARK UNBOUND:                -0.276
REMARK SMILES O=C([O-])C=Cc1ccc(O)cc1
REMARK SMILES IDX 6 1 7 2 12 3 8 4 11 5 9 6 5 7 4 8 2 9 1 10 3 11 10 12
REMARK H PARENT 10 13
REMARK Flexibility Score: inf
ROOT
ATOM      1  C   UNL     1     -36.237  -5.270 -15.466  1.00  0.00    -0.025 A 
ATOM      2  C   UNL     1     -34.889  -5.023 -15.165  1.00  0.00     0.012 A 
ATOM      3  C   UNL     1     -36.625  -5.426 -16.809  1.00  0.00     0.012 A 
ATOM      4  C   UNL     1     -33.933  -4.985 -16.185  1.00  0.00     0.047 A 
ATOM      5  C   UNL     1     -35.668  -5.387 -17.827  1.00  0.00     0.047 A 
ATOM      6  C   UNL     1     -34.321  -5.170 -17.520  1.00  0.00     0.115 A 
ENDROOT
BRANCH   1   7
ATOM      7  C   UNL     1     -37.236  -5.252 -14.377  1.00  0.00     0.010 C 
ATOM      8  C   UNL     1     -37.676  -6.330 -13.710  1.00  0.00     0.025 C 
BRANCH   8   9
ATOM      9  C   UNL     1     -37.108  -7.689 -13.808  1.00  0.00     0.064 C 
ATOM     10  O   UNL     1     -36.256  -8.062 -12.961  1.00  0.00    -0.545 OA
ATOM     11  O   UNL     1     -37.439  -8.539 -14.856  1.00  0.00    -0.545 OA
ENDBRANCH   8   9
ENDBRANCH   1   7
BRANCH   6  12
ATOM     12  O   UNL     1     -33.378  -5.137 -18.544  1.00  0.00    -0.508 OA
ATOM     13  H   UNL     1     -32.461  -4.726 -18.407  1.00  0.00     0.293 HD
ENDBRANCH   6  12
TORSDOF 3
ENDMDL
MODEL 6
REMARK VINA RESULT:    -4.652      2.582      5.265
REMARK INTER + INTRA:          -5.607
REMARK INTER:                  -5.319
REMARK INTRA:                  -0.288
REMARK UNBOUND:                -0.276
REMARK SMILES O=C([O-])C=Cc1ccc(O)cc1
REMARK SMILES IDX 6 1 7 2 12 3 8 4 11 5 9 6 5 7 4 8 2 9 1 10 3 11 10 12
REMARK H PARENT 10 13
REMARK Flexibility Score: inf
ROOT
ATOM      1  C   UNL     1     -36.115  -6.140 -16.533  1.00  0.00    -0.025 A 
ATOM      2  C   UNL     1     -37.191  -5.490 -17.156  1.00  0.00     0.012 A 
ATOM      3  C   UNL     1     -34.802  -5.725 -16.819  1.00  0.00     0.012 A 
ATOM      4  C   UNL     1     -36.962  -4.406 -18.009  1.00  0.00     0.047 A 
ATOM      5  C   UNL     1     -34.576  -4.642 -17.672  1.00  0.00     0.047 A 
ATOM      6  C   UNL     1     -35.653  -3.977 -18.268  1.00  0.00     0.115 A 
ENDROOT
BRANCH   1   7
ATOM      7  C   UNL     1     -36.378  -7.316 -15.678  1.00  0.00     0.010 C 
ATOM      8  C   UNL     1     -36.521  -7.289 -14.343  1.00  0.00     0.025 C 
BRANCH   8   9
ATOM      9  C   UNL     1     -36.632  -6.070 -13.518  1.00  0.00     0.064 C 
ATOM     10  O   UNL     1     -35.591  -5.563 -13.027  1.00  0.00    -0.545 OA
ATOM     11  O   UNL     1     -37.866  -5.511 -13.213  1.00  0.00    -0.545 OA
ENDBRANCH   8   9
ENDBRANCH   1   7
BRANCH   6  12
ATOM     12  O   UNL     1     -35.413  -2.898 -19.114  1.00  0.00    -0.508 OA
ATOM     13  H   UNL     1     -34.803  -2.982 -19.920  1.00  0.00     0.293 HD
ENDBRANCH   6  12
TORSDOF 3
ENDMDL
MODEL 7
REMARK VINA RESULT:    -4.610      1.778      2.232
REMARK INTER + INTRA:          -5.559
REMARK INTER:                  -5.263
REMARK INTRA:                  -0.297
REMARK UNBOUND:                -0.276
REMARK SMILES O=C([O-])C=Cc1ccc(O)cc1
REMARK SMILES IDX 6 1 7 2 12 3 8 4 11 5 9 6 5 7 4 8 2 9 1 10 3 11 10 12
REMARK H PARENT 10 13
REMARK Flexibility Score: inf
ROOT
ATOM      1  C   UNL     1     -36.436  -6.802 -15.528  1.00  0.00    -0.025 A 
ATOM      2  C   UNL     1     -36.015  -7.113 -14.227  1.00  0.00     0.012 A 
ATOM      3  C   UNL     1     -37.661  -7.313 -15.995  1.00  0.00     0.012 A 
ATOM      4  C   UNL     1     -36.828  -7.878 -13.385  1.00  0.00     0.047 A 
ATOM      5  C   UNL     1     -38.472  -8.077 -15.152  1.00  0.00     0.047 A 
ATOM      6  C   UNL     1     -38.061  -8.360 -13.845  1.00  0.00     0.115 A 
ENDROOT
BRANCH   1   7
ATOM      7  C   UNL     1     -35.536  -6.038 -16.417  1.00  0.00     0.010 C 
ATOM      8  C   UNL     1     -35.564  -4.707 -16.591  1.00  0.00     0.025 C 
BRANCH   8   9
ATOM      9  C   UNL     1     -36.358  -3.755 -15.790  1.00  0.00     0.064 C 
ATOM     10  O   UNL     1     -35.896  -3.333 -14.699  1.00  0.00    -0.545 OA
ATOM     11  O   UNL     1     -37.635  -3.370 -16.179  1.00  0.00    -0.545 OA
ENDBRANCH   8   9
ENDBRANCH   1   7
BRANCH   6  12
ATOM     12  O   UNL     1     -38.881  -9.121 -13.016  1.00  0.00    -0.508 OA
ATOM     13  H   UNL     1     -38.968 -10.124 -13.133  1.00  0.00     0.293 HD
ENDBRANCH   6  12
TORSDOF 3
ENDMDL
