MODEL 1
REMARK VINA RESULT:    -3.555      0.000      0.000
REMARK INTER + INTRA:          -8.245
REMARK INTER:                  -6.464
REMARK INTRA:                  -1.781
REMARK UNBOUND:                -1.781
REMARK SMILES CCCCCCCCCCCCCCCC(=O)[O-]
REMARK SMILES IDX 9 1 10 2 11 3 12 4 13 5 14 6 15 7 16 8 17 9 18 10 8 11 7 12
REMARK SMILES IDX 6 13 5 14 4 15 3 16 2 17 1 18
REMARK H PARENT
REMARK Flexibility Score: inf
ROOT
ATOM      1  C   UNL     1     -19.010  30.589  23.889  1.00  0.00     0.000 C 
ENDROOT
BRANCH   1   2
ATOM      2  C   UNL     1     -17.887  29.621  23.483  1.00  0.00     0.000 C 
BRANCH   2   3
ATOM      3  C   UNL     1     -18.070  29.055  22.064  1.00  0.00     0.000 C 
BRANCH   3   4
ATOM      4  C   UNL     1     -19.512  29.191  21.529  1.00  0.00     0.000 C 
BRANCH   4   5
ATOM      5  C   UNL     1     -19.544  29.617  20.051  1.00  0.00     0.000 C 
BRANCH   5   6
ATOM      6  C   UNL     1     -20.630  28.885  19.247  1.00  0.00     0.006 C 
BRANCH   6   7
ATOM      7  C   UNL     1     -21.642  28.159  20.143  1.00  0.00     0.053 C 
BRANCH   7   8
ATOM      8  C   UNL     1     -22.881  28.982  20.304  1.00  0.00     0.041 C 
ATOM      9  O   UNL     1     -23.334  29.641  19.331  1.00  0.00    -0.550 OA
ATOM     10  O   UNL     1     -23.563  28.985  21.513  1.00  0.00    -0.550 OA
ENDBRANCH   7   8
ENDBRANCH   6   7
ENDBRANCH   5   6
ENDBRANCH   4   5
ENDBRANCH   3   4
ENDBRANCH   2   3
ENDBRANCH   1   2
BRANCH   1  11
ATOM     11  C   UNL     1     -18.564  32.059  23.873  1.00  0.00     0.000 C 
BRANCH  11  12
ATOM     12  C   UNL     1     -19.648  32.999  23.315  1.00  0.00    -0.000 C 
BRANCH  12  13
ATOM     13  C   UNL     1     -20.977  32.273  23.051  1.00  0.00    -0.000 C 
BRANCH  13  14
ATOM     14  C   UNL     1     -21.419  32.362  21.578  1.00  0.00    -0.000 C 
BRANCH  14  15
ATOM     15  C   UNL     1     -22.940  32.522  21.428  1.00  0.00    -0.000 C 
BRANCH  15  16
ATOM     16  C   UNL     1     -23.325  33.749  20.587  1.00  0.00    -0.000 C 
BRANCH  16  17
ATOM     17  C   UNL     1     -22.110  34.654  20.351  1.00  0.00    -0.003 C 
ATOM     18  C   UNL     1     -22.297  36.012  21.022  1.00  0.00     0.004 C 
ENDBRANCH  16  17
ENDBRANCH  15  16
ENDBRANCH  14  15
ENDBRANCH  13  14
ENDBRANCH  12  13
ENDBRANCH  11  12
ENDBRANCH   1  11
TORSDOF 14
ENDMDL
MODEL 2
REMARK VINA RESULT:    -3.500      3.956      7.639
REMARK INTER + INTRA:          -8.146
REMARK INTER:                  -6.754
REMARK INTRA:                  -1.393
REMARK UNBOUND:                -1.781
REMARK SMILES CCCCCCCCCCCCCCCC(=O)[O-]
REMARK SMILES IDX 9 1 10 2 11 3 12 4 13 5 14 6 15 7 16 8 17 9 18 10 8 11 7 12
REMARK SMILES IDX 6 13 5 14 4 15 3 16 2 17 1 18
REMARK H PARENT
REMARK Flexibility Score: inf
ROOT
ATOM      1  C   UNL     1     -23.595  33.471  21.018  1.00  0.00     0.000 C 
ENDROOT
BRANCH   1   2
ATOM      2  C   UNL     1     -22.859  34.378  20.017  1.00  0.00     0.000 C 
BRANCH   2   3
ATOM      3  C   UNL     1     -21.746  35.212  20.676  1.00  0.00     0.000 C 
BRANCH   3   4
ATOM      4  C   UNL     1     -21.868  35.297  22.212  1.00  0.00     0.000 C 
BRANCH   4   5
ATOM      5  C   UNL     1     -22.096  36.740  22.697  1.00  0.00     0.000 C 
BRANCH   5   6
ATOM      6  C   UNL     1     -22.653  37.654  21.596  1.00  0.00     0.006 C 
BRANCH   6   7
ATOM      7  C   UNL     1     -22.607  39.139  21.980  1.00  0.00     0.053 C 
BRANCH   7   8
ATOM      8  C   UNL     1     -22.648  39.996  20.754  1.00  0.00     0.041 C 
ATOM      9  O   UNL     1     -23.679  40.668  20.486  1.00  0.00    -0.550 OA
ATOM     10  O   UNL     1     -21.533  40.091  19.933  1.00  0.00    -0.550 OA
ENDBRANCH   7   8
ENDBRANCH   6   7
ENDBRANCH   5   6
ENDBRANCH   4   5
ENDBRANCH   3   4
ENDBRANCH   2   3
ENDBRANCH   1   2
BRANCH   1  11
ATOM     11  C   UNL     1     -23.395  31.976  20.724  1.00  0.00     0.000 C 
BRANCH  11  12
ATOM     12  C   UNL     1     -22.680  31.240  21.871  1.00  0.00    -0.000 C 
BRANCH  12  13
ATOM     13  C   UNL     1     -21.157  31.443  21.841  1.00  0.00    -0.000 C 
BRANCH  13  14
ATOM     14  C   UNL     1     -20.386  30.235  22.404  1.00  0.00    -0.000 C 
BRANCH  14  15
ATOM     15  C   UNL     1     -19.347  29.685  21.413  1.00  0.00    -0.000 C 
BRANCH  15  16
ATOM     16  C   UNL     1     -19.872  29.644  19.970  1.00  0.00    -0.000 C 
BRANCH  16  17
ATOM     17  C   UNL     1     -20.633  28.340  19.701  1.00  0.00    -0.003 C 
ATOM     18  C   UNL     1     -22.065  28.621  19.253  1.00  0.00     0.004 C 
ENDBRANCH  16  17
ENDBRANCH  15  16
ENDBRANCH  14  15
ENDBRANCH  13  14
ENDBRANCH  12  13
ENDBRANCH  11  12
ENDBRANCH   1  11
TORSDOF 14
ENDMDL
MODEL 3
REMARK VINA RESULT:    -3.420      2.508      5.132
REMARK INTER + INTRA:          -8.000
REMARK INTER:                  -6.207
REMARK INTRA:                  -1.793
REMARK UNBOUND:                -1.781
REMARK SMILES CCCCCCCCCCCCCCCC(=O)[O-]
REMARK SMILES IDX 9 1 10 2 11 3 12 4 13 5 14 6 15 7 16 8 17 9 18 10 8 11 7 12
REMARK SMILES IDX 6 13 5 14 4 15 3 16 2 17 1 18
REMARK H PARENT
REMARK Flexibility Score: inf
ROOT
ATOM      1  C   UNL     1     -18.991  29.229  22.786  1.00  0.00     0.000 C 
ENDROOT
BRANCH   1   2
ATOM      2  C   UNL     1     -19.518  30.671  22.861  1.00  0.00     0.000 C 
BRANCH   2   3
ATOM      3  C   UNL     1     -18.686  31.562  23.800  1.00  0.00     0.000 C 
BRANCH   3   4
ATOM      4  C   UNL     1     -19.148  33.034  23.822  1.00  0.00     0.000 C 
BRANCH   4   5
ATOM      5  C   UNL     1     -20.398  33.264  22.954  1.00  0.00     0.000 C 
BRANCH   5   6
ATOM      6  C   UNL     1     -21.147  34.554  23.322  1.00  0.00     0.006 C 
BRANCH   6   7
ATOM      7  C   UNL     1     -22.437  34.740  22.513  1.00  0.00     0.053 C 
BRANCH   7   8
ATOM      8  C   UNL     1     -22.194  35.639  21.343  1.00  0.00     0.041 C 
ATOM      9  O   UNL     1     -21.612  35.200  20.316  1.00  0.00    -0.550 OA
ATOM     10  O   UNL     1     -22.652  36.950  21.366  1.00  0.00    -0.550 OA
ENDBRANCH   7   8
ENDBRANCH   6   7
ENDBRANCH   5   6
ENDBRANCH   4   5
ENDBRANCH   3   4
ENDBRANCH   2   3
ENDBRANCH   1   2
BRANCH   1  11
ATOM     11  C   UNL     1     -18.989  28.670  21.354  1.00  0.00     0.000 C 
BRANCH  11  12
ATOM     12  C   UNL     1     -19.631  29.636  20.343  1.00  0.00    -0.000 C 
BRANCH  12  13
ATOM     13  C   UNL     1     -20.316  28.901  19.180  1.00  0.00    -0.000 C 
BRANCH  13  14
ATOM     14  C   UNL     1     -21.555  28.105  19.628  1.00  0.00    -0.000 C 
BRANCH  14  15
ATOM     15  C   UNL     1     -22.842  28.946  19.590  1.00  0.00    -0.000 C 
BRANCH  15  16
ATOM     16  C   UNL     1     -23.562  28.985  20.946  1.00  0.00    -0.000 C 
BRANCH  16  17
ATOM     17  C   UNL     1     -23.006  30.107  21.829  1.00  0.00    -0.003 C 
ATOM     18  C   UNL     1     -22.964  31.433  21.074  1.00  0.00     0.004 C 
ENDBRANCH  16  17
ENDBRANCH  15  16
ENDBRANCH  14  15
ENDBRANCH  13  14
ENDBRANCH  12  13
ENDBRANCH  11  12
ENDBRANCH   1  11
TORSDOF 14
ENDMDL
MODEL 4
REMARK VINA RESULT:    -3.366      2.682      5.965
REMARK INTER + INTRA:          -7.901
REMARK INTER:                  -5.458
REMARK INTRA:                  -2.443
REMARK UNBOUND:                -1.781
REMARK SMILES CCCCCCCCCCCCCCCC(=O)[O-]
REMARK SMILES IDX 9 1 10 2 11 3 12 4 13 5 14 6 15 7 16 8 17 9 18 10 8 11 7 12
REMARK SMILES IDX 6 13 5 14 4 15 3 16 2 17 1 18
REMARK H PARENT
REMARK Flexibility Score: inf
ROOT
ATOM      1  C   UNL     1     -19.436  29.273  21.501  1.00  0.00     0.000 C 
ENDROOT
BRANCH   1   2
ATOM      2  C   UNL     1     -20.127  30.239  22.479  1.00  0.00     0.000 C 
BRANCH   2   3
ATOM      3  C   UNL     1     -20.877  31.376  21.763  1.00  0.00     0.000 C 
BRANCH   3   4
ATOM      4  C   UNL     1     -22.384  31.423  22.094  1.00  0.00     0.000 C 
BRANCH   4   5
ATOM      5  C   UNL     1     -23.229  31.877  20.891  1.00  0.00     0.000 C 
BRANCH   5   6
ATOM      6  C   UNL     1     -23.696  33.336  21.011  1.00  0.00     0.006 C 
BRANCH   6   7
ATOM      7  C   UNL     1     -22.827  34.305  20.199  1.00  0.00     0.053 C 
BRANCH   7   8
ATOM      8  C   UNL     1     -22.144  35.278  21.106  1.00  0.00     0.041 C 
ATOM      9  O   UNL     1     -21.183  34.904  21.829  1.00  0.00    -0.550 OA
ATOM     10  O   UNL     1     -22.536  36.610  21.120  1.00  0.00    -0.550 OA
ENDBRANCH   7   8
ENDBRANCH   6   7
ENDBRANCH   5   6
ENDBRANCH   4   5
ENDBRANCH   3   4
ENDBRANCH   2   3
ENDBRANCH   1   2
BRANCH   1  11
ATOM     11  C   UNL     1     -19.660  29.655  20.030  1.00  0.00     0.000 C 
BRANCH  11  12
ATOM     12  C   UNL     1     -20.421  28.571  19.247  1.00  0.00    -0.000 C 
BRANCH  12  13
ATOM     13  C   UNL     1     -21.937  28.820  19.218  1.00  0.00    -0.000 C 
BRANCH  13  14
ATOM     14  C   UNL     1     -22.744  27.644  19.800  1.00  0.00    -0.000 C 
BRANCH  14  15
ATOM     15  C   UNL     1     -23.251  27.925  21.224  1.00  0.00    -0.000 C 
BRANCH  15  16
ATOM     16  C   UNL     1     -22.418  27.212  22.299  1.00  0.00    -0.000 C 
BRANCH  16  17
ATOM     17  C   UNL     1     -21.860  25.886  21.770  1.00  0.00    -0.003 C 
ATOM     18  C   UNL     1     -20.368  25.760  22.066  1.00  0.00     0.004 C 
ENDBRANCH  16  17
ENDBRANCH  15  16
ENDBRANCH  14  15
ENDBRANCH  13  14
ENDBRANCH  12  13
ENDBRANCH  11  12
ENDBRANCH   1  11
TORSDOF 14
ENDMDL
MODEL 5
REMARK VINA RESULT:    -3.338      6.329      8.546
REMARK INTER + INTRA:          -7.851
REMARK INTER:                  -7.082
REMARK INTRA:                  -0.769
REMARK UNBOUND:                -1.781
REMARK SMILES CCCCCCCCCCCCCCCC(=O)[O-]
REMARK SMILES IDX 9 1 10 2 11 3 12 4 13 5 14 6 15 7 16 8 17 9 18 10 8 11 7 12
REMARK SMILES IDX 6 13 5 14 4 15 3 16 2 17 1 18
REMARK H PARENT
REMARK Flexibility Score: inf
ROOT
ATOM      1  C   UNL     1     -20.132  24.003  18.269  1.00  0.00     0.000 C 
ENDROOT
BRANCH   1   2
ATOM      2  C   UNL     1     -19.177  23.586  17.139  1.00  0.00     0.000 C 
BRANCH   2   3
ATOM      3  C   UNL     1     -19.907  23.302  15.815  1.00  0.00     0.000 C 
BRANCH   3   4
ATOM      4  C   UNL     1     -19.562  24.304  14.693  1.00  0.00     0.000 C 
BRANCH   4   5
ATOM      5  C   UNL     1     -19.579  23.646  13.302  1.00  0.00     0.000 C 
BRANCH   5   6
ATOM      6  C   UNL     1     -20.971  23.130  12.907  1.00  0.00     0.006 C 
BRANCH   6   7
ATOM      7  C   UNL     1     -21.946  24.262  12.561  1.00  0.00     0.053 C 
BRANCH   7   8
ATOM      8  C   UNL     1     -22.397  24.145  11.139  1.00  0.00     0.041 C 
ATOM      9  O   UNL     1     -21.635  24.499  10.201  1.00  0.00    -0.550 OA
ATOM     10  O   UNL     1     -23.641  23.600  10.847  1.00  0.00    -0.550 OA
ENDBRANCH   7   8
ENDBRANCH   6   7
ENDBRANCH   5   6
ENDBRANCH   4   5
ENDBRANCH   3   4
ENDBRANCH   2   3
ENDBRANCH   1   2
BRANCH   1  11
ATOM     11  C   UNL     1     -19.480  23.923  19.659  1.00  0.00     0.000 C 
BRANCH  11  12
ATOM     12  C   UNL     1     -19.386  25.297  20.347  1.00  0.00    -0.000 C 
BRANCH  12  13
ATOM     13  C   UNL     1     -18.084  25.468  21.144  1.00  0.00    -0.000 C 
BRANCH  13  14
ATOM     14  C   UNL     1     -18.127  26.674  22.100  1.00  0.00    -0.000 C 
BRANCH  14  15
ATOM     15  C   UNL     1     -19.316  27.607  21.819  1.00  0.00    -0.000 C 
BRANCH  15  16
ATOM     16  C   UNL     1     -18.878  28.976  21.276  1.00  0.00    -0.000 C 
BRANCH  16  17
ATOM     17  C   UNL     1     -20.005  29.633  20.472  1.00  0.00    -0.003 C 
ATOM     18  C   UNL     1     -20.310  28.842  19.203  1.00  0.00     0.004 C 
ENDBRANCH  16  17
ENDBRANCH  15  16
ENDBRANCH  14  15
ENDBRANCH  13  14
ENDBRANCH  12  13
ENDBRANCH  11  12
ENDBRANCH   1  11
TORSDOF 14
ENDMDL
MODEL 6
REMARK VINA RESULT:    -3.332      4.414      8.119
REMARK INTER + INTRA:          -7.840
REMARK INTER:                  -6.623
REMARK INTRA:                  -1.217
REMARK UNBOUND:                -1.781
REMARK SMILES CCCCCCCCCCCCCCCC(=O)[O-]
REMARK SMILES IDX 9 1 10 2 11 3 12 4 13 5 14 6 15 7 16 8 17 9 18 10 8 11 7 12
REMARK SMILES IDX 6 13 5 14 4 15 3 16 2 17 1 18
REMARK H PARENT
REMARK Flexibility Score: inf
ROOT
ATOM      1  C   UNL     1     -22.604  34.497  19.975  1.00  0.00     0.000 C 
ENDROOT
BRANCH   1   2
ATOM      2  C   UNL     1     -21.576  35.129  20.928  1.00  0.00     0.000 C 
BRANCH   2   3
ATOM      3  C   UNL     1     -22.132  35.346  22.346  1.00  0.00     0.000 C 
BRANCH   3   4
ATOM      4  C   UNL     1     -22.233  36.833  22.747  1.00  0.00     0.000 C 
BRANCH   4   5
ATOM      5  C   UNL     1     -22.663  37.724  21.568  1.00  0.00     0.000 C 
BRANCH   5   6
ATOM      6  C   UNL     1     -22.777  39.206  21.956  1.00  0.00     0.006 C 
BRANCH   6   7
ATOM      7  C   UNL     1     -22.802  40.137  20.736  1.00  0.00     0.053 C 
BRANCH   7   8
ATOM      8  C   UNL     1     -21.456  40.754  20.524  1.00  0.00     0.041 C 
ATOM      9  O   UNL     1     -20.732  40.379  19.565  1.00  0.00    -0.550 OA
ATOM     10  O   UNL     1     -21.020  41.776  21.356  1.00  0.00    -0.550 OA
ENDBRANCH   7   8
ENDBRANCH   6   7
ENDBRANCH   5   6
ENDBRANCH   4   5
ENDBRANCH   3   4
ENDBRANCH   2   3
ENDBRANCH   1   2
BRANCH   1  11
ATOM     11  C   UNL     1     -23.743  33.781  20.719  1.00  0.00     0.000 C 
BRANCH  11  12
ATOM     12  C   UNL     1     -23.808  32.278  20.392  1.00  0.00    -0.000 C 
BRANCH  12  13
ATOM     13  C   UNL     1     -23.727  31.398  21.649  1.00  0.00    -0.000 C 
BRANCH  13  14
ATOM     14  C   UNL     1     -22.390  31.554  22.398  1.00  0.00    -0.000 C 
BRANCH  14  15
ATOM     15  C   UNL     1     -21.174  31.352  21.480  1.00  0.00    -0.000 C 
BRANCH  15  16
ATOM     16  C   UNL     1     -20.586  29.937  21.580  1.00  0.00    -0.000 C 
BRANCH  16  17
ATOM     17  C   UNL     1     -19.644  29.650  20.405  1.00  0.00    -0.003 C 
ATOM     18  C   UNL     1     -20.359  28.877  19.301  1.00  0.00     0.004 C 
ENDBRANCH  16  17
ENDBRANCH  15  16
ENDBRANCH  14  15
ENDBRANCH  13  14
ENDBRANCH  12  13
ENDBRANCH  11  12
ENDBRANCH   1  11
TORSDOF 14
ENDMDL
MODEL 7
REMARK VINA RESULT:    -3.331      3.042      6.217
REMARK INTER + INTRA:          -7.837
REMARK INTER:                  -6.031
REMARK INTRA:                  -1.806
REMARK UNBOUND:                -1.781
REMARK SMILES CCCCCCCCCCCCCCCC(=O)[O-]
REMARK SMILES IDX 9 1 10 2 11 3 12 4 13 5 14 6 15 7 16 8 17 9 18 10 8 11 7 12
REMARK SMILES IDX 6 13 5 14 4 15 3 16 2 17 1 18
REMARK H PARENT
REMARK Flexibility Score: inf
ROOT
ATOM      1  C   UNL     1     -21.146  31.653  22.006  1.00  0.00     0.000 C 
ENDROOT
BRANCH   1   2
ATOM      2  C   UNL     1     -22.678  31.737  22.116  1.00  0.00     0.000 C 
BRANCH   2   3
ATOM      3  C   UNL     1     -23.343  32.214  20.813  1.00  0.00     0.000 C 
BRANCH   3   4
ATOM      4  C   UNL     1     -23.672  33.722  20.806  1.00  0.00     0.000 C 
BRANCH   4   5
ATOM      5  C   UNL     1     -22.643  34.537  20.001  1.00  0.00     0.000 C 
BRANCH   5   6
ATOM      6  C   UNL     1     -21.614  35.243  20.897  1.00  0.00     0.006 C 
BRANCH   6   7
ATOM      7  C   UNL     1     -22.164  35.559  22.294  1.00  0.00     0.053 C 
BRANCH   7   8
ATOM      8  C   UNL     1     -22.327  37.036  22.468  1.00  0.00     0.041 C 
ATOM      9  O   UNL     1     -22.770  37.740  21.522  1.00  0.00    -0.550 OA
ATOM     10  O   UNL     1     -22.037  37.630  23.689  1.00  0.00    -0.550 OA
ENDBRANCH   7   8
ENDBRANCH   6   7
ENDBRANCH   5   6
ENDBRANCH   4   5
ENDBRANCH   3   4
ENDBRANCH   2   3
ENDBRANCH   1   2
BRANCH   1  11
ATOM     11  C   UNL     1     -20.427  32.427  23.122  1.00  0.00     0.000 C 
BRANCH  11  12
ATOM     12  C   UNL     1     -19.041  31.841  23.448  1.00  0.00    -0.000 C 
BRANCH  12  13
ATOM     13  C   UNL     1     -19.077  30.316  23.638  1.00  0.00    -0.000 C 
BRANCH  13  14
ATOM     14  C   UNL     1     -17.835  29.617  23.056  1.00  0.00    -0.000 C 
BRANCH  14  15
ATOM     15  C   UNL     1     -18.185  28.641  21.921  1.00  0.00    -0.000 C 
BRANCH  15  16
ATOM     16  C   UNL     1     -19.660  28.210  21.947  1.00  0.00    -0.000 C 
BRANCH  16  17
ATOM     17  C   UNL     1     -20.208  28.050  20.524  1.00  0.00    -0.003 C 
ATOM     18  C   UNL     1     -19.957  29.304  19.692  1.00  0.00     0.004 C 
ENDBRANCH  16  17
ENDBRANCH  15  16
ENDBRANCH  14  15
ENDBRANCH  13  14
ENDBRANCH  12  13
ENDBRANCH  11  12
ENDBRANCH   1  11
TORSDOF 14
ENDMDL
MODEL 8
REMARK VINA RESULT:    -3.304      6.981      9.434
REMARK INTER + INTRA:          -7.788
REMARK INTER:                  -7.083
REMARK INTRA:                  -0.705
REMARK UNBOUND:                -1.781
REMARK SMILES CCCCCCCCCCCCCCCC(=O)[O-]
REMARK SMILES IDX 9 1 10 2 11 3 12 4 13 5 14 6 15 7 16 8 17 9 18 10 8 11 7 12
REMARK SMILES IDX 6 13 5 14 4 15 3 16 2 17 1 18
REMARK H PARENT
REMARK Flexibility Score: inf
ROOT
ATOM      1  C   UNL     1     -19.901  23.464  16.524  1.00  0.00     0.000 C 
ENDROOT
BRANCH   1   2
ATOM      2  C   UNL     1     -19.396  24.019  15.182  1.00  0.00     0.000 C 
BRANCH   2   3
ATOM      3  C   UNL     1     -20.164  23.450  13.976  1.00  0.00     0.000 C 
BRANCH   3   4
ATOM      4  C   UNL     1     -21.616  23.045  14.305  1.00  0.00     0.000 C 
BRANCH   4   5
ATOM      5  C   UNL     1     -22.596  23.436  13.185  1.00  0.00     0.000 C 
BRANCH   5   6
ATOM      6  C   UNL     1     -21.887  23.740  11.857  1.00  0.00     0.006 C 
BRANCH   6   7
ATOM      7  C   UNL     1     -22.865  24.121  10.737  1.00  0.00     0.053 C 
BRANCH   7   8
ATOM      8  C   UNL     1     -22.358  25.309   9.983  1.00  0.00     0.041 C 
ATOM      9  O   UNL     1     -21.566  25.154   9.017  1.00  0.00    -0.550 OA
ATOM     10  O   UNL     1     -22.796  26.584  10.316  1.00  0.00    -0.550 OA
ENDBRANCH   7   8
ENDBRANCH   6   7
ENDBRANCH   5   6
ENDBRANCH   4   5
ENDBRANCH   3   4
ENDBRANCH   2   3
ENDBRANCH   1   2
BRANCH   1  11
ATOM     11  C   UNL     1     -18.764  23.203  17.526  1.00  0.00     0.000 C 
BRANCH  11  12
ATOM     12  C   UNL     1     -19.215  23.369  18.987  1.00  0.00    -0.000 C 
BRANCH  12  13
ATOM     13  C   UNL     1     -19.874  24.733  19.249  1.00  0.00    -0.000 C 
BRANCH  13  14
ATOM     14  C   UNL     1     -19.514  25.310  20.630  1.00  0.00    -0.000 C 
BRANCH  14  15
ATOM     15  C   UNL     1     -19.646  26.841  20.682  1.00  0.00    -0.000 C 
BRANCH  15  16
ATOM     16  C   UNL     1     -20.606  27.387  19.614  1.00  0.00    -0.000 C 
BRANCH  16  17
ATOM     17  C   UNL     1     -20.923  28.866  19.868  1.00  0.00    -0.003 C 
ATOM     18  C   UNL     1     -19.651  29.661  20.151  1.00  0.00     0.004 C 
ENDBRANCH  16  17
ENDBRANCH  15  16
ENDBRANCH  14  15
ENDBRANCH  13  14
ENDBRANCH  12  13
ENDBRANCH  11  12
ENDBRANCH   1  11
TORSDOF 14
ENDMDL
MODEL 9
REMARK VINA RESULT:    -3.290      3.030      4.678
REMARK INTER + INTRA:          -7.764
REMARK INTER:                  -5.134
REMARK INTRA:                  -2.630
REMARK UNBOUND:                -1.781
REMARK SMILES CCCCCCCCCCCCCCCC(=O)[O-]
REMARK SMILES IDX 9 1 10 2 11 3 12 4 13 5 14 6 15 7 16 8 17 9 18 10 8 11 7 12
REMARK SMILES IDX 6 13 5 14 4 15 3 16 2 17 1 18
REMARK H PARENT
REMARK Flexibility Score: inf
ROOT
ATOM      1  C   UNL     1     -20.440  28.629  19.203  1.00  0.00     0.000 C 
ENDROOT
BRANCH   1   2
ATOM      2  C   UNL     1     -21.963  28.839  19.198  1.00  0.00     0.000 C 
BRANCH   2   3
ATOM      3  C   UNL     1     -22.715  27.770  20.010  1.00  0.00     0.000 C 
BRANCH   3   4
ATOM      4  C   UNL     1     -21.846  26.546  20.371  1.00  0.00     0.000 C 
BRANCH   4   5
ATOM      5  C   UNL     1     -21.740  26.339  21.892  1.00  0.00     0.000 C 
BRANCH   5   6
ATOM      6  C   UNL     1     -20.327  25.935  22.339  1.00  0.00     0.006 C 
BRANCH   6   7
ATOM      7  C   UNL     1     -19.362  25.759  21.159  1.00  0.00     0.053 C 
BRANCH   7   8
ATOM      8  C   UNL     1     -17.945  25.761  21.639  1.00  0.00     0.041 C 
ATOM      9  O   UNL     1     -17.593  26.533  22.569  1.00  0.00    -0.550 OA
ATOM     10  O   UNL     1     -17.024  24.877  21.093  1.00  0.00    -0.550 OA
ENDBRANCH   7   8
ENDBRANCH   6   7
ENDBRANCH   5   6
ENDBRANCH   4   5
ENDBRANCH   3   4
ENDBRANCH   2   3
ENDBRANCH   1   2
BRANCH   1  11
ATOM     11  C   UNL     1     -19.685  29.763  19.914  1.00  0.00     0.000 C 
BRANCH  11  12
ATOM     12  C   UNL     1     -19.288  29.397  21.355  1.00  0.00    -0.000 C 
BRANCH  12  13
ATOM     13  C   UNL     1     -19.899  30.350  22.394  1.00  0.00    -0.000 C 
BRANCH  13  14
ATOM     14  C   UNL     1     -21.261  29.860  22.921  1.00  0.00    -0.000 C 
BRANCH  14  15
ATOM     15  C   UNL     1     -22.434  30.703  22.395  1.00  0.00    -0.000 C 
BRANCH  15  16
ATOM     16  C   UNL     1     -21.971  31.985  21.687  1.00  0.00    -0.000 C 
BRANCH  16  17
ATOM     17  C   UNL     1     -23.155  32.713  21.042  1.00  0.00    -0.003 C 
ATOM     18  C   UNL     1     -24.057  31.738  20.290  1.00  0.00     0.004 C 
ENDBRANCH  16  17
ENDBRANCH  15  16
ENDBRANCH  14  15
ENDBRANCH  13  14
ENDBRANCH  12  13
ENDBRANCH  11  12
ENDBRANCH   1  11
TORSDOF 14
ENDMDL
