MODEL 1
REMARK VINA RESULT:    -8.031      0.000      0.000
REMARK INTER + INTRA:          -8.724
REMARK INTER:                  -8.735
REMARK INTRA:                   0.012
REMARK UNBOUND:                 0.012
REMARK SMILES C[C@@H]1[C@H](C)CC[C@@]2(C(=O)[O-])CC[C@@]3(C)C(=CC[C@H]4[C@]5(C)CC[C@H](O)C(C)(C)[C@H]5CC[C@]43C)[C@H]12
REMARK SMILES IDX 7 1 6 2 11 3 33 4 5 5 12 6 15 7 2 8 3 9 13 10 16 11 1 12
REMARK SMILES IDX 4 13 14 14 31 15 17 16 18 17 30 18 32 19 19 20 29 21 28 22
REMARK SMILES IDX 21 23 20 24 25 25 22 26 23 27 26 28 27 29 8 30 9 31 10 32
REMARK SMILES IDX 24 33
REMARK H PARENT 24 34
REMARK Flexibility Score: inf
ROOT
ATOM      1  C   UNL     1     -15.444 -40.409 -17.021  1.00  0.00     0.017 C 
ATOM      2  C   UNL     1     -16.806 -40.388 -16.254  1.00  0.00     0.014 C 
ATOM      3  C   UNL     1     -14.463 -39.391 -16.294  1.00  0.00     0.014 C 
ATOM      4  C   UNL     1     -14.825 -41.843 -16.947  1.00  0.00     0.030 C 
ATOM      5  C   UNL     1     -17.726 -41.585 -16.538  1.00  0.00     0.004 C 
ATOM      6  C   UNL     1     -13.174 -39.997 -15.659  1.00  0.00     0.013 C 
ATOM      7  C   UNL     1     -13.363 -41.817 -17.414  1.00  0.00    -0.063 C 
ATOM      8  C   UNL     1     -15.761 -43.109 -17.136  1.00  0.00    -0.003 C 
ATOM      9  C   UNL     1     -17.021 -42.916 -16.229  1.00  0.00    -0.011 C 
ATOM     10  C   UNL     1     -12.364 -41.021 -16.561  1.00  0.00    -0.006 C 
ATOM     11  C   UNL     1     -12.940 -42.408 -18.533  1.00  0.00    -0.027 C 
ATOM     12  C   UNL     1     -16.157 -43.572 -18.565  1.00  0.00     0.008 C 
ATOM     13  C   UNL     1     -18.018 -44.083 -16.272  1.00  0.00     0.008 C 
ATOM     14  C   UNL     1     -11.726 -42.055 -15.581  1.00  0.00     0.017 C 
ATOM     15  C   UNL     1     -11.217 -40.297 -17.466  1.00  0.00    -0.020 C 
ATOM     16  C   UNL     1     -11.486 -42.557 -18.839  1.00  0.00     0.032 C 
ATOM     17  C   UNL     1     -10.685 -41.235 -18.670  1.00  0.00     0.006 C 
ATOM     18  C   UNL     1     -11.748 -38.952 -18.067  1.00  0.00     0.008 C 
ATOM     19  C   UNL     1     -10.019 -39.922 -16.519  1.00  0.00     0.012 C 
ATOM     20  C   UNL     1     -10.435 -40.511 -20.074  1.00  0.00    -0.025 C 
ATOM     21  C   UNL     1     -10.781 -38.189 -19.008  1.00  0.00     0.005 C 
ATOM     22  C   UNL     1      -9.798 -39.114 -19.763  1.00  0.00     0.003 C 
ATOM     23  C   UNL     1      -9.423 -41.350 -20.952  1.00  0.00     0.010 C 
ATOM     24  C   UNL     1     -11.784 -40.347 -20.875  1.00  0.00     0.012 C 
ATOM     25  C   UNL     1      -8.975 -38.461 -20.943  1.00  0.00    -0.006 C 
ATOM     26  C   UNL     1      -7.969 -40.881 -20.850  1.00  0.00     0.033 C 
ATOM     27  C   UNL     1      -7.792 -39.434 -21.362  1.00  0.00     0.120 C 
ATOM     28  C   UNL     1      -9.850 -38.172 -22.188  1.00  0.00     0.014 C 
ATOM     29  C   UNL     1      -8.406 -37.090 -20.482  1.00  0.00     0.014 C 
ENDROOT
BRANCH   1  30
ATOM     30  C   UNL     1     -15.686 -39.966 -18.472  1.00  0.00     0.048 C 
ATOM     31  O   UNL     1     -16.778 -40.207 -19.042  1.00  0.00    -0.550 OA
ATOM     32  O   UNL     1     -14.757 -39.211 -19.177  1.00  0.00    -0.550 OA
ENDBRANCH   1  30
BRANCH  27  33
ATOM     33  O   UNL     1      -6.552 -38.962 -20.890  1.00  0.00    -0.393 OA
ATOM     34  H   UNL     1      -6.245 -38.252 -21.510  1.00  0.00     0.210 HD
ENDBRANCH  27  33
TORSDOF 2
ENDMDL
MODEL 2
REMARK VINA RESULT:    -7.538      1.728      7.579
REMARK INTER + INTRA:          -8.187
REMARK INTER:                  -8.537
REMARK INTRA:                   0.350
REMARK UNBOUND:                 0.012
REMARK SMILES C[C@@H]1[C@H](C)CC[C@@]2(C(=O)[O-])CC[C@@]3(C)C(=CC[C@H]4[C@]5(C)CC[C@H](O)C(C)(C)[C@H]5CC[C@]43C)[C@H]12
REMARK SMILES IDX 7 1 6 2 11 3 33 4 5 5 12 6 15 7 2 8 3 9 13 10 16 11 1 12
REMARK SMILES IDX 4 13 14 14 31 15 17 16 18 17 30 18 32 19 19 20 29 21 28 22
REMARK SMILES IDX 21 23 20 24 25 25 22 26 23 27 26 28 27 29 8 30 9 31 10 32
REMARK SMILES IDX 24 33
REMARK H PARENT 24 34
REMARK Flexibility Score: inf
ROOT
ATOM      1  C   UNL     1     -11.109 -39.978 -20.733  1.00  0.00     0.017 C 
ATOM      2  C   UNL     1     -10.036 -39.725 -21.840  1.00  0.00     0.014 C 
ATOM      3  C   UNL     1     -11.072 -41.525 -20.365  1.00  0.00     0.014 C 
ATOM      4  C   UNL     1     -10.750 -39.149 -19.457  1.00  0.00     0.030 C 
ATOM      5  C   UNL     1      -9.634 -38.255 -22.027  1.00  0.00     0.004 C 
ATOM      6  C   UNL     1     -10.671 -41.884 -18.902  1.00  0.00     0.013 C 
ATOM      7  C   UNL     1     -11.598 -39.612 -18.264  1.00  0.00    -0.063 C 
ATOM      8  C   UNL     1     -10.236 -37.657 -19.614  1.00  0.00    -0.003 C 
ATOM      9  C   UNL     1      -9.121 -37.645 -20.711  1.00  0.00    -0.011 C 
ATOM     10  C   UNL     1     -11.378 -41.045 -17.756  1.00  0.00    -0.006 C 
ATOM     11  C   UNL     1     -12.532 -38.852 -17.690  1.00  0.00    -0.027 C 
ATOM     12  C   UNL     1     -11.255 -36.506 -19.828  1.00  0.00     0.008 C 
ATOM     13  C   UNL     1      -8.491 -36.266 -20.959  1.00  0.00     0.008 C 
ATOM     14  C   UNL     1     -10.339 -40.928 -16.596  1.00  0.00     0.017 C 
ATOM     15  C   UNL     1     -12.760 -41.732 -17.229  1.00  0.00    -0.020 C 
ATOM     16  C   UNL     1     -13.176 -39.242 -16.399  1.00  0.00     0.032 C 
ATOM     17  C   UNL     1     -13.687 -40.710 -16.389  1.00  0.00     0.006 C 
ATOM     18  C   UNL     1     -13.590 -42.304 -18.427  1.00  0.00     0.008 C 
ATOM     19  C   UNL     1     -12.374 -42.960 -16.325  1.00  0.00     0.012 C 
ATOM     20  C   UNL     1     -15.260 -40.790 -16.667  1.00  0.00    -0.025 C 
ATOM     21  C   UNL     1     -14.965 -42.929 -18.076  1.00  0.00     0.005 C 
ATOM     22  C   UNL     1     -15.622 -42.306 -16.822  1.00  0.00     0.003 C 
ATOM     23  C   UNL     1     -16.065 -40.196 -15.442  1.00  0.00     0.010 C 
ATOM     24  C   UNL     1     -15.648 -39.984 -17.966  1.00  0.00     0.012 C 
ATOM     25  C   UNL     1     -17.134 -42.678 -16.556  1.00  0.00    -0.006 C 
ATOM     26  C   UNL     1     -16.545 -41.248 -14.439  1.00  0.00     0.033 C 
ATOM     27  C   UNL     1     -17.531 -42.250 -15.080  1.00  0.00     0.120 C 
ATOM     28  C   UNL     1     -18.099 -41.988 -17.553  1.00  0.00     0.014 C 
ATOM     29  C   UNL     1     -17.334 -44.208 -16.744  1.00  0.00     0.014 C 
ENDROOT
BRANCH   1  30
ATOM     30  C   UNL     1     -12.491 -39.600 -21.288  1.00  0.00     0.048 C 
ATOM     31  O   UNL     1     -13.409 -39.221 -20.520  1.00  0.00    -0.550 OA
ATOM     32  O   UNL     1     -12.756 -39.573 -22.653  1.00  0.00    -0.550 OA
ENDBRANCH   1  30
BRANCH  27  33
ATOM     33  O   UNL     1     -17.617 -43.369 -14.230  1.00  0.00    -0.393 OA
ATOM     34  H   UNL     1     -16.788 -43.396 -13.685  1.00  0.00     0.210 HD
ENDBRANCH  27  33
TORSDOF 2
ENDMDL
MODEL 3
REMARK VINA RESULT:    -5.561      1.805      3.034
REMARK INTER + INTRA:          -6.037
REMARK INTER:                  -6.386
REMARK INTRA:                   0.349
REMARK UNBOUND:                 0.012
REMARK SMILES C[C@@H]1[C@H](C)CC[C@@]2(C(=O)[O-])CC[C@@]3(C)C(=CC[C@H]4[C@]5(C)CC[C@H](O)C(C)(C)[C@H]5CC[C@]43C)[C@H]12
REMARK SMILES IDX 7 1 6 2 11 3 33 4 5 5 12 6 15 7 2 8 3 9 13 10 16 11 1 12
REMARK SMILES IDX 4 13 14 14 31 15 17 16 18 17 30 18 32 19 19 20 29 21 28 22
REMARK SMILES IDX 21 23 20 24 25 25 22 26 23 27 26 28 27 29 8 30 9 31 10 32
REMARK SMILES IDX 24 33
REMARK H PARENT 24 34
REMARK Flexibility Score: inf
ROOT
ATOM      1  C   UNL     1     -16.409 -41.564 -17.523  1.00  0.00     0.017 C 
ATOM      2  C   UNL     1     -17.788 -42.124 -17.045  1.00  0.00     0.014 C 
ATOM      3  C   UNL     1     -16.695 -40.400 -18.568  1.00  0.00     0.014 C 
ATOM      4  C   UNL     1     -15.638 -40.966 -16.302  1.00  0.00     0.030 C 
ATOM      5  C   UNL     1     -17.737 -42.950 -15.751  1.00  0.00     0.004 C 
ATOM      6  C   UNL     1     -16.208 -38.973 -18.172  1.00  0.00     0.013 C 
ATOM      7  C   UNL     1     -14.436 -40.140 -16.785  1.00  0.00    -0.063 C 
ATOM      8  C   UNL     1     -15.643 -41.740 -14.918  1.00  0.00    -0.003 C 
ATOM      9  C   UNL     1     -17.121 -42.140 -14.597  1.00  0.00    -0.011 C 
ATOM     10  C   UNL     1     -14.733 -38.870 -17.596  1.00  0.00    -0.006 C 
ATOM     11  C   UNL     1     -13.169 -40.496 -16.571  1.00  0.00    -0.027 C 
ATOM     12  C   UNL     1     -14.671 -42.930 -14.692  1.00  0.00     0.008 C 
ATOM     13  C   UNL     1     -17.303 -42.874 -13.260  1.00  0.00     0.008 C 
ATOM     14  C   UNL     1     -14.750 -37.701 -16.562  1.00  0.00     0.017 C 
ATOM     15  C   UNL     1     -13.618 -38.603 -18.756  1.00  0.00    -0.020 C 
ATOM     16  C   UNL     1     -12.035 -39.565 -16.850  1.00  0.00     0.032 C 
ATOM     17  C   UNL     1     -12.112 -38.911 -18.259  1.00  0.00     0.006 C 
ATOM     18  C   UNL     1     -13.919 -39.465 -20.028  1.00  0.00     0.008 C 
ATOM     19  C   UNL     1     -13.732 -37.098 -19.197  1.00  0.00     0.012 C 
ATOM     20  C   UNL     1     -11.158 -39.651 -19.308  1.00  0.00    -0.025 C 
ATOM     21  C   UNL     1     -12.898 -39.361 -21.188  1.00  0.00     0.005 C 
ATOM     22  C   UNL     1     -11.461 -39.037 -20.717  1.00  0.00     0.003 C 
ATOM     23  C   UNL     1      -9.641 -39.388 -18.951  1.00  0.00     0.010 C 
ATOM     24  C   UNL     1     -11.415 -41.208 -19.307  1.00  0.00     0.012 C 
ATOM     25  C   UNL     1     -10.311 -39.189 -21.790  1.00  0.00    -0.006 C 
ATOM     26  C   UNL     1      -9.008 -38.229 -19.727  1.00  0.00     0.033 C 
ATOM     27  C   UNL     1      -8.990 -38.495 -21.249  1.00  0.00     0.120 C 
ATOM     28  C   UNL     1      -9.999 -40.671 -22.118  1.00  0.00     0.014 C 
ATOM     29  C   UNL     1     -10.756 -38.530 -23.125  1.00  0.00     0.014 C 
ENDROOT
BRANCH   1  30
ATOM     30  C   UNL     1     -15.621 -42.698 -18.196  1.00  0.00     0.048 C 
ATOM     31  O   UNL     1     -16.212 -43.581 -18.865  1.00  0.00    -0.550 OA
ATOM     32  O   UNL     1     -14.232 -42.746 -18.172  1.00  0.00    -0.550 OA
ENDBRANCH   1  30
BRANCH  27  33
ATOM     33  O   UNL     1      -8.758 -37.266 -21.895  1.00  0.00    -0.393 OA
ATOM     34  H   UNL     1      -7.965 -37.379 -22.480  1.00  0.00     0.210 HD
ENDBRANCH  27  33
TORSDOF 2
ENDMDL
MODEL 4
REMARK VINA RESULT:    -5.157      2.470      5.164
REMARK INTER + INTRA:          -5.597
REMARK INTER:                  -5.632
REMARK INTRA:                   0.035
REMARK UNBOUND:                 0.012
REMARK SMILES C[C@@H]1[C@H](C)CC[C@@]2(C(=O)[O-])CC[C@@]3(C)C(=CC[C@H]4[C@]5(C)CC[C@H](O)C(C)(C)[C@H]5CC[C@]43C)[C@H]12
REMARK SMILES IDX 7 1 6 2 11 3 33 4 5 5 12 6 15 7 2 8 3 9 13 10 16 11 1 12
REMARK SMILES IDX 4 13 14 14 31 15 17 16 18 17 30 18 32 19 19 20 29 21 28 22
REMARK SMILES IDX 21 23 20 24 25 25 22 26 23 27 26 28 27 29 8 30 9 31 10 32
REMARK SMILES IDX 24 33
REMARK H PARENT 24 34
REMARK Flexibility Score: inf
ROOT
ATOM      1  C   UNL     1     -11.995 -40.839 -18.875  1.00  0.00     0.017 C 
ATOM      2  C   UNL     1     -13.221 -41.561 -18.228  1.00  0.00     0.014 C 
ATOM      3  C   UNL     1     -11.133 -41.936 -19.639  1.00  0.00     0.014 C 
ATOM      4  C   UNL     1     -12.499 -39.784 -19.913  1.00  0.00     0.030 C 
ATOM      5  C   UNL     1     -14.371 -40.633 -17.810  1.00  0.00     0.004 C 
ATOM      6  C   UNL     1     -11.003 -41.769 -21.183  1.00  0.00     0.013 C 
ATOM      7  C   UNL     1     -11.332 -39.288 -20.778  1.00  0.00    -0.063 C 
ATOM      8  C   UNL     1     -13.748 -38.874 -19.558  1.00  0.00    -0.003 C 
ATOM      9  C   UNL     1     -14.877 -39.801 -19.001  1.00  0.00    -0.011 C 
ATOM     10  C   UNL     1     -10.655 -40.311 -21.704  1.00  0.00    -0.006 C 
ATOM     11  C   UNL     1     -10.860 -38.042 -20.729  1.00  0.00    -0.027 C 
ATOM     12  C   UNL     1     -13.560 -37.613 -18.671  1.00  0.00     0.008 C 
ATOM     13  C   UNL     1     -16.178 -39.070 -18.639  1.00  0.00     0.008 C 
ATOM     14  C   UNL     1     -11.362 -40.162 -23.088  1.00  0.00     0.017 C 
ATOM     15  C   UNL     1      -9.051 -40.054 -21.841  1.00  0.00    -0.020 C 
ATOM     16  C   UNL     1      -9.883 -37.532 -21.737  1.00  0.00     0.032 C 
ATOM     17  C   UNL     1      -8.676 -38.487 -21.957  1.00  0.00     0.006 C 
ATOM     18  C   UNL     1      -8.281 -40.672 -20.625  1.00  0.00     0.008 C 
ATOM     19  C   UNL     1      -8.548 -40.815 -23.122  1.00  0.00     0.012 C 
ATOM     20  C   UNL     1      -7.385 -38.005 -21.143  1.00  0.00    -0.025 C 
ATOM     21  C   UNL     1      -6.749 -40.443 -20.591  1.00  0.00     0.005 C 
ATOM     22  C   UNL     1      -6.306 -39.133 -21.285  1.00  0.00     0.003 C 
ATOM     23  C   UNL     1      -6.812 -36.669 -21.764  1.00  0.00     0.010 C 
ATOM     24  C   UNL     1      -7.735 -37.750 -19.627  1.00  0.00     0.012 C 
ATOM     25  C   UNL     1      -4.811 -38.679 -21.056  1.00  0.00    -0.006 C 
ATOM     26  C   UNL     1      -5.670 -36.882 -22.761  1.00  0.00     0.033 C 
ATOM     27  C   UNL     1      -4.439 -37.540 -22.098  1.00  0.00     0.120 C 
ATOM     28  C   UNL     1      -4.566 -38.145 -19.623  1.00  0.00     0.014 C 
ATOM     29  C   UNL     1      -3.865 -39.899 -21.234  1.00  0.00     0.014 C 
ENDROOT
BRANCH   1  30
ATOM     30  C   UNL     1     -11.158 -40.190 -17.762  1.00  0.00     0.048 C 
ATOM     31  O   UNL     1      -9.932 -39.978 -17.922  1.00  0.00    -0.550 OA
ATOM     32  O   UNL     1     -11.731 -39.732 -16.581  1.00  0.00    -0.550 OA
ENDBRANCH   1  30
BRANCH  27  33
ATOM     33  O   UNL     1      -3.615 -38.038 -23.125  1.00  0.00    -0.393 OA
ATOM     34  H   UNL     1      -4.067 -38.831 -23.515  1.00  0.00     0.210 HD
ENDBRANCH  27  33
TORSDOF 2
ENDMDL
