MODEL 1
REMARK VINA RESULT:    -3.644      0.000      0.000
REMARK INTER + INTRA:          -7.677
REMARK INTER:                  -6.201
REMARK INTRA:                  -1.476
REMARK UNBOUND:                -1.476
REMARK SMILES CCCCCCCCCCCCCC(=O)[O-]
REMARK SMILES IDX 8 1 9 2 10 3 11 4 12 5 13 6 14 7 15 8 16 9 7 10 6 11 5 12
REMARK SMILES IDX 4 13 3 14 2 15 1 16
REMARK H PARENT
REMARK Flexibility Score: inf
ROOT
ATOM      1  C   UNL     1      -6.065   2.170  -9.372  1.00  0.00     0.000 C 
ENDROOT
BRANCH   1   2
ATOM      2  C   UNL     1      -5.123   3.295  -8.926  1.00  0.00     0.000 C 
BRANCH   2   3
ATOM      3  C   UNL     1      -4.768   4.214 -10.104  1.00  0.00     0.000 C 
BRANCH   3   4
ATOM      4  C   UNL     1      -5.159   5.683  -9.859  1.00  0.00     0.000 C 
BRANCH   4   5
ATOM      5  C   UNL     1      -5.424   6.048  -8.386  1.00  0.00     0.006 C 
BRANCH   5   6
ATOM      6  C   UNL     1      -6.070   7.430  -8.222  1.00  0.00     0.053 C 
BRANCH   6   7
ATOM      7  C   UNL     1      -5.213   8.484  -8.847  1.00  0.00     0.041 C 
ATOM      8  O   UNL     1      -5.621   9.116  -9.857  1.00  0.00    -0.550 OA
ATOM      9  O   UNL     1      -3.942   8.737  -8.344  1.00  0.00    -0.550 OA
ENDBRANCH   6   7
ENDBRANCH   5   6
ENDBRANCH   4   5
ENDBRANCH   3   4
ENDBRANCH   2   3
ENDBRANCH   1   2
BRANCH   1  10
ATOM     10  C   UNL     1      -7.467   2.360  -8.783  1.00  0.00     0.000 C 
BRANCH  10  11
ATOM     11  C   UNL     1      -8.510   2.553  -9.891  1.00  0.00    -0.000 C 
BRANCH  11  12
ATOM     12  C   UNL     1      -9.561   3.596  -9.480  1.00  0.00    -0.000 C 
BRANCH  12  13
ATOM     13  C   UNL     1      -8.936   4.865  -8.879  1.00  0.00    -0.000 C 
BRANCH  13  14
ATOM     14  C   UNL     1      -9.500   5.201  -7.488  1.00  0.00    -0.000 C 
BRANCH  14  15
ATOM     15  C   UNL     1      -9.925   3.948  -6.708  1.00  0.00    -0.003 C 
ATOM     16  C   UNL     1      -9.383   3.926  -5.279  1.00  0.00     0.004 C 
ENDBRANCH  14  15
ENDBRANCH  13  14
ENDBRANCH  12  13
ENDBRANCH  11  12
ENDBRANCH  10  11
ENDBRANCH   1  10
TORSDOF 12
ENDMDL
MODEL 2
REMARK VINA RESULT:    -3.642     22.841     24.591
REMARK INTER + INTRA:          -7.673
REMARK INTER:                  -5.696
REMARK INTRA:                  -1.977
REMARK UNBOUND:                -1.476
REMARK SMILES CCCCCCCCCCCCCC(=O)[O-]
REMARK SMILES IDX 8 1 9 2 10 3 11 4 12 5 13 6 14 7 15 8 16 9 7 10 6 11 5 12
REMARK SMILES IDX 4 13 3 14 2 15 1 16
REMARK H PARENT
REMARK Flexibility Score: inf
ROOT
ATOM      1  C   UNL     1       3.974  -7.833   9.128  1.00  0.00     0.000 C 
ENDROOT
BRANCH   1   2
ATOM      2  C   UNL     1       3.475  -8.846   8.091  1.00  0.00     0.000 C 
BRANCH   2   3
ATOM      3  C   UNL     1       4.409 -10.063   8.018  1.00  0.00     0.000 C 
BRANCH   3   4
ATOM      4  C   UNL     1       4.373 -10.768   6.650  1.00  0.00     0.000 C 
BRANCH   4   5
ATOM      5  C   UNL     1       3.974  -9.867   5.465  1.00  0.00     0.006 C 
BRANCH   5   6
ATOM      6  C   UNL     1       4.277 -10.505   4.103  1.00  0.00     0.053 C 
BRANCH   6   7
ATOM      7  C   UNL     1       4.475  -9.446   3.064  1.00  0.00     0.041 C 
ATOM      8  O   UNL     1       5.473  -8.681   3.122  1.00  0.00    -0.550 OA
ATOM      9  O   UNL     1       3.531  -9.271   2.060  1.00  0.00    -0.550 OA
ENDBRANCH   6   7
ENDBRANCH   5   6
ENDBRANCH   4   5
ENDBRANCH   3   4
ENDBRANCH   2   3
ENDBRANCH   1   2
BRANCH   1  10
ATOM     10  C   UNL     1       5.074  -8.440  10.007  1.00  0.00     0.000 C 
BRANCH  10  11
ATOM     11  C   UNL     1       6.323  -7.550  10.020  1.00  0.00    -0.000 C 
BRANCH  11  12
ATOM     12  C   UNL     1       6.238  -6.469   8.931  1.00  0.00    -0.000 C 
BRANCH  12  13
ATOM     13  C   UNL     1       7.267  -6.674   7.808  1.00  0.00    -0.000 C 
BRANCH  13  14
ATOM     14  C   UNL     1       6.676  -7.405   6.591  1.00  0.00    -0.000 C 
BRANCH  14  15
ATOM     15  C   UNL     1       7.461  -8.675   6.229  1.00  0.00    -0.003 C 
ATOM     16  C   UNL     1       8.336  -9.179   7.376  1.00  0.00     0.004 C 
ENDBRANCH  14  15
ENDBRANCH  13  14
ENDBRANCH  12  13
ENDBRANCH  11  12
ENDBRANCH  10  11
ENDBRANCH   1  10
TORSDOF 12
ENDMDL
MODEL 3
REMARK VINA RESULT:    -3.637     22.475     24.089
REMARK INTER + INTRA:          -7.664
REMARK INTER:                  -6.227
REMARK INTRA:                  -1.437
REMARK UNBOUND:                -1.476
REMARK SMILES CCCCCCCCCCCCCC(=O)[O-]
REMARK SMILES IDX 8 1 9 2 10 3 11 4 12 5 13 6 14 7 15 8 16 9 7 10 6 11 5 12
REMARK SMILES IDX 4 13 3 14 2 15 1 16
REMARK H PARENT
REMARK Flexibility Score: inf
ROOT
ATOM      1  C   UNL     1       6.619  -7.395   6.656  1.00  0.00     0.000 C 
ENDROOT
BRANCH   1   2
ATOM      2  C   UNL     1       7.120  -8.735   6.105  1.00  0.00     0.000 C 
BRANCH   2   3
ATOM      3  C   UNL     1       6.539  -9.910   6.905  1.00  0.00     0.000 C 
BRANCH   3   4
ATOM      4  C   UNL     1       5.545 -10.758   6.092  1.00  0.00     0.000 C 
BRANCH   4   5
ATOM      5  C   UNL     1       4.432  -9.958   5.388  1.00  0.00     0.006 C 
BRANCH   5   6
ATOM      6  C   UNL     1       4.113 -10.488   3.984  1.00  0.00     0.053 C 
BRANCH   6   7
ATOM      7  C   UNL     1       4.387  -9.436   2.955  1.00  0.00     0.041 C 
ATOM      8  O   UNL     1       5.443  -8.752   3.014  1.00  0.00    -0.550 OA
ATOM      9  O   UNL     1       3.452  -9.176   1.960  1.00  0.00    -0.550 OA
ENDBRANCH   6   7
ENDBRANCH   5   6
ENDBRANCH   4   5
ENDBRANCH   3   4
ENDBRANCH   2   3
ENDBRANCH   1   2
BRANCH   1  10
ATOM     10  C   UNL     1       7.438  -6.961   7.878  1.00  0.00     0.000 C 
BRANCH  10  11
ATOM     11  C   UNL     1       6.531  -6.391   8.975  1.00  0.00    -0.000 C 
BRANCH  11  12
ATOM     12  C   UNL     1       5.741  -7.511   9.671  1.00  0.00    -0.000 C 
BRANCH  12  13
ATOM     13  C   UNL     1       4.221  -7.367   9.491  1.00  0.00    -0.000 C 
BRANCH  13  14
ATOM     14  C   UNL     1       3.625  -8.464   8.593  1.00  0.00    -0.000 C 
BRANCH  14  15
ATOM     15  C   UNL     1       2.096  -8.372   8.487  1.00  0.00    -0.003 C 
ATOM     16  C   UNL     1       1.498  -9.440   7.572  1.00  0.00     0.004 C 
ENDBRANCH  14  15
ENDBRANCH  13  14
ENDBRANCH  12  13
ENDBRANCH  11  12
ENDBRANCH  10  11
ENDBRANCH   1  10
TORSDOF 12
ENDMDL
MODEL 4
REMARK VINA RESULT:    -3.626     23.136     24.913
REMARK INTER + INTRA:          -7.646
REMARK INTER:                  -5.951
REMARK INTRA:                  -1.695
REMARK UNBOUND:                -1.476
REMARK SMILES CCCCCCCCCCCCCC(=O)[O-]
REMARK SMILES IDX 8 1 9 2 10 3 11 4 12 5 13 6 14 7 15 8 16 9 7 10 6 11 5 12
REMARK SMILES IDX 4 13 3 14 2 15 1 16
REMARK H PARENT
REMARK Flexibility Score: inf
ROOT
ATOM      1  C   UNL     1       6.361  -7.720   6.464  1.00  0.00     0.000 C 
ENDROOT
BRANCH   1   2
ATOM      2  C   UNL     1       5.547  -8.436   7.547  1.00  0.00     0.000 C 
BRANCH   2   3
ATOM      3  C   UNL     1       4.397  -9.244   6.927  1.00  0.00     0.000 C 
BRANCH   3   4
ATOM      4  C   UNL     1       4.817 -10.666   6.513  1.00  0.00     0.000 C 
BRANCH   4   5
ATOM      5  C   UNL     1       4.952 -10.888   4.994  1.00  0.00     0.006 C 
BRANCH   5   6
ATOM      6  C   UNL     1       3.781 -10.296   4.198  1.00  0.00     0.053 C 
BRANCH   6   7
ATOM      7  C   UNL     1       4.290  -9.409   3.105  1.00  0.00     0.041 C 
ATOM      8  O   UNL     1       5.401  -8.830   3.225  1.00  0.00    -0.550 OA
ATOM      9  O   UNL     1       3.515  -9.184   1.975  1.00  0.00    -0.550 OA
ENDBRANCH   6   7
ENDBRANCH   5   6
ENDBRANCH   4   5
ENDBRANCH   3   4
ENDBRANCH   2   3
ENDBRANCH   1   2
BRANCH   1  10
ATOM     10  C   UNL     1       7.655  -8.481   6.153  1.00  0.00     0.000 C 
BRANCH  10  11
ATOM     11  C   UNL     1       8.172  -9.219   7.394  1.00  0.00    -0.000 C 
BRANCH  11  12
ATOM     12  C   UNL     1       9.288  -8.419   8.084  1.00  0.00    -0.000 C 
BRANCH  12  13
ATOM     13  C   UNL     1       8.957  -8.072   9.544  1.00  0.00    -0.000 C 
BRANCH  13  14
ATOM     14  C   UNL     1       8.473  -6.622   9.712  1.00  0.00    -0.000 C 
BRANCH  14  15
ATOM     15  C   UNL     1       9.064  -5.679   8.653  1.00  0.00    -0.003 C 
ATOM     16  C   UNL     1       8.038  -4.690   8.100  1.00  0.00     0.004 C 
ENDBRANCH  14  15
ENDBRANCH  13  14
ENDBRANCH  12  13
ENDBRANCH  11  12
ENDBRANCH  10  11
ENDBRANCH   1  10
TORSDOF 12
ENDMDL
MODEL 5
REMARK VINA RESULT:    -3.386     22.622     24.193
REMARK INTER + INTRA:          -7.238
REMARK INTER:                  -5.634
REMARK INTRA:                  -1.604
REMARK UNBOUND:                -1.476
REMARK SMILES CCCCCCCCCCCCCC(=O)[O-]
REMARK SMILES IDX 8 1 9 2 10 3 11 4 12 5 13 6 14 7 15 8 16 9 7 10 6 11 5 12
REMARK SMILES IDX 4 13 3 14 2 15 1 16
REMARK H PARENT
REMARK Flexibility Score: inf
ROOT
ATOM      1  C   UNL     1       7.286  -7.408   7.717  1.00  0.00     0.000 C 
ENDROOT
BRANCH   1   2
ATOM      2  C   UNL     1       6.565  -7.549   6.372  1.00  0.00     0.000 C 
BRANCH   2   3
ATOM      3  C   UNL     1       6.837  -8.923   5.743  1.00  0.00     0.000 C 
BRANCH   3   4
ATOM      4  C   UNL     1       5.942 -10.035   6.318  1.00  0.00     0.000 C 
BRANCH   4   5
ATOM      5  C   UNL     1       5.047 -10.748   5.286  1.00  0.00     0.006 C 
BRANCH   5   6
ATOM      6  C   UNL     1       4.055  -9.800   4.600  1.00  0.00     0.053 C 
BRANCH   6   7
ATOM      7  C   UNL     1       3.968 -10.106   3.138  1.00  0.00     0.041 C 
ATOM      8  O   UNL     1       4.914  -9.793   2.368  1.00  0.00    -0.550 OA
ATOM      9  O   UNL     1       2.822 -10.693   2.616  1.00  0.00    -0.550 OA
ENDBRANCH   6   7
ENDBRANCH   5   6
ENDBRANCH   4   5
ENDBRANCH   3   4
ENDBRANCH   2   3
ENDBRANCH   1   2
BRANCH   1  10
ATOM     10  C   UNL     1       6.290  -7.138   8.851  1.00  0.00     0.000 C 
BRANCH  10  11
ATOM     11  C   UNL     1       5.983  -8.422   9.632  1.00  0.00    -0.000 C 
BRANCH  11  12
ATOM     12  C   UNL     1       4.466  -8.648   9.742  1.00  0.00    -0.000 C 
BRANCH  12  13
ATOM     13  C   UNL     1       3.694  -8.095   8.534  1.00  0.00    -0.000 C 
BRANCH  13  14
ATOM     14  C   UNL     1       2.276  -8.682   8.420  1.00  0.00    -0.000 C 
BRANCH  14  15
ATOM     15  C   UNL     1       2.266 -10.074   7.772  1.00  0.00    -0.003 C 
ATOM     16  C   UNL     1       1.059 -10.296   6.861  1.00  0.00     0.004 C 
ENDBRANCH  14  15
ENDBRANCH  13  14
ENDBRANCH  12  13
ENDBRANCH  11  12
ENDBRANCH  10  11
ENDBRANCH   1  10
TORSDOF 12
ENDMDL
MODEL 6
REMARK VINA RESULT:    -3.354     22.650     24.045
REMARK INTER + INTRA:          -7.183
REMARK INTER:                  -5.471
REMARK INTRA:                  -1.713
REMARK UNBOUND:                -1.476
REMARK SMILES CCCCCCCCCCCCCC(=O)[O-]
REMARK SMILES IDX 8 1 9 2 10 3 11 4 12 5 13 6 14 7 15 8 16 9 7 10 6 11 5 12
REMARK SMILES IDX 4 13 3 14 2 15 1 16
REMARK H PARENT
REMARK Flexibility Score: inf
ROOT
ATOM      1  C   UNL     1       5.249  -8.896   3.621  1.00  0.00     0.000 C 
ENDROOT
BRANCH   1   2
ATOM      2  C   UNL     1       6.512  -8.155   4.073  1.00  0.00     0.000 C 
BRANCH   2   3
ATOM      3  C   UNL     1       6.446  -7.817   5.570  1.00  0.00     0.000 C 
BRANCH   3   4
ATOM      4  C   UNL     1       7.564  -8.486   6.387  1.00  0.00     0.000 C 
BRANCH   4   5
ATOM      5  C   UNL     1       7.854  -7.832   7.752  1.00  0.00     0.006 C 
BRANCH   5   6
ATOM      6  C   UNL     1       7.065  -6.534   7.970  1.00  0.00     0.053 C 
BRANCH   6   7
ATOM      7  C   UNL     1       7.999  -5.392   8.218  1.00  0.00     0.041 C 
ATOM      8  O   UNL     1       7.579  -4.206   8.163  1.00  0.00    -0.550 OA
ATOM      9  O   UNL     1       9.345  -5.634   8.463  1.00  0.00    -0.550 OA
ENDBRANCH   6   7
ENDBRANCH   5   6
ENDBRANCH   4   5
ENDBRANCH   3   4
ENDBRANCH   2   3
ENDBRANCH   1   2
BRANCH   1  10
ATOM     10  C   UNL     1       5.053 -10.190   4.421  1.00  0.00     0.000 C 
BRANCH  10  11
ATOM     11  C   UNL     1       3.564 -10.488   4.631  1.00  0.00    -0.000 C 
BRANCH  11  12
ATOM     12  C   UNL     1       3.221 -10.542   6.129  1.00  0.00    -0.000 C 
BRANCH  12  13
ATOM     13  C   UNL     1       4.469 -10.636   7.021  1.00  0.00    -0.000 C 
BRANCH  13  14
ATOM     14  C   UNL     1       4.394  -9.705   8.243  1.00  0.00    -0.000 C 
BRANCH  14  15
ATOM     15  C   UNL     1       3.725  -8.361   7.918  1.00  0.00    -0.003 C 
ATOM     16  C   UNL     1       2.537  -8.052   8.829  1.00  0.00     0.004 C 
ENDBRANCH  14  15
ENDBRANCH  13  14
ENDBRANCH  12  13
ENDBRANCH  11  12
ENDBRANCH  10  11
ENDBRANCH   1  10
TORSDOF 12
ENDMDL
MODEL 7
REMARK VINA RESULT:    -3.349     22.277     23.974
REMARK INTER + INTRA:          -7.174
REMARK INTER:                  -5.526
REMARK INTRA:                  -1.648
REMARK UNBOUND:                -1.476
REMARK SMILES CCCCCCCCCCCCCC(=O)[O-]
REMARK SMILES IDX 8 1 9 2 10 3 11 4 12 5 13 6 14 7 15 8 16 9 7 10 6 11 5 12
REMARK SMILES IDX 4 13 3 14 2 15 1 16
REMARK H PARENT
REMARK Flexibility Score: inf
ROOT
ATOM      1  C   UNL     1       1.604  -9.648   7.490  1.00  0.00     0.000 C 
ENDROOT
BRANCH   1   2
ATOM      2  C   UNL     1       2.197 -10.371   6.275  1.00  0.00     0.000 C 
BRANCH   2   3
ATOM      3  C   UNL     1       3.480 -11.123   6.655  1.00  0.00     0.000 C 
BRANCH   3   4
ATOM      4  C   UNL     1       4.657 -10.820   5.710  1.00  0.00     0.000 C 
BRANCH   4   5
ATOM      5  C   UNL     1       4.550  -9.488   4.945  1.00  0.00     0.006 C 
BRANCH   5   6
ATOM      6  C   UNL     1       4.912  -9.622   3.460  1.00  0.00     0.053 C 
BRANCH   6   7
ATOM      7  C   UNL     1       3.679  -9.551   2.615  1.00  0.00     0.041 C 
ATOM      8  O   UNL     1       3.445  -8.526   1.922  1.00  0.00    -0.550 OA
ATOM      9  O   UNL     1       2.763 -10.595   2.631  1.00  0.00    -0.550 OA
ENDBRANCH   6   7
ENDBRANCH   5   6
ENDBRANCH   4   5
ENDBRANCH   3   4
ENDBRANCH   2   3
ENDBRANCH   1   2
BRANCH   1  10
ATOM     10  C   UNL     1       2.456  -8.435   7.880  1.00  0.00     0.000 C 
BRANCH  10  11
ATOM     11  C   UNL     1       2.973  -8.563   9.318  1.00  0.00    -0.000 C 
BRANCH  11  12
ATOM     12  C   UNL     1       4.349  -7.895   9.468  1.00  0.00    -0.000 C 
BRANCH  12  13
ATOM     13  C   UNL     1       5.353  -8.356   8.401  1.00  0.00    -0.000 C 
BRANCH  13  14
ATOM     14  C   UNL     1       6.246  -7.211   7.894  1.00  0.00    -0.000 C 
BRANCH  14  15
ATOM     15  C   UNL     1       7.598  -7.709   7.362  1.00  0.00    -0.003 C 
ATOM     16  C   UNL     1       7.613  -9.214   7.094  1.00  0.00     0.004 C 
ENDBRANCH  14  15
ENDBRANCH  13  14
ENDBRANCH  12  13
ENDBRANCH  11  12
ENDBRANCH  10  11
ENDBRANCH   1  10
TORSDOF 12
ENDMDL
MODEL 8
REMARK VINA RESULT:    -3.306     12.526     14.271
REMARK INTER + INTRA:          -7.101
REMARK INTER:                  -6.104
REMARK INTRA:                  -0.997
REMARK UNBOUND:                -1.476
REMARK SMILES CCCCCCCCCCCCCC(=O)[O-]
REMARK SMILES IDX 8 1 9 2 10 3 11 4 12 5 13 6 14 7 15 8 16 9 7 10 6 11 5 12
REMARK SMILES IDX 4 13 3 14 2 15 1 16
REMARK H PARENT
REMARK Flexibility Score: inf
ROOT
ATOM      1  C   UNL     1      -5.585  -8.869  -6.312  1.00  0.00     0.000 C 
ENDROOT
BRANCH   1   2
ATOM      2  C   UNL     1      -5.378  -9.319  -7.762  1.00  0.00     0.000 C 
BRANCH   2   3
ATOM      3  C   UNL     1      -6.634  -9.054  -8.605  1.00  0.00     0.000 C 
BRANCH   3   4
ATOM      4  C   UNL     1      -7.801  -8.482  -7.782  1.00  0.00     0.000 C 
BRANCH   4   5
ATOM      5  C   UNL     1      -8.710  -7.495  -8.539  1.00  0.00     0.006 C 
BRANCH   5   6
ATOM      6  C   UNL     1      -7.962  -6.246  -9.021  1.00  0.00     0.053 C 
BRANCH   6   7
ATOM      7  C   UNL     1      -7.601  -5.374  -7.860  1.00  0.00     0.041 C 
ATOM      8  O   UNL     1      -6.399  -5.263  -7.502  1.00  0.00    -0.550 OA
ATOM      9  O   UNL     1      -8.596  -4.723  -7.142  1.00  0.00    -0.550 OA
ENDBRANCH   6   7
ENDBRANCH   5   6
ENDBRANCH   4   5
ENDBRANCH   3   4
ENDBRANCH   2   3
ENDBRANCH   1   2
BRANCH   1  10
ATOM     10  C   UNL     1      -5.313 -10.018  -5.334  1.00  0.00     0.000 C 
BRANCH  10  11
ATOM     11  C   UNL     1      -6.545 -10.309  -4.469  1.00  0.00    -0.000 C 
BRANCH  11  12
ATOM     12  C   UNL     1      -6.999  -9.048  -3.717  1.00  0.00    -0.000 C 
BRANCH  12  13
ATOM     13  C   UNL     1      -8.347  -9.235  -3.002  1.00  0.00    -0.000 C 
BRANCH  13  14
ATOM     14  C   UNL     1      -8.529 -10.658  -2.447  1.00  0.00    -0.000 C 
BRANCH  14  15
ATOM     15  C   UNL     1      -9.386 -10.687  -1.173  1.00  0.00    -0.003 C 
ATOM     16  C   UNL     1      -8.552 -10.802   0.103  1.00  0.00     0.004 C 
ENDBRANCH  14  15
ENDBRANCH  13  14
ENDBRANCH  12  13
ENDBRANCH  11  12
ENDBRANCH  10  11
ENDBRANCH   1  10
TORSDOF 12
ENDMDL
MODEL 9
REMARK VINA RESULT:    -2.215     22.092     23.619
REMARK INTER + INTRA:          -5.244
REMARK INTER:                  -3.810
REMARK INTRA:                  -1.434
REMARK UNBOUND:                -1.476
REMARK SMILES CCCCCCCCCCCCCC(=O)[O-]
REMARK SMILES IDX 8 1 9 2 10 3 11 4 12 5 13 6 14 7 15 8 16 9 7 10 6 11 5 12
REMARK SMILES IDX 4 13 3 14 2 15 1 16
REMARK H PARENT
REMARK Flexibility Score: inf
ROOT
ATOM      1  C   UNL     1       5.808  -7.736   7.803  1.00  0.00     0.000 C 
ENDROOT
BRANCH   1   2
ATOM      2  C   UNL     1       7.161  -7.697   7.083  1.00  0.00     0.000 C 
BRANCH   2   3
ATOM      3  C   UNL     1       7.097  -8.455   5.749  1.00  0.00     0.000 C 
BRANCH   3   4
ATOM      4  C   UNL     1       5.807  -8.171   4.958  1.00  0.00     0.000 C 
BRANCH   4   5
ATOM      5  C   UNL     1       5.643  -8.994   3.665  1.00  0.00     0.006 C 
BRANCH   5   6
ATOM      6  C   UNL     1       4.562 -10.076   3.781  1.00  0.00     0.053 C 
BRANCH   6   7
ATOM      7  C   UNL     1       3.495  -9.858   2.755  1.00  0.00     0.041 C 
ATOM      8  O   UNL     1       2.614 -10.737   2.561  1.00  0.00    -0.550 OA
ATOM      9  O   UNL     1       3.501  -8.707   1.977  1.00  0.00    -0.550 OA
ENDBRANCH   6   7
ENDBRANCH   5   6
ENDBRANCH   4   5
ENDBRANCH   3   4
ENDBRANCH   2   3
ENDBRANCH   1   2
BRANCH   1  10
ATOM     10  C   UNL     1       5.680  -8.997   8.666  1.00  0.00     0.000 C 
BRANCH  10  11
ATOM     11  C   UNL     1       4.403  -9.773   8.323  1.00  0.00    -0.000 C 
BRANCH  11  12
ATOM     12  C   UNL     1       3.489  -8.947   7.403  1.00  0.00    -0.000 C 
BRANCH  12  13
ATOM     13  C   UNL     1       2.059  -8.813   7.950  1.00  0.00    -0.000 C 
BRANCH  13  14
ATOM     14  C   UNL     1       2.030  -8.449   9.445  1.00  0.00    -0.000 C 
BRANCH  14  15
ATOM     15  C   UNL     1       1.881  -6.938   9.679  1.00  0.00    -0.003 C 
ATOM     16  C   UNL     1       3.184  -6.275  10.125  1.00  0.00     0.004 C 
ENDBRANCH  14  15
ENDBRANCH  13  14
ENDBRANCH  12  13
ENDBRANCH  11  12
ENDBRANCH  10  11
ENDBRANCH   1  10
TORSDOF 12
ENDMDL
