MODEL 1
REMARK VINA RESULT:    -5.831      0.000      0.000
REMARK INTER + INTRA:          -7.427
REMARK INTER:                  -7.024
REMARK INTRA:                  -0.404
REMARK UNBOUND:                -0.404
REMARK SMILES O=c1c(O)c(-c2ccc(O)cc2O)oc2cc(O)cc(O)c12
REMARK SMILES IDX 5 1 3 2 2 3 1 4 22 5 20 6 19 7 17 8 16 9 15 10 14 11 6 12
REMARK SMILES IDX 8 13 7 14 9 15 11 16 12 17 10 18 13 20 4 22 21 24 18 26
REMARK H PARENT 10 19 13 21 4 23 21 25 18 27
REMARK Flexibility Score: inf
ROOT
ATOM      1  C   UNL     1      -3.706  39.633  20.064  1.00  0.00     0.184 A 
ATOM      2  C   UNL     1      -3.705  39.971  18.701  1.00  0.00     0.208 A 
ATOM      3  C   UNL     1      -2.848  39.281  17.829  1.00  0.00     0.238 A 
ATOM      4  O   UNL     1      -2.893  39.549  16.599  1.00  0.00    -0.285 OA
ATOM      5  C   UNL     1      -1.986  38.277  18.335  1.00  0.00     0.111 A 
ATOM      6  C   UNL     1      -1.048  37.543  17.549  1.00  0.00     0.134 A 
ATOM      7  C   UNL     1      -0.340  36.485  18.131  1.00  0.00     0.093 A 
ATOM      8  C   UNL     1      -0.486  36.177  19.482  1.00  0.00     0.123 A 
ATOM      9  C   UNL     1      -1.357  36.927  20.274  1.00  0.00     0.094 A 
ATOM     10  C   UNL     1      -2.106  37.964  19.714  1.00  0.00     0.146 A 
ATOM     11  O   UNL     1      -2.932  38.646  20.499  1.00  0.00    -0.451 OA
ENDROOT
BRANCH   1  12
ATOM     12  C   UNL     1      -4.568  40.336  21.043  1.00  0.00     0.063 A 
ATOM     13  C   UNL     1      -6.699  40.563  22.196  1.00  0.00     0.047 A 
ATOM     14  C   UNL     1      -5.876  39.885  21.294  1.00  0.00     0.020 A 
ATOM     15  C   UNL     1      -6.234  41.705  22.852  1.00  0.00     0.119 A 
ATOM     16  C   UNL     1      -4.938  42.172  22.600  1.00  0.00     0.093 A 
ATOM     17  C   UNL     1      -4.103  41.496  21.696  1.00  0.00     0.130 A 
BRANCH  15  18
ATOM     18  O   UNL     1      -7.067  42.371  23.749  1.00  0.00    -0.508 OA
ATOM     19  H   UNL     1      -8.007  42.046  23.939  1.00  0.00     0.293 HD
ENDBRANCH  15  18
BRANCH  17  20
ATOM     20  O   UNL     1      -2.812  41.967  21.458  1.00  0.00    -0.507 OA
ATOM     21  H   UNL     1      -2.376  41.887  20.547  1.00  0.00     0.293 HD
ENDBRANCH  17  20
ENDBRANCH   1  12
BRANCH   2  22
ATOM     22  O   UNL     1      -4.573  40.957  18.223  1.00  0.00    -0.502 OA
ATOM     23  H   UNL     1      -5.386  40.737  17.659  1.00  0.00     0.293 HD
ENDBRANCH   2  22
BRANCH   6  24
ATOM     24  O   UNL     1      -0.758  37.828  16.212  1.00  0.00    -0.507 OA
ATOM     25  H   UNL     1       0.170  37.978  15.844  1.00  0.00     0.293 HD
ENDBRANCH   6  24
BRANCH   8  26
ATOM     26  O   UNL     1       0.247  35.126  20.032  1.00  0.00    -0.508 OA
ATOM     27  H   UNL     1      -0.208  34.338  20.478  1.00  0.00     0.293 HD
ENDBRANCH   8  26
TORSDOF 6
ENDMDL
MODEL 2
REMARK VINA RESULT:    -5.537      2.002      6.489
REMARK INTER + INTRA:          -7.074
REMARK INTER:                  -6.607
REMARK INTRA:                  -0.467
REMARK UNBOUND:                -0.404
REMARK SMILES O=c1c(O)c(-c2ccc(O)cc2O)oc2cc(O)cc(O)c12
REMARK SMILES IDX 5 1 3 2 2 3 1 4 22 5 20 6 19 7 17 8 16 9 15 10 14 11 6 12
REMARK SMILES IDX 8 13 7 14 9 15 11 16 12 17 10 18 13 20 4 22 21 24 18 26
REMARK H PARENT 10 19 13 21 4 23 21 25 18 27
REMARK Flexibility Score: inf
ROOT
ATOM      1  C   UNL     1      -2.704  38.318  17.821  1.00  0.00     0.184 A 
ATOM      2  C   UNL     1      -3.136  39.069  16.715  1.00  0.00     0.208 A 
ATOM      3  C   UNL     1      -3.708  40.333  16.933  1.00  0.00     0.238 A 
ATOM      4  O   UNL     1      -4.040  41.026  15.935  1.00  0.00    -0.285 OA
ATOM      5  C   UNL     1      -3.863  40.819  18.254  1.00  0.00     0.111 A 
ATOM      6  C   UNL     1      -4.467  42.067  18.593  1.00  0.00     0.134 A 
ATOM      7  C   UNL     1      -4.450  42.502  19.924  1.00  0.00     0.093 A 
ATOM      8  C   UNL     1      -3.912  41.709  20.935  1.00  0.00     0.123 A 
ATOM      9  C   UNL     1      -3.372  40.460  20.623  1.00  0.00     0.094 A 
ATOM     10  C   UNL     1      -3.340  40.014  19.300  1.00  0.00     0.146 A 
ATOM     11  O   UNL     1      -2.807  38.825  19.043  1.00  0.00    -0.451 OA
ENDROOT
BRANCH   1  12
ATOM     12  C   UNL     1      -2.113  36.968  17.665  1.00  0.00     0.063 A 
ATOM     13  C   UNL     1      -2.365  34.600  17.159  1.00  0.00     0.047 A 
ATOM     14  C   UNL     1      -2.915  35.879  17.279  1.00  0.00     0.020 A 
ATOM     15  C   UNL     1      -1.012  34.388  17.432  1.00  0.00     0.119 A 
ATOM     16  C   UNL     1      -0.207  35.462  17.831  1.00  0.00     0.093 A 
ATOM     17  C   UNL     1      -0.751  36.750  17.953  1.00  0.00     0.130 A 
BRANCH  15  18
ATOM     18  O   UNL     1      -0.478  33.107  17.309  1.00  0.00    -0.508 OA
ATOM     19  H   UNL     1      -0.468  32.622  16.420  1.00  0.00     0.293 HD
ENDBRANCH  15  18
BRANCH  17  20
ATOM     20  O   UNL     1       0.063  37.813  18.345  1.00  0.00    -0.507 OA
ATOM     21  H   UNL     1       0.353  38.531  17.691  1.00  0.00     0.293 HD
ENDBRANCH  17  20
ENDBRANCH   1  12
BRANCH   2  22
ATOM     22  O   UNL     1      -2.960  38.574  15.420  1.00  0.00    -0.502 OA
ATOM     23  H   UNL     1      -2.633  39.155  14.657  1.00  0.00     0.293 HD
ENDBRANCH   2  22
BRANCH   6  24
ATOM     24  O   UNL     1      -5.115  42.896  17.673  1.00  0.00    -0.507 OA
ATOM     25  H   UNL     1      -5.934  42.639  17.143  1.00  0.00     0.293 HD
ENDBRANCH   6  24
BRANCH   8  26
ATOM     26  O   UNL     1      -3.926  42.168  22.251  1.00  0.00    -0.508 OA
ATOM     27  H   UNL     1      -3.243  42.837  22.586  1.00  0.00     0.293 HD
ENDBRANCH   8  26
TORSDOF 6
ENDMDL
MODEL 3
REMARK VINA RESULT:    -5.501      2.216      7.024
REMARK INTER + INTRA:          -7.031
REMARK INTER:                  -6.645
REMARK INTRA:                  -0.385
REMARK UNBOUND:                -0.404
REMARK SMILES O=c1c(O)c(-c2ccc(O)cc2O)oc2cc(O)cc(O)c12
REMARK SMILES IDX 5 1 3 2 2 3 1 4 22 5 20 6 19 7 17 8 16 9 15 10 14 11 6 12
REMARK SMILES IDX 8 13 7 14 9 15 11 16 12 17 10 18 13 20 4 22 21 24 18 26
REMARK H PARENT 10 19 13 21 4 23 21 25 18 27
REMARK Flexibility Score: inf
ROOT
ATOM      1  C   UNL     1      -2.437  37.753  18.627  1.00  0.00     0.184 A 
ATOM      2  C   UNL     1      -1.499  38.201  19.571  1.00  0.00     0.208 A 
ATOM      3  C   UNL     1      -1.793  39.341  20.336  1.00  0.00     0.238 A 
ATOM      4  O   UNL     1      -0.973  39.704  21.220  1.00  0.00    -0.285 OA
ATOM      5  C   UNL     1      -3.012  40.032  20.131  1.00  0.00     0.111 A 
ATOM      6  C   UNL     1      -3.395  41.222  20.821  1.00  0.00     0.134 A 
ATOM      7  C   UNL     1      -4.678  41.747  20.630  1.00  0.00     0.093 A 
ATOM      8  C   UNL     1      -5.568  41.165  19.728  1.00  0.00     0.123 A 
ATOM      9  C   UNL     1      -5.182  40.036  19.004  1.00  0.00     0.094 A 
ATOM     10  C   UNL     1      -3.922  39.467  19.200  1.00  0.00     0.146 A 
ATOM     11  O   UNL     1      -3.598  38.386  18.501  1.00  0.00    -0.451 OA
ENDROOT
BRANCH   1  12
ATOM     12  C   UNL     1      -2.182  36.571  17.771  1.00  0.00     0.063 A 
ATOM     13  C   UNL     1      -1.487  35.621  15.640  1.00  0.00     0.047 A 
ATOM     14  C   UNL     1      -1.703  36.733  16.458  1.00  0.00     0.020 A 
ATOM     15  C   UNL     1      -1.758  34.336  16.114  1.00  0.00     0.119 A 
ATOM     16  C   UNL     1      -2.249  34.164  17.415  1.00  0.00     0.093 A 
ATOM     17  C   UNL     1      -2.466  35.274  18.244  1.00  0.00     0.130 A 
BRANCH  15  18
ATOM     18  O   UNL     1      -1.539  33.237  15.286  1.00  0.00    -0.508 OA
ATOM     19  H   UNL     1      -2.060  32.376  15.401  1.00  0.00     0.293 HD
ENDBRANCH  15  18
BRANCH  17  20
ATOM     20  O   UNL     1      -2.949  35.089  19.539  1.00  0.00    -0.507 OA
ATOM     21  H   UNL     1      -3.082  35.868  20.174  1.00  0.00     0.293 HD
ENDBRANCH  17  20
ENDBRANCH   1  12
BRANCH   2  22
ATOM     22  O   UNL     1      -0.308  37.494  19.765  1.00  0.00    -0.502 OA
ATOM     23  H   UNL     1      -0.018  36.741  19.152  1.00  0.00     0.293 HD
ENDBRANCH   2  22
BRANCH   6  24
ATOM     24  O   UNL     1      -2.550  41.935  21.675  1.00  0.00    -0.507 OA
ATOM     25  H   UNL     1      -1.541  41.914  21.638  1.00  0.00     0.293 HD
ENDBRANCH   6  24
BRANCH   8  26
ATOM     26  O   UNL     1      -6.833  41.724  19.552  1.00  0.00    -0.508 OA
ATOM     27  H   UNL     1      -6.952  42.652  19.163  1.00  0.00     0.293 HD
ENDBRANCH   8  26
TORSDOF 6
ENDMDL
MODEL 4
REMARK VINA RESULT:    -5.482      2.494      6.814
REMARK INTER + INTRA:          -7.007
REMARK INTER:                  -6.748
REMARK INTRA:                  -0.259
REMARK UNBOUND:                -0.404
REMARK SMILES O=c1c(O)c(-c2ccc(O)cc2O)oc2cc(O)cc(O)c12
REMARK SMILES IDX 5 1 3 2 2 3 1 4 22 5 20 6 19 7 17 8 16 9 15 10 14 11 6 12
REMARK SMILES IDX 8 13 7 14 9 15 11 16 12 17 10 18 13 20 4 22 21 24 18 26
REMARK H PARENT 10 19 13 21 4 23 21 25 18 27
REMARK Flexibility Score: inf
ROOT
ATOM      1  C   UNL     1      -3.012  37.281  19.116  1.00  0.00     0.184 A 
ATOM      2  C   UNL     1      -1.983  37.688  19.982  1.00  0.00     0.208 A 
ATOM      3  C   UNL     1      -2.026  38.980  20.531  1.00  0.00     0.238 A 
ATOM      4  O   UNL     1      -1.132  39.318  21.350  1.00  0.00    -0.285 OA
ATOM      5  C   UNL     1      -3.084  39.857  20.188  1.00  0.00     0.111 A 
ATOM      6  C   UNL     1      -3.205  41.201  20.653  1.00  0.00     0.134 A 
ATOM      7  C   UNL     1      -4.361  41.933  20.353  1.00  0.00     0.093 A 
ATOM      8  C   UNL     1      -5.367  41.394  19.553  1.00  0.00     0.123 A 
ATOM      9  C   UNL     1      -5.232  40.102  19.044  1.00  0.00     0.094 A 
ATOM     10  C   UNL     1      -4.108  39.333  19.357  1.00  0.00     0.146 A 
ATOM     11  O   UNL     1      -4.023  38.104  18.863  1.00  0.00    -0.451 OA
ENDROOT
BRANCH   1  12
ATOM     12  C   UNL     1      -3.017  35.941  18.484  1.00  0.00     0.063 A 
ATOM     13  C   UNL     1      -3.978  33.715  18.267  1.00  0.00     0.047 A 
ATOM     14  C   UNL     1      -3.988  34.989  18.842  1.00  0.00     0.020 A 
ATOM     15  C   UNL     1      -2.995  33.372  17.337  1.00  0.00     0.119 A 
ATOM     16  C   UNL     1      -2.015  34.308  16.982  1.00  0.00     0.093 A 
ATOM     17  C   UNL     1      -2.018  35.589  17.554  1.00  0.00     0.130 A 
BRANCH  15  18
ATOM     18  O   UNL     1      -2.997  32.098  16.772  1.00  0.00    -0.508 OA
ATOM     19  H   UNL     1      -2.468  31.337  17.181  1.00  0.00     0.293 HD
ENDBRANCH  15  18
BRANCH  17  20
ATOM     20  O   UNL     1      -1.041  36.515  17.188  1.00  0.00    -0.507 OA
ATOM     21  H   UNL     1      -0.503  36.411  16.335  1.00  0.00     0.293 HD
ENDBRANCH  17  20
ENDBRANCH   1  12
BRANCH   2  22
ATOM     22  O   UNL     1      -0.956  36.801  20.315  1.00  0.00    -0.502 OA
ATOM     23  H   UNL     1      -0.734  35.991  19.748  1.00  0.00     0.293 HD
ENDBRANCH   2  22
BRANCH   6  24
ATOM     24  O   UNL     1      -2.217  41.866  21.383  1.00  0.00    -0.507 OA
ATOM     25  H   UNL     1      -1.870  42.790  21.173  1.00  0.00     0.293 HD
ENDBRANCH   6  24
BRANCH   8  26
ATOM     26  O   UNL     1      -6.497  42.158  19.262  1.00  0.00    -0.508 OA
ATOM     27  H   UNL     1      -7.187  42.375  19.971  1.00  0.00     0.293 HD
ENDBRANCH   8  26
TORSDOF 6
ENDMDL
MODEL 5
REMARK VINA RESULT:    -5.278      2.056      6.271
REMARK INTER + INTRA:          -6.761
REMARK INTER:                  -6.450
REMARK INTRA:                  -0.311
REMARK UNBOUND:                -0.404
REMARK SMILES O=c1c(O)c(-c2ccc(O)cc2O)oc2cc(O)cc(O)c12
REMARK SMILES IDX 5 1 3 2 2 3 1 4 22 5 20 6 19 7 17 8 16 9 15 10 14 11 6 12
REMARK SMILES IDX 8 13 7 14 9 15 11 16 12 17 10 18 13 20 4 22 21 24 18 26
REMARK H PARENT 10 19 13 21 4 23 21 25 18 27
REMARK Flexibility Score: inf
ROOT
ATOM      1  C   UNL     1      -2.904  39.381  18.464  1.00  0.00     0.184 A 
ATOM      2  C   UNL     1      -3.230  39.560  17.110  1.00  0.00     0.208 A 
ATOM      3  C   UNL     1      -4.018  40.661  16.739  1.00  0.00     0.238 A 
ATOM      4  O   UNL     1      -4.259  40.847  15.517  1.00  0.00    -0.285 OA
ATOM      5  C   UNL     1      -4.490  41.556  17.729  1.00  0.00     0.111 A 
ATOM      6  C   UNL     1      -5.329  42.681  17.472  1.00  0.00     0.134 A 
ATOM      7  C   UNL     1      -5.628  43.571  18.510  1.00  0.00     0.093 A 
ATOM      8  C   UNL     1      -5.174  43.343  19.808  1.00  0.00     0.123 A 
ATOM      9  C   UNL     1      -4.402  42.213  20.084  1.00  0.00     0.094 A 
ATOM     10  C   UNL     1      -4.055  41.326  19.061  1.00  0.00     0.146 A 
ATOM     11  O   UNL     1      -3.310  40.271  19.362  1.00  0.00    -0.451 OA
ENDROOT
BRANCH   1  12
ATOM     12  C   UNL     1      -2.096  38.229  18.928  1.00  0.00     0.063 A 
ATOM     13  C   UNL     1      -1.910  36.152  20.185  1.00  0.00     0.047 A 
ATOM     14  C   UNL     1      -2.678  37.225  19.724  1.00  0.00     0.020 A 
ATOM     15  C   UNL     1      -0.553  36.072  19.869  1.00  0.00     0.119 A 
ATOM     16  C   UNL     1       0.041  37.072  19.089  1.00  0.00     0.093 A 
ATOM     17  C   UNL     1      -0.723  38.152  18.620  1.00  0.00     0.130 A 
BRANCH  15  18
ATOM     18  O   UNL     1       0.200  34.996  20.337  1.00  0.00    -0.508 OA
ATOM     19  H   UNL     1       1.193  34.925  20.152  1.00  0.00     0.293 HD
ENDBRANCH  15  18
BRANCH  17  20
ATOM     20  O   UNL     1      -0.122  39.139  17.839  1.00  0.00    -0.507 OA
ATOM     21  H   UNL     1      -0.451  39.351  16.904  1.00  0.00     0.293 HD
ENDBRANCH  17  20
ENDBRANCH   1  12
BRANCH   2  22
ATOM     22  O   UNL     1      -2.742  38.670  16.149  1.00  0.00    -0.502 OA
ATOM     23  H   UNL     1      -1.770  38.657  15.865  1.00  0.00     0.293 HD
ENDBRANCH   2  22
BRANCH   6  24
ATOM     24  O   UNL     1      -5.911  42.952  16.231  1.00  0.00    -0.507 OA
ATOM     25  H   UNL     1      -5.965  43.867  15.807  1.00  0.00     0.293 HD
ENDBRANCH   6  24
BRANCH   8  26
ATOM     26  O   UNL     1      -5.504  44.242  20.821  1.00  0.00    -0.508 OA
ATOM     27  H   UNL     1      -5.263  45.224  20.757  1.00  0.00     0.293 HD
ENDBRANCH   8  26
TORSDOF 6
ENDMDL
MODEL 6
REMARK VINA RESULT:    -5.266      2.823      4.252
REMARK INTER + INTRA:          -6.747
REMARK INTER:                  -6.279
REMARK INTRA:                  -0.469
REMARK UNBOUND:                -0.404
REMARK SMILES O=c1c(O)c(-c2ccc(O)cc2O)oc2cc(O)cc(O)c12
REMARK SMILES IDX 5 1 3 2 2 3 1 4 22 5 20 6 19 7 17 8 16 9 15 10 14 11 6 12
REMARK SMILES IDX 8 13 7 14 9 15 11 16 12 17 10 18 13 20 4 22 21 24 18 26
REMARK H PARENT 10 19 13 21 4 23 21 25 18 27
REMARK Flexibility Score: inf
ROOT
ATOM      1  C   UNL     1      -2.523  37.838  18.484  1.00  0.00     0.184 A 
ATOM      2  C   UNL     1      -1.175  37.447  18.421  1.00  0.00     0.208 A 
ATOM      3  C   UNL     1      -0.864  36.142  18.003  1.00  0.00     0.238 A 
ATOM      4  O   UNL     1       0.347  35.817  17.894  1.00  0.00    -0.285 OA
ATOM      5  C   UNL     1      -1.904  35.239  17.678  1.00  0.00     0.111 A 
ATOM      6  C   UNL     1      -1.706  33.882  17.283  1.00  0.00     0.134 A 
ATOM      7  C   UNL     1      -2.801  33.119  16.860  1.00  0.00     0.093 A 
ATOM      8  C   UNL     1      -4.093  33.641  16.879  1.00  0.00     0.123 A 
ATOM      9  C   UNL     1      -4.306  34.948  17.320  1.00  0.00     0.094 A 
ATOM     10  C   UNL     1      -3.230  35.747  17.713  1.00  0.00     0.146 A 
ATOM     11  O   UNL     1      -3.474  36.988  18.114  1.00  0.00    -0.451 OA
ENDROOT
BRANCH   1  12
ATOM     12  C   UNL     1      -2.924  39.190  18.938  1.00  0.00     0.063 A 
ATOM     13  C   UNL     1      -3.202  40.820  20.725  1.00  0.00     0.047 A 
ATOM     14  C   UNL     1      -2.798  39.555  20.290  1.00  0.00     0.020 A 
ATOM     15  C   UNL     1      -3.745  41.734  19.819  1.00  0.00     0.119 A 
ATOM     16  C   UNL     1      -3.888  41.377  18.472  1.00  0.00     0.093 A 
ATOM     17  C   UNL     1      -3.484  40.109  18.027  1.00  0.00     0.130 A 
BRANCH  15  18
ATOM     18  O   UNL     1      -4.143  42.992  20.267  1.00  0.00    -0.508 OA
ATOM     19  H   UNL     1      -3.965  43.828  19.724  1.00  0.00     0.293 HD
ENDBRANCH  15  18
BRANCH  17  20
ATOM     20  O   UNL     1      -3.625  39.769  16.682  1.00  0.00    -0.507 OA
ATOM     21  H   UNL     1      -4.346  40.182  16.102  1.00  0.00     0.293 HD
ENDBRANCH  17  20
ENDBRANCH   1  12
BRANCH   2  22
ATOM     22  O   UNL     1      -0.165  38.360  18.735  1.00  0.00    -0.502 OA
ATOM     23  H   UNL     1       0.494  38.699  18.044  1.00  0.00     0.293 HD
ENDBRANCH   2  22
BRANCH   6  24
ATOM     24  O   UNL     1      -0.468  33.234  17.314  1.00  0.00    -0.507 OA
ATOM     25  H   UNL     1       0.416  33.689  17.486  1.00  0.00     0.293 HD
ENDBRANCH   6  24
BRANCH   8  26
ATOM     26  O   UNL     1      -5.161  32.847  16.466  1.00  0.00    -0.508 OA
ATOM     27  H   UNL     1      -5.978  32.712  17.051  1.00  0.00     0.293 HD
ENDBRANCH   8  26
TORSDOF 6
ENDMDL
MODEL 7
REMARK VINA RESULT:    -5.239      1.604      2.088
REMARK INTER + INTRA:          -6.715
REMARK INTER:                  -6.249
REMARK INTRA:                  -0.466
REMARK UNBOUND:                -0.404
REMARK SMILES O=c1c(O)c(-c2ccc(O)cc2O)oc2cc(O)cc(O)c12
REMARK SMILES IDX 5 1 3 2 2 3 1 4 22 5 20 6 19 7 17 8 16 9 15 10 14 11 6 12
REMARK SMILES IDX 8 13 7 14 9 15 11 16 12 17 10 18 13 20 4 22 21 24 18 26
REMARK H PARENT 10 19 13 21 4 23 21 25 18 27
REMARK Flexibility Score: inf
ROOT
ATOM      1  C   UNL     1      -3.493  39.406  18.846  1.00  0.00     0.184 A 
ATOM      2  C   UNL     1      -3.734  39.052  17.508  1.00  0.00     0.208 A 
ATOM      3  C   UNL     1      -3.040  37.963  16.956  1.00  0.00     0.238 A 
ATOM      4  O   UNL     1      -3.302  37.615  15.775  1.00  0.00    -0.285 OA
ATOM      5  C   UNL     1      -2.097  37.257  17.742  1.00  0.00     0.111 A 
ATOM      6  C   UNL     1      -1.307  36.165  17.273  1.00  0.00     0.134 A 
ATOM      7  C   UNL     1      -0.501  35.459  18.175  1.00  0.00     0.093 A 
ATOM      8  C   UNL     1      -0.405  35.846  19.510  1.00  0.00     0.123 A 
ATOM      9  C   UNL     1      -1.127  36.950  19.966  1.00  0.00     0.094 A 
ATOM     10  C   UNL     1      -1.969  37.651  19.100  1.00  0.00     0.146 A 
ATOM     11  O   UNL     1      -2.648  38.688  19.576  1.00  0.00    -0.451 OA
ENDROOT
BRANCH   1  12
ATOM     12  C   UNL     1      -4.173  40.558  19.484  1.00  0.00     0.063 A 
ATOM     13  C   UNL     1      -4.470  42.962  19.728  1.00  0.00     0.047 A 
ATOM     14  C   UNL     1      -3.850  41.874  19.107  1.00  0.00     0.020 A 
ATOM     15  C   UNL     1      -5.411  42.752  20.738  1.00  0.00     0.119 A 
ATOM     16  C   UNL     1      -5.730  41.446  21.131  1.00  0.00     0.093 A 
ATOM     17  C   UNL     1      -5.114  40.348  20.512  1.00  0.00     0.130 A 
BRANCH  15  18
ATOM     18  O   UNL     1      -6.021  43.846  21.348  1.00  0.00    -0.508 OA
ATOM     19  H   UNL     1      -6.609  44.484  20.824  1.00  0.00     0.293 HD
ENDBRANCH  15  18
BRANCH  17  20
ATOM     20  O   UNL     1      -5.445  39.052  20.908  1.00  0.00    -0.507 OA
ATOM     21  H   UNL     1      -6.073  38.878  21.685  1.00  0.00     0.293 HD
ENDBRANCH  17  20
ENDBRANCH   1  12
BRANCH   2  22
ATOM     22  O   UNL     1      -4.679  39.756  16.756  1.00  0.00    -0.502 OA
ATOM     23  H   UNL     1      -4.582  40.743  16.550  1.00  0.00     0.293 HD
ENDBRANCH   2  22
BRANCH   6  24
ATOM     24  O   UNL     1      -1.258  35.753  15.939  1.00  0.00    -0.507 OA
ATOM     25  H   UNL     1      -1.049  36.356  15.157  1.00  0.00     0.293 HD
ENDBRANCH   6  24
BRANCH   8  26
ATOM     26  O   UNL     1       0.420  35.130  20.376  1.00  0.00    -0.508 OA
ATOM     27  H   UNL     1       1.032  35.599  21.034  1.00  0.00     0.293 HD
ENDBRANCH   8  26
TORSDOF 6
ENDMDL
MODEL 8
REMARK VINA RESULT:    -5.208      4.546      7.103
REMARK INTER + INTRA:          -6.677
REMARK INTER:                  -6.281
REMARK INTRA:                  -0.396
REMARK UNBOUND:                -0.404
REMARK SMILES O=c1c(O)c(-c2ccc(O)cc2O)oc2cc(O)cc(O)c12
REMARK SMILES IDX 5 1 3 2 2 3 1 4 22 5 20 6 19 7 17 8 16 9 15 10 14 11 6 12
REMARK SMILES IDX 8 13 7 14 9 15 11 16 12 17 10 18 13 20 4 22 21 24 18 26
REMARK H PARENT 10 19 13 21 4 23 21 25 18 27
REMARK Flexibility Score: inf
ROOT
ATOM      1  C   UNL     1      -3.094  35.171  17.800  1.00  0.00     0.184 A 
ATOM      2  C   UNL     1      -2.530  35.482  19.049  1.00  0.00     0.208 A 
ATOM      3  C   UNL     1      -1.686  36.599  19.156  1.00  0.00     0.238 A 
ATOM      4  O   UNL     1      -1.230  36.905  20.289  1.00  0.00    -0.285 OA
ATOM      5  C   UNL     1      -1.398  37.377  18.008  1.00  0.00     0.111 A 
ATOM      6  C   UNL     1      -0.524  38.505  17.993  1.00  0.00     0.134 A 
ATOM      7  C   UNL     1      -0.415  39.277  16.830  1.00  0.00     0.093 A 
ATOM      8  C   UNL     1      -1.094  38.925  15.665  1.00  0.00     0.123 A 
ATOM      9  C   UNL     1      -1.905  37.789  15.651  1.00  0.00     0.094 A 
ATOM     10  C   UNL     1      -2.065  37.020  16.807  1.00  0.00     0.146 A 
ATOM     11  O   UNL     1      -2.854  35.955  16.756  1.00  0.00    -0.451 OA
ENDROOT
BRANCH   1  12
ATOM     12  C   UNL     1      -3.974  33.994  17.611  1.00  0.00     0.063 A 
ATOM     13  C   UNL     1      -6.198  33.006  17.585  1.00  0.00     0.047 A 
ATOM     14  C   UNL     1      -5.369  34.120  17.736  1.00  0.00     0.020 A 
ATOM     15  C   UNL     1      -5.648  31.750  17.319  1.00  0.00     0.119 A 
ATOM     16  C   UNL     1      -4.259  31.610  17.206  1.00  0.00     0.093 A 
ATOM     17  C   UNL     1      -3.418  32.724  17.355  1.00  0.00     0.130 A 
BRANCH  15  18
ATOM     18  O   UNL     1      -6.487  30.648  17.171  1.00  0.00    -0.508 OA
ATOM     19  H   UNL     1      -7.391  30.607  17.627  1.00  0.00     0.293 HD
ENDBRANCH  15  18
BRANCH  17  20
ATOM     20  O   UNL     1      -2.037  32.572  17.234  1.00  0.00    -0.507 OA
ATOM     21  H   UNL     1      -1.629  31.909  16.584  1.00  0.00     0.293 HD
ENDBRANCH  17  20
ENDBRANCH   1  12
BRANCH   2  22
ATOM     22  O   UNL     1      -2.839  34.706  20.169  1.00  0.00    -0.502 OA
ATOM     23  H   UNL     1      -3.782  34.630  20.534  1.00  0.00     0.293 HD
ENDBRANCH   2  22
BRANCH   6  24
ATOM     24  O   UNL     1       0.271  38.891  19.075  1.00  0.00    -0.507 OA
ATOM     25  H   UNL     1      -0.070  39.353  19.905  1.00  0.00     0.293 HD
ENDBRANCH   6  24
BRANCH   8  26
ATOM     26  O   UNL     1      -0.949  39.708  14.521  1.00  0.00    -0.508 OA
ATOM     27  H   UNL     1      -1.597  40.457  14.305  1.00  0.00     0.293 HD
ENDBRANCH   8  26
TORSDOF 6
ENDMDL
MODEL 9
REMARK VINA RESULT:    -5.159      2.112      3.326
REMARK INTER + INTRA:          -6.618
REMARK INTER:                  -6.246
REMARK INTRA:                  -0.372
REMARK UNBOUND:                -0.404
REMARK SMILES O=c1c(O)c(-c2ccc(O)cc2O)oc2cc(O)cc(O)c12
REMARK SMILES IDX 5 1 3 2 2 3 1 4 22 5 20 6 19 7 17 8 16 9 15 10 14 11 6 12
REMARK SMILES IDX 8 13 7 14 9 15 11 16 12 17 10 18 13 20 4 22 21 24 18 26
REMARK H PARENT 10 19 13 21 4 23 21 25 18 27
REMARK Flexibility Score: inf
ROOT
ATOM      1  C   UNL     1      -2.842  39.050  19.405  1.00  0.00     0.184 A 
ATOM      2  C   UNL     1      -1.580  38.697  19.910  1.00  0.00     0.208 A 
ATOM      3  C   UNL     1      -0.999  37.485  19.504  1.00  0.00     0.238 A 
ATOM      4  O   UNL     1       0.156  37.201  19.916  1.00  0.00    -0.285 OA
ATOM      5  C   UNL     1      -1.698  36.631  18.617  1.00  0.00     0.111 A 
ATOM      6  C   UNL     1      -1.223  35.361  18.171  1.00  0.00     0.134 A 
ATOM      7  C   UNL     1      -1.938  34.660  17.193  1.00  0.00     0.093 A 
ATOM      8  C   UNL     1      -3.143  35.151  16.692  1.00  0.00     0.123 A 
ATOM      9  C   UNL     1      -3.648  36.364  17.164  1.00  0.00     0.094 A 
ATOM     10  C   UNL     1      -2.938  37.104  18.112  1.00  0.00     0.146 A 
ATOM     11  O   UNL     1      -3.446  38.258  18.526  1.00  0.00    -0.451 OA
ENDROOT
BRANCH   1  12
ATOM     12  C   UNL     1      -3.523  40.303  19.809  1.00  0.00     0.063 A 
ATOM     13  C   UNL     1      -4.499  41.710  21.539  1.00  0.00     0.047 A 
ATOM     14  C   UNL     1      -3.832  40.543  21.160  1.00  0.00     0.020 A 
ATOM     15  C   UNL     1      -4.876  42.649  20.576  1.00  0.00     0.119 A 
ATOM     16  C   UNL     1      -4.587  42.414  19.226  1.00  0.00     0.093 A 
ATOM     17  C   UNL     1      -3.916  41.245  18.836  1.00  0.00     0.130 A 
BRANCH  15  18
ATOM     18  O   UNL     1      -5.541  43.808  20.969  1.00  0.00    -0.508 OA
ATOM     19  H   UNL     1      -5.933  44.450  20.290  1.00  0.00     0.293 HD
ENDBRANCH  15  18
BRANCH  17  20
ATOM     20  O   UNL     1      -3.628  41.026  17.489  1.00  0.00    -0.507 OA
ATOM     21  H   UNL     1      -2.745  40.627  17.192  1.00  0.00     0.293 HD
ENDBRANCH  17  20
ENDBRANCH   1  12
BRANCH   2  22
ATOM     22  O   UNL     1      -0.905  39.563  20.775  1.00  0.00    -0.502 OA
ATOM     23  H   UNL     1      -0.664  40.512  20.514  1.00  0.00     0.293 HD
ENDBRANCH   2  22
BRANCH   6  24
ATOM     24  O   UNL     1      -0.078  34.737  18.673  1.00  0.00    -0.507 OA
ATOM     25  H   UNL     1       0.280  34.856  19.609  1.00  0.00     0.293 HD
ENDBRANCH   6  24
BRANCH   8  26
ATOM     26  O   UNL     1      -3.837  34.419  15.730  1.00  0.00    -0.508 OA
ATOM     27  H   UNL     1      -4.777  34.079  15.899  1.00  0.00     0.293 HD
ENDBRANCH   8  26
TORSDOF 6
ENDMDL
