MODEL 1
REMARK VINA RESULT:    -5.213      0.000      0.000
REMARK INTER + INTRA:         -12.390
REMARK INTER:                  -9.784
REMARK INTRA:                  -2.605
REMARK UNBOUND:                -2.605
REMARK SMILES CCCCCCCCC=CCCCCCCCC(=O)[O-]
REMARK SMILES IDX 10 1 9 2 11 3 12 4 13 5 14 6 15 7 16 8 17 9 18 10 19 11
REMARK SMILES IDX 20 12 8 13 7 14 6 15 5 16 4 17 3 18 2 19 1 20
REMARK H PARENT
REMARK Flexibility Score: inf
ROOT
ATOM      1  C   UNL     1     150.160 168.690 149.260  1.00  0.00    -0.031 C 
ATOM      2  C   UNL     1     149.012 169.388 149.189  1.00  0.00    -0.031 C 
ENDROOT
BRANCH   1   3
ATOM      3  C   UNL     1     151.157 168.786 150.391  1.00  0.00     0.027 C 
BRANCH   3   4
ATOM      4  C   UNL     1     150.656 168.090 151.665  1.00  0.00     0.004 C 
BRANCH   4   5
ATOM      5  C   UNL     1     150.795 168.985 152.909  1.00  0.00     0.000 C 
BRANCH   5   6
ATOM      6  C   UNL     1     151.451 170.339 152.587  1.00  0.00     0.000 C 
BRANCH   6   7
ATOM      7  C   UNL     1     152.807 170.513 153.297  1.00  0.00     0.000 C 
BRANCH   7   8
ATOM      8  C   UNL     1     153.440 169.171 153.709  1.00  0.00     0.006 C 
BRANCH   8   9
ATOM      9  C   UNL     1     154.922 169.026 153.324  1.00  0.00     0.053 C 
BRANCH   9  10
ATOM     10  C   UNL     1     155.138 169.174 151.847  1.00  0.00     0.041 C 
ATOM     11  O   UNL     1     154.631 168.345 151.045  1.00  0.00    -0.550 OA
ATOM     12  O   UNL     1     155.879 170.243 151.357  1.00  0.00    -0.550 OA
ENDBRANCH   9  10
ENDBRANCH   8   9
ENDBRANCH   7   8
ENDBRANCH   6   7
ENDBRANCH   5   6
ENDBRANCH   4   5
ENDBRANCH   3   4
ENDBRANCH   1   3
BRANCH   2  13
ATOM     13  C   UNL     1     148.576 170.435 150.184  1.00  0.00     0.027 C 
BRANCH  13  14
ATOM     14  C   UNL     1     147.465 169.890 151.093  1.00  0.00     0.004 C 
BRANCH  14  15
ATOM     15  C   UNL     1     146.483 168.978 150.339  1.00  0.00     0.000 C 
BRANCH  15  16
ATOM     16  C   UNL     1     146.066 167.753 151.167  1.00  0.00     0.000 C 
BRANCH  16  17
ATOM     17  C   UNL     1     147.294 166.941 151.605  1.00  0.00    -0.000 C 
BRANCH  17  18
ATOM     18  C   UNL     1     147.813 166.000 150.504  1.00  0.00    -0.000 C 
BRANCH  18  19
ATOM     19  C   UNL     1     148.778 164.903 150.992  1.00  0.00    -0.003 C 
ATOM     20  C   UNL     1     148.938 164.879 152.512  1.00  0.00     0.004 C 
ENDBRANCH  18  19
ENDBRANCH  17  18
ENDBRANCH  16  17
ENDBRANCH  15  16
ENDBRANCH  14  15
ENDBRANCH  13  14
ENDBRANCH   2  13
TORSDOF 15
ENDMDL
MODEL 2
REMARK VINA RESULT:    -5.185      1.773      2.458
REMARK INTER + INTRA:         -12.337
REMARK INTER:                 -10.211
REMARK INTRA:                  -2.126
REMARK UNBOUND:                -2.605
REMARK SMILES CCCCCCCCC=CCCCCCCCC(=O)[O-]
REMARK SMILES IDX 10 1 9 2 11 3 12 4 13 5 14 6 15 7 16 8 17 9 18 10 19 11
REMARK SMILES IDX 20 12 8 13 7 14 6 15 5 16 4 17 3 18 2 19 1 20
REMARK H PARENT
REMARK Flexibility Score: inf
ROOT
ATOM      1  C   UNL     1     150.727 168.343 149.056  1.00  0.00    -0.031 C 
ATOM      2  C   UNL     1     149.507 168.731 148.645  1.00  0.00    -0.031 C 
ENDROOT
BRANCH   1   3
ATOM      3  C   UNL     1     151.356 168.733 150.373  1.00  0.00     0.027 C 
BRANCH   3   4
ATOM      4  C   UNL     1     150.524 168.262 151.575  1.00  0.00     0.004 C 
BRANCH   4   5
ATOM      5  C   UNL     1     150.977 168.920 152.890  1.00  0.00     0.000 C 
BRANCH   5   6
ATOM      6  C   UNL     1     151.188 170.436 152.744  1.00  0.00     0.000 C 
BRANCH   6   7
ATOM      7  C   UNL     1     152.500 170.908 153.399  1.00  0.00     0.000 C 
BRANCH   7   8
ATOM      8  C   UNL     1     153.746 170.243 152.783  1.00  0.00     0.006 C 
BRANCH   8   9
ATOM      9  C   UNL     1     154.285 169.046 153.583  1.00  0.00     0.053 C 
BRANCH   9  10
ATOM     10  C   UNL     1     155.042 168.084 152.717  1.00  0.00     0.041 C 
ATOM     11  O   UNL     1     155.888 167.302 153.226  1.00  0.00    -0.550 OA
ATOM     12  O   UNL     1     154.790 168.034 151.350  1.00  0.00    -0.550 OA
ENDBRANCH   9  10
ENDBRANCH   8   9
ENDBRANCH   7   8
ENDBRANCH   6   7
ENDBRANCH   5   6
ENDBRANCH   4   5
ENDBRANCH   3   4
ENDBRANCH   1   3
BRANCH   2  13
ATOM     13  C   UNL     1     148.606 169.681 149.394  1.00  0.00     0.027 C 
BRANCH  13  14
ATOM     14  C   UNL     1     147.269 169.006 149.736  1.00  0.00     0.004 C 
BRANCH  14  15
ATOM     15  C   UNL     1     146.743 169.413 151.122  1.00  0.00     0.000 C 
BRANCH  15  16
ATOM     16  C   UNL     1     147.637 170.460 151.804  1.00  0.00     0.000 C 
BRANCH  16  17
ATOM     17  C   UNL     1     147.511 170.380 153.333  1.00  0.00    -0.000 C 
BRANCH  17  18
ATOM     18  C   UNL     1     146.847 169.076 153.810  1.00  0.00    -0.000 C 
BRANCH  18  19
ATOM     19  C   UNL     1     147.776 168.121 154.582  1.00  0.00    -0.003 C 
ATOM     20  C   UNL     1     148.621 168.832 155.639  1.00  0.00     0.004 C 
ENDBRANCH  18  19
ENDBRANCH  17  18
ENDBRANCH  16  17
ENDBRANCH  15  16
ENDBRANCH  14  15
ENDBRANCH  13  14
ENDBRANCH   2  13
TORSDOF 15
ENDMDL
MODEL 3
REMARK VINA RESULT:    -5.114      2.551      6.259
REMARK INTER + INTRA:         -12.204
REMARK INTER:                  -9.743
REMARK INTRA:                  -2.461
REMARK UNBOUND:                -2.605
REMARK SMILES CCCCCCCCC=CCCCCCCCC(=O)[O-]
REMARK SMILES IDX 10 1 9 2 11 3 12 4 13 5 14 6 15 7 16 8 17 9 18 10 19 11
REMARK SMILES IDX 20 12 8 13 7 14 6 15 5 16 4 17 3 18 2 19 1 20
REMARK H PARENT
REMARK Flexibility Score: inf
ROOT
ATOM      1  C   UNL     1     150.224 168.719 151.676  1.00  0.00    -0.031 C 
ATOM      2  C   UNL     1     149.701 169.582 152.565  1.00  0.00    -0.031 C 
ENDROOT
BRANCH   1   3
ATOM      3  C   UNL     1     150.728 169.097 150.303  1.00  0.00     0.027 C 
BRANCH   3   4
ATOM      4  C   UNL     1     149.761 168.665 149.192  1.00  0.00     0.004 C 
BRANCH   4   5
ATOM      5  C   UNL     1     148.471 169.503 149.185  1.00  0.00     0.000 C 
BRANCH   5   6
ATOM      6  C   UNL     1     147.218 168.652 149.452  1.00  0.00     0.000 C 
BRANCH   6   7
ATOM      7  C   UNL     1     146.582 168.962 150.821  1.00  0.00     0.000 C 
BRANCH   7   8
ATOM      8  C   UNL     1     146.546 167.736 151.752  1.00  0.00     0.006 C 
BRANCH   8   9
ATOM      9  C   UNL     1     147.095 166.446 151.121  1.00  0.00     0.053 C 
BRANCH   9  10
ATOM     10  C   UNL     1     148.026 165.718 152.044  1.00  0.00     0.041 C 
ATOM     11  O   UNL     1     149.143 165.312 151.628  1.00  0.00    -0.550 OA
ATOM     12  O   UNL     1     147.668 165.514 153.373  1.00  0.00    -0.550 OA
ENDBRANCH   9  10
ENDBRANCH   8   9
ENDBRANCH   7   8
ENDBRANCH   6   7
ENDBRANCH   5   6
ENDBRANCH   4   5
ENDBRANCH   3   4
ENDBRANCH   1   3
BRANCH   2  13
ATOM     13  C   UNL     1     149.461 171.049 152.306  1.00  0.00     0.027 C 
BRANCH  13  14
ATOM     14  C   UNL     1     150.673 171.883 152.745  1.00  0.00     0.004 C 
BRANCH  14  15
ATOM     15  C   UNL     1     151.596 171.117 153.707  1.00  0.00     0.000 C 
BRANCH  15  16
ATOM     16  C   UNL     1     153.079 171.255 153.330  1.00  0.00     0.000 C 
BRANCH  16  17
ATOM     17  C   UNL     1     153.607 169.962 152.691  1.00  0.00    -0.000 C 
BRANCH  17  18
ATOM     18  C   UNL     1     153.251 168.704 153.502  1.00  0.00    -0.000 C 
BRANCH  18  19
ATOM     19  C   UNL     1     154.459 167.877 153.979  1.00  0.00    -0.003 C 
ATOM     20  C   UNL     1     155.801 168.511 153.610  1.00  0.00     0.004 C 
ENDBRANCH  18  19
ENDBRANCH  17  18
ENDBRANCH  16  17
ENDBRANCH  15  16
ENDBRANCH  14  15
ENDBRANCH  13  14
ENDBRANCH   2  13
TORSDOF 15
ENDMDL
MODEL 4
REMARK VINA RESULT:    -5.104      4.164      7.012
REMARK INTER + INTRA:         -12.184
REMARK INTER:                  -9.914
REMARK INTRA:                  -2.270
REMARK UNBOUND:                -2.605
REMARK SMILES CCCCCCCCC=CCCCCCCCC(=O)[O-]
REMARK SMILES IDX 10 1 9 2 11 3 12 4 13 5 14 6 15 7 16 8 17 9 18 10 19 11
REMARK SMILES IDX 20 12 8 13 7 14 6 15 5 16 4 17 3 18 2 19 1 20
REMARK H PARENT
REMARK Flexibility Score: inf
ROOT
ATOM      1  C   UNL     1     148.971 165.978 152.000  1.00  0.00    -0.031 C 
ATOM      2  C   UNL     1     148.329 166.939 152.689  1.00  0.00    -0.031 C 
ENDROOT
BRANCH   1   3
ATOM      3  C   UNL     1     148.530 165.438 150.660  1.00  0.00     0.027 C 
BRANCH   3   4
ATOM      4  C   UNL     1     147.669 164.174 150.801  1.00  0.00     0.004 C 
BRANCH   4   5
ATOM      5  C   UNL     1     148.478 162.889 150.554  1.00  0.00     0.000 C 
BRANCH   5   6
ATOM      6  C   UNL     1     148.966 162.243 151.863  1.00  0.00     0.000 C 
BRANCH   6   7
ATOM      7  C   UNL     1     150.496 162.068 151.892  1.00  0.00     0.000 C 
BRANCH   7   8
ATOM      8  C   UNL     1     151.007 161.110 150.800  1.00  0.00     0.006 C 
BRANCH   8   9
ATOM      9  C   UNL     1     150.304 159.742 150.779  1.00  0.00     0.053 C 
BRANCH   9  10
ATOM     10  C   UNL     1     150.064 159.252 149.382  1.00  0.00     0.041 C 
ATOM     11  O   UNL     1     149.018 158.608 149.107  1.00  0.00    -0.550 OA
ATOM     12  O   UNL     1     150.986 159.533 148.380  1.00  0.00    -0.550 OA
ENDBRANCH   9  10
ENDBRANCH   8   9
ENDBRANCH   7   8
ENDBRANCH   6   7
ENDBRANCH   5   6
ENDBRANCH   4   5
ENDBRANCH   3   4
ENDBRANCH   1   3
BRANCH   2  13
ATOM     13  C   UNL     1     147.025 167.574 152.272  1.00  0.00     0.027 C 
BRANCH  13  14
ATOM     14  C   UNL     1     147.276 168.896 151.534  1.00  0.00     0.004 C 
BRANCH  14  15
ATOM     15  C   UNL     1     146.834 168.841 150.062  1.00  0.00     0.000 C 
BRANCH  15  16
ATOM     16  C   UNL     1     148.020 168.912 149.089  1.00  0.00     0.000 C 
BRANCH  16  17
ATOM     17  C   UNL     1     149.234 169.584 149.750  1.00  0.00    -0.000 C 
BRANCH  17  18
ATOM     18  C   UNL     1     150.495 168.704 149.718  1.00  0.00    -0.000 C 
BRANCH  18  19
ATOM     19  C   UNL     1     151.368 168.776 150.985  1.00  0.00    -0.003 C 
ATOM     20  C   UNL     1     150.855 169.792 152.007  1.00  0.00     0.004 C 
ENDBRANCH  18  19
ENDBRANCH  17  18
ENDBRANCH  16  17
ENDBRANCH  15  16
ENDBRANCH  14  15
ENDBRANCH  13  14
ENDBRANCH   2  13
TORSDOF 15
ENDMDL
MODEL 5
REMARK VINA RESULT:    -5.075      3.630      6.152
REMARK INTER + INTRA:         -12.131
REMARK INTER:                  -9.125
REMARK INTRA:                  -3.007
REMARK UNBOUND:                -2.605
REMARK SMILES CCCCCCCCC=CCCCCCCCC(=O)[O-]
REMARK SMILES IDX 10 1 9 2 11 3 12 4 13 5 14 6 15 7 16 8 17 9 18 10 19 11
REMARK SMILES IDX 20 12 8 13 7 14 6 15 5 16 4 17 3 18 2 19 1 20
REMARK H PARENT
REMARK Flexibility Score: inf
ROOT
ATOM      1  C   UNL     1     146.824 169.195 150.876  1.00  0.00    -0.031 C 
ATOM      2  C   UNL     1     147.416 169.046 149.677  1.00  0.00    -0.031 C 
ENDROOT
BRANCH   1   3
ATOM      3  C   UNL     1     147.267 170.172 151.939  1.00  0.00     0.027 C 
BRANCH   3   4
ATOM      4  C   UNL     1     147.239 169.552 153.344  1.00  0.00     0.004 C 
BRANCH   4   5
ATOM      5  C   UNL     1     147.008 168.032 153.303  1.00  0.00     0.000 C 
BRANCH   5   6
ATOM      6  C   UNL     1     148.229 167.240 153.804  1.00  0.00     0.000 C 
BRANCH   6   7
ATOM      7  C   UNL     1     148.356 165.867 153.116  1.00  0.00     0.000 C 
BRANCH   7   8
ATOM      8  C   UNL     1     148.911 165.969 151.683  1.00  0.00     0.006 C 
BRANCH   8   9
ATOM      9  C   UNL     1     147.923 165.530 150.589  1.00  0.00     0.053 C 
BRANCH   9  10
ATOM     10  C   UNL     1     146.792 164.717 151.144  1.00  0.00     0.041 C 
ATOM     11  O   UNL     1     146.944 163.488 151.370  1.00  0.00    -0.550 OA
ATOM     12  O   UNL     1     145.576 165.326 151.436  1.00  0.00    -0.550 OA
ENDBRANCH   9  10
ENDBRANCH   8   9
ENDBRANCH   7   8
ENDBRANCH   6   7
ENDBRANCH   5   6
ENDBRANCH   4   5
ENDBRANCH   3   4
ENDBRANCH   1   3
BRANCH   2  13
ATOM     13  C   UNL     1     148.662 169.770 149.235  1.00  0.00     0.027 C 
BRANCH  13  14
ATOM     14  C   UNL     1     149.730 168.774 148.760  1.00  0.00     0.004 C 
BRANCH  14  15
ATOM     15  C   UNL     1     150.766 168.459 149.852  1.00  0.00     0.000 C 
BRANCH  15  16
ATOM     16  C   UNL     1     150.723 169.468 151.010  1.00  0.00     0.000 C 
BRANCH  16  17
ATOM     17  C   UNL     1     151.326 168.866 152.288  1.00  0.00    -0.000 C 
BRANCH  17  18
ATOM     18  C   UNL     1     150.965 169.664 153.553  1.00  0.00    -0.000 C 
BRANCH  18  19
ATOM     19  C   UNL     1     150.681 171.159 153.316  1.00  0.00    -0.003 C 
ATOM     20  C   UNL     1     151.932 172.031 153.430  1.00  0.00     0.004 C 
ENDBRANCH  18  19
ENDBRANCH  17  18
ENDBRANCH  16  17
ENDBRANCH  15  16
ENDBRANCH  14  15
ENDBRANCH  13  14
ENDBRANCH   2  13
TORSDOF 15
ENDMDL
MODEL 6
REMARK VINA RESULT:    -5.066      2.436      6.128
REMARK INTER + INTRA:         -12.114
REMARK INTER:                  -9.792
REMARK INTRA:                  -2.322
REMARK UNBOUND:                -2.605
REMARK SMILES CCCCCCCCC=CCCCCCCCC(=O)[O-]
REMARK SMILES IDX 10 1 9 2 11 3 12 4 13 5 14 6 15 7 16 8 17 9 18 10 19 11
REMARK SMILES IDX 20 12 8 13 7 14 6 15 5 16 4 17 3 18 2 19 1 20
REMARK H PARENT
REMARK Flexibility Score: inf
ROOT
ATOM      1  C   UNL     1     149.315 169.000 149.050  1.00  0.00    -0.031 C 
ATOM      2  C   UNL     1     150.441 168.380 149.448  1.00  0.00    -0.031 C 
ENDROOT
BRANCH   1   3
ATOM      3  C   UNL     1     148.733 170.231 149.703  1.00  0.00     0.027 C 
BRANCH   3   4
ATOM      4  C   UNL     1     147.572 169.891 150.649  1.00  0.00     0.004 C 
BRANCH   4   5
ATOM      5  C   UNL     1     146.550 168.943 149.997  1.00  0.00     0.000 C 
BRANCH   5   6
ATOM      6  C   UNL     1     145.862 168.027 151.024  1.00  0.00     0.000 C 
BRANCH   6   7
ATOM      7  C   UNL     1     146.862 167.420 152.027  1.00  0.00     0.000 C 
BRANCH   7   8
ATOM      8  C   UNL     1     146.975 165.890 151.903  1.00  0.00     0.006 C 
BRANCH   8   9
ATOM      9  C   UNL     1     148.155 165.410 151.042  1.00  0.00     0.053 C 
BRANCH   9  10
ATOM     10  C   UNL     1     149.120 164.571 151.825  1.00  0.00     0.041 C 
ATOM     11  O   UNL     1     149.548 164.969 152.940  1.00  0.00    -0.550 OA
ATOM     12  O   UNL     1     149.526 163.335 151.332  1.00  0.00    -0.550 OA
ENDBRANCH   9  10
ENDBRANCH   8   9
ENDBRANCH   7   8
ENDBRANCH   6   7
ENDBRANCH   5   6
ENDBRANCH   4   5
ENDBRANCH   3   4
ENDBRANCH   1   3
BRANCH   2  13
ATOM     13  C   UNL     1     151.257 168.766 150.656  1.00  0.00     0.027 C 
BRANCH  13  14
ATOM     14  C   UNL     1     150.618 168.219 151.940  1.00  0.00     0.004 C 
BRANCH  14  15
ATOM     15  C   UNL     1     151.244 168.820 153.210  1.00  0.00     0.000 C 
BRANCH  15  16
ATOM     16  C   UNL     1     151.301 170.355 153.165  1.00  0.00     0.000 C 
BRANCH  16  17
ATOM     17  C   UNL     1     152.755 170.852 153.172  1.00  0.00    -0.000 C 
BRANCH  17  18
ATOM     18  C   UNL     1     153.776 169.712 153.326  1.00  0.00    -0.000 C 
BRANCH  18  19
ATOM     19  C   UNL     1     154.861 169.662 152.234  1.00  0.00    -0.003 C 
ATOM     20  C   UNL     1     154.753 168.426 151.340  1.00  0.00     0.004 C 
ENDBRANCH  18  19
ENDBRANCH  17  18
ENDBRANCH  16  17
ENDBRANCH  15  16
ENDBRANCH  14  15
ENDBRANCH  13  14
ENDBRANCH   2  13
TORSDOF 15
ENDMDL
MODEL 7
REMARK VINA RESULT:    -5.063      1.559      2.656
REMARK INTER + INTRA:         -12.107
REMARK INTER:                  -9.442
REMARK INTRA:                  -2.665
REMARK UNBOUND:                -2.605
REMARK SMILES CCCCCCCCC=CCCCCCCCC(=O)[O-]
REMARK SMILES IDX 10 1 9 2 11 3 12 4 13 5 14 6 15 7 16 8 17 9 18 10 19 11
REMARK SMILES IDX 20 12 8 13 7 14 6 15 5 16 4 17 3 18 2 19 1 20
REMARK H PARENT
REMARK Flexibility Score: inf
ROOT
ATOM      1  C   UNL     1     148.445 170.661 150.542  1.00  0.00    -0.031 C 
ATOM      2  C   UNL     1     148.966 169.702 149.755  1.00  0.00    -0.031 C 
ENDROOT
BRANCH   1   3
ATOM      3  C   UNL     1     149.193 171.370 151.646  1.00  0.00     0.027 C 
BRANCH   3   4
ATOM      4  C   UNL     1     149.129 170.603 152.974  1.00  0.00     0.004 C 
BRANCH   4   5
ATOM      5  C   UNL     1     150.527 170.332 153.558  1.00  0.00     0.000 C 
BRANCH   5   6
ATOM      6  C   UNL     1     151.560 171.382 153.115  1.00  0.00     0.000 C 
BRANCH   6   7
ATOM      7  C   UNL     1     152.974 170.786 152.975  1.00  0.00     0.000 C 
BRANCH   7   8
ATOM      8  C   UNL     1     152.956 169.297 152.584  1.00  0.00     0.006 C 
BRANCH   8   9
ATOM      9  C   UNL     1     154.237 168.809 151.888  1.00  0.00     0.053 C 
BRANCH   9  10
ATOM     10  C   UNL     1     155.176 168.134 152.843  1.00  0.00     0.041 C 
ATOM     11  O   UNL     1     155.809 168.810 153.696  1.00  0.00    -0.550 OA
ATOM     12  O   UNL     1     155.330 166.752 152.805  1.00  0.00    -0.550 OA
ENDBRANCH   9  10
ENDBRANCH   8   9
ENDBRANCH   7   8
ENDBRANCH   6   7
ENDBRANCH   5   6
ENDBRANCH   4   5
ENDBRANCH   3   4
ENDBRANCH   1   3
BRANCH   2  13
ATOM     13  C   UNL     1     150.352 169.126 149.901  1.00  0.00     0.027 C 
BRANCH  13  14
ATOM     14  C   UNL     1     150.297 167.594 149.991  1.00  0.00     0.004 C 
BRANCH  14  15
ATOM     15  C   UNL     1     149.020 167.092 150.686  1.00  0.00     0.000 C 
BRANCH  15  16
ATOM     16  C   UNL     1     149.205 166.924 152.202  1.00  0.00     0.000 C 
BRANCH  16  17
ATOM     17  C   UNL     1     147.877 167.130 152.945  1.00  0.00    -0.000 C 
BRANCH  17  18
ATOM     18  C   UNL     1     146.784 167.749 152.056  1.00  0.00    -0.000 C 
BRANCH  18  19
ATOM     19  C   UNL     1     145.490 166.921 151.948  1.00  0.00    -0.003 C 
ATOM     20  C   UNL     1     145.745 165.414 151.931  1.00  0.00     0.004 C 
ENDBRANCH  18  19
ENDBRANCH  17  18
ENDBRANCH  16  17
ENDBRANCH  15  16
ENDBRANCH  14  15
ENDBRANCH  13  14
ENDBRANCH   2  13
TORSDOF 15
ENDMDL
MODEL 8
REMARK VINA RESULT:    -5.048      1.708      2.632
REMARK INTER + INTRA:         -12.080
REMARK INTER:                  -9.243
REMARK INTRA:                  -2.837
REMARK UNBOUND:                -2.605
REMARK SMILES CCCCCCCCC=CCCCCCCCC(=O)[O-]
REMARK SMILES IDX 10 1 9 2 11 3 12 4 13 5 14 6 15 7 16 8 17 9 18 10 19 11
REMARK SMILES IDX 20 12 8 13 7 14 6 15 5 16 4 17 3 18 2 19 1 20
REMARK H PARENT
REMARK Flexibility Score: inf
ROOT
ATOM      1  C   UNL     1     147.738 169.249 150.102  1.00  0.00    -0.031 C 
ATOM      2  C   UNL     1     146.896 169.353 151.146  1.00  0.00    -0.031 C 
ENDROOT
BRANCH   1   3
ATOM      3  C   UNL     1     149.065 169.963 149.992  1.00  0.00     0.027 C 
BRANCH   3   4
ATOM      4  C   UNL     1     150.248 168.984 149.965  1.00  0.00     0.004 C 
BRANCH   4   5
ATOM      5  C   UNL     1     151.076 169.038 151.261  1.00  0.00     0.000 C 
BRANCH   5   6
ATOM      6  C   UNL     1     150.855 170.344 152.044  1.00  0.00     0.000 C 
BRANCH   6   7
ATOM      7  C   UNL     1     151.596 170.346 153.395  1.00  0.00     0.000 C 
BRANCH   7   8
ATOM      8  C   UNL     1     153.122 170.213 153.237  1.00  0.00     0.006 C 
BRANCH   8   9
ATOM      9  C   UNL     1     153.697 168.880 153.744  1.00  0.00     0.053 C 
BRANCH   9  10
ATOM     10  C   UNL     1     154.919 168.466 152.980  1.00  0.00     0.041 C 
ATOM     11  O   UNL     1     156.035 168.391 153.559  1.00  0.00    -0.550 OA
ATOM     12  O   UNL     1     154.818 168.137 151.632  1.00  0.00    -0.550 OA
ENDBRANCH   9  10
ENDBRANCH   8   9
ENDBRANCH   7   8
ENDBRANCH   6   7
ENDBRANCH   5   6
ENDBRANCH   4   5
ENDBRANCH   3   4
ENDBRANCH   1   3
BRANCH   2  13
ATOM     13  C   UNL     1     147.104 170.258 152.335  1.00  0.00     0.027 C 
BRANCH  13  14
ATOM     14  C   UNL     1     146.926 169.480 153.647  1.00  0.00     0.004 C 
BRANCH  14  15
ATOM     15  C   UNL     1     148.174 169.545 154.543  1.00  0.00     0.000 C 
BRANCH  15  16
ATOM     16  C   UNL     1     148.471 168.204 155.232  1.00  0.00     0.000 C 
BRANCH  16  17
ATOM     17  C   UNL     1     149.556 167.424 154.474  1.00  0.00    -0.000 C 
BRANCH  17  18
ATOM     18  C   UNL     1     149.008 166.172 153.767  1.00  0.00    -0.000 C 
BRANCH  18  19
ATOM     19  C   UNL     1     148.811 166.321 152.246  1.00  0.00    -0.003 C 
ATOM     20  C   UNL     1     147.512 165.689 151.747  1.00  0.00     0.004 C 
ENDBRANCH  18  19
ENDBRANCH  17  18
ENDBRANCH  16  17
ENDBRANCH  15  16
ENDBRANCH  14  15
ENDBRANCH  13  14
ENDBRANCH   2  13
TORSDOF 15
ENDMDL
MODEL 9
REMARK VINA RESULT:    -4.992      3.187      6.219
REMARK INTER + INTRA:         -11.975
REMARK INTER:                  -9.510
REMARK INTRA:                  -2.465
REMARK UNBOUND:                -2.605
REMARK SMILES CCCCCCCCC=CCCCCCCCC(=O)[O-]
REMARK SMILES IDX 10 1 9 2 11 3 12 4 13 5 14 6 15 7 16 8 17 9 18 10 19 11
REMARK SMILES IDX 20 12 8 13 7 14 6 15 5 16 4 17 3 18 2 19 1 20
REMARK H PARENT
REMARK Flexibility Score: inf
ROOT
ATOM      1  C   UNL     1     150.480 168.756 149.733  1.00  0.00    -0.031 C 
ATOM      2  C   UNL     1     151.189 168.754 150.877  1.00  0.00    -0.031 C 
ENDROOT
BRANCH   1   3
ATOM      3  C   UNL     1     149.038 168.322 149.613  1.00  0.00     0.027 C 
BRANCH   3   4
ATOM      4  C   UNL     1     148.069 169.512 149.652  1.00  0.00     0.004 C 
BRANCH   4   5
ATOM      5  C   UNL     1     148.769 170.818 150.068  1.00  0.00     0.000 C 
BRANCH   5   6
ATOM      6  C   UNL     1     148.377 171.266 151.487  1.00  0.00     0.000 C 
BRANCH   6   7
ATOM      7  C   UNL     1     147.287 170.368 152.103  1.00  0.00     0.000 C 
BRANCH   7   8
ATOM      8  C   UNL     1     147.666 169.848 153.502  1.00  0.00     0.006 C 
BRANCH   8   9
ATOM      9  C   UNL     1     146.617 168.918 154.136  1.00  0.00     0.053 C 
BRANCH   9  10
ATOM     10  C   UNL     1     147.026 167.477 154.067  1.00  0.00     0.041 C 
ATOM     11  O   UNL     1     147.452 166.988 152.987  1.00  0.00    -0.550 OA
ATOM     12  O   UNL     1     146.962 166.681 155.206  1.00  0.00    -0.550 OA
ENDBRANCH   9  10
ENDBRANCH   8   9
ENDBRANCH   7   8
ENDBRANCH   6   7
ENDBRANCH   5   6
ENDBRANCH   4   5
ENDBRANCH   3   4
ENDBRANCH   1   3
BRANCH   2  13
ATOM     13  C   UNL     1     150.684 168.242 152.203  1.00  0.00     0.027 C 
BRANCH  13  14
ATOM     14  C   UNL     1     151.444 168.900 153.364  1.00  0.00     0.004 C 
BRANCH  14  15
ATOM     15  C   UNL     1     151.393 170.436 153.304  1.00  0.00     0.000 C 
BRANCH  15  16
ATOM     16  C   UNL     1     152.787 171.064 153.158  1.00  0.00     0.000 C 
BRANCH  16  17
ATOM     17  C   UNL     1     153.888 170.013 153.364  1.00  0.00    -0.000 C 
BRANCH  17  18
ATOM     18  C   UNL     1     154.783 169.835 152.125  1.00  0.00    -0.000 C 
BRANCH  18  19
ATOM     19  C   UNL     1     154.896 168.388 151.610  1.00  0.00    -0.003 C 
ATOM     20  C   UNL     1     155.135 167.372 152.727  1.00  0.00     0.004 C 
ENDBRANCH  18  19
ENDBRANCH  17  18
ENDBRANCH  16  17
ENDBRANCH  15  16
ENDBRANCH  14  15
ENDBRANCH  13  14
ENDBRANCH   2  13
TORSDOF 15
ENDMDL
