MODEL 1
REMARK VINA RESULT:    -5.366      0.000      0.000
REMARK INTER + INTRA:          -6.618
REMARK INTER:                  -6.307
REMARK INTRA:                  -0.312
REMARK UNBOUND:                -0.312
REMARK SMILES O=c1cc(-c2ccc(O)c(O)c2)oc2cc(O)cc(O)c12
REMARK SMILES IDX 4 1 3 2 2 3 1 4 21 5 19 6 18 7 16 8 15 9 14 10 13 11 5 12
REMARK SMILES IDX 6 13 7 14 8 15 12 16 10 17 9 18 11 20 20 22 17 24
REMARK H PARENT 9 19 11 21 20 23 17 25
REMARK Flexibility Score: inf
ROOT
ATOM      1  C   UNL     1      27.876   5.653 -13.057  1.00  0.00     0.138 A 
ATOM      2  C   UNL     1      28.909   6.557 -13.340  1.00  0.00     0.100 A 
ATOM      3  C   UNL     1      29.836   6.255 -14.338  1.00  0.00     0.197 A 
ATOM      4  O   UNL     1      30.714   7.113 -14.611  1.00  0.00    -0.289 OA
ATOM      5  C   UNL     1      29.746   5.026 -15.034  1.00  0.00     0.107 A 
ATOM      6  C   UNL     1      30.658   4.594 -16.041  1.00  0.00     0.134 A 
ATOM      7  C   UNL     1      30.401   3.410 -16.743  1.00  0.00     0.093 A 
ATOM      8  C   UNL     1      29.297   2.612 -16.432  1.00  0.00     0.123 A 
ATOM      9  C   UNL     1      28.430   2.999 -15.412  1.00  0.00     0.094 A 
ATOM     10  C   UNL     1      28.640   4.192 -14.718  1.00  0.00     0.146 A 
ATOM     11  O   UNL     1      27.781   4.531 -13.762  1.00  0.00    -0.456 OA
ENDROOT
BRANCH   1  12
ATOM     12  C   UNL     1      26.863   5.923 -12.005  1.00  0.00     0.021 A 
ATOM     13  C   UNL     1      27.153   6.846 -10.986  1.00  0.00     0.016 A 
ATOM     14  C   UNL     1      26.215   7.122  -9.989  1.00  0.00     0.051 A 
ATOM     15  C   UNL     1      24.968   6.493  -9.996  1.00  0.00     0.157 A 
ATOM     16  C   UNL     1      25.600   5.300 -12.017  1.00  0.00     0.062 A 
ATOM     17  C   UNL     1      24.656   5.579 -11.017  1.00  0.00     0.158 A 
BRANCH  15  18
ATOM     18  O   UNL     1      24.053   6.788  -8.987  1.00  0.00    -0.504 OA
ATOM     19  H   UNL     1      23.995   7.707  -8.565  1.00  0.00     0.293 HD
ENDBRANCH  15  18
BRANCH  17  20
ATOM     20  O   UNL     1      23.410   4.955 -11.036  1.00  0.00    -0.504 OA
ATOM     21  H   UNL     1      23.252   4.097 -11.552  1.00  0.00     0.293 HD
ENDBRANCH  17  20
ENDBRANCH   1  12
BRANCH   6  22
ATOM     22  O   UNL     1      31.836   5.272 -16.372  1.00  0.00    -0.507 OA
ATOM     23  H   UNL     1      32.761   4.870 -16.338  1.00  0.00     0.293 HD
ENDBRANCH   6  22
BRANCH   8  24
ATOM     24  O   UNL     1      29.057   1.428 -17.125  1.00  0.00    -0.508 OA
ATOM     25  H   UNL     1      28.673   1.432 -18.063  1.00  0.00     0.293 HD
ENDBRANCH   8  24
TORSDOF 5
ENDMDL
MODEL 2
REMARK VINA RESULT:    -5.195      3.083      3.588
REMARK INTER + INTRA:          -6.417
REMARK INTER:                  -6.112
REMARK INTRA:                  -0.306
REMARK UNBOUND:                -0.312
REMARK SMILES O=c1cc(-c2ccc(O)c(O)c2)oc2cc(O)cc(O)c12
REMARK SMILES IDX 4 1 3 2 2 3 1 4 21 5 19 6 18 7 16 8 15 9 14 10 13 11 5 12
REMARK SMILES IDX 6 13 7 14 8 15 12 16 10 17 9 18 11 20 20 22 17 24
REMARK H PARENT 9 19 11 21 20 23 17 25
REMARK Flexibility Score: inf
ROOT
ATOM      1  C   UNL     1      26.976   3.830 -14.374  1.00  0.00     0.138 A 
ATOM      2  C   UNL     1      26.717   5.148 -14.777  1.00  0.00     0.100 A 
ATOM      3  C   UNL     1      27.644   5.819 -15.576  1.00  0.00     0.197 A 
ATOM      4  O   UNL     1      27.355   6.978 -15.972  1.00  0.00    -0.289 OA
ATOM      5  C   UNL     1      28.850   5.177 -15.945  1.00  0.00     0.107 A 
ATOM      6  C   UNL     1      29.884   5.779 -16.722  1.00  0.00     0.134 A 
ATOM      7  C   UNL     1      30.981   5.007 -17.125  1.00  0.00     0.093 A 
ATOM      8  C   UNL     1      31.110   3.674 -16.728  1.00  0.00     0.123 A 
ATOM      9  C   UNL     1      30.131   3.094 -15.924  1.00  0.00     0.094 A 
ATOM     10  C   UNL     1      29.008   3.827 -15.535  1.00  0.00     0.146 A 
ATOM     11  O   UNL     1      28.090   3.231 -14.780  1.00  0.00    -0.456 OA
ENDROOT
BRANCH   1  12
ATOM     12  C   UNL     1      26.025   3.069 -13.523  1.00  0.00     0.021 A 
ATOM     13  C   UNL     1      24.649   3.337 -13.614  1.00  0.00     0.016 A 
ATOM     14  C   UNL     1      23.734   2.630 -12.830  1.00  0.00     0.051 A 
ATOM     15  C   UNL     1      24.175   1.638 -11.950  1.00  0.00     0.157 A 
ATOM     16  C   UNL     1      26.464   2.059 -12.646  1.00  0.00     0.062 A 
ATOM     17  C   UNL     1      25.546   1.348 -11.859  1.00  0.00     0.158 A 
BRANCH  15  18
ATOM     18  O   UNL     1      23.238   0.951 -11.179  1.00  0.00    -0.504 OA
ATOM     19  H   UNL     1      23.190   1.054 -10.172  1.00  0.00     0.293 HD
ENDBRANCH  15  18
BRANCH  17  20
ATOM     20  O   UNL     1      25.991   0.351 -10.991  1.00  0.00    -0.504 OA
ATOM     21  H   UNL     1      26.631   0.554 -10.232  1.00  0.00     0.293 HD
ENDBRANCH  17  20
ENDBRANCH   1  12
BRANCH   6  22
ATOM     22  O   UNL     1      29.896   7.125 -17.101  1.00  0.00    -0.507 OA
ATOM     23  H   UNL     1      29.947   7.455 -18.052  1.00  0.00     0.293 HD
ENDBRANCH   6  22
BRANCH   8  24
ATOM     24  O   UNL     1      32.213   2.918 -17.120  1.00  0.00    -0.508 OA
ATOM     25  H   UNL     1      32.893   3.278 -17.780  1.00  0.00     0.293 HD
ENDBRANCH   8  24
TORSDOF 5
ENDMDL
MODEL 3
REMARK VINA RESULT:    -5.103      1.646      7.296
REMARK INTER + INTRA:          -6.310
REMARK INTER:                  -6.017
REMARK INTRA:                  -0.292
REMARK UNBOUND:                -0.312
REMARK SMILES O=c1cc(-c2ccc(O)c(O)c2)oc2cc(O)cc(O)c12
REMARK SMILES IDX 4 1 3 2 2 3 1 4 21 5 19 6 18 7 16 8 15 9 14 10 13 11 5 12
REMARK SMILES IDX 6 13 7 14 8 15 12 16 10 17 9 18 11 20 20 22 17 24
REMARK H PARENT 9 19 11 21 20 23 17 25
REMARK Flexibility Score: inf
ROOT
ATOM      1  C   UNL     1      27.084   4.362 -13.849  1.00  0.00     0.138 A 
ATOM      2  C   UNL     1      26.197   3.314 -14.136  1.00  0.00     0.100 A 
ATOM      3  C   UNL     1      25.016   3.190 -13.403  1.00  0.00     0.197 A 
ATOM      4  O   UNL     1      24.212   2.278 -13.725  1.00  0.00    -0.289 OA
ATOM      5  C   UNL     1      24.739   4.101 -12.356  1.00  0.00     0.107 A 
ATOM      6  C   UNL     1      23.587   4.046 -11.516  1.00  0.00     0.134 A 
ATOM      7  C   UNL     1      23.360   5.071 -10.589  1.00  0.00     0.093 A 
ATOM      8  C   UNL     1      24.274   6.116 -10.430  1.00  0.00     0.123 A 
ATOM      9  C   UNL     1      25.429   6.148 -11.209  1.00  0.00     0.094 A 
ATOM     10  C   UNL     1      25.666   5.159 -12.166  1.00  0.00     0.146 A 
ATOM     11  O   UNL     1      26.774   5.236 -12.898  1.00  0.00    -0.456 OA
ENDROOT
BRANCH   1  12
ATOM     12  C   UNL     1      28.354   4.541 -14.597  1.00  0.00     0.021 A 
ATOM     13  C   UNL     1      28.986   5.795 -14.596  1.00  0.00     0.016 A 
ATOM     14  C   UNL     1      30.186   5.988 -15.286  1.00  0.00     0.051 A 
ATOM     15  C   UNL     1      30.781   4.931 -15.979  1.00  0.00     0.157 A 
ATOM     16  C   UNL     1      28.964   3.474 -15.286  1.00  0.00     0.062 A 
ATOM     17  C   UNL     1      30.169   3.666 -15.978  1.00  0.00     0.158 A 
BRANCH  15  18
ATOM     18  O   UNL     1      31.977   5.154 -16.660  1.00  0.00    -0.504 OA
ATOM     19  H   UNL     1      32.876   5.121 -16.193  1.00  0.00     0.293 HD
ENDBRANCH  15  18
BRANCH  17  20
ATOM     20  O   UNL     1      30.763   2.604 -16.659  1.00  0.00    -0.504 OA
ATOM     21  H   UNL     1      30.225   1.990 -17.259  1.00  0.00     0.293 HD
ENDBRANCH  17  20
ENDBRANCH   1  12
BRANCH   6  22
ATOM     22  O   UNL     1      22.655   3.004 -11.534  1.00  0.00    -0.507 OA
ATOM     23  H   UNL     1      21.941   2.882 -12.236  1.00  0.00     0.293 HD
ENDBRANCH   6  22
BRANCH   8  24
ATOM     24  O   UNL     1      24.048   7.123  -9.495  1.00  0.00    -0.508 OA
ATOM     25  H   UNL     1      23.994   8.097  -9.769  1.00  0.00     0.293 HD
ENDBRANCH   8  24
TORSDOF 5
ENDMDL
MODEL 4
REMARK VINA RESULT:    -4.747      2.699      4.296
REMARK INTER + INTRA:          -5.891
REMARK INTER:                  -5.628
REMARK INTRA:                  -0.263
REMARK UNBOUND:                -0.312
REMARK SMILES O=c1cc(-c2ccc(O)c(O)c2)oc2cc(O)cc(O)c12
REMARK SMILES IDX 4 1 3 2 2 3 1 4 21 5 19 6 18 7 16 8 15 9 14 10 13 11 5 12
REMARK SMILES IDX 6 13 7 14 8 15 12 16 10 17 9 18 11 20 20 22 17 24
REMARK H PARENT 9 19 11 21 20 23 17 25
REMARK Flexibility Score: inf
ROOT
ATOM      1  C   UNL     1      26.337   4.085 -13.425  1.00  0.00     0.138 A 
ATOM      2  C   UNL     1      26.398   4.333 -14.803  1.00  0.00     0.100 A 
ATOM      3  C   UNL     1      27.412   5.143 -15.315  1.00  0.00     0.197 A 
ATOM      4  O   UNL     1      27.476   5.296 -16.562  1.00  0.00    -0.289 OA
ATOM      5  C   UNL     1      28.350   5.735 -14.436  1.00  0.00     0.107 A 
ATOM      6  C   UNL     1      29.401   6.611 -14.841  1.00  0.00     0.134 A 
ATOM      7  C   UNL     1      30.341   7.042 -13.897  1.00  0.00     0.093 A 
ATOM      8  C   UNL     1      30.233   6.678 -12.552  1.00  0.00     0.123 A 
ATOM      9  C   UNL     1      29.178   5.867 -12.139  1.00  0.00     0.094 A 
ATOM     10  C   UNL     1      28.245   5.392 -13.062  1.00  0.00     0.146 A 
ATOM     11  O   UNL     1      27.263   4.609 -12.627  1.00  0.00    -0.456 OA
ENDROOT
BRANCH   1  12
ATOM     12  C   UNL     1      25.279   3.232 -12.826  1.00  0.00     0.021 A 
ATOM     13  C   UNL     1      25.528   1.865 -12.620  1.00  0.00     0.016 A 
ATOM     14  C   UNL     1      24.553   1.042 -12.052  1.00  0.00     0.051 A 
ATOM     15  C   UNL     1      23.316   1.570 -11.671  1.00  0.00     0.157 A 
ATOM     16  C   UNL     1      24.037   3.763 -12.429  1.00  0.00     0.062 A 
ATOM     17  C   UNL     1      23.057   2.937 -11.858  1.00  0.00     0.158 A 
BRANCH  15  18
ATOM     18  O   UNL     1      22.361   0.724 -11.109  1.00  0.00    -0.504 OA
ATOM     19  H   UNL     1      22.273  -0.247 -11.385  1.00  0.00     0.293 HD
ENDBRANCH  15  18
BRANCH  17  20
ATOM     20  O   UNL     1      21.829   3.473 -11.470  1.00  0.00    -0.504 OA
ATOM     21  H   UNL     1      21.286   3.069 -10.716  1.00  0.00     0.293 HD
ENDBRANCH  17  20
ENDBRANCH   1  12
BRANCH   6  22
ATOM     22  O   UNL     1      29.552   7.103 -16.141  1.00  0.00    -0.507 OA
ATOM     23  H   UNL     1      29.795   8.054 -16.372  1.00  0.00     0.293 HD
ENDBRANCH   6  22
BRANCH   8  24
ATOM     24  O   UNL     1      31.163   7.125 -11.617  1.00  0.00    -0.508 OA
ATOM     25  H   UNL     1      32.156   6.959 -11.737  1.00  0.00     0.293 HD
ENDBRANCH   8  24
TORSDOF 5
ENDMDL
MODEL 5
REMARK VINA RESULT:    -4.727      1.288      2.716
REMARK INTER + INTRA:          -5.868
REMARK INTER:                  -5.585
REMARK INTRA:                  -0.283
REMARK UNBOUND:                -0.312
REMARK SMILES O=c1cc(-c2ccc(O)c(O)c2)oc2cc(O)cc(O)c12
REMARK SMILES IDX 4 1 3 2 2 3 1 4 21 5 19 6 18 7 16 8 15 9 14 10 13 11 5 12
REMARK SMILES IDX 6 13 7 14 8 15 12 16 10 17 9 18 11 20 20 22 17 24
REMARK H PARENT 9 19 11 21 20 23 17 25
REMARK Flexibility Score: inf
ROOT
ATOM      1  C   UNL     1      28.277   5.044 -13.411  1.00  0.00     0.138 A 
ATOM      2  C   UNL     1      28.284   3.693 -13.783  1.00  0.00     0.100 A 
ATOM      3  C   UNL     1      29.156   3.257 -14.782  1.00  0.00     0.197 A 
ATOM      4  O   UNL     1      29.183   2.028 -15.050  1.00  0.00    -0.289 OA
ATOM      5  C   UNL     1      30.002   4.187 -15.432  1.00  0.00     0.107 A 
ATOM      6  C   UNL     1      30.901   3.863 -16.492  1.00  0.00     0.134 A 
ATOM      7  C   UNL     1      31.773   4.844 -16.979  1.00  0.00     0.093 A 
ATOM      8  C   UNL     1      31.736   6.151 -16.488  1.00  0.00     0.123 A 
ATOM      9  C   UNL     1      30.824   6.490 -15.491  1.00  0.00     0.094 A 
ATOM     10  C   UNL     1      29.965   5.525 -14.959  1.00  0.00     0.146 A 
ATOM     11  O   UNL     1      29.120   5.887 -13.999  1.00  0.00    -0.456 OA
ENDROOT
BRANCH   1  12
ATOM     12  C   UNL     1      27.369   5.563 -12.356  1.00  0.00     0.021 A 
ATOM     13  C   UNL     1      27.834   6.545 -11.466  1.00  0.00     0.016 A 
ATOM     14  C   UNL     1      26.998   7.054 -10.469  1.00  0.00     0.051 A 
ATOM     15  C   UNL     1      25.682   6.600 -10.349  1.00  0.00     0.157 A 
ATOM     16  C   UNL     1      26.038   5.117 -12.240  1.00  0.00     0.062 A 
ATOM     17  C   UNL     1      25.198   5.628 -11.240  1.00  0.00     0.158 A 
BRANCH  15  18
ATOM     18  O   UNL     1      24.872   7.125  -9.343  1.00  0.00    -0.504 OA
ATOM     19  H   UNL     1      25.046   8.035  -8.933  1.00  0.00     0.293 HD
ENDBRANCH  15  18
BRANCH  17  20
ATOM     20  O   UNL     1      23.883   5.178 -11.133  1.00  0.00    -0.504 OA
ATOM     21  H   UNL     1      23.541   4.727 -10.293  1.00  0.00     0.293 HD
ENDBRANCH  17  20
ENDBRANCH   1  12
BRANCH   6  22
ATOM     22  O   UNL     1      30.960   2.611 -17.112  1.00  0.00    -0.507 OA
ATOM     23  H   UNL     1      30.445   2.354 -17.940  1.00  0.00     0.293 HD
ENDBRANCH   6  22
BRANCH   8  24
ATOM     24  O   UNL     1      32.597   7.125 -16.990  1.00  0.00    -0.508 OA
ATOM     25  H   UNL     1      32.252   8.027 -17.298  1.00  0.00     0.293 HD
ENDBRANCH   8  24
TORSDOF 5
ENDMDL
MODEL 6
REMARK VINA RESULT:    -4.423      1.491      6.837
REMARK INTER + INTRA:          -5.510
REMARK INTER:                  -5.206
REMARK INTRA:                  -0.304
REMARK UNBOUND:                -0.312
REMARK SMILES O=c1cc(-c2ccc(O)c(O)c2)oc2cc(O)cc(O)c12
REMARK SMILES IDX 4 1 3 2 2 3 1 4 21 5 19 6 18 7 16 8 15 9 14 10 13 11 5 12
REMARK SMILES IDX 6 13 7 14 8 15 12 16 10 17 9 18 11 20 20 22 17 24
REMARK H PARENT 9 19 11 21 20 23 17 25
REMARK Flexibility Score: inf
ROOT
ATOM      1  C   UNL     1      27.716   4.889 -13.219  1.00  0.00     0.138 A 
ATOM      2  C   UNL     1      28.000   5.896 -12.286  1.00  0.00     0.100 A 
ATOM      3  C   UNL     1      27.031   6.263 -11.351  1.00  0.00     0.197 A 
ATOM      4  O   UNL     1      27.337   7.125 -10.488  1.00  0.00    -0.289 OA
ATOM      5  C   UNL     1      25.760   5.640 -11.373  1.00  0.00     0.107 A 
ATOM      6  C   UNL     1      24.683   5.962 -10.496  1.00  0.00     0.134 A 
ATOM      7  C   UNL     1      23.510   5.198 -10.534  1.00  0.00     0.093 A 
ATOM      8  C   UNL     1      23.353   4.162 -11.458  1.00  0.00     0.123 A 
ATOM      9  C   UNL     1      24.380   3.876 -12.356  1.00  0.00     0.094 A 
ATOM     10  C   UNL     1      25.575   4.597 -12.319  1.00  0.00     0.146 A 
ATOM     11  O   UNL     1      26.534   4.281 -13.183  1.00  0.00    -0.456 OA
ENDROOT
BRANCH   1  12
ATOM     12  C   UNL     1      28.709   4.459 -14.236  1.00  0.00     0.021 A 
ATOM     13  C   UNL     1      29.630   5.392 -14.740  1.00  0.00     0.016 A 
ATOM     14  C   UNL     1      30.579   5.012 -15.693  1.00  0.00     0.051 A 
ATOM     15  C   UNL     1      30.632   3.693 -16.150  1.00  0.00     0.157 A 
ATOM     16  C   UNL     1      28.775   3.127 -14.690  1.00  0.00     0.062 A 
ATOM     17  C   UNL     1      29.728   2.744 -15.645  1.00  0.00     0.158 A 
BRANCH  15  18
ATOM     18  O   UNL     1      31.589   3.343 -17.102  1.00  0.00    -0.504 OA
ATOM     19  H   UNL     1      31.341   3.129 -18.061  1.00  0.00     0.293 HD
ENDBRANCH  15  18
BRANCH  17  20
ATOM     20  O   UNL     1      29.783   1.424 -16.090  1.00  0.00    -0.504 OA
ATOM     21  H   UNL     1      30.108   0.674 -15.491  1.00  0.00     0.293 HD
ENDBRANCH  17  20
ENDBRANCH   1  12
BRANCH   6  22
ATOM     22  O   UNL     1      24.703   7.030  -9.593  1.00  0.00    -0.507 OA
ATOM     23  H   UNL     1      23.897   7.577  -9.330  1.00  0.00     0.293 HD
ENDBRANCH   6  22
BRANCH   8  24
ATOM     24  O   UNL     1      22.177   3.417 -11.500  1.00  0.00    -0.508 OA
ATOM     25  H   UNL     1      21.928   2.781 -10.752  1.00  0.00     0.293 HD
ENDBRANCH   8  24
TORSDOF 5
ENDMDL
MODEL 7
REMARK VINA RESULT:    -3.922      4.874      5.663
REMARK INTER + INTRA:          -4.921
REMARK INTER:                  -4.628
REMARK INTRA:                  -0.293
REMARK UNBOUND:                -0.312
REMARK SMILES O=c1cc(-c2ccc(O)c(O)c2)oc2cc(O)cc(O)c12
REMARK SMILES IDX 4 1 3 2 2 3 1 4 21 5 19 6 18 7 16 8 15 9 14 10 13 11 5 12
REMARK SMILES IDX 6 13 7 14 8 15 12 16 10 17 9 18 11 20 20 22 17 24
REMARK H PARENT 9 19 11 21 20 23 17 25
REMARK Flexibility Score: inf
ROOT
ATOM      1  C   UNL     1      28.329   3.482  -9.411  1.00  0.00     0.138 A 
ATOM      2  C   UNL     1      28.084   4.857  -9.294  1.00  0.00     0.100 A 
ATOM      3  C   UNL     1      27.857   5.618 -10.441  1.00  0.00     0.197 A 
ATOM      4  O   UNL     1      27.579   6.837 -10.299  1.00  0.00    -0.289 OA
ATOM      5  C   UNL     1      27.908   5.003 -11.715  1.00  0.00     0.107 A 
ATOM      6  C   UNL     1      27.734   5.688 -12.954  1.00  0.00     0.134 A 
ATOM      7  C   UNL     1      27.688   4.954 -14.146  1.00  0.00     0.093 A 
ATOM      8  C   UNL     1      27.872   3.569 -14.149  1.00  0.00     0.123 A 
ATOM      9  C   UNL     1      28.098   2.900 -12.948  1.00  0.00     0.094 A 
ATOM     10  C   UNL     1      28.113   3.598 -11.739  1.00  0.00     0.146 A 
ATOM     11  O   UNL     1      28.317   2.919 -10.615  1.00  0.00    -0.456 OA
ENDROOT
BRANCH   1  12
ATOM     12  C   UNL     1      28.577   2.625  -8.224  1.00  0.00     0.021 A 
ATOM     13  C   UNL     1      28.414   1.233  -8.330  1.00  0.00     0.016 A 
ATOM     14  C   UNL     1      28.648   0.405  -7.230  1.00  0.00     0.051 A 
ATOM     15  C   UNL     1      29.059   0.948  -6.010  1.00  0.00     0.157 A 
ATOM     16  C   UNL     1      29.005   3.167  -6.997  1.00  0.00     0.062 A 
ATOM     17  C   UNL     1      29.242   2.335  -5.892  1.00  0.00     0.158 A 
BRANCH  15  18
ATOM     18  O   UNL     1      29.284   0.096  -4.929  1.00  0.00    -0.504 OA
ATOM     19  H   UNL     1      29.500   0.446  -4.003  1.00  0.00     0.293 HD
ENDBRANCH  15  18
BRANCH  17  20
ATOM     20  O   UNL     1      29.662   2.883  -4.681  1.00  0.00    -0.504 OA
ATOM     21  H   UNL     1      29.042   3.441  -4.105  1.00  0.00     0.293 HD
ENDBRANCH  17  20
ENDBRANCH   1  12
BRANCH   6  22
ATOM     22  O   UNL     1      27.625   7.077 -13.072  1.00  0.00    -0.507 OA
ATOM     23  H   UNL     1      26.912   7.638 -12.632  1.00  0.00     0.293 HD
ENDBRANCH   6  22
BRANCH   8  24
ATOM     24  O   UNL     1      27.841   2.850 -15.341  1.00  0.00    -0.508 OA
ATOM     25  H   UNL     1      27.005   2.363 -15.644  1.00  0.00     0.293 HD
ENDBRANCH   8  24
TORSDOF 5
ENDMDL
MODEL 8
REMARK VINA RESULT:    -3.289      5.595      6.814
REMARK INTER + INTRA:          -4.178
REMARK INTER:                  -3.863
REMARK INTRA:                  -0.314
REMARK UNBOUND:                -0.312
REMARK SMILES O=c1cc(-c2ccc(O)c(O)c2)oc2cc(O)cc(O)c12
REMARK SMILES IDX 4 1 3 2 2 3 1 4 21 5 19 6 18 7 16 8 15 9 14 10 13 11 5 12
REMARK SMILES IDX 6 13 7 14 8 15 12 16 10 17 9 18 11 20 20 22 17 24
REMARK H PARENT 9 19 11 21 20 23 17 25
REMARK Flexibility Score: inf
ROOT
ATOM      1  C   UNL     1      28.458   2.291  -8.792  1.00  0.00     0.138 A 
ATOM      2  C   UNL     1      28.139   1.297  -9.727  1.00  0.00     0.100 A 
ATOM      3  C   UNL     1      27.861   1.654 -11.047  1.00  0.00     0.197 A 
ATOM      4  O   UNL     1      27.639   0.735 -11.876  1.00  0.00    -0.289 OA
ATOM      5  C   UNL     1      27.870   3.019 -11.423  1.00  0.00     0.107 A 
ATOM      6  C   UNL     1      27.562   3.504 -12.728  1.00  0.00     0.134 A 
ATOM      7  C   UNL     1      27.718   4.866 -13.013  1.00  0.00     0.093 A 
ATOM      8  C   UNL     1      28.113   5.769 -12.023  1.00  0.00     0.123 A 
ATOM      9  C   UNL     1      28.364   5.313 -10.731  1.00  0.00     0.094 A 
ATOM     10  C   UNL     1      28.251   3.955 -10.425  1.00  0.00     0.146 A 
ATOM     11  O   UNL     1      28.514   3.560  -9.183  1.00  0.00    -0.456 OA
ENDROOT
BRANCH   1  12
ATOM     12  C   UNL     1      28.762   1.966  -7.375  1.00  0.00     0.021 A 
ATOM     13  C   UNL     1      28.411   0.706  -6.863  1.00  0.00     0.016 A 
ATOM     14  C   UNL     1      28.692   0.374  -5.536  1.00  0.00     0.051 A 
ATOM     15  C   UNL     1      29.337   1.289  -4.699  1.00  0.00     0.157 A 
ATOM     16  C   UNL     1      29.424   2.881  -6.532  1.00  0.00     0.062 A 
ATOM     17  C   UNL     1      29.708   2.547  -5.199  1.00  0.00     0.158 A 
BRANCH  15  18
ATOM     18  O   UNL     1      29.603   0.929  -3.378  1.00  0.00    -0.504 OA
ATOM     19  H   UNL     1      28.926   0.436  -2.808  1.00  0.00     0.293 HD
ENDBRANCH  15  18
BRANCH  17  20
ATOM     20  O   UNL     1      30.362   3.461  -4.373  1.00  0.00    -0.504 OA
ATOM     21  H   UNL     1      31.231   3.901  -4.650  1.00  0.00     0.293 HD
ENDBRANCH  17  20
ENDBRANCH   1  12
BRANCH   6  22
ATOM     22  O   UNL     1      27.078   2.701 -13.766  1.00  0.00    -0.507 OA
ATOM     23  H   UNL     1      26.167   2.792 -14.189  1.00  0.00     0.293 HD
ENDBRANCH   6  22
BRANCH   8  24
ATOM     24  O   UNL     1      28.251   7.125 -12.311  1.00  0.00    -0.508 OA
ATOM     25  H   UNL     1      28.736   7.442 -13.143  1.00  0.00     0.293 HD
ENDBRANCH   8  24
TORSDOF 5
ENDMDL
MODEL 9
REMARK VINA RESULT:    -2.674      3.310      4.287
REMARK INTER + INTRA:          -3.455
REMARK INTER:                  -3.191
REMARK INTRA:                  -0.264
REMARK UNBOUND:                -0.312
REMARK SMILES O=c1cc(-c2ccc(O)c(O)c2)oc2cc(O)cc(O)c12
REMARK SMILES IDX 4 1 3 2 2 3 1 4 21 5 19 6 18 7 16 8 15 9 14 10 13 11 5 12
REMARK SMILES IDX 6 13 7 14 8 15 12 16 10 17 9 18 11 20 20 22 17 24
REMARK H PARENT 9 19 11 21 20 23 17 25
REMARK Flexibility Score: inf
ROOT
ATOM      1  C   UNL     1      27.701   4.393 -12.544  1.00  0.00     0.138 A 
ATOM      2  C   UNL     1      26.436   4.241 -13.131  1.00  0.00     0.100 A 
ATOM      3  C   UNL     1      26.214   4.717 -14.423  1.00  0.00     0.197 A 
ATOM      4  O   UNL     1      25.088   4.511 -14.945  1.00  0.00    -0.289 OA
ATOM      5  C   UNL     1      27.255   5.378 -15.119  1.00  0.00     0.107 A 
ATOM      6  C   UNL     1      27.130   5.940 -16.424  1.00  0.00     0.134 A 
ATOM      7  C   UNL     1      28.261   6.466 -17.059  1.00  0.00     0.093 A 
ATOM      8  C   UNL     1      29.499   6.505 -16.413  1.00  0.00     0.123 A 
ATOM      9  C   UNL     1      29.618   6.007 -15.117  1.00  0.00     0.094 A 
ATOM     10  C   UNL     1      28.516   5.444 -14.470  1.00  0.00     0.146 A 
ATOM     11  O   UNL     1      28.677   4.968 -13.239  1.00  0.00    -0.456 OA
ENDROOT
BRANCH   1  12
ATOM     12  C   UNL     1      27.993   3.906 -11.172  1.00  0.00     0.021 A 
ATOM     13  C   UNL     1      28.111   4.831 -10.121  1.00  0.00     0.016 A 
ATOM     14  C   UNL     1      28.378   4.398  -8.820  1.00  0.00     0.051 A 
ATOM     15  C   UNL     1      28.522   3.036  -8.543  1.00  0.00     0.157 A 
ATOM     16  C   UNL     1      28.125   2.533 -10.886  1.00  0.00     0.062 A 
ATOM     17  C   UNL     1      28.392   2.098  -9.579  1.00  0.00     0.158 A 
BRANCH  15  18
ATOM     18  O   UNL     1      28.790   2.635  -7.235  1.00  0.00    -0.504 OA
ATOM     19  H   UNL     1      28.068   2.599  -6.524  1.00  0.00     0.293 HD
ENDBRANCH  15  18
BRANCH  17  20
ATOM     20  O   UNL     1      28.523   0.737  -9.308  1.00  0.00    -0.504 OA
ATOM     21  H   UNL     1      28.709   0.396  -8.372  1.00  0.00     0.293 HD
ENDBRANCH  17  20
ENDBRANCH   1  12
BRANCH   6  22
ATOM     22  O   UNL     1      25.923   6.028 -17.125  1.00  0.00    -0.507 OA
ATOM     23  H   UNL     1      25.689   6.759 -17.779  1.00  0.00     0.293 HD
ENDBRANCH   6  22
BRANCH   8  24
ATOM     24  O   UNL     1      30.616   7.044 -17.046  1.00  0.00    -0.508 OA
ATOM     25  H   UNL     1      30.568   7.926 -17.543  1.00  0.00     0.293 HD
ENDBRANCH   8  24
TORSDOF 5
ENDMDL
