MODEL 1
REMARK VINA RESULT:    -5.334      0.000      0.000
REMARK INTER + INTRA:         -17.773
REMARK INTER:                 -13.442
REMARK INTRA:                  -4.332
REMARK UNBOUND:                -4.332
REMARK SMILES CCCCCCCCCCCCCCCCCCCCCCCCCCCC(=O)[O-]
REMARK SMILES IDX 15 1 16 2 17 3 18 4 19 5 20 6 21 7 22 8 23 9 24 10 25 11
REMARK SMILES IDX 26 12 27 13 28 14 29 15 30 16 14 17 13 18 12 19 11 20 10 21
REMARK SMILES IDX 9 22 8 23 7 24 6 25 5 26 4 27 3 28 2 29 1 30
REMARK H PARENT
REMARK Flexibility Score: inf
ROOT
ATOM      1  C   UNL     1      14.391 -29.225  22.703  1.00  0.00     0.000 C 
ENDROOT
BRANCH   1   2
ATOM      2  C   UNL     1      15.843 -29.470  22.261  1.00  0.00     0.000 C 
BRANCH   2   3
ATOM      3  C   UNL     1      16.666 -30.239  23.310  1.00  0.00     0.000 C 
BRANCH   3   4
ATOM      4  C   UNL     1      17.610 -31.320  22.744  1.00  0.00     0.000 C 
BRANCH   4   5
ATOM      5  C   UNL     1      17.652 -31.415  21.210  1.00  0.00     0.000 C 
BRANCH   5   6
ATOM      6  C   UNL     1      18.805 -32.294  20.699  1.00  0.00     0.000 C 
BRANCH   6   7
ATOM      7  C   UNL     1      19.875 -32.548  21.774  1.00  0.00     0.000 C 
BRANCH   7   8
ATOM      8  C   UNL     1      21.182 -31.780  21.510  1.00  0.00     0.000 C 
BRANCH   8   9
ATOM      9  C   UNL     1      20.975 -30.526  20.640  1.00  0.00     0.000 C 
BRANCH   9  10
ATOM     10  C   UNL     1      20.822 -29.210  21.425  1.00  0.00     0.000 C 
BRANCH  10  11
ATOM     11  C   UNL     1      19.712 -28.271  20.917  1.00  0.00     0.000 C 
BRANCH  11  12
ATOM     12  C   UNL     1      20.195 -26.832  20.634  1.00  0.00     0.006 C 
BRANCH  12  13
ATOM     13  C   UNL     1      21.351 -26.408  21.549  1.00  0.00     0.053 C 
BRANCH  13  14
ATOM     14  C   UNL     1      22.143 -25.309  20.916  1.00  0.00     0.041 C 
ATOM     15  O   UNL     1      22.623 -24.385  21.626  1.00  0.00    -0.550 OA
ATOM     16  O   UNL     1      22.303 -25.270  19.535  1.00  0.00    -0.550 OA
ENDBRANCH  13  14
ENDBRANCH  12  13
ENDBRANCH  11  12
ENDBRANCH  10  11
ENDBRANCH   9  10
ENDBRANCH   8   9
ENDBRANCH   7   8
ENDBRANCH   6   7
ENDBRANCH   5   6
ENDBRANCH   4   5
ENDBRANCH   3   4
ENDBRANCH   2   3
ENDBRANCH   1   2
BRANCH   1  17
ATOM     17  C   UNL     1      13.735 -30.521  23.195  1.00  0.00     0.000 C 
BRANCH  17  18
ATOM     18  C   UNL     1      12.647 -30.987  22.221  1.00  0.00     0.000 C 
BRANCH  18  19
ATOM     19  C   UNL     1      13.257 -31.689  20.998  1.00  0.00     0.000 C 
BRANCH  19  20
ATOM     20  C   UNL     1      14.288 -32.771  21.384  1.00  0.00     0.000 C 
BRANCH  20  21
ATOM     21  C   UNL     1      14.705 -33.688  20.218  1.00  0.00     0.000 C 
BRANCH  21  22
ATOM     22  C   UNL     1      15.677 -34.823  20.589  1.00  0.00    -0.000 C 
BRANCH  22  23
ATOM     23  C   UNL     1      16.586 -35.308  19.442  1.00  0.00    -0.000 C 
BRANCH  23  24
ATOM     24  C   UNL     1      17.992 -35.771  19.869  1.00  0.00    -0.000 C 
BRANCH  24  25
ATOM     25  C   UNL     1      18.034 -36.674  21.114  1.00  0.00    -0.000 C 
BRANCH  25  26
ATOM     26  C   UNL     1      19.091 -36.227  22.138  1.00  0.00    -0.000 C 
BRANCH  26  27
ATOM     27  C   UNL     1      18.652 -36.457  23.595  1.00  0.00    -0.000 C 
BRANCH  27  28
ATOM     28  C   UNL     1      18.097 -35.215  24.322  1.00  0.00    -0.000 C 
BRANCH  28  29
ATOM     29  C   UNL     1      16.868 -34.567  23.660  1.00  0.00    -0.003 C 
ATOM     30  C   UNL     1      15.886 -33.980  24.672  1.00  0.00     0.004 C 
ENDBRANCH  28  29
ENDBRANCH  27  28
ENDBRANCH  26  27
ENDBRANCH  25  26
ENDBRANCH  24  25
ENDBRANCH  23  24
ENDBRANCH  22  23
ENDBRANCH  21  22
ENDBRANCH  20  21
ENDBRANCH  19  20
ENDBRANCH  18  19
ENDBRANCH  17  18
ENDBRANCH   1  17
TORSDOF 26
ENDMDL
MODEL 2
REMARK VINA RESULT:    -5.181      3.303      8.297
REMARK INTER + INTRA:         -17.387
REMARK INTER:                 -13.197
REMARK INTRA:                  -4.190
REMARK UNBOUND:                -4.332
REMARK SMILES CCCCCCCCCCCCCCCCCCCCCCCCCCCC(=O)[O-]
REMARK SMILES IDX 15 1 16 2 17 3 18 4 19 5 20 6 21 7 22 8 23 9 24 10 25 11
REMARK SMILES IDX 26 12 27 13 28 14 29 15 30 16 14 17 13 18 12 19 11 20 10 21
REMARK SMILES IDX 9 22 8 23 7 24 6 25 5 26 4 27 3 28 2 29 1 30
REMARK H PARENT
REMARK Flexibility Score: inf
ROOT
ATOM      1  C   UNL     1      16.787 -30.396  23.217  1.00  0.00     0.000 C 
ENDROOT
BRANCH   1   2
ATOM      2  C   UNL     1      16.034 -29.523  22.202  1.00  0.00     0.000 C 
BRANCH   2   3
ATOM      3  C   UNL     1      14.620 -29.142  22.673  1.00  0.00     0.000 C 
BRANCH   3   4
ATOM      4  C   UNL     1      13.960 -30.134  23.653  1.00  0.00     0.000 C 
BRANCH   4   5
ATOM      5  C   UNL     1      13.294 -31.356  22.998  1.00  0.00     0.000 C 
BRANCH   5   6
ATOM      6  C   UNL     1      12.715 -31.044  21.608  1.00  0.00     0.000 C 
BRANCH   6   7
ATOM      7  C   UNL     1      13.411 -31.834  20.487  1.00  0.00     0.000 C 
BRANCH   7   8
ATOM      8  C   UNL     1      14.360 -32.920  21.022  1.00  0.00     0.000 C 
BRANCH   8   9
ATOM      9  C   UNL     1      14.678 -34.006  19.977  1.00  0.00     0.000 C 
BRANCH   9  10
ATOM     10  C   UNL     1      16.179 -34.298  19.783  1.00  0.00     0.000 C 
BRANCH  10  11
ATOM     11  C   UNL     1      16.617 -35.730  20.146  1.00  0.00     0.000 C 
BRANCH  11  12
ATOM     12  C   UNL     1      17.552 -35.802  21.372  1.00  0.00     0.006 C 
BRANCH  12  13
ATOM     13  C   UNL     1      16.922 -35.191  22.630  1.00  0.00     0.053 C 
BRANCH  13  14
ATOM     14  C   UNL     1      17.733 -35.533  23.840  1.00  0.00     0.041 C 
ATOM     15  O   UNL     1      18.968 -35.755  23.731  1.00  0.00    -0.550 OA
ATOM     16  O   UNL     1      17.115 -35.665  25.079  1.00  0.00    -0.550 OA
ENDBRANCH  13  14
ENDBRANCH  12  13
ENDBRANCH  11  12
ENDBRANCH  10  11
ENDBRANCH   9  10
ENDBRANCH   8   9
ENDBRANCH   7   8
ENDBRANCH   6   7
ENDBRANCH   5   6
ENDBRANCH   4   5
ENDBRANCH   3   4
ENDBRANCH   2   3
ENDBRANCH   1   2
BRANCH   1  17
ATOM     17  C   UNL     1      17.363 -31.651  22.549  1.00  0.00     0.000 C 
BRANCH  17  18
ATOM     18  C   UNL     1      17.848 -31.342  21.128  1.00  0.00     0.000 C 
BRANCH  18  19
ATOM     19  C   UNL     1      18.969 -32.301  20.701  1.00  0.00     0.000 C 
BRANCH  19  20
ATOM     20  C   UNL     1      19.933 -32.644  21.857  1.00  0.00     0.000 C 
BRANCH  20  21
ATOM     21  C   UNL     1      21.373 -32.136  21.648  1.00  0.00     0.000 C 
BRANCH  21  22
ATOM     22  C   UNL     1      21.767 -30.910  22.494  1.00  0.00    -0.000 C 
BRANCH  22  23
ATOM     23  C   UNL     1      20.831 -29.692  22.356  1.00  0.00    -0.000 C 
BRANCH  23  24
ATOM     24  C   UNL     1      20.965 -28.908  21.036  1.00  0.00    -0.000 C 
BRANCH  24  25
ATOM     25  C   UNL     1      19.742 -28.054  20.655  1.00  0.00    -0.000 C 
BRANCH  25  26
ATOM     26  C   UNL     1      19.891 -26.584  21.078  1.00  0.00    -0.000 C 
BRANCH  26  27
ATOM     27  C   UNL     1      21.359 -26.138  21.197  1.00  0.00    -0.000 C 
BRANCH  27  28
ATOM     28  C   UNL     1      21.951 -25.470  19.938  1.00  0.00    -0.000 C 
BRANCH  28  29
ATOM     29  C   UNL     1      23.488 -25.411  19.893  1.00  0.00    -0.003 C 
ATOM     30  C   UNL     1      24.021 -24.032  19.507  1.00  0.00     0.004 C 
ENDBRANCH  28  29
ENDBRANCH  27  28
ENDBRANCH  26  27
ENDBRANCH  25  26
ENDBRANCH  24  25
ENDBRANCH  23  24
ENDBRANCH  22  23
ENDBRANCH  21  22
ENDBRANCH  20  21
ENDBRANCH  19  20
ENDBRANCH  18  19
ENDBRANCH  17  18
ENDBRANCH   1  17
TORSDOF 26
ENDMDL
MODEL 3
REMARK VINA RESULT:    -5.076      1.373      2.928
REMARK INTER + INTRA:         -17.124
REMARK INTER:                 -12.475
REMARK INTRA:                  -4.649
REMARK UNBOUND:                -4.332
REMARK SMILES CCCCCCCCCCCCCCCCCCCCCCCCCCCC(=O)[O-]
REMARK SMILES IDX 15 1 16 2 17 3 18 4 19 5 20 6 21 7 22 8 23 9 24 10 25 11
REMARK SMILES IDX 26 12 27 13 28 14 29 15 30 16 14 17 13 18 12 19 11 20 10 21
REMARK SMILES IDX 9 22 8 23 7 24 6 25 5 26 4 27 3 28 2 29 1 30
REMARK H PARENT
REMARK Flexibility Score: inf
ROOT
ATOM      1  C   UNL     1      13.622 -31.591  21.380  1.00  0.00     0.000 C 
ENDROOT
BRANCH   1   2
ATOM      2  C   UNL     1      14.054 -31.708  22.850  1.00  0.00     0.000 C 
BRANCH   2   3
ATOM      3  C   UNL     1      14.889 -30.506  23.325  1.00  0.00     0.000 C 
BRANCH   3   4
ATOM      4  C   UNL     1      15.357 -29.545  22.213  1.00  0.00     0.000 C 
BRANCH   4   5
ATOM      5  C   UNL     1      16.861 -29.593  21.896  1.00  0.00     0.000 C 
BRANCH   5   6
ATOM      6  C   UNL     1      17.260 -30.842  21.093  1.00  0.00     0.000 C 
BRANCH   6   7
ATOM      7  C   UNL     1      18.784 -30.990  20.950  1.00  0.00     0.000 C 
BRANCH   7   8
ATOM      8  C   UNL     1      19.549 -29.717  21.349  1.00  0.00     0.000 C 
BRANCH   8   9
ATOM      9  C   UNL     1      21.072 -29.930  21.423  1.00  0.00     0.000 C 
BRANCH   9  10
ATOM     10  C   UNL     1      21.772 -29.209  22.591  1.00  0.00     0.000 C 
BRANCH  10  11
ATOM     11  C   UNL     1      22.447 -27.874  22.223  1.00  0.00     0.000 C 
BRANCH  11  12
ATOM     12  C   UNL     1      22.327 -27.507  20.729  1.00  0.00     0.006 C 
BRANCH  12  13
ATOM     13  C   UNL     1      23.588 -26.821  20.188  1.00  0.00     0.053 C 
BRANCH  13  14
ATOM     14  C   UNL     1      23.359 -25.351  20.034  1.00  0.00     0.041 C 
ATOM     15  O   UNL     1      23.366 -24.827  18.888  1.00  0.00    -0.550 OA
ATOM     16  O   UNL     1      23.195 -24.549  21.157  1.00  0.00    -0.550 OA
ENDBRANCH  13  14
ENDBRANCH  12  13
ENDBRANCH  11  12
ENDBRANCH  10  11
ENDBRANCH   9  10
ENDBRANCH   8   9
ENDBRANCH   7   8
ENDBRANCH   6   7
ENDBRANCH   5   6
ENDBRANCH   4   5
ENDBRANCH   3   4
ENDBRANCH   2   3
ENDBRANCH   1   2
BRANCH   1  17
ATOM     17  C   UNL     1      14.092 -32.802  20.565  1.00  0.00     0.000 C 
BRANCH  17  18
ATOM     18  C   UNL     1      15.001 -33.708  21.406  1.00  0.00     0.000 C 
BRANCH  18  19
ATOM     19  C   UNL     1      15.528 -34.890  20.578  1.00  0.00     0.000 C 
BRANCH  19  20
ATOM     20  C   UNL     1      16.602 -34.468  19.552  1.00  0.00     0.000 C 
BRANCH  20  21
ATOM     21  C   UNL     1      18.019 -34.977  19.879  1.00  0.00     0.000 C 
BRANCH  21  22
ATOM     22  C   UNL     1      18.699 -34.300  21.083  1.00  0.00    -0.000 C 
BRANCH  22  23
ATOM     23  C   UNL     1      19.429 -35.258  22.047  1.00  0.00    -0.000 C 
BRANCH  23  24
ATOM     24  C   UNL     1      18.513 -36.170  22.884  1.00  0.00    -0.000 C 
BRANCH  24  25
ATOM     25  C   UNL     1      17.332 -35.461  23.570  1.00  0.00    -0.000 C 
BRANCH  25  26
ATOM     26  C   UNL     1      17.537 -35.299  25.085  1.00  0.00    -0.000 C 
BRANCH  26  27
ATOM     27  C   UNL     1      17.451 -33.834  25.550  1.00  0.00    -0.000 C 
BRANCH  27  28
ATOM     28  C   UNL     1      17.409 -32.784  24.420  1.00  0.00    -0.000 C 
BRANCH  28  29
ATOM     29  C   UNL     1      18.439 -31.648  24.548  1.00  0.00    -0.003 C 
ATOM     30  C   UNL     1      19.876 -32.117  24.325  1.00  0.00     0.004 C 
ENDBRANCH  28  29
ENDBRANCH  27  28
ENDBRANCH  26  27
ENDBRANCH  25  26
ENDBRANCH  24  25
ENDBRANCH  23  24
ENDBRANCH  22  23
ENDBRANCH  21  22
ENDBRANCH  20  21
ENDBRANCH  19  20
ENDBRANCH  18  19
ENDBRANCH  17  18
ENDBRANCH   1  17
TORSDOF 26
ENDMDL
MODEL 4
REMARK VINA RESULT:    -5.045      3.403      8.609
REMARK INTER + INTRA:         -17.045
REMARK INTER:                 -12.916
REMARK INTRA:                  -4.130
REMARK UNBOUND:                -4.332
REMARK SMILES CCCCCCCCCCCCCCCCCCCCCCCCCCCC(=O)[O-]
REMARK SMILES IDX 15 1 16 2 17 3 18 4 19 5 20 6 21 7 22 8 23 9 24 10 25 11
REMARK SMILES IDX 26 12 27 13 28 14 29 15 30 16 14 17 13 18 12 19 11 20 10 21
REMARK SMILES IDX 9 22 8 23 7 24 6 25 5 26 4 27 3 28 2 29 1 30
REMARK H PARENT
REMARK Flexibility Score: inf
ROOT
ATOM      1  C   UNL     1      17.361 -30.303  22.033  1.00  0.00     0.000 C 
ENDROOT
BRANCH   1   2
ATOM      2  C   UNL     1      15.834 -30.410  21.899  1.00  0.00     0.000 C 
BRANCH   2   3
ATOM      3  C   UNL     1      15.132 -30.676  23.242  1.00  0.00     0.000 C 
BRANCH   3   4
ATOM      4  C   UNL     1      14.396 -32.028  23.347  1.00  0.00     0.000 C 
BRANCH   4   5
ATOM      5  C   UNL     1      15.259 -33.206  23.830  1.00  0.00     0.000 C 
BRANCH   5   6
ATOM      6  C   UNL     1      15.654 -34.160  22.690  1.00  0.00     0.000 C 
BRANCH   6   7
ATOM      7  C   UNL     1      14.998 -33.785  21.352  1.00  0.00     0.000 C 
BRANCH   7   8
ATOM      8  C   UNL     1      15.272 -34.814  20.242  1.00  0.00     0.000 C 
BRANCH   8   9
ATOM      9  C   UNL     1      16.427 -34.401  19.312  1.00  0.00     0.000 C 
BRANCH   9  10
ATOM     10  C   UNL     1      17.586 -35.413  19.227  1.00  0.00     0.000 C 
BRANCH  10  11
ATOM     11  C   UNL     1      17.241 -36.840  19.693  1.00  0.00     0.000 C 
BRANCH  11  12
ATOM     12  C   UNL     1      17.964 -37.263  20.990  1.00  0.00     0.006 C 
BRANCH  12  13
ATOM     13  C   UNL     1      18.707 -36.099  21.656  1.00  0.00     0.053 C 
BRANCH  13  14
ATOM     14  C   UNL     1      19.693 -36.612  22.657  1.00  0.00     0.041 C 
ATOM     15  O   UNL     1      20.713 -35.930  22.947  1.00  0.00    -0.550 OA
ATOM     16  O   UNL     1      19.519 -37.868  23.228  1.00  0.00    -0.550 OA
ENDBRANCH  13  14
ENDBRANCH  12  13
ENDBRANCH  11  12
ENDBRANCH  10  11
ENDBRANCH   9  10
ENDBRANCH   8   9
ENDBRANCH   7   8
ENDBRANCH   6   7
ENDBRANCH   5   6
ENDBRANCH   4   5
ENDBRANCH   3   4
ENDBRANCH   2   3
ENDBRANCH   1   2
BRANCH   1  17
ATOM     17  C   UNL     1      18.070 -30.995  20.863  1.00  0.00     0.000 C 
BRANCH  17  18
ATOM     18  C   UNL     1      18.584 -32.379  21.276  1.00  0.00     0.000 C 
BRANCH  18  19
ATOM     19  C   UNL     1      19.643 -32.272  22.384  1.00  0.00     0.000 C 
BRANCH  19  20
ATOM     20  C   UNL     1      20.891 -31.478  21.941  1.00  0.00     0.000 C 
BRANCH  20  21
ATOM     21  C   UNL     1      21.210 -30.260  22.831  1.00  0.00     0.000 C 
BRANCH  21  22
ATOM     22  C   UNL     1      21.736 -29.020  22.083  1.00  0.00    -0.000 C 
BRANCH  22  23
ATOM     23  C   UNL     1      21.061 -28.739  20.726  1.00  0.00    -0.000 C 
BRANCH  23  24
ATOM     24  C   UNL     1      19.885 -27.745  20.772  1.00  0.00    -0.000 C 
BRANCH  24  25
ATOM     25  C   UNL     1      20.235 -26.297  20.385  1.00  0.00    -0.000 C 
BRANCH  25  26
ATOM     26  C   UNL     1      20.080 -25.315  21.558  1.00  0.00    -0.000 C 
BRANCH  26  27
ATOM     27  C   UNL     1      21.426 -24.913  22.186  1.00  0.00    -0.000 C 
BRANCH  27  28
ATOM     28  C   UNL     1      22.680 -25.416  21.441  1.00  0.00    -0.000 C 
BRANCH  28  29
ATOM     29  C   UNL     1      23.406 -24.354  20.598  1.00  0.00    -0.003 C 
ATOM     30  C   UNL     1      23.548 -24.753  19.130  1.00  0.00     0.004 C 
ENDBRANCH  28  29
ENDBRANCH  27  28
ENDBRANCH  26  27
ENDBRANCH  25  26
ENDBRANCH  24  25
ENDBRANCH  23  24
ENDBRANCH  22  23
ENDBRANCH  21  22
ENDBRANCH  20  21
ENDBRANCH  19  20
ENDBRANCH  18  19
ENDBRANCH  17  18
ENDBRANCH   1  17
TORSDOF 26
ENDMDL
MODEL 5
REMARK VINA RESULT:    -5.045      1.354      3.398
REMARK INTER + INTRA:         -17.044
REMARK INTER:                 -12.602
REMARK INTRA:                  -4.442
REMARK UNBOUND:                -4.332
REMARK SMILES CCCCCCCCCCCCCCCCCCCCCCCCCCCC(=O)[O-]
REMARK SMILES IDX 15 1 16 2 17 3 18 4 19 5 20 6 21 7 22 8 23 9 24 10 25 11
REMARK SMILES IDX 26 12 27 13 28 14 29 15 30 16 14 17 13 18 12 19 11 20 10 21
REMARK SMILES IDX 9 22 8 23 7 24 6 25 5 26 4 27 3 28 2 29 1 30
REMARK H PARENT
REMARK Flexibility Score: inf
ROOT
ATOM      1  C   UNL     1      13.345 -31.614  20.951  1.00  0.00     0.000 C 
ENDROOT
BRANCH   1   2
ATOM      2  C   UNL     1      12.733 -30.973  22.206  1.00  0.00     0.000 C 
BRANCH   2   3
ATOM      3  C   UNL     1      13.792 -30.383  23.154  1.00  0.00     0.000 C 
BRANCH   3   4
ATOM      4  C   UNL     1      14.658 -29.255  22.556  1.00  0.00     0.000 C 
BRANCH   4   5
ATOM      5  C   UNL     1      16.146 -29.599  22.374  1.00  0.00     0.000 C 
BRANCH   5   6
ATOM      6  C   UNL     1      16.627 -30.692  23.343  1.00  0.00     0.000 C 
BRANCH   6   7
ATOM      7  C   UNL     1      17.348 -31.843  22.623  1.00  0.00     0.000 C 
BRANCH   7   8
ATOM      8  C   UNL     1      17.649 -31.531  21.147  1.00  0.00     0.000 C 
BRANCH   8   9
ATOM      9  C   UNL     1      18.856 -32.316  20.602  1.00  0.00     0.000 C 
BRANCH   9  10
ATOM     10  C   UNL     1      19.887 -32.742  21.666  1.00  0.00     0.000 C 
BRANCH  10  11
ATOM     11  C   UNL     1      21.155 -31.870  21.732  1.00  0.00     0.000 C 
BRANCH  11  12
ATOM     12  C   UNL     1      21.072 -30.586  20.878  1.00  0.00     0.006 C 
BRANCH  12  13
ATOM     13  C   UNL     1      21.017 -29.314  21.732  1.00  0.00     0.053 C 
BRANCH  13  14
ATOM     14  C   UNL     1      20.836 -28.109  20.864  1.00  0.00     0.041 C 
ATOM     15  O   UNL     1      21.795 -27.312  20.679  1.00  0.00    -0.550 OA
ATOM     16  O   UNL     1      19.593 -27.832  20.306  1.00  0.00    -0.550 OA
ENDBRANCH  13  14
ENDBRANCH  12  13
ENDBRANCH  11  12
ENDBRANCH  10  11
ENDBRANCH   9  10
ENDBRANCH   8   9
ENDBRANCH   7   8
ENDBRANCH   6   7
ENDBRANCH   5   6
ENDBRANCH   4   5
ENDBRANCH   3   4
ENDBRANCH   2   3
ENDBRANCH   1   2
BRANCH   1  17
ATOM     17  C   UNL     1      14.223 -32.817  21.314  1.00  0.00     0.000 C 
BRANCH  17  18
ATOM     18  C   UNL     1      14.588 -33.626  20.063  1.00  0.00     0.000 C 
BRANCH  18  19
ATOM     19  C   UNL     1      15.611 -34.724  20.389  1.00  0.00     0.000 C 
BRANCH  19  20
ATOM     20  C   UNL     1      16.731 -34.830  19.332  1.00  0.00     0.000 C 
BRANCH  20  21
ATOM     21  C   UNL     1      17.596 -36.099  19.456  1.00  0.00     0.000 C 
BRANCH  21  22
ATOM     22  C   UNL     1      17.615 -36.748  20.853  1.00  0.00    -0.000 C 
BRANCH  22  23
ATOM     23  C   UNL     1      18.390 -35.962  21.929  1.00  0.00    -0.000 C 
BRANCH  23  24
ATOM     24  C   UNL     1      19.143 -36.827  22.958  1.00  0.00    -0.000 C 
BRANCH  24  25
ATOM     25  C   UNL     1      18.798 -36.543  24.430  1.00  0.00    -0.000 C 
BRANCH  25  26
ATOM     26  C   UNL     1      17.584 -35.612  24.587  1.00  0.00    -0.000 C 
BRANCH  26  27
ATOM     27  C   UNL     1      17.617 -34.798  25.893  1.00  0.00    -0.000 C 
BRANCH  27  28
ATOM     28  C   UNL     1      17.977 -33.306  25.732  1.00  0.00    -0.000 C 
BRANCH  28  29
ATOM     29  C   UNL     1      19.461 -33.022  25.438  1.00  0.00    -0.003 C 
ATOM     30  C   UNL     1      19.798 -31.533  25.458  1.00  0.00     0.004 C 
ENDBRANCH  28  29
ENDBRANCH  27  28
ENDBRANCH  26  27
ENDBRANCH  25  26
ENDBRANCH  24  25
ENDBRANCH  23  24
ENDBRANCH  22  23
ENDBRANCH  21  22
ENDBRANCH  20  21
ENDBRANCH  19  20
ENDBRANCH  18  19
ENDBRANCH  17  18
ENDBRANCH   1  17
TORSDOF 26
ENDMDL
MODEL 6
REMARK VINA RESULT:    -5.031      2.553      4.392
REMARK INTER + INTRA:         -17.009
REMARK INTER:                 -11.235
REMARK INTRA:                  -5.774
REMARK UNBOUND:                -4.332
REMARK SMILES CCCCCCCCCCCCCCCCCCCCCCCCCCCC(=O)[O-]
REMARK SMILES IDX 15 1 16 2 17 3 18 4 19 5 20 6 21 7 22 8 23 9 24 10 25 11
REMARK SMILES IDX 26 12 27 13 28 14 29 15 30 16 14 17 13 18 12 19 11 20 10 21
REMARK SMILES IDX 9 22 8 23 7 24 6 25 5 26 4 27 3 28 2 29 1 30
REMARK H PARENT
REMARK Flexibility Score: inf
ROOT
ATOM      1  C   UNL     1      16.228 -30.070  22.896  1.00  0.00     0.000 C 
ENDROOT
BRANCH   1   2
ATOM      2  C   UNL     1      15.240 -30.313  21.745  1.00  0.00     0.000 C 
BRANCH   2   3
ATOM      3  C   UNL     1      14.134 -31.320  22.109  1.00  0.00     0.000 C 
BRANCH   3   4
ATOM      4  C   UNL     1      13.895 -31.522  23.620  1.00  0.00     0.000 C 
BRANCH   4   5
ATOM      5  C   UNL     1      14.273 -32.911  24.162  1.00  0.00     0.000 C 
BRANCH   5   6
ATOM      6  C   UNL     1      15.264 -33.656  23.253  1.00  0.00     0.000 C 
BRANCH   6   7
ATOM      7  C   UNL     1      16.252 -34.527  24.045  1.00  0.00     0.000 C 
BRANCH   7   8
ATOM      8  C   UNL     1      17.617 -33.849  24.250  1.00  0.00     0.000 C 
BRANCH   8   9
ATOM      9  C   UNL     1      17.679 -33.000  25.533  1.00  0.00     0.000 C 
BRANCH   9  10
ATOM     10  C   UNL     1      19.082 -32.478  25.899  1.00  0.00     0.000 C 
BRANCH  10  11
ATOM     11  C   UNL     1      20.252 -33.241  25.250  1.00  0.00     0.000 C 
BRANCH  11  12
ATOM     12  C   UNL     1      21.301 -32.324  24.586  1.00  0.00     0.006 C 
BRANCH  12  13
ATOM     13  C   UNL     1      20.983 -32.034  23.114  1.00  0.00     0.053 C 
BRANCH  13  14
ATOM     14  C   UNL     1      21.413 -30.649  22.749  1.00  0.00     0.041 C 
ATOM     15  O   UNL     1      21.175 -30.196  21.597  1.00  0.00    -0.550 OA
ATOM     16  O   UNL     1      22.127 -29.877  23.658  1.00  0.00    -0.550 OA
ENDBRANCH  13  14
ENDBRANCH  12  13
ENDBRANCH  11  12
ENDBRANCH  10  11
ENDBRANCH   9  10
ENDBRANCH   8   9
ENDBRANCH   7   8
ENDBRANCH   6   7
ENDBRANCH   5   6
ENDBRANCH   4   5
ENDBRANCH   3   4
ENDBRANCH   2   3
ENDBRANCH   1   2
BRANCH   1  17
ATOM     17  C   UNL     1      17.634 -30.562  22.532  1.00  0.00     0.000 C 
BRANCH  17  18
ATOM     18  C   UNL     1      17.706 -30.974  21.057  1.00  0.00     0.000 C 
BRANCH  18  19
ATOM     19  C   UNL     1      18.238 -32.407  20.904  1.00  0.00     0.000 C 
BRANCH  19  20
ATOM     20  C   UNL     1      17.241 -33.341  20.185  1.00  0.00     0.000 C 
BRANCH  20  21
ATOM     21  C   UNL     1      17.894 -34.296  19.168  1.00  0.00     0.000 C 
BRANCH  21  22
ATOM     22  C   UNL     1      17.692 -35.797  19.452  1.00  0.00    -0.000 C 
BRANCH  22  23
ATOM     23  C   UNL     1      17.328 -36.144  20.910  1.00  0.00    -0.000 C 
BRANCH  23  24
ATOM     24  C   UNL     1      18.454 -36.807  21.727  1.00  0.00    -0.000 C 
BRANCH  24  25
ATOM     25  C   UNL     1      19.622 -35.878  22.106  1.00  0.00    -0.000 C 
BRANCH  25  26
ATOM     26  C   UNL     1      20.289 -36.276  23.433  1.00  0.00    -0.000 C 
BRANCH  26  27
ATOM     27  C   UNL     1      19.471 -37.305  24.232  1.00  0.00    -0.000 C 
BRANCH  27  28
ATOM     28  C   UNL     1      19.230 -36.951  25.715  1.00  0.00    -0.000 C 
BRANCH  28  29
ATOM     29  C   UNL     1      18.151 -37.791  26.419  1.00  0.00    -0.003 C 
ATOM     30  C   UNL     1      16.846 -37.027  26.635  1.00  0.00     0.004 C 
ENDBRANCH  28  29
ENDBRANCH  27  28
ENDBRANCH  26  27
ENDBRANCH  25  26
ENDBRANCH  24  25
ENDBRANCH  23  24
ENDBRANCH  22  23
ENDBRANCH  21  22
ENDBRANCH  20  21
ENDBRANCH  19  20
ENDBRANCH  18  19
ENDBRANCH  17  18
ENDBRANCH   1  17
TORSDOF 26
ENDMDL
MODEL 7
REMARK VINA RESULT:    -5.017      1.136      2.013
REMARK INTER + INTRA:         -16.974
REMARK INTER:                 -12.675
REMARK INTRA:                  -4.300
REMARK UNBOUND:                -4.332
REMARK SMILES CCCCCCCCCCCCCCCCCCCCCCCCCCCC(=O)[O-]
REMARK SMILES IDX 15 1 16 2 17 3 18 4 19 5 20 6 21 7 22 8 23 9 24 10 25 11
REMARK SMILES IDX 26 12 27 13 28 14 29 15 30 16 14 17 13 18 12 19 11 20 10 21
REMARK SMILES IDX 9 22 8 23 7 24 6 25 5 26 4 27 3 28 2 29 1 30
REMARK H PARENT
REMARK Flexibility Score: inf
ROOT
ATOM      1  C   UNL     1      13.898 -31.660  23.883  1.00  0.00     0.000 C 
ENDROOT
BRANCH   1   2
ATOM      2  C   UNL     1      13.768 -30.677  22.710  1.00  0.00     0.000 C 
BRANCH   2   3
ATOM      3  C   UNL     1      14.653 -29.429  22.873  1.00  0.00     0.000 C 
BRANCH   3   4
ATOM      4  C   UNL     1      15.872 -29.356  21.931  1.00  0.00     0.000 C 
BRANCH   4   5
ATOM      5  C   UNL     1      17.036 -30.294  22.293  1.00  0.00     0.000 C 
BRANCH   5   6
ATOM      6  C   UNL     1      17.468 -31.187  21.118  1.00  0.00     0.000 C 
BRANCH   6   7
ATOM      7  C   UNL     1      18.568 -32.187  21.510  1.00  0.00     0.000 C 
BRANCH   7   8
ATOM      8  C   UNL     1      19.812 -31.507  22.105  1.00  0.00     0.000 C 
BRANCH   8   9
ATOM      9  C   UNL     1      20.940 -31.312  21.075  1.00  0.00     0.000 C 
BRANCH   9  10
ATOM     10  C   UNL     1      21.109 -29.869  20.563  1.00  0.00     0.000 C 
BRANCH  10  11
ATOM     11  C   UNL     1      20.254 -28.814  21.290  1.00  0.00     0.000 C 
BRANCH  11  12
ATOM     12  C   UNL     1      20.170 -27.463  20.549  1.00  0.00     0.006 C 
BRANCH  12  13
ATOM     13  C   UNL     1      20.859 -26.326  21.315  1.00  0.00     0.053 C 
BRANCH  13  14
ATOM     14  C   UNL     1      22.083 -25.870  20.587  1.00  0.00     0.041 C 
ATOM     15  O   UNL     1      22.425 -24.658  20.622  1.00  0.00    -0.550 OA
ATOM     16  O   UNL     1      22.815 -26.771  19.821  1.00  0.00    -0.550 OA
ENDBRANCH  13  14
ENDBRANCH  12  13
ENDBRANCH  11  12
ENDBRANCH  10  11
ENDBRANCH   9  10
ENDBRANCH   8   9
ENDBRANCH   7   8
ENDBRANCH   6   7
ENDBRANCH   5   6
ENDBRANCH   4   5
ENDBRANCH   3   4
ENDBRANCH   2   3
ENDBRANCH   1   2
BRANCH   1  17
ATOM     17  C   UNL     1      14.627 -32.940  23.457  1.00  0.00     0.000 C 
BRANCH  17  18
ATOM     18  C   UNL     1      14.603 -33.101  21.932  1.00  0.00     0.000 C 
BRANCH  18  19
ATOM     19  C   UNL     1      15.361 -34.363  21.494  1.00  0.00     0.000 C 
BRANCH  19  20
ATOM     20  C   UNL     1      15.502 -34.473  19.961  1.00  0.00     0.000 C 
BRANCH  20  21
ATOM     21  C   UNL     1      16.819 -35.122  19.494  1.00  0.00     0.000 C 
BRANCH  21  22
ATOM     22  C   UNL     1      16.842 -36.662  19.532  1.00  0.00    -0.000 C 
BRANCH  22  23
ATOM     23  C   UNL     1      17.804 -37.276  20.569  1.00  0.00    -0.000 C 
BRANCH  23  24
ATOM     24  C   UNL     1      18.471 -36.268  21.523  1.00  0.00    -0.000 C 
BRANCH  24  25
ATOM     25  C   UNL     1      19.408 -36.885  22.577  1.00  0.00    -0.000 C 
BRANCH  25  26
ATOM     26  C   UNL     1      20.623 -35.994  22.885  1.00  0.00    -0.000 C 
BRANCH  26  27
ATOM     27  C   UNL     1      20.283 -34.812  23.810  1.00  0.00    -0.000 C 
BRANCH  27  28
ATOM     28  C   UNL     1      19.114 -35.054  24.789  1.00  0.00    -0.000 C 
BRANCH  28  29
ATOM     29  C   UNL     1      17.869 -34.183  24.544  1.00  0.00    -0.003 C 
ATOM     30  C   UNL     1      17.971 -32.803  25.190  1.00  0.00     0.004 C 
ENDBRANCH  28  29
ENDBRANCH  27  28
ENDBRANCH  26  27
ENDBRANCH  25  26
ENDBRANCH  24  25
ENDBRANCH  23  24
ENDBRANCH  22  23
ENDBRANCH  21  22
ENDBRANCH  20  21
ENDBRANCH  19  20
ENDBRANCH  18  19
ENDBRANCH  17  18
ENDBRANCH   1  17
TORSDOF 26
ENDMDL
MODEL 8
REMARK VINA RESULT:    -4.995      3.379      7.057
REMARK INTER + INTRA:         -16.919
REMARK INTER:                 -11.217
REMARK INTRA:                  -5.701
REMARK UNBOUND:                -4.332
REMARK SMILES CCCCCCCCCCCCCCCCCCCCCCCCCCCC(=O)[O-]
REMARK SMILES IDX 15 1 16 2 17 3 18 4 19 5 20 6 21 7 22 8 23 9 24 10 25 11
REMARK SMILES IDX 26 12 27 13 28 14 29 15 30 16 14 17 13 18 12 19 11 20 10 21
REMARK SMILES IDX 9 22 8 23 7 24 6 25 5 26 4 27 3 28 2 29 1 30
REMARK H PARENT
REMARK Flexibility Score: inf
ROOT
ATOM      1  C   UNL     1      16.430 -33.879  20.268  1.00  0.00     0.000 C 
ENDROOT
BRANCH   1   2
ATOM      2  C   UNL     1      16.344 -35.410  20.169  1.00  0.00     0.000 C 
BRANCH   2   3
ATOM      3  C   UNL     1      17.720 -36.078  20.000  1.00  0.00     0.000 C 
BRANCH   3   4
ATOM      4  C   UNL     1      17.905 -37.410  20.756  1.00  0.00     0.000 C 
BRANCH   4   5
ATOM      5  C   UNL     1      18.642 -37.302  22.102  1.00  0.00     0.000 C 
BRANCH   5   6
ATOM      6  C   UNL     1      19.408 -35.977  22.256  1.00  0.00     0.000 C 
BRANCH   6   7
ATOM      7  C   UNL     1      18.942 -35.165  23.476  1.00  0.00     0.000 C 
BRANCH   7   8
ATOM      8  C   UNL     1      18.083 -35.988  24.451  1.00  0.00     0.000 C 
BRANCH   8   9
ATOM      9  C   UNL     1      16.837 -35.228  24.941  1.00  0.00     0.000 C 
BRANCH   9  10
ATOM     10  C   UNL     1      16.137 -34.370  23.869  1.00  0.00     0.000 C 
BRANCH  10  11
ATOM     11  C   UNL     1      15.175 -33.299  24.416  1.00  0.00     0.000 C 
BRANCH  11  12
ATOM     12  C   UNL     1      14.233 -32.705  23.347  1.00  0.00     0.006 C 
BRANCH  12  13
ATOM     13  C   UNL     1      13.818 -31.263  23.662  1.00  0.00     0.053 C 
BRANCH  13  14
ATOM     14  C   UNL     1      12.921 -30.730  22.590  1.00  0.00     0.041 C 
ATOM     15  O   UNL     1      12.977 -31.206  21.425  1.00  0.00    -0.550 OA
ATOM     16  O   UNL     1      12.065 -29.668  22.861  1.00  0.00    -0.550 OA
ENDBRANCH  13  14
ENDBRANCH  12  13
ENDBRANCH  11  12
ENDBRANCH  10  11
ENDBRANCH   9  10
ENDBRANCH   8   9
ENDBRANCH   7   8
ENDBRANCH   6   7
ENDBRANCH   5   6
ENDBRANCH   4   5
ENDBRANCH   3   4
ENDBRANCH   2   3
ENDBRANCH   1   2
BRANCH   1  17
ATOM     17  C   UNL     1      17.887 -33.410  20.360  1.00  0.00     0.000 C 
BRANCH  17  18
ATOM     18  C   UNL     1      17.963 -31.889  20.540  1.00  0.00     0.000 C 
BRANCH  18  19
ATOM     19  C   UNL     1      16.935 -31.399  21.570  1.00  0.00     0.000 C 
BRANCH  19  20
ATOM     20  C   UNL     1      17.584 -30.635  22.744  1.00  0.00     0.000 C 
BRANCH  20  21
ATOM     21  C   UNL     1      18.467 -31.511  23.654  1.00  0.00     0.000 C 
BRANCH  21  22
ATOM     22  C   UNL     1      18.187 -31.383  25.163  1.00  0.00    -0.000 C 
BRANCH  22  23
ATOM     23  C   UNL     1      19.393 -31.668  26.080  1.00  0.00    -0.000 C 
BRANCH  23  24
ATOM     24  C   UNL     1      20.426 -32.661  25.514  1.00  0.00    -0.000 C 
BRANCH  24  25
ATOM     25  C   UNL     1      21.806 -32.060  25.194  1.00  0.00    -0.000 C 
BRANCH  25  26
ATOM     26  C   UNL     1      22.424 -32.640  23.911  1.00  0.00    -0.000 C 
BRANCH  26  27
ATOM     27  C   UNL     1      21.419 -32.731  22.748  1.00  0.00    -0.000 C 
BRANCH  27  28
ATOM     28  C   UNL     1      21.583 -31.662  21.648  1.00  0.00    -0.000 C 
BRANCH  28  29
ATOM     29  C   UNL     1      21.366 -30.211  22.112  1.00  0.00    -0.003 C 
ATOM     30  C   UNL     1      20.643 -29.355  21.075  1.00  0.00     0.004 C 
ENDBRANCH  28  29
ENDBRANCH  27  28
ENDBRANCH  26  27
ENDBRANCH  25  26
ENDBRANCH  24  25
ENDBRANCH  23  24
ENDBRANCH  22  23
ENDBRANCH  21  22
ENDBRANCH  20  21
ENDBRANCH  19  20
ENDBRANCH  18  19
ENDBRANCH  17  18
ENDBRANCH   1  17
TORSDOF 26
ENDMDL
MODEL 9
REMARK VINA RESULT:    -4.988      3.498      8.355
REMARK INTER + INTRA:         -16.901
REMARK INTER:                 -13.021
REMARK INTRA:                  -3.880
REMARK UNBOUND:                -4.332
REMARK SMILES CCCCCCCCCCCCCCCCCCCCCCCCCCCC(=O)[O-]
REMARK SMILES IDX 15 1 16 2 17 3 18 4 19 5 20 6 21 7 22 8 23 9 24 10 25 11
REMARK SMILES IDX 26 12 27 13 28 14 29 15 30 16 14 17 13 18 12 19 11 20 10 21
REMARK SMILES IDX 9 22 8 23 7 24 6 25 5 26 4 27 3 28 2 29 1 30
REMARK H PARENT
REMARK Flexibility Score: inf
ROOT
ATOM      1  C   UNL     1      16.293 -29.996  23.080  1.00  0.00     0.000 C 
ENDROOT
BRANCH   1   2
ATOM      2  C   UNL     1      14.771 -29.820  22.963  1.00  0.00     0.000 C 
BRANCH   2   3
ATOM      3  C   UNL     1      14.052 -31.106  22.519  1.00  0.00     0.000 C 
BRANCH   3   4
ATOM      4  C   UNL     1      14.447 -32.383  23.290  1.00  0.00     0.000 C 
BRANCH   4   5
ATOM      5  C   UNL     1      14.966 -33.539  22.419  1.00  0.00     0.000 C 
BRANCH   5   6
ATOM      6  C   UNL     1      14.732 -33.304  20.917  1.00  0.00     0.000 C 
BRANCH   6   7
ATOM      7  C   UNL     1      15.264 -34.456  20.049  1.00  0.00     0.000 C 
BRANCH   7   8
ATOM      8  C   UNL     1      16.753 -34.302  19.696  1.00  0.00     0.000 C 
BRANCH   8   9
ATOM      9  C   UNL     1      17.471 -35.652  19.517  1.00  0.00     0.000 C 
BRANCH   9  10
ATOM     10  C   UNL     1      17.698 -36.443  20.820  1.00  0.00     0.000 C 
BRANCH  10  11
ATOM     11  C   UNL     1      18.783 -35.870  21.751  1.00  0.00     0.000 C 
BRANCH  11  12
ATOM     12  C   UNL     1      18.486 -36.073  23.252  1.00  0.00     0.006 C 
BRANCH  12  13
ATOM     13  C   UNL     1      17.232 -35.319  23.711  1.00  0.00     0.053 C 
BRANCH  13  14
ATOM     14  C   UNL     1      17.152 -35.297  25.205  1.00  0.00     0.041 C 
ATOM     15  O   UNL     1      17.366 -36.349  25.865  1.00  0.00    -0.550 OA
ATOM     16  O   UNL     1      16.784 -34.131  25.866  1.00  0.00    -0.550 OA
ENDBRANCH  13  14
ENDBRANCH  12  13
ENDBRANCH  11  12
ENDBRANCH  10  11
ENDBRANCH   9  10
ENDBRANCH   8   9
ENDBRANCH   7   8
ENDBRANCH   6   7
ENDBRANCH   5   6
ENDBRANCH   4   5
ENDBRANCH   3   4
ENDBRANCH   2   3
ENDBRANCH   1   2
BRANCH   1  17
ATOM     17  C   UNL     1      16.987 -29.729  21.739  1.00  0.00     0.000 C 
BRANCH  17  18
ATOM     18  C   UNL     1      17.532 -31.029  21.135  1.00  0.00     0.000 C 
BRANCH  18  19
ATOM     19  C   UNL     1      18.353 -31.819  22.165  1.00  0.00     0.000 C 
BRANCH  19  20
ATOM     20  C   UNL     1      19.699 -32.319  21.598  1.00  0.00     0.000 C 
BRANCH  20  21
ATOM     21  C   UNL     1      20.550 -31.218  20.934  1.00  0.00     0.000 C 
BRANCH  21  22
ATOM     22  C   UNL     1      20.760 -29.949  21.782  1.00  0.00    -0.000 C 
BRANCH  22  23
ATOM     23  C   UNL     1      21.104 -28.677  20.981  1.00  0.00    -0.000 C 
BRANCH  23  24
ATOM     24  C   UNL     1      19.894 -27.824  20.554  1.00  0.00    -0.000 C 
BRANCH  24  25
ATOM     25  C   UNL     1      20.129 -26.303  20.565  1.00  0.00    -0.000 C 
BRANCH  25  26
ATOM     26  C   UNL     1      20.687 -25.798  21.905  1.00  0.00    -0.000 C 
BRANCH  26  27
ATOM     27  C   UNL     1      21.731 -24.679  21.737  1.00  0.00    -0.000 C 
BRANCH  27  28
ATOM     28  C   UNL     1      23.075 -25.117  21.119  1.00  0.00    -0.000 C 
BRANCH  28  29
ATOM     29  C   UNL     1      23.224 -24.831  19.614  1.00  0.00    -0.003 C 
ATOM     30  C   UNL     1      23.616 -26.068  18.808  1.00  0.00     0.004 C 
ENDBRANCH  28  29
ENDBRANCH  27  28
ENDBRANCH  26  27
ENDBRANCH  25  26
ENDBRANCH  24  25
ENDBRANCH  23  24
ENDBRANCH  22  23
ENDBRANCH  21  22
ENDBRANCH  20  21
ENDBRANCH  19  20
ENDBRANCH  18  19
ENDBRANCH  17  18
ENDBRANCH   1  17
TORSDOF 26
ENDMDL
