MODEL 1
REMARK VINA RESULT:    -1.841      0.000      0.000
REMARK INTER + INTRA:          -4.073
REMARK INTER:                  -3.348
REMARK INTRA:                  -0.726
REMARK UNBOUND:                -0.726
REMARK SMILES CCCCCCCCCCCCCCCC(=O)[O-]
REMARK SMILES IDX 9 1 10 2 11 3 12 4 13 5 14 6 15 7 16 8 17 9 18 10 8 11 7 12
REMARK SMILES IDX 6 13 5 14 4 15 3 16 2 17 1 18
REMARK H PARENT
REMARK Flexibility Score: inf
ROOT
ATOM      1  C   UNL     1      -9.076  50.193  -3.351  1.00  0.00     0.000 C 
ENDROOT
BRANCH   1   2
ATOM      2  C   UNL     1      -8.333  51.208  -4.233  1.00  0.00     0.000 C 
BRANCH   2   3
ATOM      3  C   UNL     1      -8.307  50.797  -5.713  1.00  0.00     0.000 C 
BRANCH   3   4
ATOM      4  C   UNL     1      -7.688  51.900  -6.579  1.00  0.00     0.000 C 
BRANCH   4   5
ATOM      5  C   UNL     1      -7.082  51.318  -7.864  1.00  0.00     0.000 C 
BRANCH   5   6
ATOM      6  C   UNL     1      -5.786  52.027  -8.296  1.00  0.00     0.006 C 
BRANCH   6   7
ATOM      7  C   UNL     1      -4.725  52.121  -7.185  1.00  0.00     0.053 C 
BRANCH   7   8
ATOM      8  C   UNL     1      -3.325  52.065  -7.716  1.00  0.00     0.041 C 
ATOM      9  O   UNL     1      -2.344  52.062  -6.925  1.00  0.00    -0.550 OA
ATOM     10  O   UNL     1      -3.102  51.983  -9.084  1.00  0.00    -0.550 OA
ENDBRANCH   7   8
ENDBRANCH   6   7
ENDBRANCH   5   6
ENDBRANCH   4   5
ENDBRANCH   3   4
ENDBRANCH   2   3
ENDBRANCH   1   2
BRANCH   1  11
ATOM     11  C   UNL     1      -8.480  50.089  -1.937  1.00  0.00     0.000 C 
BRANCH  11  12
ATOM     12  C   UNL     1      -9.117  51.082  -0.948  1.00  0.00    -0.000 C 
BRANCH  12  13
ATOM     13  C   UNL     1      -8.140  52.107  -0.341  1.00  0.00    -0.000 C 
BRANCH  13  14
ATOM     14  C   UNL     1      -6.690  52.018  -0.858  1.00  0.00    -0.000 C 
BRANCH  14  15
ATOM     15  C   UNL     1      -5.698  51.352   0.112  1.00  0.00    -0.000 C 
BRANCH  15  16
ATOM     16  C   UNL     1      -4.367  52.116   0.218  1.00  0.00    -0.000 C 
BRANCH  16  17
ATOM     17  C   UNL     1      -3.146  51.190   0.110  1.00  0.00    -0.003 C 
ATOM     18  C   UNL     1      -1.841  51.889   0.491  1.00  0.00     0.004 C 
ENDBRANCH  16  17
ENDBRANCH  15  16
ENDBRANCH  14  15
ENDBRANCH  13  14
ENDBRANCH  12  13
ENDBRANCH  11  12
ENDBRANCH   1  11
TORSDOF 14
ENDMDL
MODEL 2
REMARK VINA RESULT:    -1.646      2.500      6.884
REMARK INTER + INTRA:          -3.718
REMARK INTER:                  -3.097
REMARK INTRA:                  -0.621
REMARK UNBOUND:                -0.726
REMARK SMILES CCCCCCCCCCCCCCCC(=O)[O-]
REMARK SMILES IDX 9 1 10 2 11 3 12 4 13 5 14 6 15 7 16 8 17 9 18 10 8 11 7 12
REMARK SMILES IDX 6 13 5 14 4 15 3 16 2 17 1 18
REMARK H PARENT
REMARK Flexibility Score: inf
ROOT
ATOM      1  C   UNL     1      -9.105  50.148  -3.139  1.00  0.00     0.000 C 
ENDROOT
BRANCH   1   2
ATOM      2  C   UNL     1      -8.935  51.130  -1.969  1.00  0.00     0.000 C 
BRANCH   2   3
ATOM      3  C   UNL     1      -7.745  50.771  -1.065  1.00  0.00     0.000 C 
BRANCH   3   4
ATOM      4  C   UNL     1      -7.023  52.033  -0.581  1.00  0.00     0.000 C 
BRANCH   4   5
ATOM      5  C   UNL     1      -5.993  51.695   0.507  1.00  0.00     0.000 C 
BRANCH   5   6
ATOM      6  C   UNL     1      -4.558  52.105   0.128  1.00  0.00     0.006 C 
BRANCH   6   7
ATOM      7  C   UNL     1      -3.508  51.009   0.381  1.00  0.00     0.053 C 
BRANCH   7   8
ATOM      8  C   UNL     1      -2.117  51.451   0.040  1.00  0.00     0.041 C 
ATOM      9  O   UNL     1      -1.651  51.252  -1.113  1.00  0.00    -0.550 OA
ATOM     10  O   UNL     1      -1.346  52.112   0.987  1.00  0.00    -0.550 OA
ENDBRANCH   7   8
ENDBRANCH   6   7
ENDBRANCH   5   6
ENDBRANCH   4   5
ENDBRANCH   3   4
ENDBRANCH   2   3
ENDBRANCH   1   2
BRANCH   1  11
ATOM     11  C   UNL     1      -9.125  50.853  -4.505  1.00  0.00     0.000 C 
BRANCH  11  12
ATOM     12  C   UNL     1      -7.783  51.524  -4.849  1.00  0.00    -0.000 C 
BRANCH  12  13
ATOM     13  C   UNL     1      -7.703  52.124  -6.267  1.00  0.00    -0.000 C 
BRANCH  13  14
ATOM     14  C   UNL     1      -7.146  51.178  -7.349  1.00  0.00    -0.000 C 
BRANCH  14  15
ATOM     15  C   UNL     1      -6.032  51.780  -8.223  1.00  0.00    -0.000 C 
BRANCH  15  16
ATOM     16  C   UNL     1      -4.859  50.808  -8.445  1.00  0.00    -0.000 C 
BRANCH  16  17
ATOM     17  C   UNL     1      -3.504  51.528  -8.517  1.00  0.00    -0.003 C 
ATOM     18  C   UNL     1      -2.898  51.782  -7.137  1.00  0.00     0.004 C 
ENDBRANCH  16  17
ENDBRANCH  15  16
ENDBRANCH  14  15
ENDBRANCH  13  14
ENDBRANCH  12  13
ENDBRANCH  11  12
ENDBRANCH   1  11
TORSDOF 14
ENDMDL
MODEL 3
REMARK VINA RESULT:    -0.050      2.919      7.199
REMARK INTER + INTRA:          -0.817
REMARK INTER:                  -0.238
REMARK INTRA:                  -0.579
REMARK UNBOUND:                -0.726
REMARK SMILES CCCCCCCCCCCCCCCC(=O)[O-]
REMARK SMILES IDX 9 1 10 2 11 3 12 4 13 5 14 6 15 7 16 8 17 9 18 10 8 11 7 12
REMARK SMILES IDX 6 13 5 14 4 15 3 16 2 17 1 18
REMARK H PARENT
REMARK Flexibility Score: inf
ROOT
ATOM      1  C   UNL     1      -8.312  50.897  -4.811  1.00  0.00     0.000 C 
ENDROOT
BRANCH   1   2
ATOM      2  C   UNL     1      -8.134  51.356  -3.355  1.00  0.00     0.000 C 
BRANCH   2   3
ATOM      3  C   UNL     1      -8.978  50.533  -2.370  1.00  0.00     0.000 C 
BRANCH   3   4
ATOM      4  C   UNL     1      -8.236  50.336  -1.043  1.00  0.00     0.000 C 
BRANCH   4   5
ATOM      5  C   UNL     1      -6.835  50.962  -1.096  1.00  0.00     0.000 C 
BRANCH   5   6
ATOM      6  C   UNL     1      -6.192  51.123   0.293  1.00  0.00     0.006 C 
BRANCH   6   7
ATOM      7  C   UNL     1      -5.025  52.125   0.330  1.00  0.00     0.053 C 
BRANCH   7   8
ATOM      8  C   UNL     1      -3.685  51.453   0.345  1.00  0.00     0.041 C 
ATOM      9  O   UNL     1      -2.640  52.113   0.104  1.00  0.00    -0.550 OA
ATOM     10  O   UNL     1      -3.588  50.103   0.657  1.00  0.00    -0.550 OA
ENDBRANCH   7   8
ENDBRANCH   6   7
ENDBRANCH   5   6
ENDBRANCH   4   5
ENDBRANCH   3   4
ENDBRANCH   2   3
ENDBRANCH   1   2
BRANCH   1  11
ATOM     11  C   UNL     1      -8.543  52.071  -5.777  1.00  0.00     0.000 C 
BRANCH  11  12
ATOM     12  C   UNL     1      -8.474  51.647  -7.255  1.00  0.00    -0.000 C 
BRANCH  12  13
ATOM     13  C   UNL     1      -7.090  51.153  -7.724  1.00  0.00    -0.000 C 
BRANCH  13  14
ATOM     14  C   UNL     1      -6.963  50.900  -9.239  1.00  0.00    -0.000 C 
BRANCH  14  15
ATOM     15  C   UNL     1      -5.518  50.849  -9.767  1.00  0.00    -0.000 C 
BRANCH  15  16
ATOM     16  C   UNL     1      -4.601  51.883  -9.089  1.00  0.00    -0.000 C 
BRANCH  16  17
ATOM     17  C   UNL     1      -3.753  51.269  -7.964  1.00  0.00    -0.003 C 
ATOM     18  C   UNL     1      -3.747  52.124  -6.698  1.00  0.00     0.004 C 
ENDBRANCH  16  17
ENDBRANCH  15  16
ENDBRANCH  14  15
ENDBRANCH  13  14
ENDBRANCH  12  13
ENDBRANCH  11  12
ENDBRANCH   1  11
TORSDOF 14
ENDMDL
MODEL 4
REMARK VINA RESULT:     0.085      1.195      1.748
REMARK INTER + INTRA:          -0.572
REMARK INTER:                   0.213
REMARK INTRA:                  -0.784
REMARK UNBOUND:                -0.726
REMARK SMILES CCCCCCCCCCCCCCCC(=O)[O-]
REMARK SMILES IDX 9 1 10 2 11 3 12 4 13 5 14 6 15 7 16 8 17 9 18 10 8 11 7 12
REMARK SMILES IDX 6 13 5 14 4 15 3 16 2 17 1 18
REMARK H PARENT
REMARK Flexibility Score: inf
ROOT
ATOM      1  C   UNL     1      -8.561  52.055  -3.022  1.00  0.00     0.000 C 
ENDROOT
BRANCH   1   2
ATOM      2  C   UNL     1      -8.989  50.968  -4.020  1.00  0.00     0.000 C 
BRANCH   2   3
ATOM      3  C   UNL     1      -8.236  51.065  -5.356  1.00  0.00     0.000 C 
BRANCH   3   4
ATOM      4  C   UNL     1      -6.992  51.951  -5.222  1.00  0.00     0.000 C 
BRANCH   4   5
ATOM      5  C   UNL     1      -6.249  52.064  -6.561  1.00  0.00     0.000 C 
BRANCH   5   6
ATOM      6  C   UNL     1      -4.732  51.840  -6.430  1.00  0.00     0.006 C 
BRANCH   6   7
ATOM      7  C   UNL     1      -3.989  51.785  -7.777  1.00  0.00     0.053 C 
BRANCH   7   8
ATOM      8  C   UNL     1      -2.601  51.235  -7.651  1.00  0.00     0.041 C 
ATOM      9  O   UNL     1      -1.662  51.716  -8.339  1.00  0.00    -0.550 OA
ATOM     10  O   UNL     1      -2.337  50.213  -6.749  1.00  0.00    -0.550 OA
ENDBRANCH   7   8
ENDBRANCH   6   7
ENDBRANCH   5   6
ENDBRANCH   4   5
ENDBRANCH   3   4
ENDBRANCH   2   3
ENDBRANCH   1   2
BRANCH   1  11
ATOM     11  C   UNL     1      -8.771  51.630  -1.558  1.00  0.00     0.000 C 
BRANCH  11  12
ATOM     12  C   UNL     1      -7.525  50.966  -0.946  1.00  0.00    -0.000 C 
BRANCH  12  13
ATOM     13  C   UNL     1      -6.340  51.920  -0.696  1.00  0.00    -0.000 C 
BRANCH  13  14
ATOM     14  C   UNL     1      -5.332  51.448   0.371  1.00  0.00    -0.000 C 
BRANCH  14  15
ATOM     15  C   UNL     1      -3.891  51.948   0.166  1.00  0.00    -0.000 C 
BRANCH  15  16
ATOM     16  C   UNL     1      -2.840  50.853   0.418  1.00  0.00    -0.000 C 
BRANCH  16  17
ATOM     17  C   UNL     1      -1.718  50.862  -0.631  1.00  0.00    -0.003 C 
ATOM     18  C   UNL     1      -1.729  52.123  -1.494  1.00  0.00     0.004 C 
ENDBRANCH  16  17
ENDBRANCH  15  16
ENDBRANCH  14  15
ENDBRANCH  13  14
ENDBRANCH  12  13
ENDBRANCH  11  12
ENDBRANCH   1  11
TORSDOF 14
ENDMDL
MODEL 5
REMARK VINA RESULT:     0.508      4.099      7.431
REMARK INTER + INTRA:           0.198
REMARK INTER:                   0.904
REMARK INTRA:                  -0.706
REMARK UNBOUND:                -0.726
REMARK SMILES CCCCCCCCCCCCCCCC(=O)[O-]
REMARK SMILES IDX 9 1 10 2 11 3 12 4 13 5 14 6 15 7 16 8 17 9 18 10 8 11 7 12
REMARK SMILES IDX 6 13 5 14 4 15 3 16 2 17 1 18
REMARK H PARENT
REMARK Flexibility Score: inf
ROOT
ATOM      1  C   UNL     1      -8.074  50.858  -4.777  1.00  0.00     0.000 C 
ENDROOT
BRANCH   1   2
ATOM      2  C   UNL     1      -8.921  51.042  -3.508  1.00  0.00     0.000 C 
BRANCH   2   3
ATOM      3  C   UNL     1      -8.139  51.716  -2.370  1.00  0.00     0.000 C 
BRANCH   3   4
ATOM      4  C   UNL     1      -8.208  50.880  -1.087  1.00  0.00     0.000 C 
BRANCH   4   5
ATOM      5  C   UNL     1      -8.493  49.405  -1.404  1.00  0.00     0.000 C 
BRANCH   5   6
ATOM      6  C   UNL     1      -7.250  48.507  -1.270  1.00  0.00     0.006 C 
BRANCH   6   7
ATOM      7  C   UNL     1      -7.231  47.316  -2.244  1.00  0.00     0.053 C 
BRANCH   7   8
ATOM      8  C   UNL     1      -6.919  46.017  -1.565  1.00  0.00     0.041 C 
ATOM      9  O   UNL     1      -6.283  45.117  -2.175  1.00  0.00    -0.550 OA
ATOM     10  O   UNL     1      -7.302  45.812  -0.245  1.00  0.00    -0.550 OA
ENDBRANCH   7   8
ENDBRANCH   6   7
ENDBRANCH   5   6
ENDBRANCH   4   5
ENDBRANCH   3   4
ENDBRANCH   2   3
ENDBRANCH   1   2
BRANCH   1  11
ATOM     11  C   UNL     1      -8.275  51.995  -5.793  1.00  0.00     0.000 C 
BRANCH  11  12
ATOM     12  C   UNL     1      -7.103  52.123  -6.783  1.00  0.00    -0.000 C 
BRANCH  12  13
ATOM     13  C   UNL     1      -7.459  51.814  -8.251  1.00  0.00    -0.000 C 
BRANCH  13  14
ATOM     14  C   UNL     1      -6.463  50.898  -8.989  1.00  0.00    -0.000 C 
BRANCH  14  15
ATOM     15  C   UNL     1      -5.065  51.503  -9.203  1.00  0.00    -0.000 C 
BRANCH  15  16
ATOM     16  C   UNL     1      -4.061  51.081  -8.116  1.00  0.00    -0.000 C 
BRANCH  16  17
ATOM     17  C   UNL     1      -2.684  51.739  -8.299  1.00  0.00    -0.003 C 
ATOM     18  C   UNL     1      -1.875  51.781  -7.003  1.00  0.00     0.004 C 
ENDBRANCH  16  17
ENDBRANCH  15  16
ENDBRANCH  14  15
ENDBRANCH  13  14
ENDBRANCH  12  13
ENDBRANCH  11  12
ENDBRANCH   1  11
TORSDOF 14
ENDMDL
MODEL 6
REMARK VINA RESULT:     0.766      2.735      7.507
REMARK INTER + INTRA:           0.666
REMARK INTER:                   1.341
REMARK INTRA:                  -0.674
REMARK UNBOUND:                -0.726
REMARK SMILES CCCCCCCCCCCCCCCC(=O)[O-]
REMARK SMILES IDX 9 1 10 2 11 3 12 4 13 5 14 6 15 7 16 8 17 9 18 10 8 11 7 12
REMARK SMILES IDX 6 13 5 14 4 15 3 16 2 17 1 18
REMARK H PARENT
REMARK Flexibility Score: inf
ROOT
ATOM      1  C   UNL     1      -8.083  49.730  -3.351  1.00  0.00     0.000 C 
ENDROOT
BRANCH   1   2
ATOM      2  C   UNL     1      -8.615  50.086  -1.955  1.00  0.00     0.000 C 
BRANCH   2   3
ATOM      3  C   UNL     1      -8.787  51.600  -1.758  1.00  0.00     0.000 C 
BRANCH   3   4
ATOM      4  C   UNL     1      -7.835  52.125  -0.677  1.00  0.00     0.000 C 
BRANCH   4   5
ATOM      5  C   UNL     1      -6.736  51.098  -0.365  1.00  0.00     0.000 C 
BRANCH   5   6
ATOM      6  C   UNL     1      -5.764  51.568   0.732  1.00  0.00     0.006 C 
BRANCH   6   7
ATOM      7  C   UNL     1      -4.394  50.868   0.696  1.00  0.00     0.053 C 
BRANCH   7   8
ATOM      8  C   UNL     1      -3.321  51.726   0.097  1.00  0.00     0.041 C 
ATOM      9  O   UNL     1      -3.410  52.115  -1.098  1.00  0.00    -0.550 OA
ATOM     10  O   UNL     1      -2.238  52.125   0.870  1.00  0.00    -0.550 OA
ENDBRANCH   7   8
ENDBRANCH   6   7
ENDBRANCH   5   6
ENDBRANCH   4   5
ENDBRANCH   3   4
ENDBRANCH   2   3
ENDBRANCH   1   2
BRANCH   1  11
ATOM     11  C   UNL     1      -9.094  50.041  -4.467  1.00  0.00     0.000 C 
BRANCH  11  12
ATOM     12  C   UNL     1      -8.904  51.445  -5.069  1.00  0.00    -0.000 C 
BRANCH  12  13
ATOM     13  C   UNL     1      -7.537  51.681  -5.742  1.00  0.00    -0.000 C 
BRANCH  13  14
ATOM     14  C   UNL     1      -7.600  52.109  -7.222  1.00  0.00    -0.000 C 
BRANCH  14  15
ATOM     15  C   UNL     1      -7.027  51.085  -8.217  1.00  0.00    -0.000 C 
BRANCH  15  16
ATOM     16  C   UNL     1      -7.627  51.226  -9.627  1.00  0.00    -0.000 C 
BRANCH  16  17
ATOM     17  C   UNL     1      -8.846  50.315  -9.841  1.00  0.00    -0.003 C 
ATOM     18  C   UNL     1      -8.641  48.913  -9.270  1.00  0.00     0.004 C 
ENDBRANCH  16  17
ENDBRANCH  15  16
ENDBRANCH  14  15
ENDBRANCH  13  14
ENDBRANCH  12  13
ENDBRANCH  11  12
ENDBRANCH   1  11
TORSDOF 14
ENDMDL
