MODEL 1
REMARK VINA RESULT:    -5.389      0.000      0.000
REMARK INTER + INTRA:         -14.807
REMARK INTER:                 -11.690
REMARK INTRA:                  -3.117
REMARK UNBOUND:                -3.117
REMARK SMILES CCCCCCCCCCCCCCCCCCCCCC(=O)[O-]
REMARK SMILES IDX 12 1 11 2 10 3 9 4 8 5 7 6 6 7 5 8 4 9 3 10 2 11 1 12 13 13
REMARK SMILES IDX 14 14 15 15 16 16 17 17 18 18 19 19 20 20 21 21 22 22 23 23
REMARK SMILES IDX 24 24
REMARK H PARENT
REMARK Flexibility Score: inf
ROOT
ATOM      1  C   UNL     1       8.447  17.543  35.983  1.00  0.00     0.000 C 
ENDROOT
BRANCH   1   2
ATOM      2  C   UNL     1       8.016  18.555  37.058  1.00  0.00     0.000 C 
BRANCH   2   3
ATOM      3  C   UNL     1       9.157  18.906  38.027  1.00  0.00     0.000 C 
BRANCH   3   4
ATOM      4  C   UNL     1       9.842  20.237  37.679  1.00  0.00    -0.000 C 
BRANCH   4   5
ATOM      5  C   UNL     1       8.863  21.279  37.106  1.00  0.00    -0.000 C 
BRANCH   5   6
ATOM      6  C   UNL     1       9.402  21.960  35.839  1.00  0.00    -0.000 C 
BRANCH   6   7
ATOM      7  C   UNL     1       9.364  21.036  34.610  1.00  0.00    -0.000 C 
BRANCH   7   8
ATOM      8  C   UNL     1      10.755  20.517  34.208  1.00  0.00    -0.000 C 
BRANCH   8   9
ATOM      9  C   UNL     1      10.735  19.568  32.990  1.00  0.00    -0.000 C 
BRANCH   9  10
ATOM     10  C   UNL     1       9.324  19.046  32.678  1.00  0.00    -0.000 C 
BRANCH  10  11
ATOM     11  C   UNL     1       9.088  18.971  31.164  1.00  0.00    -0.003 C 
ATOM     12  C   UNL     1       9.781  17.754  30.558  1.00  0.00     0.004 C 
ENDBRANCH  10  11
ENDBRANCH   9  10
ENDBRANCH   8   9
ENDBRANCH   7   8
ENDBRANCH   6   7
ENDBRANCH   5   6
ENDBRANCH   4   5
ENDBRANCH   3   4
ENDBRANCH   2   3
ENDBRANCH   1   2
BRANCH   1  13
ATOM     13  C   UNL     1       9.740  16.797  36.354  1.00  0.00     0.000 C 
BRANCH  13  14
ATOM     14  C   UNL     1      10.803  16.871  35.236  1.00  0.00     0.000 C 
BRANCH  14  15
ATOM     15  C   UNL     1      12.252  16.964  35.756  1.00  0.00     0.000 C 
BRANCH  15  16
ATOM     16  C   UNL     1      12.534  18.149  36.697  1.00  0.00     0.000 C 
BRANCH  16  17
ATOM     17  C   UNL     1      12.813  17.766  38.162  1.00  0.00     0.000 C 
BRANCH  17  18
ATOM     18  C   UNL     1      13.960  16.753  38.313  1.00  0.00     0.000 C 
BRANCH  18  19
ATOM     19  C   UNL     1      15.286  17.432  38.715  1.00  0.00     0.000 C 
BRANCH  19  20
ATOM     20  C   UNL     1      16.285  17.565  37.555  1.00  0.00     0.006 C 
BRANCH  20  21
ATOM     21  C   UNL     1      15.976  16.616  36.392  1.00  0.00     0.053 C 
BRANCH  21  22
ATOM     22  C   UNL     1      17.082  16.644  35.384  1.00  0.00     0.041 C 
ATOM     23  O   UNL     1      18.098  15.916  35.538  1.00  0.00    -0.550 OA
ATOM     24  O   UNL     1      17.008  17.504  34.294  1.00  0.00    -0.550 OA
ENDBRANCH  21  22
ENDBRANCH  20  21
ENDBRANCH  19  20
ENDBRANCH  18  19
ENDBRANCH  17  18
ENDBRANCH  16  17
ENDBRANCH  15  16
ENDBRANCH  14  15
ENDBRANCH  13  14
ENDBRANCH   1  13
TORSDOF 20
ENDMDL
MODEL 2
REMARK VINA RESULT:    -5.372      2.640      5.020
REMARK INTER + INTRA:         -14.769
REMARK INTER:                 -12.047
REMARK INTRA:                  -2.722
REMARK UNBOUND:                -3.117
REMARK SMILES CCCCCCCCCCCCCCCCCCCCCC(=O)[O-]
REMARK SMILES IDX 12 1 11 2 10 3 9 4 8 5 7 6 6 7 5 8 4 9 3 10 2 11 1 12 13 13
REMARK SMILES IDX 14 14 15 15 16 16 17 17 18 18 19 19 20 20 21 21 22 22 23 23
REMARK SMILES IDX 24 24
REMARK H PARENT
REMARK Flexibility Score: inf
ROOT
ATOM      1  C   UNL     1       9.931  18.868  32.608  1.00  0.00     0.000 C 
ENDROOT
BRANCH   1   2
ATOM      2  C   UNL     1       9.667  18.463  31.148  1.00  0.00     0.000 C 
BRANCH   2   3
ATOM      3  C   UNL     1       8.657  19.391  30.452  1.00  0.00     0.000 C 
BRANCH   3   4
ATOM      4  C   UNL     1       8.151  20.513  31.372  1.00  0.00    -0.000 C 
BRANCH   4   5
ATOM      5  C   UNL     1       8.500  21.918  30.845  1.00  0.00    -0.000 C 
BRANCH   5   6
ATOM      6  C   UNL     1       8.310  23.010  31.909  1.00  0.00    -0.000 C 
BRANCH   6   7
ATOM      7  C   UNL     1       9.004  22.670  33.238  1.00  0.00    -0.000 C 
BRANCH   7   8
ATOM      8  C   UNL     1       8.779  23.738  34.322  1.00  0.00    -0.000 C 
BRANCH   8   9
ATOM      9  C   UNL     1       9.477  25.082  34.021  1.00  0.00    -0.000 C 
BRANCH   9  10
ATOM     10  C   UNL     1      11.003  24.938  33.907  1.00  0.00    -0.000 C 
BRANCH  10  11
ATOM     11  C   UNL     1      11.541  25.732  32.710  1.00  0.00    -0.003 C 
ATOM     12  C   UNL     1      11.369  24.953  31.409  1.00  0.00     0.004 C 
ENDBRANCH  10  11
ENDBRANCH   9  10
ENDBRANCH   8   9
ENDBRANCH   7   8
ENDBRANCH   6   7
ENDBRANCH   5   6
ENDBRANCH   4   5
ENDBRANCH   3   4
ENDBRANCH   2   3
ENDBRANCH   1   2
BRANCH   1  13
ATOM     13  C   UNL     1       9.569  17.756  33.607  1.00  0.00     0.000 C 
BRANCH  13  14
ATOM     14  C   UNL     1       8.276  18.068  34.393  1.00  0.00     0.000 C 
BRANCH  14  15
ATOM     15  C   UNL     1       8.233  19.491  34.984  1.00  0.00     0.000 C 
BRANCH  15  16
ATOM     16  C   UNL     1       9.048  19.687  36.276  1.00  0.00     0.000 C 
BRANCH  16  17
ATOM     17  C   UNL     1       8.574  18.852  37.479  1.00  0.00     0.000 C 
BRANCH  17  18
ATOM     18  C   UNL     1       9.719  18.105  38.183  1.00  0.00     0.000 C 
BRANCH  18  19
ATOM     19  C   UNL     1      10.495  17.186  37.215  1.00  0.00     0.000 C 
BRANCH  19  20
ATOM     20  C   UNL     1      11.990  17.527  37.110  1.00  0.00     0.006 C 
BRANCH  20  21
ATOM     21  C   UNL     1      12.586  17.169  35.745  1.00  0.00     0.053 C 
BRANCH  21  22
ATOM     22  C   UNL     1      13.836  16.362  35.914  1.00  0.00     0.041 C 
ATOM     23  O   UNL     1      14.914  16.746  35.391  1.00  0.00    -0.550 OA
ATOM     24  O   UNL     1      13.799  15.163  36.617  1.00  0.00    -0.550 OA
ENDBRANCH  21  22
ENDBRANCH  20  21
ENDBRANCH  19  20
ENDBRANCH  18  19
ENDBRANCH  17  18
ENDBRANCH  16  17
ENDBRANCH  15  16
ENDBRANCH  14  15
ENDBRANCH  13  14
ENDBRANCH   1  13
TORSDOF 20
ENDMDL
MODEL 3
REMARK VINA RESULT:    -5.356      1.080      2.193
REMARK INTER + INTRA:         -14.735
REMARK INTER:                 -12.198
REMARK INTRA:                  -2.537
REMARK UNBOUND:                -3.117
REMARK SMILES CCCCCCCCCCCCCCCCCCCCCC(=O)[O-]
REMARK SMILES IDX 12 1 11 2 10 3 9 4 8 5 7 6 6 7 5 8 4 9 3 10 2 11 1 12 13 13
REMARK SMILES IDX 14 14 15 15 16 16 17 17 18 18 19 19 20 20 21 21 22 22 23 23
REMARK SMILES IDX 24 24
REMARK H PARENT
REMARK Flexibility Score: inf
ROOT
ATOM      1  C   UNL     1      10.902  17.385  35.806  1.00  0.00     0.000 C 
ENDROOT
BRANCH   1   2
ATOM      2  C   UNL     1       9.803  16.965  36.796  1.00  0.00     0.000 C 
BRANCH   2   3
ATOM      3  C   UNL     1       8.576  17.891  36.741  1.00  0.00     0.000 C 
BRANCH   3   4
ATOM      4  C   UNL     1       8.548  18.907  37.893  1.00  0.00    -0.000 C 
BRANCH   4   5
ATOM      5  C   UNL     1       8.580  20.366  37.401  1.00  0.00    -0.000 C 
BRANCH   5   6
ATOM      6  C   UNL     1       9.773  20.650  36.476  1.00  0.00    -0.000 C 
BRANCH   6   7
ATOM      7  C   UNL     1       9.388  21.508  35.260  1.00  0.00    -0.000 C 
BRANCH   7   8
ATOM      8  C   UNL     1       9.565  20.767  33.924  1.00  0.00    -0.000 C 
BRANCH   8   9
ATOM      9  C   UNL     1       8.514  19.662  33.683  1.00  0.00    -0.000 C 
BRANCH   9  10
ATOM     10  C   UNL     1       9.098  18.451  32.939  1.00  0.00    -0.000 C 
BRANCH  10  11
ATOM     11  C   UNL     1       9.769  18.883  31.628  1.00  0.00    -0.003 C 
ATOM     12  C   UNL     1       9.726  17.763  30.592  1.00  0.00     0.004 C 
ENDBRANCH  10  11
ENDBRANCH   9  10
ENDBRANCH   8   9
ENDBRANCH   7   8
ENDBRANCH   6   7
ENDBRANCH   5   6
ENDBRANCH   4   5
ENDBRANCH   3   4
ENDBRANCH   2   3
ENDBRANCH   1   2
BRANCH   1  13
ATOM     13  C   UNL     1      12.225  17.746  36.505  1.00  0.00     0.000 C 
BRANCH  13  14
ATOM     14  C   UNL     1      12.048  17.962  38.024  1.00  0.00     0.000 C 
BRANCH  14  15
ATOM     15  C   UNL     1      13.299  17.615  38.854  1.00  0.00     0.000 C 
BRANCH  15  16
ATOM     16  C   UNL     1      14.057  16.354  38.400  1.00  0.00     0.000 C 
BRANCH  16  17
ATOM     17  C   UNL     1      15.579  16.527  38.250  1.00  0.00     0.000 C 
BRANCH  17  18
ATOM     18  C   UNL     1      16.121  15.974  36.921  1.00  0.00     0.000 C 
BRANCH  18  19
ATOM     19  C   UNL     1      15.694  16.838  35.715  1.00  0.00     0.000 C 
BRANCH  19  20
ATOM     20  C   UNL     1      16.651  18.006  35.427  1.00  0.00     0.006 C 
BRANCH  20  21
ATOM     21  C   UNL     1      18.125  17.622  35.593  1.00  0.00     0.053 C 
BRANCH  21  22
ATOM     22  C   UNL     1      18.681  17.109  34.302  1.00  0.00     0.041 C 
ATOM     23  O   UNL     1      19.520  16.169  34.302  1.00  0.00    -0.550 OA
ATOM     24  O   UNL     1      18.303  17.696  33.099  1.00  0.00    -0.550 OA
ENDBRANCH  21  22
ENDBRANCH  20  21
ENDBRANCH  19  20
ENDBRANCH  18  19
ENDBRANCH  17  18
ENDBRANCH  16  17
ENDBRANCH  15  16
ENDBRANCH  14  15
ENDBRANCH  13  14
ENDBRANCH   1  13
TORSDOF 20
ENDMDL
MODEL 4
REMARK VINA RESULT:    -5.330      1.508      3.753
REMARK INTER + INTRA:         -14.678
REMARK INTER:                 -11.483
REMARK INTRA:                  -3.195
REMARK UNBOUND:                -3.117
REMARK SMILES CCCCCCCCCCCCCCCCCCCCCC(=O)[O-]
REMARK SMILES IDX 12 1 11 2 10 3 9 4 8 5 7 6 6 7 5 8 4 9 3 10 2 11 1 12 13 13
REMARK SMILES IDX 14 14 15 15 16 16 17 17 18 18 19 19 20 20 21 21 22 22 23 23
REMARK SMILES IDX 24 24
REMARK H PARENT
REMARK Flexibility Score: inf
ROOT
ATOM      1  C   UNL     1      11.656  17.372  35.463  1.00  0.00     0.000 C 
ENDROOT
BRANCH   1   2
ATOM      2  C   UNL     1      10.347  16.965  36.160  1.00  0.00     0.000 C 
BRANCH   2   3
ATOM      3  C   UNL     1       9.149  16.941  35.197  1.00  0.00     0.000 C 
BRANCH   3   4
ATOM      4  C   UNL     1       9.402  17.750  33.915  1.00  0.00    -0.000 C 
BRANCH   4   5
ATOM      5  C   UNL     1       8.234  18.691  33.565  1.00  0.00    -0.000 C 
BRANCH   5   6
ATOM      6  C   UNL     1       8.701  20.122  33.259  1.00  0.00    -0.000 C 
BRANCH   6   7
ATOM      7  C   UNL     1      10.152  20.378  33.700  1.00  0.00    -0.000 C 
BRANCH   7   8
ATOM      8  C   UNL     1      10.259  21.403  34.841  1.00  0.00    -0.000 C 
BRANCH   8   9
ATOM      9  C   UNL     1      10.311  20.764  36.246  1.00  0.00    -0.000 C 
BRANCH   9  10
ATOM     10  C   UNL     1       9.054  21.073  37.076  1.00  0.00    -0.000 C 
BRANCH  10  11
ATOM     11  C   UNL     1       8.285  19.787  37.407  1.00  0.00    -0.003 C 
ATOM     12  C   UNL     1       8.679  19.248  38.780  1.00  0.00     0.004 C 
ENDBRANCH  10  11
ENDBRANCH   9  10
ENDBRANCH   8   9
ENDBRANCH   7   8
ENDBRANCH   6   7
ENDBRANCH   5   6
ENDBRANCH   4   5
ENDBRANCH   3   4
ENDBRANCH   2   3
ENDBRANCH   1   2
BRANCH   1  13
ATOM     13  C   UNL     1      12.662  18.028  36.424  1.00  0.00     0.000 C 
BRANCH  13  14
ATOM     14  C   UNL     1      12.334  17.741  37.906  1.00  0.00     0.000 C 
BRANCH  14  15
ATOM     15  C   UNL     1      13.550  17.293  38.740  1.00  0.00     0.000 C 
BRANCH  15  16
ATOM     16  C   UNL     1      14.418  16.197  38.095  1.00  0.00     0.000 C 
BRANCH  16  17
ATOM     17  C   UNL     1      15.911  16.546  37.956  1.00  0.00     0.000 C 
BRANCH  17  18
ATOM     18  C   UNL     1      16.157  18.031  37.639  1.00  0.00     0.000 C 
BRANCH  18  19
ATOM     19  C   UNL     1      16.358  18.276  36.128  1.00  0.00     0.000 C 
BRANCH  19  20
ATOM     20  C   UNL     1      17.074  17.122  35.408  1.00  0.00     0.006 C 
BRANCH  20  21
ATOM     21  C   UNL     1      17.862  17.587  34.179  1.00  0.00     0.053 C 
BRANCH  21  22
ATOM     22  C   UNL     1      19.315  17.257  34.333  1.00  0.00     0.041 C 
ATOM     23  O   UNL     1      19.838  16.357  33.625  1.00  0.00    -0.550 OA
ATOM     24  O   UNL     1      20.081  17.918  35.287  1.00  0.00    -0.550 OA
ENDBRANCH  21  22
ENDBRANCH  20  21
ENDBRANCH  19  20
ENDBRANCH  18  19
ENDBRANCH  17  18
ENDBRANCH  16  17
ENDBRANCH  15  16
ENDBRANCH  14  15
ENDBRANCH  13  14
ENDBRANCH   1  13
TORSDOF 20
ENDMDL
MODEL 5
REMARK VINA RESULT:    -5.326      2.361      4.726
REMARK INTER + INTRA:         -14.671
REMARK INTER:                 -11.130
REMARK INTRA:                  -3.540
REMARK UNBOUND:                -3.117
REMARK SMILES CCCCCCCCCCCCCCCCCCCCCC(=O)[O-]
REMARK SMILES IDX 12 1 11 2 10 3 9 4 8 5 7 6 6 7 5 8 4 9 3 10 2 11 1 12 13 13
REMARK SMILES IDX 14 14 15 15 16 16 17 17 18 18 19 19 20 20 21 21 22 22 23 23
REMARK SMILES IDX 24 24
REMARK H PARENT
REMARK Flexibility Score: inf
ROOT
ATOM      1  C   UNL     1      10.790  20.537  34.756  1.00  0.00     0.000 C 
ENDROOT
BRANCH   1   2
ATOM      2  C   UNL     1      10.733  19.508  33.615  1.00  0.00     0.000 C 
BRANCH   2   3
ATOM      3  C   UNL     1       9.576  18.508  33.780  1.00  0.00     0.000 C 
BRANCH   3   4
ATOM      4  C   UNL     1       8.649  18.465  32.556  1.00  0.00    -0.000 C 
BRANCH   4   5
ATOM      5  C   UNL     1       9.238  19.202  31.338  1.00  0.00    -0.000 C 
BRANCH   5   6
ATOM      6  C   UNL     1       8.301  20.294  30.800  1.00  0.00    -0.000 C 
BRANCH   6   7
ATOM      7  C   UNL     1       8.099  21.446  31.799  1.00  0.00    -0.000 C 
BRANCH   7   8
ATOM      8  C   UNL     1       8.821  22.737  31.377  1.00  0.00    -0.000 C 
BRANCH   8   9
ATOM      9  C   UNL     1      10.256  22.856  31.937  1.00  0.00    -0.000 C 
BRANCH   9  10
ATOM     10  C   UNL     1      10.605  24.296  32.347  1.00  0.00    -0.000 C 
BRANCH  10  11
ATOM     11  C   UNL     1      10.777  24.408  33.867  1.00  0.00    -0.003 C 
ATOM     12  C   UNL     1       9.441  24.678  34.554  1.00  0.00     0.004 C 
ENDBRANCH  10  11
ENDBRANCH   9  10
ENDBRANCH   8   9
ENDBRANCH   7   8
ENDBRANCH   6   7
ENDBRANCH   5   6
ENDBRANCH   4   5
ENDBRANCH   3   4
ENDBRANCH   2   3
ENDBRANCH   1   2
BRANCH   1  13
ATOM     13  C   UNL     1       9.395  20.998  35.211  1.00  0.00     0.000 C 
BRANCH  13  14
ATOM     14  C   UNL     1       9.236  20.965  36.747  1.00  0.00     0.000 C 
BRANCH  14  15
ATOM     15  C   UNL     1       8.357  19.808  37.260  1.00  0.00     0.000 C 
BRANCH  15  16
ATOM     16  C   UNL     1       8.946  19.012  38.439  1.00  0.00     0.000 C 
BRANCH  16  17
ATOM     17  C   UNL     1      10.260  18.270  38.132  1.00  0.00     0.000 C 
BRANCH  17  18
ATOM     18  C   UNL     1      10.087  17.133  37.112  1.00  0.00     0.000 C 
BRANCH  18  19
ATOM     19  C   UNL     1      11.417  16.768  36.418  1.00  0.00     0.000 C 
BRANCH  19  20
ATOM     20  C   UNL     1      12.493  17.859  36.540  1.00  0.00     0.006 C 
BRANCH  20  21
ATOM     21  C   UNL     1      13.916  17.291  36.565  1.00  0.00     0.053 C 
BRANCH  21  22
ATOM     22  C   UNL     1      13.985  16.092  37.459  1.00  0.00     0.041 C 
ATOM     23  O   UNL     1      14.145  14.944  36.968  1.00  0.00    -0.550 OA
ATOM     24  O   UNL     1      13.834  16.240  38.833  1.00  0.00    -0.550 OA
ENDBRANCH  21  22
ENDBRANCH  20  21
ENDBRANCH  19  20
ENDBRANCH  18  19
ENDBRANCH  17  18
ENDBRANCH  16  17
ENDBRANCH  15  16
ENDBRANCH  14  15
ENDBRANCH  13  14
ENDBRANCH   1  13
TORSDOF 20
ENDMDL
MODEL 6
REMARK VINA RESULT:    -5.318      2.516      4.668
REMARK INTER + INTRA:         -14.651
REMARK INTER:                 -11.074
REMARK INTRA:                  -3.578
REMARK UNBOUND:                -3.117
REMARK SMILES CCCCCCCCCCCCCCCCCCCCCC(=O)[O-]
REMARK SMILES IDX 12 1 11 2 10 3 9 4 8 5 7 6 6 7 5 8 4 9 3 10 2 11 1 12 13 13
REMARK SMILES IDX 14 14 15 15 16 16 17 17 18 18 19 19 20 20 21 21 22 22 23 23
REMARK SMILES IDX 24 24
REMARK H PARENT
REMARK Flexibility Score: inf
ROOT
ATOM      1  C   UNL     1       8.886  19.799  31.991  1.00  0.00     0.000 C 
ENDROOT
BRANCH   1   2
ATOM      2  C   UNL     1       9.432  21.160  32.454  1.00  0.00     0.000 C 
BRANCH   2   3
ATOM      3  C   UNL     1      10.854  21.059  33.030  1.00  0.00     0.000 C 
BRANCH   3   4
ATOM      4  C   UNL     1      10.904  21.340  34.540  1.00  0.00    -0.000 C 
BRANCH   4   5
ATOM      5  C   UNL     1       9.509  21.575  35.148  1.00  0.00    -0.000 C 
BRANCH   5   6
ATOM      6  C   UNL     1       9.332  23.004  35.683  1.00  0.00    -0.000 C 
BRANCH   6   7
ATOM      7  C   UNL     1       8.687  23.946  34.653  1.00  0.00    -0.000 C 
BRANCH   7   8
ATOM      8  C   UNL     1       9.638  25.059  34.181  1.00  0.00    -0.000 C 
BRANCH   8   9
ATOM      9  C   UNL     1      10.202  24.832  32.761  1.00  0.00    -0.000 C 
BRANCH   9  10
ATOM     10  C   UNL     1      11.704  25.145  32.671  1.00  0.00    -0.000 C 
BRANCH  10  11
ATOM     11  C   UNL     1      12.437  24.689  33.939  1.00  0.00    -0.003 C 
ATOM     12  C   UNL     1      13.586  23.741  33.600  1.00  0.00     0.004 C 
ENDBRANCH  10  11
ENDBRANCH   9  10
ENDBRANCH   8   9
ENDBRANCH   7   8
ENDBRANCH   6   7
ENDBRANCH   5   6
ENDBRANCH   4   5
ENDBRANCH   3   4
ENDBRANCH   2   3
ENDBRANCH   1   2
BRANCH   1  13
ATOM     13  C   UNL     1       9.862  18.643  32.267  1.00  0.00     0.000 C 
BRANCH  13  14
ATOM     14  C   UNL     1       9.394  17.743  33.432  1.00  0.00     0.000 C 
BRANCH  14  15
ATOM     15  C   UNL     1       8.144  18.269  34.164  1.00  0.00     0.000 C 
BRANCH  15  16
ATOM     16  C   UNL     1       7.911  17.680  35.568  1.00  0.00     0.000 C 
BRANCH  16  17
ATOM     17  C   UNL     1       8.419  18.550  36.732  1.00  0.00     0.000 C 
BRANCH  17  18
ATOM     18  C   UNL     1       9.625  17.936  37.463  1.00  0.00     0.000 C 
BRANCH  18  19
ATOM     19  C   UNL     1      10.956  18.242  36.744  1.00  0.00     0.000 C 
BRANCH  19  20
ATOM     20  C   UNL     1      11.675  16.988  36.222  1.00  0.00     0.006 C 
BRANCH  20  21
ATOM     21  C   UNL     1      12.946  17.316  35.432  1.00  0.00     0.053 C 
BRANCH  21  22
ATOM     22  C   UNL     1      14.071  16.422  35.851  1.00  0.00     0.041 C 
ATOM     23  O   UNL     1      15.261  16.731  35.580  1.00  0.00    -0.550 OA
ATOM     24  O   UNL     1      13.800  15.226  36.508  1.00  0.00    -0.550 OA
ENDBRANCH  21  22
ENDBRANCH  20  21
ENDBRANCH  19  20
ENDBRANCH  18  19
ENDBRANCH  17  18
ENDBRANCH  16  17
ENDBRANCH  15  16
ENDBRANCH  14  15
ENDBRANCH  13  14
ENDBRANCH   1  13
TORSDOF 20
ENDMDL
MODEL 7
REMARK VINA RESULT:    -5.282      1.917      4.504
REMARK INTER + INTRA:         -14.575
REMARK INTER:                 -11.667
REMARK INTRA:                  -2.908
REMARK UNBOUND:                -3.117
REMARK SMILES CCCCCCCCCCCCCCCCCCCCCC(=O)[O-]
REMARK SMILES IDX 12 1 11 2 10 3 9 4 8 5 7 6 6 7 5 8 4 9 3 10 2 11 1 12 13 13
REMARK SMILES IDX 14 14 15 15 16 16 17 17 18 18 19 19 20 20 21 21 22 22 23 23
REMARK SMILES IDX 24 24
REMARK H PARENT
REMARK Flexibility Score: inf
ROOT
ATOM      1  C   UNL     1       9.913  18.914  32.228  1.00  0.00     0.000 C 
ENDROOT
BRANCH   1   2
ATOM      2  C   UNL     1       9.361  18.484  30.858  1.00  0.00     0.000 C 
BRANCH   2   3
ATOM      3  C   UNL     1       8.618  19.622  30.139  1.00  0.00     0.000 C 
BRANCH   3   4
ATOM      4  C   UNL     1       8.006  20.639  31.113  1.00  0.00    -0.000 C 
BRANCH   4   5
ATOM      5  C   UNL     1       8.227  22.097  30.669  1.00  0.00    -0.000 C 
BRANCH   5   6
ATOM      6  C   UNL     1       9.102  22.887  31.655  1.00  0.00    -0.000 C 
BRANCH   6   7
ATOM      7  C   UNL     1       8.714  22.637  33.122  1.00  0.00    -0.000 C 
BRANCH   7   8
ATOM      8  C   UNL     1       9.195  23.752  34.067  1.00  0.00    -0.000 C 
BRANCH   8   9
ATOM      9  C   UNL     1       9.597  23.245  35.469  1.00  0.00    -0.000 C 
BRANCH   9  10
ATOM     10  C   UNL     1       9.100  21.816  35.740  1.00  0.00    -0.000 C 
BRANCH  10  11
ATOM     11  C   UNL     1      10.268  20.887  36.097  1.00  0.00    -0.003 C 
ATOM     12  C   UNL     1      11.320  20.874  34.991  1.00  0.00     0.004 C 
ENDBRANCH  10  11
ENDBRANCH   9  10
ENDBRANCH   8   9
ENDBRANCH   7   8
ENDBRANCH   6   7
ENDBRANCH   5   6
ENDBRANCH   4   5
ENDBRANCH   3   4
ENDBRANCH   2   3
ENDBRANCH   1   2
BRANCH   1  13
ATOM     13  C   UNL     1       9.521  17.944  33.356  1.00  0.00     0.000 C 
BRANCH  13  14
ATOM     14  C   UNL     1       8.247  18.394  34.104  1.00  0.00     0.000 C 
BRANCH  14  15
ATOM     15  C   UNL     1       8.154  17.871  35.551  1.00  0.00     0.000 C 
BRANCH  15  16
ATOM     16  C   UNL     1       9.188  16.792  35.924  1.00  0.00     0.000 C 
BRANCH  16  17
ATOM     17  C   UNL     1      10.242  17.230  36.958  1.00  0.00     0.000 C 
BRANCH  17  18
ATOM     18  C   UNL     1      11.674  16.832  36.565  1.00  0.00     0.000 C 
BRANCH  18  19
ATOM     19  C   UNL     1      12.683  17.972  36.819  1.00  0.00     0.000 C 
BRANCH  19  20
ATOM     20  C   UNL     1      14.013  17.493  37.422  1.00  0.00     0.006 C 
BRANCH  20  21
ATOM     21  C   UNL     1      13.858  16.228  38.273  1.00  0.00     0.053 C 
BRANCH  21  22
ATOM     22  C   UNL     1      14.960  15.259  37.977  1.00  0.00     0.041 C 
ATOM     23  O   UNL     1      14.888  14.072  38.392  1.00  0.00    -0.550 OA
ATOM     24  O   UNL     1      16.086  15.678  37.277  1.00  0.00    -0.550 OA
ENDBRANCH  21  22
ENDBRANCH  20  21
ENDBRANCH  19  20
ENDBRANCH  18  19
ENDBRANCH  17  18
ENDBRANCH  16  17
ENDBRANCH  15  16
ENDBRANCH  14  15
ENDBRANCH  13  14
ENDBRANCH   1  13
TORSDOF 20
ENDMDL
MODEL 8
REMARK VINA RESULT:    -5.272      1.448      2.385
REMARK INTER + INTRA:         -14.552
REMARK INTER:                 -11.776
REMARK INTRA:                  -2.777
REMARK UNBOUND:                -3.117
REMARK SMILES CCCCCCCCCCCCCCCCCCCCCC(=O)[O-]
REMARK SMILES IDX 12 1 11 2 10 3 9 4 8 5 7 6 6 7 5 8 4 9 3 10 2 11 1 12 13 13
REMARK SMILES IDX 14 14 15 15 16 16 17 17 18 18 19 19 20 20 21 21 22 22 23 23
REMARK SMILES IDX 24 24
REMARK H PARENT
REMARK Flexibility Score: inf
ROOT
ATOM      1  C   UNL     1       8.889  18.812  37.728  1.00  0.00     0.000 C 
ENDROOT
BRANCH   1   2
ATOM      2  C   UNL     1       8.857  20.350  37.725  1.00  0.00     0.000 C 
BRANCH   2   3
ATOM      3  C   UNL     1       9.828  20.958  36.700  1.00  0.00     0.000 C 
BRANCH   3   4
ATOM      4  C   UNL     1       9.121  21.434  35.422  1.00  0.00    -0.000 C 
BRANCH   4   5
ATOM      5  C   UNL     1      10.106  21.906  34.337  1.00  0.00    -0.000 C 
BRANCH   5   6
ATOM      6  C   UNL     1       9.540  23.052  33.485  1.00  0.00    -0.000 C 
BRANCH   6   7
ATOM      7  C   UNL     1       9.391  22.671  32.003  1.00  0.00    -0.000 C 
BRANCH   7   8
ATOM      8  C   UNL     1       8.118  21.856  31.719  1.00  0.00    -0.000 C 
BRANCH   8   9
ATOM      9  C   UNL     1       8.392  20.486  31.061  1.00  0.00    -0.000 C 
BRANCH   9  10
ATOM     10  C   UNL     1       8.633  19.377  32.098  1.00  0.00    -0.000 C 
BRANCH  10  11
ATOM     11  C   UNL     1       9.915  18.597  31.780  1.00  0.00    -0.003 C 
ATOM     12  C   UNL     1       9.794  17.858  30.450  1.00  0.00     0.004 C 
ENDBRANCH  10  11
ENDBRANCH   9  10
ENDBRANCH   8   9
ENDBRANCH   7   8
ENDBRANCH   6   7
ENDBRANCH   5   6
ENDBRANCH   4   5
ENDBRANCH   3   4
ENDBRANCH   2   3
ENDBRANCH   1   2
BRANCH   1  13
ATOM     13  C   UNL     1       7.876  18.196  36.748  1.00  0.00     0.000 C 
BRANCH  13  14
ATOM     14  C   UNL     1       8.532  17.765  35.417  1.00  0.00     0.000 C 
BRANCH  14  15
ATOM     15  C   UNL     1       9.786  16.887  35.595  1.00  0.00     0.000 C 
BRANCH  15  16
ATOM     16  C   UNL     1      11.097  17.507  35.074  1.00  0.00     0.000 C 
BRANCH  16  17
ATOM     17  C   UNL     1      12.016  18.095  36.161  1.00  0.00     0.000 C 
BRANCH  17  18
ATOM     18  C   UNL     1      12.274  17.122  37.324  1.00  0.00     0.000 C 
BRANCH  18  19
ATOM     19  C   UNL     1      13.115  17.768  38.445  1.00  0.00     0.000 C 
BRANCH  19  20
ATOM     20  C   UNL     1      14.474  17.084  38.665  1.00  0.00     0.006 C 
BRANCH  20  21
ATOM     21  C   UNL     1      15.645  17.893  38.097  1.00  0.00     0.053 C 
BRANCH  21  22
ATOM     22  C   UNL     1      16.257  17.182  36.931  1.00  0.00     0.041 C 
ATOM     23  O   UNL     1      17.410  17.494  36.532  1.00  0.00    -0.550 OA
ATOM     24  O   UNL     1      15.536  16.201  36.259  1.00  0.00    -0.550 OA
ENDBRANCH  21  22
ENDBRANCH  20  21
ENDBRANCH  19  20
ENDBRANCH  18  19
ENDBRANCH  17  18
ENDBRANCH  16  17
ENDBRANCH  15  16
ENDBRANCH  14  15
ENDBRANCH  13  14
ENDBRANCH   1  13
TORSDOF 20
ENDMDL
MODEL 9
REMARK VINA RESULT:    -5.220      4.086      5.955
REMARK INTER + INTRA:         -14.440
REMARK INTER:                 -11.279
REMARK INTRA:                  -3.162
REMARK UNBOUND:                -3.117
REMARK SMILES CCCCCCCCCCCCCCCCCCCCCC(=O)[O-]
REMARK SMILES IDX 12 1 11 2 10 3 9 4 8 5 7 6 6 7 5 8 4 9 3 10 2 11 1 12 13 13
REMARK SMILES IDX 14 14 15 15 16 16 17 17 18 18 19 19 20 20 21 21 22 22 23 23
REMARK SMILES IDX 24 24
REMARK H PARENT
REMARK Flexibility Score: inf
ROOT
ATOM      1  C   UNL     1      10.848  20.226  33.114  1.00  0.00     0.000 C 
ENDROOT
BRANCH   1   2
ATOM      2  C   UNL     1      10.811  20.744  34.561  1.00  0.00     0.000 C 
BRANCH   2   3
ATOM      3  C   UNL     1       9.439  21.320  34.946  1.00  0.00     0.000 C 
BRANCH   3   4
ATOM      4  C   UNL     1       9.523  22.333  36.099  1.00  0.00    -0.000 C 
BRANCH   4   5
ATOM      5  C   UNL     1       9.704  23.781  35.607  1.00  0.00    -0.000 C 
BRANCH   5   6
ATOM      6  C   UNL     1       9.192  23.985  34.173  1.00  0.00    -0.000 C 
BRANCH   6   7
ATOM      7  C   UNL     1       9.649  25.322  33.566  1.00  0.00    -0.000 C 
BRANCH   7   8
ATOM      8  C   UNL     1      11.126  25.312  33.137  1.00  0.00    -0.000 C 
BRANCH   8   9
ATOM      9  C   UNL     1      11.576  23.982  32.493  1.00  0.00    -0.000 C 
BRANCH   9  10
ATOM     10  C   UNL     1      12.812  23.385  33.185  1.00  0.00    -0.000 C 
BRANCH  10  11
ATOM     11  C   UNL     1      14.024  24.314  33.041  1.00  0.00    -0.003 C 
ATOM     12  C   UNL     1      14.378  24.533  31.572  1.00  0.00     0.004 C 
ENDBRANCH  10  11
ENDBRANCH   9  10
ENDBRANCH   8   9
ENDBRANCH   7   8
ENDBRANCH   6   7
ENDBRANCH   5   6
ENDBRANCH   4   5
ENDBRANCH   3   4
ENDBRANCH   2   3
ENDBRANCH   1   2
BRANCH   1  13
ATOM     13  C   UNL     1       9.455  20.181  32.463  1.00  0.00     0.000 C 
BRANCH  13  14
ATOM     14  C   UNL     1       8.914  18.741  32.329  1.00  0.00     0.000 C 
BRANCH  14  15
ATOM     15  C   UNL     1       8.333  18.166  33.636  1.00  0.00     0.000 C 
BRANCH  15  16
ATOM     16  C   UNL     1       9.313  17.323  34.472  1.00  0.00     0.000 C 
BRANCH  16  17
ATOM     17  C   UNL     1       9.082  17.375  35.994  1.00  0.00     0.000 C 
BRANCH  17  18
ATOM     18  C   UNL     1       7.875  18.242  36.392  1.00  0.00     0.000 C 
BRANCH  18  19
ATOM     19  C   UNL     1       8.179  19.134  37.614  1.00  0.00     0.000 C 
BRANCH  19  20
ATOM     20  C   UNL     1       9.385  18.656  38.439  1.00  0.00     0.006 C 
BRANCH  20  21
ATOM     21  C   UNL     1      10.504  19.700  38.515  1.00  0.00     0.053 C 
BRANCH  21  22
ATOM     22  C   UNL     1      10.623  20.242  39.905  1.00  0.00     0.041 C 
ATOM     23  O   UNL     1      11.307  19.630  40.767  1.00  0.00    -0.550 OA
ATOM     24  O   UNL     1       9.945  21.403  40.259  1.00  0.00    -0.550 OA
ENDBRANCH  21  22
ENDBRANCH  20  21
ENDBRANCH  19  20
ENDBRANCH  18  19
ENDBRANCH  17  18
ENDBRANCH  16  17
ENDBRANCH  15  16
ENDBRANCH  14  15
ENDBRANCH  13  14
ENDBRANCH   1  13
TORSDOF 20
ENDMDL
