MODEL 1
REMARK VINA RESULT:    -4.951      0.000      0.000
REMARK INTER + INTRA:          -9.715
REMARK INTER:                  -8.424
REMARK INTRA:                  -1.291
REMARK UNBOUND:                -1.291
REMARK SMILES CCCCCCCCCCCCCC(=O)[O-]
REMARK SMILES IDX 8 1 9 2 10 3 11 4 12 5 13 6 14 7 15 8 16 9 7 10 6 11 5 12
REMARK SMILES IDX 4 13 3 14 2 15 1 16
REMARK H PARENT
REMARK Flexibility Score: inf
ROOT
ATOM      1  C   UNL     1     -20.385 -26.152  39.696  1.00  0.00     0.000 C 
ENDROOT
BRANCH   1   2
ATOM      2  C   UNL     1     -21.003 -26.618  38.365  1.00  0.00     0.000 C 
BRANCH   2   3
ATOM      3  C   UNL     1     -21.921 -27.842  38.530  1.00  0.00     0.000 C 
BRANCH   3   4
ATOM      4  C   UNL     1     -22.533 -28.007  39.932  1.00  0.00     0.000 C 
BRANCH   4   5
ATOM      5  C   UNL     1     -23.054 -29.430  40.196  1.00  0.00     0.006 C 
BRANCH   5   6
ATOM      6  C   UNL     1     -24.407 -29.427  40.920  1.00  0.00     0.053 C 
BRANCH   6   7
ATOM      7  C   UNL     1     -25.548 -29.287  39.960  1.00  0.00     0.041 C 
ATOM      8  O   UNL     1     -25.912 -30.269  39.261  1.00  0.00    -0.550 OA
ATOM      9  O   UNL     1     -26.186 -28.063  39.812  1.00  0.00    -0.550 OA
ENDBRANCH   6   7
ENDBRANCH   5   6
ENDBRANCH   4   5
ENDBRANCH   3   4
ENDBRANCH   2   3
ENDBRANCH   1   2
BRANCH   1  10
ATOM     10  C   UNL     1     -20.302 -24.621  39.807  1.00  0.00     0.000 C 
BRANCH  10  11
ATOM     11  C   UNL     1     -21.621 -23.930  39.422  1.00  0.00    -0.000 C 
BRANCH  11  12
ATOM     12  C   UNL     1     -22.295 -23.235  40.617  1.00  0.00    -0.000 C 
BRANCH  12  13
ATOM     13  C   UNL     1     -23.678 -23.820  40.941  1.00  0.00    -0.000 C 
BRANCH  13  14
ATOM     14  C   UNL     1     -23.556 -25.240  41.505  1.00  0.00    -0.000 C 
BRANCH  14  15
ATOM     15  C   UNL     1     -24.919 -25.766  41.972  1.00  0.00    -0.003 C 
ATOM     16  C   UNL     1     -26.053 -24.875  41.473  1.00  0.00     0.004 C 
ENDBRANCH  14  15
ENDBRANCH  13  14
ENDBRANCH  12  13
ENDBRANCH  11  12
ENDBRANCH  10  11
ENDBRANCH   1  10
TORSDOF 12
ENDMDL
MODEL 2
REMARK VINA RESULT:    -4.949      1.151      2.080
REMARK INTER + INTRA:          -9.711
REMARK INTER:                  -8.368
REMARK INTRA:                  -1.343
REMARK UNBOUND:                -1.291
REMARK SMILES CCCCCCCCCCCCCC(=O)[O-]
REMARK SMILES IDX 8 1 9 2 10 3 11 4 12 5 13 6 14 7 15 8 16 9 7 10 6 11 5 12
REMARK SMILES IDX 4 13 3 14 2 15 1 16
REMARK H PARENT
REMARK Flexibility Score: inf
ROOT
ATOM      1  C   UNL     1     -20.998 -23.958  39.779  1.00  0.00     0.000 C 
ENDROOT
BRANCH   1   2
ATOM      2  C   UNL     1     -20.137 -25.219  39.980  1.00  0.00     0.000 C 
BRANCH   2   3
ATOM      3  C   UNL     1     -20.963 -26.517  39.952  1.00  0.00     0.000 C 
BRANCH   3   4
ATOM      4  C   UNL     1     -21.324 -27.023  38.544  1.00  0.00     0.000 C 
BRANCH   4   5
ATOM      5  C   UNL     1     -22.149 -28.322  38.568  1.00  0.00     0.006 C 
BRANCH   5   6
ATOM      6  C   UNL     1     -22.748 -28.602  39.952  1.00  0.00     0.053 C 
BRANCH   6   7
ATOM      7  C   UNL     1     -24.153 -29.111  39.852  1.00  0.00     0.041 C 
ATOM      8  O   UNL     1     -24.667 -29.746  40.811  1.00  0.00    -0.550 OA
ATOM      9  O   UNL     1     -24.883 -28.913  38.688  1.00  0.00    -0.550 OA
ENDBRANCH   6   7
ENDBRANCH   5   6
ENDBRANCH   4   5
ENDBRANCH   3   4
ENDBRANCH   2   3
ENDBRANCH   1   2
BRANCH   1  10
ATOM     10  C   UNL     1     -21.905 -23.661  40.984  1.00  0.00     0.000 C 
BRANCH  10  11
ATOM     11  C   UNL     1     -23.329 -23.260  40.564  1.00  0.00    -0.000 C 
BRANCH  11  12
ATOM     12  C   UNL     1     -24.411 -24.073  41.293  1.00  0.00    -0.000 C 
BRANCH  12  13
ATOM     13  C   UNL     1     -23.946 -25.493  41.652  1.00  0.00    -0.000 C 
BRANCH  13  14
ATOM     14  C   UNL     1     -25.108 -26.329  42.201  1.00  0.00    -0.000 C 
BRANCH  14  15
ATOM     15  C   UNL     1     -26.277 -26.362  41.209  1.00  0.00    -0.003 C 
ATOM     16  C   UNL     1     -27.613 -26.489  41.937  1.00  0.00     0.004 C 
ENDBRANCH  14  15
ENDBRANCH  13  14
ENDBRANCH  12  13
ENDBRANCH  11  12
ENDBRANCH  10  11
ENDBRANCH   1  10
TORSDOF 12
ENDMDL
MODEL 3
REMARK VINA RESULT:    -4.845      2.621      4.932
REMARK INTER + INTRA:          -9.535
REMARK INTER:                  -8.373
REMARK INTRA:                  -1.162
REMARK UNBOUND:                -1.291
REMARK SMILES CCCCCCCCCCCCCC(=O)[O-]
REMARK SMILES IDX 8 1 9 2 10 3 11 4 12 5 13 6 14 7 15 8 16 9 7 10 6 11 5 12
REMARK SMILES IDX 4 13 3 14 2 15 1 16
REMARK H PARENT
REMARK Flexibility Score: inf
ROOT
ATOM      1  C   UNL     1     -22.141 -28.148  38.169  1.00  0.00     0.000 C 
ENDROOT
BRANCH   1   2
ATOM      2  C   UNL     1     -21.124 -27.009  38.366  1.00  0.00     0.000 C 
BRANCH   2   3
ATOM      3  C   UNL     1     -21.114 -26.461  39.805  1.00  0.00     0.000 C 
BRANCH   3   4
ATOM      4  C   UNL     1     -20.282 -25.181  40.004  1.00  0.00     0.000 C 
BRANCH   4   5
ATOM      5  C   UNL     1     -21.136 -23.902  39.987  1.00  0.00     0.006 C 
BRANCH   5   6
ATOM      6  C   UNL     1     -22.050 -23.801  41.215  1.00  0.00     0.053 C 
BRANCH   6   7
ATOM      7  C   UNL     1     -22.951 -22.606  41.136  1.00  0.00     0.041 C 
ATOM      8  O   UNL     1     -24.002 -22.650  40.443  1.00  0.00    -0.550 OA
ATOM      9  O   UNL     1     -22.612 -21.435  41.799  1.00  0.00    -0.550 OA
ENDBRANCH   6   7
ENDBRANCH   5   6
ENDBRANCH   4   5
ENDBRANCH   3   4
ENDBRANCH   2   3
ENDBRANCH   1   2
BRANCH   1  10
ATOM     10  C   UNL     1     -22.669 -28.709  39.499  1.00  0.00     0.000 C 
BRANCH  10  11
ATOM     11  C   UNL     1     -24.111 -29.231  39.387  1.00  0.00    -0.000 C 
BRANCH  11  12
ATOM     12  C   UNL     1     -25.055 -28.587  40.415  1.00  0.00    -0.000 C 
BRANCH  12  13
ATOM     13  C   UNL     1     -24.301 -27.885  41.555  1.00  0.00    -0.000 C 
BRANCH  13  14
ATOM     14  C   UNL     1     -24.607 -26.383  41.571  1.00  0.00    -0.000 C 
BRANCH  14  15
ATOM     15  C   UNL     1     -25.984 -26.108  42.187  1.00  0.00    -0.003 C 
ATOM     16  C   UNL     1     -26.491 -24.719  41.806  1.00  0.00     0.004 C 
ENDBRANCH  14  15
ENDBRANCH  13  14
ENDBRANCH  12  13
ENDBRANCH  11  12
ENDBRANCH  10  11
ENDBRANCH   1  10
TORSDOF 12
ENDMDL
MODEL 4
REMARK VINA RESULT:    -4.693      1.996      4.270
REMARK INTER + INTRA:          -9.276
REMARK INTER:                  -8.012
REMARK INTRA:                  -1.264
REMARK UNBOUND:                -1.291
REMARK SMILES CCCCCCCCCCCCCC(=O)[O-]
REMARK SMILES IDX 8 1 9 2 10 3 11 4 12 5 13 6 14 7 15 8 16 9 7 10 6 11 5 12
REMARK SMILES IDX 4 13 3 14 2 15 1 16
REMARK H PARENT
REMARK Flexibility Score: inf
ROOT
ATOM      1  C   UNL     1     -21.499 -24.417  40.814  1.00  0.00     0.000 C 
ENDROOT
BRANCH   1   2
ATOM      2  C   UNL     1     -22.886 -23.885  40.410  1.00  0.00     0.000 C 
BRANCH   2   3
ATOM      3  C   UNL     1     -23.997 -24.319  41.383  1.00  0.00     0.000 C 
BRANCH   3   4
ATOM      4  C   UNL     1     -24.052 -25.831  41.669  1.00  0.00     0.000 C 
BRANCH   4   5
ATOM      5  C   UNL     1     -25.321 -26.251  42.430  1.00  0.00     0.006 C 
BRANCH   5   6
ATOM      6  C   UNL     1     -26.569 -26.216  41.539  1.00  0.00     0.053 C 
BRANCH   6   7
ATOM      7  C   UNL     1     -27.722 -25.553  42.229  1.00  0.00     0.041 C 
ATOM      8  O   UNL     1     -28.713 -26.234  42.604  1.00  0.00    -0.550 OA
ATOM      9  O   UNL     1     -27.717 -24.179  42.428  1.00  0.00    -0.550 OA
ENDBRANCH   6   7
ENDBRANCH   5   6
ENDBRANCH   4   5
ENDBRANCH   3   4
ENDBRANCH   2   3
ENDBRANCH   1   2
BRANCH   1  10
ATOM     10  C   UNL     1     -20.703 -24.963  39.618  1.00  0.00     0.000 C 
BRANCH  10  11
ATOM     11  C   UNL     1     -20.739 -26.499  39.537  1.00  0.00    -0.000 C 
BRANCH  11  12
ATOM     12  C   UNL     1     -21.099 -27.009  38.133  1.00  0.00    -0.000 C 
BRANCH  12  13
ATOM     13  C   UNL     1     -22.148 -28.132  38.160  1.00  0.00    -0.000 C 
BRANCH  13  14
ATOM     14  C   UNL     1     -22.611 -28.416  39.593  1.00  0.00    -0.000 C 
BRANCH  14  15
ATOM     15  C   UNL     1     -23.732 -29.462  39.613  1.00  0.00    -0.003 C 
ATOM     16  C   UNL     1     -24.484 -29.438  40.940  1.00  0.00     0.004 C 
ENDBRANCH  14  15
ENDBRANCH  13  14
ENDBRANCH  12  13
ENDBRANCH  11  12
ENDBRANCH  10  11
ENDBRANCH   1  10
TORSDOF 12
ENDMDL
MODEL 5
REMARK VINA RESULT:    -4.692      2.899      5.112
REMARK INTER + INTRA:          -9.274
REMARK INTER:                  -8.067
REMARK INTRA:                  -1.207
REMARK UNBOUND:                -1.291
REMARK SMILES CCCCCCCCCCCCCC(=O)[O-]
REMARK SMILES IDX 8 1 9 2 10 3 11 4 12 5 13 6 14 7 15 8 16 9 7 10 6 11 5 12
REMARK SMILES IDX 4 13 3 14 2 15 1 16
REMARK H PARENT
REMARK Flexibility Score: inf
ROOT
ATOM      1  C   UNL     1     -21.701 -27.321  38.798  1.00  0.00     0.000 C 
ENDROOT
BRANCH   1   2
ATOM      2  C   UNL     1     -21.124 -26.718  40.093  1.00  0.00     0.000 C 
BRANCH   2   3
ATOM      3  C   UNL     1     -21.301 -25.191  40.170  1.00  0.00     0.000 C 
BRANCH   3   4
ATOM      4  C   UNL     1     -22.492 -24.720  41.023  1.00  0.00     0.000 C 
BRANCH   4   5
ATOM      5  C   UNL     1     -22.560 -23.190  41.164  1.00  0.00     0.006 C 
BRANCH   5   6
ATOM      6  C   UNL     1     -23.924 -22.629  40.741  1.00  0.00     0.053 C 
BRANCH   6   7
ATOM      7  C   UNL     1     -23.841 -21.898  39.437  1.00  0.00     0.041 C 
ATOM      8  O   UNL     1     -23.075 -22.310  38.526  1.00  0.00    -0.550 OA
ATOM      9  O   UNL     1     -24.583 -20.741  39.240  1.00  0.00    -0.550 OA
ENDBRANCH   6   7
ENDBRANCH   5   6
ENDBRANCH   4   5
ENDBRANCH   3   4
ENDBRANCH   2   3
ENDBRANCH   1   2
BRANCH   1  10
ATOM     10  C   UNL     1     -22.616 -28.527  39.063  1.00  0.00     0.000 C 
BRANCH  10  11
ATOM     11  C   UNL     1     -22.673 -28.908  40.552  1.00  0.00    -0.000 C 
BRANCH  11  12
ATOM     12  C   UNL     1     -24.103 -28.876  41.116  1.00  0.00    -0.000 C 
BRANCH  12  13
ATOM     13  C   UNL     1     -24.711 -27.465  41.113  1.00  0.00    -0.000 C 
BRANCH  13  14
ATOM     14  C   UNL     1     -26.186 -27.504  40.697  1.00  0.00    -0.000 C 
BRANCH  14  15
ATOM     15  C   UNL     1     -27.028 -26.560  41.565  1.00  0.00    -0.003 C 
ATOM     16  C   UNL     1     -26.344 -25.206  41.728  1.00  0.00     0.004 C 
ENDBRANCH  14  15
ENDBRANCH  13  14
ENDBRANCH  12  13
ENDBRANCH  11  12
ENDBRANCH  10  11
ENDBRANCH   1  10
TORSDOF 12
ENDMDL
MODEL 6
REMARK VINA RESULT:    -4.679      1.811      3.421
REMARK INTER + INTRA:          -9.252
REMARK INTER:                  -8.064
REMARK INTRA:                  -1.189
REMARK UNBOUND:                -1.291
REMARK SMILES CCCCCCCCCCCCCC(=O)[O-]
REMARK SMILES IDX 8 1 9 2 10 3 11 4 12 5 13 6 14 7 15 8 16 9 7 10 6 11 5 12
REMARK SMILES IDX 4 13 3 14 2 15 1 16
REMARK H PARENT
REMARK Flexibility Score: inf
ROOT
ATOM      1  C   UNL     1     -22.169 -28.137  38.290  1.00  0.00     0.000 C 
ENDROOT
BRANCH   1   2
ATOM      2  C   UNL     1     -22.660 -28.704  39.635  1.00  0.00     0.000 C 
BRANCH   2   3
ATOM      3  C   UNL     1     -24.117 -29.197  39.578  1.00  0.00     0.000 C 
BRANCH   3   4
ATOM      4  C   UNL     1     -25.130 -28.305  40.317  1.00  0.00     0.000 C 
BRANCH   4   5
ATOM      5  C   UNL     1     -24.556 -27.683  41.602  1.00  0.00     0.006 C 
BRANCH   5   6
ATOM      6  C   UNL     1     -24.538 -26.150  41.545  1.00  0.00     0.053 C 
BRANCH   6   7
ATOM      7  C   UNL     1     -25.865 -25.567  41.925  1.00  0.00     0.041 C 
ATOM      8  O   UNL     1     -26.683 -26.243  42.603  1.00  0.00    -0.550 OA
ATOM      9  O   UNL     1     -26.211 -24.292  41.500  1.00  0.00    -0.550 OA
ENDBRANCH   6   7
ENDBRANCH   5   6
ENDBRANCH   4   5
ENDBRANCH   3   4
ENDBRANCH   2   3
ENDBRANCH   1   2
BRANCH   1  10
ATOM     10  C   UNL     1     -21.145 -27.004  38.463  1.00  0.00     0.000 C 
BRANCH  10  11
ATOM     11  C   UNL     1     -21.049 -26.514  39.918  1.00  0.00    -0.000 C 
BRANCH  11  12
ATOM     12  C   UNL     1     -20.647 -25.034  40.017  1.00  0.00    -0.000 C 
BRANCH  12  13
ATOM     13  C   UNL     1     -21.639 -24.204  40.847  1.00  0.00    -0.000 C 
BRANCH  13  14
ATOM     14  C   UNL     1     -22.426 -23.237  39.954  1.00  0.00    -0.000 C 
BRANCH  14  15
ATOM     15  C   UNL     1     -23.395 -22.387  40.785  1.00  0.00    -0.003 C 
ATOM     16  C   UNL     1     -22.655 -21.282  41.534  1.00  0.00     0.004 C 
ENDBRANCH  14  15
ENDBRANCH  13  14
ENDBRANCH  12  13
ENDBRANCH  11  12
ENDBRANCH  10  11
ENDBRANCH   1  10
TORSDOF 12
ENDMDL
MODEL 7
REMARK VINA RESULT:    -4.659      1.191      3.555
REMARK INTER + INTRA:          -9.218
REMARK INTER:                  -8.117
REMARK INTRA:                  -1.101
REMARK UNBOUND:                -1.291
REMARK SMILES CCCCCCCCCCCCCC(=O)[O-]
REMARK SMILES IDX 8 1 9 2 10 3 11 4 12 5 13 6 14 7 15 8 16 9 7 10 6 11 5 12
REMARK SMILES IDX 4 13 3 14 2 15 1 16
REMARK H PARENT
REMARK Flexibility Score: inf
ROOT
ATOM      1  C   UNL     1     -24.059 -23.646  41.128  1.00  0.00     0.000 C 
ENDROOT
BRANCH   1   2
ATOM      2  C   UNL     1     -23.809 -25.119  41.499  1.00  0.00     0.000 C 
BRANCH   2   3
ATOM      3  C   UNL     1     -25.112 -25.928  41.635  1.00  0.00     0.000 C 
BRANCH   3   4
ATOM      4  C   UNL     1     -24.924 -27.456  41.663  1.00  0.00     0.000 C 
BRANCH   4   5
ATOM      5  C   UNL     1     -25.018 -28.096  40.268  1.00  0.00     0.006 C 
BRANCH   5   6
ATOM      6  C   UNL     1     -24.897 -29.625  40.323  1.00  0.00     0.053 C 
BRANCH   6   7
ATOM      7  C   UNL     1     -25.307 -30.258  39.029  1.00  0.00     0.041 C 
ATOM      8  O   UNL     1     -25.958 -31.336  39.029  1.00  0.00    -0.550 OA
ATOM      9  O   UNL     1     -24.940 -29.676  37.823  1.00  0.00    -0.550 OA
ENDBRANCH   6   7
ENDBRANCH   5   6
ENDBRANCH   4   5
ENDBRANCH   3   4
ENDBRANCH   2   3
ENDBRANCH   1   2
BRANCH   1  10
ATOM     10  C   UNL     1     -23.102 -23.139  40.037  1.00  0.00     0.000 C 
BRANCH  10  11
ATOM     11  C   UNL     1     -21.626 -23.228  40.461  1.00  0.00    -0.000 C 
BRANCH  11  12
ATOM     12  C   UNL     1     -20.755 -23.953  39.423  1.00  0.00    -0.000 C 
BRANCH  12  13
ATOM     13  C   UNL     1     -20.101 -25.226  39.982  1.00  0.00    -0.000 C 
BRANCH  13  14
ATOM     14  C   UNL     1     -21.010 -26.444  39.781  1.00  0.00    -0.000 C 
BRANCH  14  15
ATOM     15  C   UNL     1     -21.094 -26.830  38.299  1.00  0.00    -0.003 C 
ATOM     16  C   UNL     1     -21.933 -28.090  38.104  1.00  0.00     0.004 C 
ENDBRANCH  14  15
ENDBRANCH  13  14
ENDBRANCH  12  13
ENDBRANCH  11  12
ENDBRANCH  10  11
ENDBRANCH   1  10
TORSDOF 12
ENDMDL
MODEL 8
REMARK VINA RESULT:    -4.622      1.335      2.569
REMARK INTER + INTRA:          -9.156
REMARK INTER:                  -8.118
REMARK INTRA:                  -1.038
REMARK UNBOUND:                -1.291
REMARK SMILES CCCCCCCCCCCCCC(=O)[O-]
REMARK SMILES IDX 8 1 9 2 10 3 11 4 12 5 13 6 14 7 15 8 16 9 7 10 6 11 5 12
REMARK SMILES IDX 4 13 3 14 2 15 1 16
REMARK H PARENT
REMARK Flexibility Score: inf
ROOT
ATOM      1  C   UNL     1     -20.345 -26.264  39.374  1.00  0.00     0.000 C 
ENDROOT
BRANCH   1   2
ATOM      2  C   UNL     1     -20.983 -26.868  38.109  1.00  0.00     0.000 C 
BRANCH   2   3
ATOM      3  C   UNL     1     -21.982 -27.996  38.426  1.00  0.00     0.000 C 
BRANCH   3   4
ATOM      4  C   UNL     1     -22.496 -28.016  39.876  1.00  0.00     0.000 C 
BRANCH   4   5
ATOM      5  C   UNL     1     -22.982 -29.406  40.321  1.00  0.00     0.006 C 
BRANCH   5   6
ATOM      6  C   UNL     1     -24.319 -29.339  41.071  1.00  0.00     0.053 C 
BRANCH   6   7
ATOM      7  C   UNL     1     -25.457 -29.031  40.146  1.00  0.00     0.041 C 
ATOM      8  O   UNL     1     -26.069 -27.935  40.237  1.00  0.00    -0.550 OA
ATOM      9  O   UNL     1     -25.863 -29.970  39.207  1.00  0.00    -0.550 OA
ENDBRANCH   6   7
ENDBRANCH   5   6
ENDBRANCH   4   5
ENDBRANCH   3   4
ENDBRANCH   2   3
ENDBRANCH   1   2
BRANCH   1  10
ATOM     10  C   UNL     1     -20.788 -24.814  39.626  1.00  0.00     0.000 C 
BRANCH  10  11
ATOM     11  C   UNL     1     -21.582 -24.660  40.935  1.00  0.00    -0.000 C 
BRANCH  11  12
ATOM     12  C   UNL     1     -22.851 -23.810  40.760  1.00  0.00    -0.000 C 
BRANCH  12  13
ATOM     13  C   UNL     1     -22.609 -22.318  41.040  1.00  0.00    -0.000 C 
BRANCH  13  14
ATOM     14  C   UNL     1     -23.203 -21.448  39.926  1.00  0.00    -0.000 C 
BRANCH  14  15
ATOM     15  C   UNL     1     -23.033 -22.117  38.556  1.00  0.00    -0.003 C 
ATOM     16  C   UNL     1     -21.747 -21.658  37.874  1.00  0.00     0.004 C 
ENDBRANCH  14  15
ENDBRANCH  13  14
ENDBRANCH  12  13
ENDBRANCH  11  12
ENDBRANCH  10  11
ENDBRANCH   1  10
TORSDOF 12
ENDMDL
MODEL 9
REMARK VINA RESULT:    -4.568      2.165      4.352
REMARK INTER + INTRA:          -9.063
REMARK INTER:                  -7.861
REMARK INTRA:                  -1.202
REMARK UNBOUND:                -1.291
REMARK SMILES CCCCCCCCCCCCCC(=O)[O-]
REMARK SMILES IDX 8 1 9 2 10 3 11 4 12 5 13 6 14 7 15 8 16 9 7 10 6 11 5 12
REMARK SMILES IDX 4 13 3 14 2 15 1 16
REMARK H PARENT
REMARK Flexibility Score: inf
ROOT
ATOM      1  C   UNL     1     -22.700 -28.526  40.478  1.00  0.00     0.000 C 
ENDROOT
BRANCH   1   2
ATOM      2  C   UNL     1     -23.978 -29.292  40.870  1.00  0.00     0.000 C 
BRANCH   2   3
ATOM      3  C   UNL     1     -25.265 -28.535  40.496  1.00  0.00     0.000 C 
BRANCH   3   4
ATOM      4  C   UNL     1     -25.386 -27.126  41.105  1.00  0.00     0.000 C 
BRANCH   4   5
ATOM      5  C   UNL     1     -26.818 -26.790  41.555  1.00  0.00     0.006 C 
BRANCH   5   6
ATOM      6  C   UNL     1     -26.886 -25.465  42.326  1.00  0.00     0.053 C 
BRANCH   6   7
ATOM      7  C   UNL     1     -28.295 -24.971  42.452  1.00  0.00     0.041 C 
ATOM      8  O   UNL     1     -28.532 -23.864  43.004  1.00  0.00    -0.550 OA
ATOM      9  O   UNL     1     -29.348 -25.749  41.990  1.00  0.00    -0.550 OA
ENDBRANCH   6   7
ENDBRANCH   5   6
ENDBRANCH   4   5
ENDBRANCH   3   4
ENDBRANCH   2   3
ENDBRANCH   1   2
BRANCH   1  10
ATOM     10  C   UNL     1     -22.499 -28.447  38.957  1.00  0.00     0.000 C 
BRANCH  10  11
ATOM     11  C   UNL     1     -21.461 -27.386  38.554  1.00  0.00    -0.000 C 
BRANCH  11  12
ATOM     12  C   UNL     1     -20.918 -26.603  39.761  1.00  0.00    -0.000 C 
BRANCH  12  13
ATOM     13  C   UNL     1     -20.608 -25.136  39.425  1.00  0.00    -0.000 C 
BRANCH  13  14
ATOM     14  C   UNL     1     -21.266 -24.191  40.437  1.00  0.00    -0.000 C 
BRANCH  14  15
ATOM     15  C   UNL     1     -22.532 -24.818  41.033  1.00  0.00    -0.003 C 
ATOM     16  C   UNL     1     -23.692 -23.826  41.031  1.00  0.00     0.004 C 
ENDBRANCH  14  15
ENDBRANCH  13  14
ENDBRANCH  12  13
ENDBRANCH  11  12
ENDBRANCH  10  11
ENDBRANCH   1  10
TORSDOF 12
ENDMDL
