MODEL 1
REMARK VINA RESULT:    -4.582      0.000      0.000
REMARK INTER + INTRA:          -5.404
REMARK INTER:                  -5.252
REMARK INTRA:                  -0.152
REMARK UNBOUND:                -0.152
REMARK SMILES O=C([O-])C=Cc1ccc(O)cc1
REMARK SMILES IDX 6 1 7 2 12 3 8 4 11 5 9 6 5 7 4 8 2 9 1 10 3 11 10 12
REMARK H PARENT 10 13
REMARK Flexibility Score: inf
ROOT
ATOM      1  C   UNL     1      -5.002 -18.081 -22.158  1.00  0.00    -0.025 A 
ATOM      2  C   UNL     1      -6.135 -18.630 -22.793  1.00  0.00     0.012 A 
ATOM      3  C   UNL     1      -5.013 -16.720 -21.810  1.00  0.00     0.012 A 
ATOM      4  C   UNL     1      -7.239 -17.824 -23.091  1.00  0.00     0.047 A 
ATOM      5  C   UNL     1      -6.117 -15.918 -22.111  1.00  0.00     0.047 A 
ATOM      6  C   UNL     1      -7.232 -16.467 -22.754  1.00  0.00     0.115 A 
ENDROOT
BRANCH   1   7
ATOM      7  C   UNL     1      -3.810 -18.894 -21.809  1.00  0.00     0.010 C 
ATOM      8  C   UNL     1      -2.670 -18.378 -21.328  1.00  0.00     0.025 C 
BRANCH   8   9
ATOM      9  C   UNL     1      -1.511 -19.218 -20.982  1.00  0.00     0.064 C 
ATOM     10  O   UNL     1      -1.108 -20.125 -21.758  1.00  0.00    -0.545 OA
ATOM     11  O   UNL     1      -0.849 -19.005 -19.780  1.00  0.00    -0.545 OA
ENDBRANCH   8   9
ENDBRANCH   1   7
BRANCH   6  12
ATOM     12  O   UNL     1      -8.339 -15.677 -23.058  1.00  0.00    -0.508 OA
ATOM     13  H   UNL     1      -9.072 -15.511 -22.381  1.00  0.00     0.293 HD
ENDBRANCH   6  12
TORSDOF 3
ENDMDL
MODEL 2
REMARK VINA RESULT:    -4.333      1.369      2.229
REMARK INTER + INTRA:          -5.119
REMARK INTER:                  -4.981
REMARK INTRA:                  -0.138
REMARK UNBOUND:                -0.152
REMARK SMILES O=C([O-])C=Cc1ccc(O)cc1
REMARK SMILES IDX 6 1 7 2 12 3 8 4 11 5 9 6 5 7 4 8 2 9 1 10 3 11 10 12
REMARK H PARENT 10 13
REMARK Flexibility Score: inf
ROOT
ATOM      1  C   UNL     1      -5.738 -16.665 -22.314  1.00  0.00    -0.025 A 
ATOM      2  C   UNL     1      -5.504 -15.450 -21.636  1.00  0.00     0.012 A 
ATOM      3  C   UNL     1      -7.027 -16.929 -22.807  1.00  0.00     0.012 A 
ATOM      4  C   UNL     1      -6.546 -14.538 -21.440  1.00  0.00     0.047 A 
ATOM      5  C   UNL     1      -8.066 -16.016 -22.607  1.00  0.00     0.047 A 
ATOM      6  C   UNL     1      -7.829 -14.819 -21.921  1.00  0.00     0.115 A 
ENDROOT
BRANCH   1   7
ATOM      7  C   UNL     1      -4.665 -17.661 -22.559  1.00  0.00     0.010 C 
ATOM      8  C   UNL     1      -3.660 -17.901 -21.704  1.00  0.00     0.025 C 
BRANCH   8   9
ATOM      9  C   UNL     1      -2.620 -18.907 -21.977  1.00  0.00     0.064 C 
ATOM     10  O   UNL     1      -2.483 -19.408 -23.125  1.00  0.00    -0.545 OA
ATOM     11  O   UNL     1      -1.773 -19.308 -20.952  1.00  0.00    -0.545 OA
ENDBRANCH   8   9
ENDBRANCH   1   7
BRANCH   6  12
ATOM     12  O   UNL     1      -8.856 -13.901 -21.716  1.00  0.00    -0.508 OA
ATOM     13  H   UNL     1      -9.409 -13.905 -20.868  1.00  0.00     0.293 HD
ENDBRANCH   6  12
TORSDOF 3
ENDMDL
MODEL 3
REMARK VINA RESULT:    -3.900     12.711     13.245
REMARK INTER + INTRA:          -4.622
REMARK INTER:                  -4.481
REMARK INTRA:                  -0.141
REMARK UNBOUND:                -0.152
REMARK SMILES O=C([O-])C=Cc1ccc(O)cc1
REMARK SMILES IDX 6 1 7 2 12 3 8 4 11 5 9 6 5 7 4 8 2 9 1 10 3 11 10 12
REMARK H PARENT 10 13
REMARK Flexibility Score: inf
ROOT
ATOM      1  C   UNL     1      -6.152 -18.692  -9.320  1.00  0.00    -0.025 A 
ATOM      2  C   UNL     1      -5.692 -19.519 -10.365  1.00  0.00     0.012 A 
ATOM      3  C   UNL     1      -7.473 -18.212  -9.367  1.00  0.00     0.012 A 
ATOM      4  C   UNL     1      -6.530 -19.835 -11.439  1.00  0.00     0.047 A 
ATOM      5  C   UNL     1      -8.306 -18.528 -10.443  1.00  0.00     0.047 A 
ATOM      6  C   UNL     1      -7.837 -19.339 -11.484  1.00  0.00     0.115 A 
ENDROOT
BRANCH   1   7
ATOM      7  C   UNL     1      -5.308 -18.337  -8.152  1.00  0.00     0.010 C 
ATOM      8  C   UNL     1      -5.024 -17.076  -7.793  1.00  0.00     0.025 C 
BRANCH   8   9
ATOM      9  C   UNL     1      -4.192 -16.762  -6.620  1.00  0.00     0.064 C 
ATOM     10  O   UNL     1      -4.041 -15.574  -6.227  1.00  0.00    -0.545 OA
ATOM     11  O   UNL     1      -3.566 -17.792  -5.931  1.00  0.00    -0.545 OA
ENDBRANCH   8   9
ENDBRANCH   1   7
BRANCH   6  12
ATOM     12  O   UNL     1      -8.659 -19.661 -12.561  1.00  0.00    -0.508 OA
ATOM     13  H   UNL     1      -9.644 -19.428 -12.563  1.00  0.00     0.293 HD
ENDBRANCH   6  12
TORSDOF 3
ENDMDL
MODEL 4
REMARK VINA RESULT:    -3.882     15.023     15.889
REMARK INTER + INTRA:          -4.601
REMARK INTER:                  -4.453
REMARK INTRA:                  -0.148
REMARK UNBOUND:                -0.152
REMARK SMILES O=C([O-])C=Cc1ccc(O)cc1
REMARK SMILES IDX 6 1 7 2 12 3 8 4 11 5 9 6 5 7 4 8 2 9 1 10 3 11 10 12
REMARK H PARENT 10 13
REMARK Flexibility Score: inf
ROOT
ATOM      1  C   UNL     1      -4.822 -16.632  -6.367  1.00  0.00    -0.025 A 
ATOM      2  C   UNL     1      -3.923 -15.962  -5.513  1.00  0.00     0.012 A 
ATOM      3  C   UNL     1      -6.196 -16.585  -6.076  1.00  0.00     0.012 A 
ATOM      4  C   UNL     1      -4.392 -15.283  -4.384  1.00  0.00     0.047 A 
ATOM      5  C   UNL     1      -6.661 -15.907  -4.946  1.00  0.00     0.047 A 
ATOM      6  C   UNL     1      -5.760 -15.256  -4.095  1.00  0.00     0.115 A 
ENDROOT
BRANCH   1   7
ATOM      7  C   UNL     1      -4.378 -17.357  -7.584  1.00  0.00     0.010 C 
ATOM      8  C   UNL     1      -5.034 -18.400  -8.112  1.00  0.00     0.025 C 
BRANCH   8   9
ATOM      9  C   UNL     1      -4.570 -19.087  -9.329  1.00  0.00     0.064 C 
ATOM     10  O   UNL     1      -3.348 -19.340  -9.508  1.00  0.00    -0.545 OA
ATOM     11  O   UNL     1      -5.493 -19.466 -10.294  1.00  0.00    -0.545 OA
ENDBRANCH   8   9
ENDBRANCH   1   7
BRANCH   6  12
ATOM     12  O   UNL     1      -6.212 -14.577  -2.966  1.00  0.00    -0.508 OA
ATOM     13  H   UNL     1      -6.529 -15.072  -2.142  1.00  0.00     0.293 HD
ENDBRANCH   6  12
TORSDOF 3
ENDMDL
MODEL 5
REMARK VINA RESULT:    -3.859     13.993     14.910
REMARK INTER + INTRA:          -4.575
REMARK INTER:                  -4.440
REMARK INTRA:                  -0.135
REMARK UNBOUND:                -0.152
REMARK SMILES O=C([O-])C=Cc1ccc(O)cc1
REMARK SMILES IDX 6 1 7 2 12 3 8 4 11 5 9 6 5 7 4 8 2 9 1 10 3 11 10 12
REMARK H PARENT 10 13
REMARK Flexibility Score: inf
ROOT
ATOM      1  C   UNL     1      -4.762 -17.575  -7.904  1.00  0.00    -0.025 A 
ATOM      2  C   UNL     1      -3.936 -18.513  -8.558  1.00  0.00     0.012 A 
ATOM      3  C   UNL     1      -6.113 -17.483  -8.281  1.00  0.00     0.012 A 
ATOM      4  C   UNL     1      -4.451 -19.318  -9.579  1.00  0.00     0.047 A 
ATOM      5  C   UNL     1      -6.623 -18.289  -9.303  1.00  0.00     0.047 A 
ATOM      6  C   UNL     1      -5.792 -19.207  -9.957  1.00  0.00     0.115 A 
ENDROOT
BRANCH   1   7
ATOM      7  C   UNL     1      -4.269 -16.706  -6.807  1.00  0.00     0.010 C 
ATOM      8  C   UNL     1      -3.963 -17.154  -5.580  1.00  0.00     0.025 C 
BRANCH   8   9
ATOM      9  C   UNL     1      -3.466 -16.262  -4.519  1.00  0.00     0.064 C 
ATOM     10  O   UNL     1      -2.589 -16.649  -3.701  1.00  0.00    -0.545 OA
ATOM     11  O   UNL     1      -3.969 -14.972  -4.421  1.00  0.00    -0.545 OA
ENDBRANCH   8   9
ENDBRANCH   1   7
BRANCH   6  12
ATOM     12  O   UNL     1      -6.290 -20.015 -10.976  1.00  0.00    -0.508 OA
ATOM     13  H   UNL     1      -5.804 -20.853 -11.271  1.00  0.00     0.293 HD
ENDBRANCH   6  12
TORSDOF 3
ENDMDL
MODEL 6
REMARK VINA RESULT:    -3.849     21.669     22.528
REMARK INTER + INTRA:          -4.563
REMARK INTER:                  -4.427
REMARK INTRA:                  -0.137
REMARK UNBOUND:                -0.152
REMARK SMILES O=C([O-])C=Cc1ccc(O)cc1
REMARK SMILES IDX 6 1 7 2 12 3 8 4 11 5 9 6 5 7 4 8 2 9 1 10 3 11 10 12
REMARK H PARENT 10 13
REMARK Flexibility Score: inf
ROOT
ATOM      1  C   UNL     1      -5.694  -2.832  -5.782  1.00  0.00    -0.025 A 
ATOM      2  C   UNL     1      -6.950  -2.194  -5.728  1.00  0.00     0.012 A 
ATOM      3  C   UNL     1      -5.415  -3.859  -4.863  1.00  0.00     0.012 A 
ATOM      4  C   UNL     1      -7.890  -2.563  -4.760  1.00  0.00     0.047 A 
ATOM      5  C   UNL     1      -6.357  -4.223  -3.896  1.00  0.00     0.047 A 
ATOM      6  C   UNL     1      -7.596  -3.575  -3.841  1.00  0.00     0.115 A 
ENDROOT
BRANCH   1   7
ATOM      7  C   UNL     1      -4.666  -2.488  -6.795  1.00  0.00     0.010 C 
ATOM      8  C   UNL     1      -3.475  -1.948  -6.496  1.00  0.00     0.025 C 
BRANCH   8   9
ATOM      9  C   UNL     1      -2.475  -1.631  -7.529  1.00  0.00     0.064 C 
ATOM     10  O   UNL     1      -1.587  -2.464  -7.855  1.00  0.00    -0.545 OA
ATOM     11  O   UNL     1      -2.512  -0.393  -8.157  1.00  0.00    -0.545 OA
ENDBRANCH   8   9
ENDBRANCH   1   7
BRANCH   6  12
ATOM     12  O   UNL     1      -8.542  -3.930  -2.882  1.00  0.00    -0.508 OA
ATOM     13  H   UNL     1      -9.523  -4.028  -3.117  1.00  0.00     0.293 HD
ENDBRANCH   6  12
TORSDOF 3
ENDMDL
MODEL 7
REMARK VINA RESULT:    -3.751     14.970     15.861
REMARK INTER + INTRA:          -4.452
REMARK INTER:                  -4.300
REMARK INTRA:                  -0.151
REMARK UNBOUND:                -0.152
REMARK SMILES O=C([O-])C=Cc1ccc(O)cc1
REMARK SMILES IDX 6 1 7 2 12 3 8 4 11 5 9 6 5 7 4 8 2 9 1 10 3 11 10 12
REMARK H PARENT 10 13
REMARK Flexibility Score: inf
ROOT
ATOM      1  C   UNL     1      -5.430 -16.686  -6.697  1.00  0.00    -0.025 A 
ATOM      2  C   UNL     1      -4.203 -16.131  -6.281  1.00  0.00     0.012 A 
ATOM      3  C   UNL     1      -6.552 -16.555  -5.860  1.00  0.00     0.012 A 
ATOM      4  C   UNL     1      -4.102 -15.482  -5.046  1.00  0.00     0.047 A 
ATOM      5  C   UNL     1      -6.446 -15.908  -4.626  1.00  0.00     0.047 A 
ATOM      6  C   UNL     1      -5.221 -15.372  -4.214  1.00  0.00     0.115 A 
ENDROOT
BRANCH   1   7
ATOM      7  C   UNL     1      -5.594 -17.373  -8.003  1.00  0.00     0.010 C 
ATOM      8  C   UNL     1      -6.770 -17.821  -8.467  1.00  0.00     0.025 C 
BRANCH   8   9
ATOM      9  C   UNL     1      -6.896 -18.488  -9.774  1.00  0.00     0.064 C 
ATOM     10  O   UNL     1      -6.425 -19.641  -9.965  1.00  0.00    -0.545 OA
ATOM     11  O   UNL     1      -7.548 -17.837 -10.812  1.00  0.00    -0.545 OA
ENDBRANCH   8   9
ENDBRANCH   1   7
BRANCH   6  12
ATOM     12  O   UNL     1      -5.104 -14.724  -2.986  1.00  0.00    -0.508 OA
ATOM     13  H   UNL     1      -4.298 -14.153  -2.764  1.00  0.00     0.293 HD
ENDBRANCH   6  12
TORSDOF 3
ENDMDL
MODEL 8
REMARK VINA RESULT:    -3.747     20.699     22.395
REMARK INTER + INTRA:          -4.446
REMARK INTER:                  -4.310
REMARK INTRA:                  -0.136
REMARK UNBOUND:                -0.152
REMARK SMILES O=C([O-])C=Cc1ccc(O)cc1
REMARK SMILES IDX 6 1 7 2 12 3 8 4 11 5 9 6 5 7 4 8 2 9 1 10 3 11 10 12
REMARK H PARENT 10 13
REMARK Flexibility Score: inf
ROOT
ATOM      1  C   UNL     1      -5.646  -2.687  -6.660  1.00  0.00    -0.025 A 
ATOM      2  C   UNL     1      -4.371  -2.097  -6.785  1.00  0.00     0.012 A 
ATOM      3  C   UNL     1      -6.048  -3.172  -5.403  1.00  0.00     0.012 A 
ATOM      4  C   UNL     1      -3.516  -2.019  -5.681  1.00  0.00     0.047 A 
ATOM      5  C   UNL     1      -5.189  -3.094  -4.303  1.00  0.00     0.047 A 
ATOM      6  C   UNL     1      -3.920  -2.519  -4.439  1.00  0.00     0.115 A 
ENDROOT
BRANCH   1   7
ATOM      7  C   UNL     1      -6.596  -2.784  -7.796  1.00  0.00     0.010 C 
ATOM      8  C   UNL     1      -7.114  -1.720  -8.427  1.00  0.00     0.025 C 
BRANCH   8   9
ATOM      9  C   UNL     1      -8.046  -1.855  -9.559  1.00  0.00     0.064 C 
ATOM     10  O   UNL     1      -9.039  -2.629  -9.497  1.00  0.00    -0.545 OA
ATOM     11  O   UNL     1      -7.829  -1.115 -10.714  1.00  0.00    -0.545 OA
ENDBRANCH   8   9
ENDBRANCH   1   7
BRANCH   6  12
ATOM     12  O   UNL     1      -3.056  -2.436  -3.350  1.00  0.00    -0.508 OA
ATOM     13  H   UNL     1      -2.216  -2.999  -3.296  1.00  0.00     0.293 HD
ENDBRANCH   6  12
TORSDOF 3
ENDMDL
MODEL 9
REMARK VINA RESULT:    -3.685     14.302     15.729
REMARK INTER + INTRA:          -4.375
REMARK INTER:                  -4.240
REMARK INTRA:                  -0.136
REMARK UNBOUND:                -0.152
REMARK SMILES O=C([O-])C=Cc1ccc(O)cc1
REMARK SMILES IDX 6 1 7 2 12 3 8 4 11 5 9 6 5 7 4 8 2 9 1 10 3 11 10 12
REMARK H PARENT 10 13
REMARK Flexibility Score: inf
ROOT
ATOM      1  C   UNL     1      10.061 -17.088 -18.733  1.00  0.00    -0.025 A 
ATOM      2  C   UNL     1      11.113 -17.468 -17.875  1.00  0.00     0.012 A 
ATOM      3  C   UNL     1       8.751 -17.491 -18.420  1.00  0.00     0.012 A 
ATOM      4  C   UNL     1      10.856 -18.253 -16.746  1.00  0.00     0.047 A 
ATOM      5  C   UNL     1       8.500 -18.277 -17.292  1.00  0.00     0.047 A 
ATOM      6  C   UNL     1       9.552 -18.662 -16.453  1.00  0.00     0.115 A 
ENDROOT
BRANCH   1   7
ATOM      7  C   UNL     1      10.276 -16.246 -19.937  1.00  0.00     0.010 C 
ATOM      8  C   UNL     1      10.031 -14.929 -19.979  1.00  0.00     0.025 C 
BRANCH   8   9
ATOM      9  C   UNL     1      10.269 -14.123 -21.188  1.00  0.00     0.064 C 
ATOM     10  O   UNL     1      11.122 -13.196 -21.197  1.00  0.00    -0.545 OA
ATOM     11  O   UNL     1       9.541 -14.391 -22.340  1.00  0.00    -0.545 OA
ENDBRANCH   8   9
ENDBRANCH   1   7
BRANCH   6  12
ATOM     12  O   UNL     1       9.313 -19.445 -15.326  1.00  0.00    -0.508 OA
ATOM     13  H   UNL     1      10.073 -19.837 -14.783  1.00  0.00     0.293 HD
ENDBRANCH   6  12
TORSDOF 3
ENDMDL
