MODEL 1
REMARK VINA RESULT:    -6.434      0.000      0.000
REMARK INTER + INTRA:          -7.844
REMARK INTER:                  -7.562
REMARK INTRA:                  -0.282
REMARK UNBOUND:                -0.282
REMARK SMILES O=c1cc(-c2ccc(O)c(O)c2)oc2cc(O)cc(O)c12
REMARK SMILES IDX 4 1 3 2 2 3 1 4 21 5 19 6 18 7 16 8 15 9 14 10 13 11 5 12
REMARK SMILES IDX 6 13 7 14 8 15 12 16 10 17 9 18 11 20 20 22 17 24
REMARK H PARENT 9 19 11 21 20 23 17 25
REMARK Flexibility Score: inf
ROOT
ATOM      1  C   UNL     1      51.730  13.590  25.559  1.00  0.00     0.138 A 
ATOM      2  C   UNL     1      51.527  12.233  25.845  1.00  0.00     0.100 A 
ATOM      3  C   UNL     1      52.213  11.641  26.906  1.00  0.00     0.197 A 
ATOM      4  O   UNL     1      51.967  10.436  27.172  1.00  0.00    -0.289 OA
ATOM      5  C   UNL     1      53.134  12.405  27.663  1.00  0.00     0.107 A 
ATOM      6  C   UNL     1      53.915  11.900  28.746  1.00  0.00     0.134 A 
ATOM      7  C   UNL     1      54.721  12.776  29.483  1.00  0.00     0.093 A 
ATOM      8  C   UNL     1      54.817  14.128  29.141  1.00  0.00     0.123 A 
ATOM      9  C   UNL     1      54.098  14.619  28.055  1.00  0.00     0.094 A 
ATOM     10  C   UNL     1      53.259  13.778  27.321  1.00  0.00     0.146 A 
ATOM     11  O   UNL     1      52.577  14.293  26.303  1.00  0.00    -0.456 OA
ENDROOT
BRANCH   1  12
ATOM     12  C   UNL     1      51.031  14.270  24.438  1.00  0.00     0.021 A 
ATOM     13  C   UNL     1      51.660  15.268  23.670  1.00  0.00     0.016 A 
ATOM     14  C   UNL     1      50.980  15.883  22.616  1.00  0.00     0.051 A 
ATOM     15  C   UNL     1      49.668  15.508  22.305  1.00  0.00     0.157 A 
ATOM     16  C   UNL     1      49.718  13.889  24.111  1.00  0.00     0.062 A 
ATOM     17  C   UNL     1      49.035  14.505  23.055  1.00  0.00     0.158 A 
BRANCH  15  18
ATOM     18  O   UNL     1      48.994  16.125  21.252  1.00  0.00    -0.504 OA
ATOM     19  H   UNL     1      48.527  17.017  21.370  1.00  0.00     0.293 HD
ENDBRANCH  15  18
BRANCH  17  20
ATOM     20  O   UNL     1      47.730  14.105  22.769  1.00  0.00    -0.504 OA
ATOM     21  H   UNL     1      47.513  13.172  22.437  1.00  0.00     0.293 HD
ENDBRANCH  17  20
ENDBRANCH   1  12
BRANCH   6  22
ATOM     22  O   UNL     1      53.955  10.553  29.122  1.00  0.00    -0.507 OA
ATOM     23  H   UNL     1      53.874   9.772  28.491  1.00  0.00     0.293 HD
ENDBRANCH   6  22
BRANCH   8  24
ATOM     24  O   UNL     1      55.634  14.989  29.871  1.00  0.00    -0.508 OA
ATOM     25  H   UNL     1      55.538  15.995  29.803  1.00  0.00     0.293 HD
ENDBRANCH   8  24
TORSDOF 5
ENDMDL
MODEL 2
REMARK VINA RESULT:    -6.307      1.951      6.864
REMARK INTER + INTRA:          -7.695
REMARK INTER:                  -7.402
REMARK INTRA:                  -0.293
REMARK UNBOUND:                -0.282
REMARK SMILES O=c1cc(-c2ccc(O)c(O)c2)oc2cc(O)cc(O)c12
REMARK SMILES IDX 4 1 3 2 2 3 1 4 21 5 19 6 18 7 16 8 15 9 14 10 13 11 5 12
REMARK SMILES IDX 6 13 7 14 8 15 12 16 10 17 9 18 11 20 20 22 17 24
REMARK H PARENT 9 19 11 21 20 23 17 25
REMARK Flexibility Score: inf
ROOT
ATOM      1  C   UNL     1      52.485  14.585  26.073  1.00  0.00     0.138 A 
ATOM      2  C   UNL     1      51.490  13.992  26.861  1.00  0.00     0.100 A 
ATOM      3  C   UNL     1      50.189  13.890  26.367  1.00  0.00     0.197 A 
ATOM      4  O   UNL     1      49.331  13.302  27.075  1.00  0.00    -0.289 OA
ATOM      5  C   UNL     1      49.877  14.416  25.090  1.00  0.00     0.107 A 
ATOM      6  C   UNL     1      48.578  14.399  24.496  1.00  0.00     0.134 A 
ATOM      7  C   UNL     1      48.412  14.863  23.186  1.00  0.00     0.093 A 
ATOM      8  C   UNL     1      49.486  15.396  22.468  1.00  0.00     0.123 A 
ATOM      9  C   UNL     1      50.746  15.463  23.056  1.00  0.00     0.094 A 
ATOM     10  C   UNL     1      50.951  14.977  24.349  1.00  0.00     0.146 A 
ATOM     11  O   UNL     1      52.175  15.044  24.866  1.00  0.00    -0.456 OA
ENDROOT
BRANCH   1  12
ATOM     12  C   UNL     1      53.885  14.725  26.551  1.00  0.00     0.021 A 
ATOM     13  C   UNL     1      54.929  15.102  25.684  1.00  0.00     0.016 A 
ATOM     14  C   UNL     1      56.234  15.236  26.164  1.00  0.00     0.051 A 
ATOM     15  C   UNL     1      56.519  15.003  27.515  1.00  0.00     0.157 A 
ATOM     16  C   UNL     1      54.177  14.507  27.908  1.00  0.00     0.062 A 
ATOM     17  C   UNL     1      55.484  14.640  28.391  1.00  0.00     0.158 A 
BRANCH  15  18
ATOM     18  O   UNL     1      57.823  15.137  27.989  1.00  0.00    -0.504 OA
ATOM     19  H   UNL     1      58.600  14.657  27.549  1.00  0.00     0.293 HD
ENDBRANCH  15  18
BRANCH  17  20
ATOM     20  O   UNL     1      55.734  14.406  29.743  1.00  0.00    -0.504 OA
ATOM     21  H   UNL     1      56.670  14.426  30.129  1.00  0.00     0.293 HD
ENDBRANCH  17  20
ENDBRANCH   1  12
BRANCH   6  22
ATOM     22  O   UNL     1      47.423  13.963  25.153  1.00  0.00    -0.507 OA
ATOM     23  H   UNL     1      47.183  14.175  26.108  1.00  0.00     0.293 HD
ENDBRANCH   6  22
BRANCH   8  24
ATOM     24  O   UNL     1      49.307  15.870  21.169  1.00  0.00    -0.508 OA
ATOM     25  H   UNL     1      50.063  15.861  20.494  1.00  0.00     0.293 HD
ENDBRANCH   8  24
TORSDOF 5
ENDMDL
MODEL 3
REMARK VINA RESULT:    -6.232      2.218      6.845
REMARK INTER + INTRA:          -7.607
REMARK INTER:                  -7.289
REMARK INTRA:                  -0.318
REMARK UNBOUND:                -0.282
REMARK SMILES O=c1cc(-c2ccc(O)c(O)c2)oc2cc(O)cc(O)c12
REMARK SMILES IDX 4 1 3 2 2 3 1 4 21 5 19 6 18 7 16 8 15 9 14 10 13 11 5 12
REMARK SMILES IDX 6 13 7 14 8 15 12 16 10 17 9 18 11 20 20 22 17 24
REMARK H PARENT 9 19 11 21 20 23 17 25
REMARK Flexibility Score: inf
ROOT
ATOM      1  C   UNL     1      52.595  14.664  26.080  1.00  0.00     0.138 A 
ATOM      2  C   UNL     1      51.621  14.035  26.867  1.00  0.00     0.100 A 
ATOM      3  C   UNL     1      50.320  13.902  26.380  1.00  0.00     0.197 A 
ATOM      4  O   UNL     1      49.483  13.284  27.086  1.00  0.00    -0.289 OA
ATOM      5  C   UNL     1      49.987  14.433  25.110  1.00  0.00     0.107 A 
ATOM      6  C   UNL     1      48.685  14.387  24.524  1.00  0.00     0.134 A 
ATOM      7  C   UNL     1      48.499  14.860  23.220  1.00  0.00     0.093 A 
ATOM      8  C   UNL     1      49.553  15.429  22.501  1.00  0.00     0.123 A 
ATOM      9  C   UNL     1      50.814  15.525  23.083  1.00  0.00     0.094 A 
ATOM     10  C   UNL     1      51.041  15.031  24.370  1.00  0.00     0.146 A 
ATOM     11  O   UNL     1      52.265  15.127  24.880  1.00  0.00    -0.456 OA
ENDROOT
BRANCH   1  12
ATOM     12  C   UNL     1      53.994  14.837  26.551  1.00  0.00     0.021 A 
ATOM     13  C   UNL     1      54.398  14.428  27.837  1.00  0.00     0.016 A 
ATOM     14  C   UNL     1      55.723  14.594  28.248  1.00  0.00     0.051 A 
ATOM     15  C   UNL     1      56.667  15.161  27.384  1.00  0.00     0.157 A 
ATOM     16  C   UNL     1      54.951  15.393  25.685  1.00  0.00     0.062 A 
ATOM     17  C   UNL     1      56.278  15.560  26.096  1.00  0.00     0.158 A 
BRANCH  15  18
ATOM     18  O   UNL     1      57.987  15.325  27.800  1.00  0.00    -0.504 OA
ATOM     19  H   UNL     1      58.235  15.361  28.782  1.00  0.00     0.293 HD
ENDBRANCH  15  18
BRANCH  17  20
ATOM     20  O   UNL     1      57.195  16.125  25.209  1.00  0.00    -0.504 OA
ATOM     21  H   UNL     1      58.133  16.381  25.495  1.00  0.00     0.293 HD
ENDBRANCH  17  20
ENDBRANCH   1  12
BRANCH   6  22
ATOM     22  O   UNL     1      47.546  13.912  25.183  1.00  0.00    -0.507 OA
ATOM     23  H   UNL     1      47.232  12.956  25.182  1.00  0.00     0.293 HD
ENDBRANCH   6  22
BRANCH   8  24
ATOM     24  O   UNL     1      49.354  15.911  21.209  1.00  0.00    -0.508 OA
ATOM     25  H   UNL     1      50.130  16.077  20.580  1.00  0.00     0.293 HD
ENDBRANCH   8  24
TORSDOF 5
ENDMDL
MODEL 4
REMARK VINA RESULT:    -6.210      2.611      6.563
REMARK INTER + INTRA:          -7.582
REMARK INTER:                  -7.265
REMARK INTRA:                  -0.317
REMARK UNBOUND:                -0.282
REMARK SMILES O=c1cc(-c2ccc(O)c(O)c2)oc2cc(O)cc(O)c12
REMARK SMILES IDX 4 1 3 2 2 3 1 4 21 5 19 6 18 7 16 8 15 9 14 10 13 11 5 12
REMARK SMILES IDX 6 13 7 14 8 15 12 16 10 17 9 18 11 20 20 22 17 24
REMARK H PARENT 9 19 11 21 20 23 17 25
REMARK Flexibility Score: inf
ROOT
ATOM      1  C   UNL     1      52.236  14.291  26.604  1.00  0.00     0.138 A 
ATOM      2  C   UNL     1      51.842  14.249  25.260  1.00  0.00     0.100 A 
ATOM      3  C   UNL     1      50.499  14.053  24.940  1.00  0.00     0.197 A 
ATOM      4  O   UNL     1      50.169  14.075  23.726  1.00  0.00    -0.289 OA
ATOM      5  C   UNL     1      49.549  13.864  25.973  1.00  0.00     0.107 A 
ATOM      6  C   UNL     1      48.157  13.622  25.766  1.00  0.00     0.134 A 
ATOM      7  C   UNL     1      47.298  13.547  26.869  1.00  0.00     0.093 A 
ATOM      8  C   UNL     1      47.789  13.649  28.174  1.00  0.00     0.123 A 
ATOM      9  C   UNL     1      49.152  13.834  28.387  1.00  0.00     0.094 A 
ATOM     10  C   UNL     1      50.030  13.947  27.307  1.00  0.00     0.146 A 
ATOM     11  O   UNL     1      51.321  14.141  27.556  1.00  0.00    -0.456 OA
ENDROOT
BRANCH   1  12
ATOM     12  C   UNL     1      53.653  14.492  27.002  1.00  0.00     0.021 A 
ATOM     13  C   UNL     1      54.640  14.853  26.065  1.00  0.00     0.016 A 
ATOM     14  C   UNL     1      55.964  15.045  26.471  1.00  0.00     0.051 A 
ATOM     15  C   UNL     1      56.322  14.890  27.815  1.00  0.00     0.157 A 
ATOM     16  C   UNL     1      54.018  14.352  28.352  1.00  0.00     0.062 A 
ATOM     17  C   UNL     1      55.343  14.544  28.760  1.00  0.00     0.158 A 
BRANCH  15  18
ATOM     18  O   UNL     1      57.644  15.083  28.214  1.00  0.00    -0.504 OA
ATOM     19  H   UNL     1      58.274  14.302  28.360  1.00  0.00     0.293 HD
ENDBRANCH  15  18
BRANCH  17  20
ATOM     20  O   UNL     1      55.667  14.386  30.107  1.00  0.00    -0.504 OA
ATOM     21  H   UNL     1      56.593  14.111  30.410  1.00  0.00     0.293 HD
ENDBRANCH  17  20
ENDBRANCH   1  12
BRANCH   6  22
ATOM     22  O   UNL     1      47.575  13.425  24.509  1.00  0.00    -0.507 OA
ATOM     23  H   UNL     1      46.644  13.076  24.350  1.00  0.00     0.293 HD
ENDBRANCH   6  22
BRANCH   8  24
ATOM     24  O   UNL     1      46.928  13.558  29.266  1.00  0.00    -0.508 OA
ATOM     25  H   UNL     1      47.268  13.319  30.190  1.00  0.00     0.293 HD
ENDBRANCH   8  24
TORSDOF 5
ENDMDL
MODEL 5
REMARK VINA RESULT:    -5.959      1.872      3.411
REMARK INTER + INTRA:          -7.286
REMARK INTER:                  -6.996
REMARK INTRA:                  -0.291
REMARK UNBOUND:                -0.282
REMARK SMILES O=c1cc(-c2ccc(O)c(O)c2)oc2cc(O)cc(O)c12
REMARK SMILES IDX 4 1 3 2 2 3 1 4 21 5 19 6 18 7 16 8 15 9 14 10 13 11 5 12
REMARK SMILES IDX 6 13 7 14 8 15 12 16 10 17 9 18 11 20 20 22 17 24
REMARK H PARENT 9 19 11 21 20 23 17 25
REMARK Flexibility Score: inf
ROOT
ATOM      1  C   UNL     1      52.496  14.918  24.770  1.00  0.00     0.138 A 
ATOM      2  C   UNL     1      53.562  15.490  24.063  1.00  0.00     0.100 A 
ATOM      3  C   UNL     1      54.796  15.660  24.692  1.00  0.00     0.197 A 
ATOM      4  O   UNL     1      55.748  16.125  24.013  1.00  0.00    -0.289 OA
ATOM      5  C   UNL     1      54.952  15.285  26.048  1.00  0.00     0.107 A 
ATOM      6  C   UNL     1      56.154  15.442  26.804  1.00  0.00     0.134 A 
ATOM      7  C   UNL     1      56.216  14.945  28.111  1.00  0.00     0.093 A 
ATOM      8  C   UNL     1      55.105  14.346  28.709  1.00  0.00     0.123 A 
ATOM      9  C   UNL     1      53.913  14.234  27.998  1.00  0.00     0.094 A 
ATOM     10  C   UNL     1      53.828  14.690  26.681  1.00  0.00     0.146 A 
ATOM     11  O   UNL     1      52.676  14.547  26.033  1.00  0.00    -0.456 OA
ENDROOT
BRANCH   1  12
ATOM     12  C   UNL     1      51.160  14.719  24.152  1.00  0.00     0.021 A 
ATOM     13  C   UNL     1      50.222  13.817  24.691  1.00  0.00     0.016 A 
ATOM     14  C   UNL     1      48.969  13.658  24.093  1.00  0.00     0.051 A 
ATOM     15  C   UNL     1      48.628  14.399  22.956  1.00  0.00     0.157 A 
ATOM     16  C   UNL     1      50.804  15.470  23.018  1.00  0.00     0.062 A 
ATOM     17  C   UNL     1      49.549  15.311  22.418  1.00  0.00     0.158 A 
BRANCH  15  18
ATOM     18  O   UNL     1      47.376  14.237  22.363  1.00  0.00    -0.504 OA
ATOM     19  H   UNL     1      46.986  13.318  22.189  1.00  0.00     0.293 HD
ENDBRANCH  15  18
BRANCH  17  20
ATOM     20  O   UNL     1      49.239  16.068  21.289  1.00  0.00    -0.504 OA
ATOM     21  H   UNL     1      49.301  17.079  21.285  1.00  0.00     0.293 HD
ENDBRANCH  17  20
ENDBRANCH   1  12
BRANCH   6  22
ATOM     22  O   UNL     1      57.296  16.095  26.330  1.00  0.00    -0.507 OA
ATOM     23  H   UNL     1      57.639  16.052  25.384  1.00  0.00     0.293 HD
ENDBRANCH   6  22
BRANCH   8  24
ATOM     24  O   UNL     1      55.173  13.868  30.017  1.00  0.00    -0.508 OA
ATOM     25  H   UNL     1      54.340  13.747  30.580  1.00  0.00     0.293 HD
ENDBRANCH   8  24
TORSDOF 5
ENDMDL
MODEL 6
REMARK VINA RESULT:    -5.904      1.163      2.653
REMARK INTER + INTRA:          -7.222
REMARK INTER:                  -6.913
REMARK INTRA:                  -0.309
REMARK UNBOUND:                -0.282
REMARK SMILES O=c1cc(-c2ccc(O)c(O)c2)oc2cc(O)cc(O)c12
REMARK SMILES IDX 4 1 3 2 2 3 1 4 21 5 19 6 18 7 16 8 15 9 14 10 13 11 5 12
REMARK SMILES IDX 6 13 7 14 8 15 12 16 10 17 9 18 11 20 20 22 17 24
REMARK H PARENT 9 19 11 21 20 23 17 25
REMARK Flexibility Score: inf
ROOT
ATOM      1  C   UNL     1      52.011  14.241  25.419  1.00  0.00     0.138 A 
ATOM      2  C   UNL     1      53.061  14.987  25.972  1.00  0.00     0.100 A 
ATOM      3  C   UNL     1      53.787  14.467  27.044  1.00  0.00     0.197 A 
ATOM      4  O   UNL     1      54.758  15.136  27.482  1.00  0.00    -0.289 OA
ATOM      5  C   UNL     1      53.437  13.207  27.586  1.00  0.00     0.107 A 
ATOM      6  C   UNL     1      54.085  12.591  28.700  1.00  0.00     0.134 A 
ATOM      7  C   UNL     1      53.713  11.297  29.084  1.00  0.00     0.093 A 
ATOM      8  C   UNL     1      52.680  10.619  28.433  1.00  0.00     0.123 A 
ATOM      9  C   UNL     1      52.008  11.231  27.378  1.00  0.00     0.094 A 
ATOM     10  C   UNL     1      52.378  12.508  26.948  1.00  0.00     0.146 A 
ATOM     11  O   UNL     1      51.722  13.048  25.926  1.00  0.00    -0.456 OA
ENDROOT
BRANCH   1  12
ATOM     12  C   UNL     1      51.202  14.748  24.281  1.00  0.00     0.021 A 
ATOM     13  C   UNL     1      51.731  15.654  23.342  1.00  0.00     0.016 A 
ATOM     14  C   UNL     1      50.949  16.106  22.276  1.00  0.00     0.051 A 
ATOM     15  C   UNL     1      49.632  15.657  22.123  1.00  0.00     0.157 A 
ATOM     16  C   UNL     1      49.883  14.291  24.113  1.00  0.00     0.062 A 
ATOM     17  C   UNL     1      49.098  14.743  23.046  1.00  0.00     0.158 A 
BRANCH  15  18
ATOM     18  O   UNL     1      48.856  16.110  21.058  1.00  0.00    -0.504 OA
ATOM     19  H   UNL     1      48.961  15.730  20.125  1.00  0.00     0.293 HD
ENDBRANCH  15  18
BRANCH  17  20
ATOM     20  O   UNL     1      47.792  14.272  22.920  1.00  0.00    -0.504 OA
ATOM     21  H   UNL     1      47.013  14.711  23.397  1.00  0.00     0.293 HD
ENDBRANCH  17  20
ENDBRANCH   1  12
BRANCH   6  22
ATOM     22  O   UNL     1      55.074  13.209  29.471  1.00  0.00    -0.507 OA
ATOM     23  H   UNL     1      55.935  12.777  29.766  1.00  0.00     0.293 HD
ENDBRANCH   6  22
BRANCH   8  24
ATOM     24  O   UNL     1      52.307   9.337  28.833  1.00  0.00    -0.508 OA
ATOM     25  H   UNL     1      52.322   8.555  28.189  1.00  0.00     0.293 HD
ENDBRANCH   8  24
TORSDOF 5
ENDMDL
MODEL 7
REMARK VINA RESULT:    -5.714      3.298      4.872
REMARK INTER + INTRA:          -6.998
REMARK INTER:                  -6.682
REMARK INTRA:                  -0.316
REMARK UNBOUND:                -0.282
REMARK SMILES O=c1cc(-c2ccc(O)c(O)c2)oc2cc(O)cc(O)c12
REMARK SMILES IDX 4 1 3 2 2 3 1 4 21 5 19 6 18 7 16 8 15 9 14 10 13 11 5 12
REMARK SMILES IDX 6 13 7 14 8 15 12 16 10 17 9 18 11 20 20 22 17 24
REMARK H PARENT 9 19 11 21 20 23 17 25
REMARK Flexibility Score: inf
ROOT
ATOM      1  C   UNL     1      50.975  14.386  26.464  1.00  0.00     0.138 A 
ATOM      2  C   UNL     1      51.093  14.667  25.096  1.00  0.00     0.100 A 
ATOM      3  C   UNL     1      52.346  14.960  24.557  1.00  0.00     0.197 A 
ATOM      4  O   UNL     1      52.427  15.153  23.317  1.00  0.00    -0.289 OA
ATOM      5  C   UNL     1      53.482  15.005  25.400  1.00  0.00     0.107 A 
ATOM      6  C   UNL     1      54.805  15.325  24.968  1.00  0.00     0.134 A 
ATOM      7  C   UNL     1      55.867  15.242  25.878  1.00  0.00     0.093 A 
ATOM      8  C   UNL     1      55.646  14.905  27.216  1.00  0.00     0.123 A 
ATOM      9  C   UNL     1      54.353  14.640  27.658  1.00  0.00     0.094 A 
ATOM     10  C   UNL     1      53.277  14.682  26.768  1.00  0.00     0.146 A 
ATOM     11  O   UNL     1      52.061  14.404  27.229  1.00  0.00    -0.456 OA
ENDROOT
BRANCH   1  12
ATOM     12  C   UNL     1      49.665  14.073  27.092  1.00  0.00     0.021 A 
ATOM     13  C   UNL     1      48.526  13.777  26.319  1.00  0.00     0.016 A 
ATOM     14  C   UNL     1      47.310  13.476  26.938  1.00  0.00     0.051 A 
ATOM     15  C   UNL     1      47.212  13.457  28.334  1.00  0.00     0.157 A 
ATOM     16  C   UNL     1      49.562  14.038  28.493  1.00  0.00     0.062 A 
ATOM     17  C   UNL     1      48.344  13.737  29.115  1.00  0.00     0.158 A 
BRANCH  15  18
ATOM     18  O   UNL     1      45.996  13.156  28.946  1.00  0.00    -0.504 OA
ATOM     19  H   UNL     1      45.893  12.354  29.558  1.00  0.00     0.293 HD
ENDBRANCH  15  18
BRANCH  17  20
ATOM     20  O   UNL     1      48.281  13.722  30.508  1.00  0.00    -0.504 OA
ATOM     21  H   UNL     1      47.734  14.396  31.029  1.00  0.00     0.293 HD
ENDBRANCH  17  20
ENDBRANCH   1  12
BRANCH   6  22
ATOM     22  O   UNL     1      55.126  15.750  23.675  1.00  0.00    -0.507 OA
ATOM     23  H   UNL     1      55.837  15.343  23.090  1.00  0.00     0.293 HD
ENDBRANCH   6  22
BRANCH   8  24
ATOM     24  O   UNL     1      56.707  14.840  28.117  1.00  0.00    -0.508 OA
ATOM     25  H   UNL     1      57.332  15.626  28.256  1.00  0.00     0.293 HD
ENDBRANCH   8  24
TORSDOF 5
ENDMDL
MODEL 8
REMARK VINA RESULT:    -5.567      3.193      4.663
REMARK INTER + INTRA:          -6.825
REMARK INTER:                  -6.532
REMARK INTRA:                  -0.293
REMARK UNBOUND:                -0.282
REMARK SMILES O=c1cc(-c2ccc(O)c(O)c2)oc2cc(O)cc(O)c12
REMARK SMILES IDX 4 1 3 2 2 3 1 4 21 5 19 6 18 7 16 8 15 9 14 10 13 11 5 12
REMARK SMILES IDX 6 13 7 14 8 15 12 16 10 17 9 18 11 20 20 22 17 24
REMARK H PARENT 9 19 11 21 20 23 17 25
REMARK Flexibility Score: inf
ROOT
ATOM      1  C   UNL     1      51.286  14.440  26.604  1.00  0.00     0.138 A 
ATOM      2  C   UNL     1      51.352  14.703  25.229  1.00  0.00     0.100 A 
ATOM      3  C   UNL     1      52.581  15.006  24.643  1.00  0.00     0.197 A 
ATOM      4  O   UNL     1      52.616  15.183  23.398  1.00  0.00    -0.289 OA
ATOM      5  C   UNL     1      53.745  15.080  25.446  1.00  0.00     0.107 A 
ATOM      6  C   UNL     1      55.047  15.413  24.964  1.00  0.00     0.134 A 
ATOM      7  C   UNL     1      56.141  15.359  25.837  1.00  0.00     0.093 A 
ATOM      8  C   UNL     1      55.971  15.038  27.186  1.00  0.00     0.123 A 
ATOM      9  C   UNL     1      54.698  14.761  27.677  1.00  0.00     0.094 A 
ATOM     10  C   UNL     1      53.592  14.773  26.824  1.00  0.00     0.146 A 
ATOM     11  O   UNL     1      52.397  14.485  27.331  1.00  0.00    -0.456 OA
ENDROOT
BRANCH   1  12
ATOM     12  C   UNL     1      50.003  14.116  27.281  1.00  0.00     0.021 A 
ATOM     13  C   UNL     1      49.885  14.123  28.684  1.00  0.00     0.016 A 
ATOM     14  C   UNL     1      48.663  13.825  29.293  1.00  0.00     0.051 A 
ATOM     15  C   UNL     1      47.540  13.524  28.515  1.00  0.00     0.157 A 
ATOM     16  C   UNL     1      48.867  13.827  26.506  1.00  0.00     0.062 A 
ATOM     17  C   UNL     1      47.642  13.527  27.114  1.00  0.00     0.158 A 
BRANCH  15  18
ATOM     18  O   UNL     1      46.323  13.226  29.126  1.00  0.00    -0.504 OA
ATOM     19  H   UNL     1      45.685  12.542  28.736  1.00  0.00     0.293 HD
ENDBRANCH  15  18
BRANCH  17  20
ATOM     20  O   UNL     1      46.541  13.236  26.310  1.00  0.00    -0.504 OA
ATOM     21  H   UNL     1      45.614  13.586  26.520  1.00  0.00     0.293 HD
ENDBRANCH  17  20
ENDBRANCH   1  12
BRANCH   6  22
ATOM     22  O   UNL     1      55.316  15.824  23.654  1.00  0.00    -0.507 OA
ATOM     23  H   UNL     1      55.090  15.301  22.824  1.00  0.00     0.293 HD
ENDBRANCH   6  22
BRANCH   8  24
ATOM     24  O   UNL     1      57.064  15.001  28.051  1.00  0.00    -0.508 OA
ATOM     25  H   UNL     1      57.113  14.338  28.814  1.00  0.00     0.293 HD
ENDBRANCH   8  24
TORSDOF 5
ENDMDL
MODEL 9
REMARK VINA RESULT:    -5.254      2.022      7.151
REMARK INTER + INTRA:          -6.458
REMARK INTER:                  -6.194
REMARK INTRA:                  -0.263
REMARK UNBOUND:                -0.282
REMARK SMILES O=c1cc(-c2ccc(O)c(O)c2)oc2cc(O)cc(O)c12
REMARK SMILES IDX 4 1 3 2 2 3 1 4 21 5 19 6 18 7 16 8 15 9 14 10 13 11 5 12
REMARK SMILES IDX 6 13 7 14 8 15 12 16 10 17 9 18 11 20 20 22 17 24
REMARK H PARENT 9 19 11 21 20 23 17 25
REMARK Flexibility Score: inf
ROOT
ATOM      1  C   UNL     1      50.611  13.650  26.726  1.00  0.00     0.138 A 
ATOM      2  C   UNL     1      49.420  13.939  27.406  1.00  0.00     0.100 A 
ATOM      3  C   UNL     1      48.377  14.576  26.732  1.00  0.00     0.197 A 
ATOM      4  O   UNL     1      47.301  14.771  27.354  1.00  0.00    -0.289 OA
ATOM      5  C   UNL     1      48.542  14.955  25.378  1.00  0.00     0.107 A 
ATOM      6  C   UNL     1      47.561  15.639  24.598  1.00  0.00     0.134 A 
ATOM      7  C   UNL     1      47.802  15.876  23.239  1.00  0.00     0.093 A 
ATOM      8  C   UNL     1      49.011  15.504  22.645  1.00  0.00     0.123 A 
ATOM      9  C   UNL     1      49.994  14.882  23.409  1.00  0.00     0.094 A 
ATOM     10  C   UNL     1      49.771  14.601  24.759  1.00  0.00     0.146 A 
ATOM     11  O   UNL     1      50.730  13.989  25.447  1.00  0.00    -0.456 OA
ENDROOT
BRANCH   1  12
ATOM     12  C   UNL     1      51.755  12.979  27.396  1.00  0.00     0.021 A 
ATOM     13  C   UNL     1      52.917  13.685  27.759  1.00  0.00     0.016 A 
ATOM     14  C   UNL     1      53.973  13.029  28.398  1.00  0.00     0.051 A 
ATOM     15  C   UNL     1      53.884  11.663  28.691  1.00  0.00     0.157 A 
ATOM     16  C   UNL     1      51.667  11.611  27.706  1.00  0.00     0.062 A 
ATOM     17  C   UNL     1      52.724  10.952  28.345  1.00  0.00     0.158 A 
BRANCH  15  18
ATOM     18  O   UNL     1      54.940  11.012  29.327  1.00  0.00    -0.504 OA
ATOM     19  H   UNL     1      55.074  11.073  30.330  1.00  0.00     0.293 HD
ENDBRANCH  15  18
BRANCH  17  20
ATOM     20  O   UNL     1      52.602   9.591  28.627  1.00  0.00    -0.504 OA
ATOM     21  H   UNL     1      52.720   9.223  29.563  1.00  0.00     0.293 HD
ENDBRANCH  17  20
ENDBRANCH   1  12
BRANCH   6  22
ATOM     22  O   UNL     1      46.353  16.125  25.110  1.00  0.00    -0.507 OA
ATOM     23  H   UNL     1      45.773  16.819  24.667  1.00  0.00     0.293 HD
ENDBRANCH   6  22
BRANCH   8  24
ATOM     24  O   UNL     1      49.247  15.758  21.295  1.00  0.00    -0.508 OA
ATOM     25  H   UNL     1      49.668  16.626  20.985  1.00  0.00     0.293 HD
ENDBRANCH   8  24
TORSDOF 5
ENDMDL
