MODEL 1
REMARK VINA RESULT:    -2.162      0.000      0.000
REMARK INTER + INTRA:          -8.872
REMARK INTER:                  -5.447
REMARK INTRA:                  -3.424
REMARK UNBOUND:                -3.424
REMARK SMILES CCCCCCCCCCCCCCCCCCCCCCCCCCCC(=O)[O-]
REMARK SMILES IDX 15 1 16 2 17 3 18 4 19 5 20 6 21 7 22 8 23 9 24 10 25 11
REMARK SMILES IDX 26 12 27 13 28 14 29 15 30 16 14 17 13 18 12 19 11 20 10 21
REMARK SMILES IDX 9 22 8 23 7 24 6 25 5 26 4 27 3 28 2 29 1 30
REMARK H PARENT
REMARK Flexibility Score: inf
ROOT
ATOM      1  C   UNL     1     -24.576 -11.943   5.357  1.00  0.00     0.000 C 
ENDROOT
BRANCH   1   2
ATOM      2  C   UNL     1     -24.935 -12.776   4.118  1.00  0.00     0.000 C 
BRANCH   2   3
ATOM      3  C   UNL     1     -23.910 -13.899   3.901  1.00  0.00     0.000 C 
BRANCH   3   4
ATOM      4  C   UNL     1     -24.533 -15.302   4.002  1.00  0.00     0.000 C 
BRANCH   4   5
ATOM      5  C   UNL     1     -25.473 -15.503   5.208  1.00  0.00     0.000 C 
BRANCH   5   6
ATOM      6  C   UNL     1     -24.755 -15.427   6.573  1.00  0.00     0.000 C 
BRANCH   6   7
ATOM      7  C   UNL     1     -25.486 -14.502   7.563  1.00  0.00     0.000 C 
BRANCH   7   8
ATOM      8  C   UNL     1     -24.510 -13.642   8.392  1.00  0.00     0.000 C 
BRANCH   8   9
ATOM      9  C   UNL     1     -24.743 -13.726   9.910  1.00  0.00     0.000 C 
BRANCH   9  10
ATOM     10  C   UNL     1     -23.732 -14.635  10.623  1.00  0.00     0.000 C 
BRANCH  10  11
ATOM     11  C   UNL     1     -22.414 -14.711   9.843  1.00  0.00     0.000 C 
BRANCH  11  12
ATOM     12  C   UNL     1     -21.374 -13.747  10.425  1.00  0.00     0.006 C 
BRANCH  12  13
ATOM     13  C   UNL     1     -21.950 -12.334  10.559  1.00  0.00     0.053 C 
BRANCH  13  14
ATOM     14  C   UNL     1     -20.859 -11.347  10.832  1.00  0.00     0.041 C 
ATOM     15  O   UNL     1     -20.694 -10.893  11.996  1.00  0.00    -0.550 OA
ATOM     16  O   UNL     1     -20.058 -10.891   9.794  1.00  0.00    -0.550 OA
ENDBRANCH  13  14
ENDBRANCH  12  13
ENDBRANCH  11  12
ENDBRANCH  10  11
ENDBRANCH   9  10
ENDBRANCH   8   9
ENDBRANCH   7   8
ENDBRANCH   6   7
ENDBRANCH   5   6
ENDBRANCH   4   5
ENDBRANCH   3   4
ENDBRANCH   2   3
ENDBRANCH   1   2
BRANCH   1  17
ATOM     17  C   UNL     1     -24.065 -10.534   5.008  1.00  0.00     0.000 C 
BRANCH  17  18
ATOM     18  C   UNL     1     -22.828 -10.500   4.089  1.00  0.00     0.000 C 
BRANCH  18  19
ATOM     19  C   UNL     1     -21.611  -9.831   4.745  1.00  0.00     0.000 C 
BRANCH  19  20
ATOM     20  C   UNL     1     -22.043  -8.660   5.640  1.00  0.00     0.000 C 
BRANCH  20  21
ATOM     21  C   UNL     1     -21.482  -8.766   7.070  1.00  0.00     0.000 C 
BRANCH  21  22
ATOM     22  C   UNL     1     -22.532  -8.624   8.191  1.00  0.00    -0.000 C 
BRANCH  22  23
ATOM     23  C   UNL     1     -23.285  -9.920   8.551  1.00  0.00    -0.000 C 
BRANCH  23  24
ATOM     24  C   UNL     1     -24.819  -9.792   8.588  1.00  0.00    -0.000 C 
BRANCH  24  25
ATOM     25  C   UNL     1     -25.363  -8.846   7.503  1.00  0.00    -0.000 C 
BRANCH  25  26
ATOM     26  C   UNL     1     -26.399  -7.847   8.047  1.00  0.00    -0.000 C 
BRANCH  26  27
ATOM     27  C   UNL     1     -25.987  -7.119   9.342  1.00  0.00    -0.000 C 
BRANCH  27  28
ATOM     28  C   UNL     1     -25.370  -5.725   9.105  1.00  0.00    -0.000 C 
BRANCH  28  29
ATOM     29  C   UNL     1     -23.860  -5.797   8.828  1.00  0.00    -0.003 C 
ATOM     30  C   UNL     1     -23.493  -5.014   7.571  1.00  0.00     0.004 C 
ENDBRANCH  28  29
ENDBRANCH  27  28
ENDBRANCH  26  27
ENDBRANCH  25  26
ENDBRANCH  24  25
ENDBRANCH  23  24
ENDBRANCH  22  23
ENDBRANCH  21  22
ENDBRANCH  20  21
ENDBRANCH  19  20
ENDBRANCH  18  19
ENDBRANCH  17  18
ENDBRANCH   1  17
TORSDOF 26
ENDMDL
MODEL 2
REMARK VINA RESULT:    -1.919      2.189      7.014
REMARK INTER + INTRA:          -8.260
REMARK INTER:                  -4.687
REMARK INTRA:                  -3.573
REMARK UNBOUND:                -3.424
REMARK SMILES CCCCCCCCCCCCCCCCCCCCCCCCCCCC(=O)[O-]
REMARK SMILES IDX 15 1 16 2 17 3 18 4 19 5 20 6 21 7 22 8 23 9 24 10 25 11
REMARK SMILES IDX 26 12 27 13 28 14 29 15 30 16 14 17 13 18 12 19 11 20 10 21
REMARK SMILES IDX 9 22 8 23 7 24 6 25 5 26 4 27 3 28 2 29 1 30
REMARK H PARENT
REMARK Flexibility Score: inf
ROOT
ATOM      1  C   UNL     1     -24.628 -10.767   8.834  1.00  0.00     0.000 C 
ENDROOT
BRANCH   1   2
ATOM      2  C   UNL     1     -23.288 -11.384   9.262  1.00  0.00     0.000 C 
BRANCH   2   3
ATOM      3  C   UNL     1     -23.178 -11.438  10.793  1.00  0.00     0.000 C 
BRANCH   3   4
ATOM      4  C   UNL     1     -21.743 -11.709  11.277  1.00  0.00     0.000 C 
BRANCH   4   5
ATOM      5  C   UNL     1     -20.685 -11.759  10.157  1.00  0.00     0.000 C 
BRANCH   5   6
ATOM      6  C   UNL     1     -19.750 -10.530  10.133  1.00  0.00     0.000 C 
BRANCH   6   7
ATOM      7  C   UNL     1     -19.780  -9.804   8.776  1.00  0.00     0.000 C 
BRANCH   7   8
ATOM      8  C   UNL     1     -21.211  -9.403   8.358  1.00  0.00     0.000 C 
BRANCH   8   9
ATOM      9  C   UNL     1     -21.282  -8.670   7.007  1.00  0.00     0.000 C 
BRANCH   9  10
ATOM     10  C   UNL     1     -22.344  -7.563   6.980  1.00  0.00     0.000 C 
BRANCH  10  11
ATOM     11  C   UNL     1     -23.088  -7.481   8.318  1.00  0.00     0.000 C 
BRANCH  11  12
ATOM     12  C   UNL     1     -23.357  -6.023   8.710  1.00  0.00     0.006 C 
BRANCH  12  13
ATOM     13  C   UNL     1     -24.786  -5.611   8.347  1.00  0.00     0.053 C 
BRANCH  13  14
ATOM     14  C   UNL     1     -25.777  -6.504   9.026  1.00  0.00     0.041 C 
ATOM     15  O   UNL     1     -26.381  -7.393   8.369  1.00  0.00    -0.550 OA
ATOM     16  O   UNL     1     -26.071  -6.320  10.370  1.00  0.00    -0.550 OA
ENDBRANCH  13  14
ENDBRANCH  12  13
ENDBRANCH  11  12
ENDBRANCH  10  11
ENDBRANCH   9  10
ENDBRANCH   8   9
ENDBRANCH   7   8
ENDBRANCH   6   7
ENDBRANCH   5   6
ENDBRANCH   4   5
ENDBRANCH   3   4
ENDBRANCH   2   3
ENDBRANCH   1   2
BRANCH   1  17
ATOM     17  C   UNL     1     -24.631 -10.286   7.372  1.00  0.00     0.000 C 
BRANCH  17  18
ATOM     18  C   UNL     1     -23.808 -11.154   6.400  1.00  0.00     0.000 C 
BRANCH  18  19
ATOM     19  C   UNL     1     -23.625 -10.503   5.022  1.00  0.00     0.000 C 
BRANCH  19  20
ATOM     20  C   UNL     1     -23.617 -11.562   3.910  1.00  0.00     0.000 C 
BRANCH  20  21
ATOM     21  C   UNL     1     -24.538 -12.756   4.219  1.00  0.00     0.000 C 
BRANCH  21  22
ATOM     22  C   UNL     1     -23.946 -14.139   3.878  1.00  0.00    -0.000 C 
BRANCH  22  23
ATOM     23  C   UNL     1     -24.620 -15.332   4.586  1.00  0.00    -0.000 C 
BRANCH  23  24
ATOM     24  C   UNL     1     -25.701 -14.953   5.614  1.00  0.00    -0.000 C 
BRANCH  24  25
ATOM     25  C   UNL     1     -25.337 -15.384   7.045  1.00  0.00    -0.000 C 
BRANCH  25  26
ATOM     26  C   UNL     1     -24.545 -14.310   7.809  1.00  0.00    -0.000 C 
BRANCH  26  27
ATOM     27  C   UNL     1     -24.730 -14.327   9.340  1.00  0.00    -0.000 C 
BRANCH  27  28
ATOM     28  C   UNL     1     -23.597 -15.050  10.097  1.00  0.00    -0.000 C 
BRANCH  28  29
ATOM     29  C   UNL     1     -22.218 -14.785   9.472  1.00  0.00    -0.003 C 
ATOM     30  C   UNL     1     -21.118 -15.523  10.230  1.00  0.00     0.004 C 
ENDBRANCH  28  29
ENDBRANCH  27  28
ENDBRANCH  26  27
ENDBRANCH  25  26
ENDBRANCH  24  25
ENDBRANCH  23  24
ENDBRANCH  22  23
ENDBRANCH  21  22
ENDBRANCH  20  21
ENDBRANCH  19  20
ENDBRANCH  18  19
ENDBRANCH  17  18
ENDBRANCH   1  17
TORSDOF 26
ENDMDL
MODEL 3
REMARK VINA RESULT:    -1.779      2.007      6.825
REMARK INTER + INTRA:          -7.908
REMARK INTER:                  -5.819
REMARK INTRA:                  -2.089
REMARK UNBOUND:                -3.424
REMARK SMILES CCCCCCCCCCCCCCCCCCCCCCCCCCCC(=O)[O-]
REMARK SMILES IDX 15 1 16 2 17 3 18 4 19 5 20 6 21 7 22 8 23 9 24 10 25 11
REMARK SMILES IDX 26 12 27 13 28 14 29 15 30 16 14 17 13 18 12 19 11 20 10 21
REMARK SMILES IDX 9 22 8 23 7 24 6 25 5 26 4 27 3 28 2 29 1 30
REMARK H PARENT
REMARK Flexibility Score: inf
ROOT
ATOM      1  C   UNL     1     -20.585 -10.119   8.370  1.00  0.00     0.000 C 
ENDROOT
BRANCH   1   2
ATOM      2  C   UNL     1     -21.564  -8.936   8.347  1.00  0.00     0.000 C 
BRANCH   2   3
ATOM      3  C   UNL     1     -21.644  -8.324   6.941  1.00  0.00     0.000 C 
BRANCH   3   4
ATOM      4  C   UNL     1     -21.421  -9.361   5.827  1.00  0.00     0.000 C 
BRANCH   4   5
ATOM      5  C   UNL     1     -22.434  -9.288   4.667  1.00  0.00     0.000 C 
BRANCH   5   6
ATOM      6  C   UNL     1     -22.940 -10.669   4.198  1.00  0.00     0.000 C 
BRANCH   6   7
ATOM      7  C   UNL     1     -23.981 -11.264   5.164  1.00  0.00     0.000 C 
BRANCH   7   8
ATOM      8  C   UNL     1     -24.474 -10.233   6.201  1.00  0.00     0.000 C 
BRANCH   8   9
ATOM      9  C   UNL     1     -24.484 -10.760   7.646  1.00  0.00     0.000 C 
BRANCH   9  10
ATOM     10  C   UNL     1     -24.650  -9.647   8.690  1.00  0.00     0.000 C 
BRANCH  10  11
ATOM     11  C   UNL     1     -25.554  -8.527   8.161  1.00  0.00     0.000 C 
BRANCH  11  12
ATOM     12  C   UNL     1     -25.708  -7.409   9.200  1.00  0.00     0.006 C 
BRANCH  12  13
ATOM     13  C   UNL     1     -25.553  -6.032   8.550  1.00  0.00     0.053 C 
BRANCH  13  14
ATOM     14  C   UNL     1     -24.106  -5.677   8.411  1.00  0.00     0.041 C 
ATOM     15  O   UNL     1     -23.241  -6.267   9.111  1.00  0.00    -0.550 OA
ATOM     16  O   UNL     1     -23.719  -4.662   7.547  1.00  0.00    -0.550 OA
ENDBRANCH  13  14
ENDBRANCH  12  13
ENDBRANCH  11  12
ENDBRANCH  10  11
ENDBRANCH   9  10
ENDBRANCH   8   9
ENDBRANCH   7   8
ENDBRANCH   6   7
ENDBRANCH   5   6
ENDBRANCH   4   5
ENDBRANCH   3   4
ENDBRANCH   2   3
ENDBRANCH   1   2
BRANCH   1  17
ATOM     17  C   UNL     1     -19.705 -10.148   9.634  1.00  0.00     0.000 C 
BRANCH  17  18
ATOM     18  C   UNL     1     -20.169 -11.132  10.726  1.00  0.00     0.000 C 
BRANCH  18  19
ATOM     19  C   UNL     1     -21.352 -12.006  10.284  1.00  0.00     0.000 C 
BRANCH  19  20
ATOM     20  C   UNL     1     -22.646 -11.579  10.994  1.00  0.00     0.000 C 
BRANCH  20  21
ATOM     21  C   UNL     1     -23.823 -12.530  10.708  1.00  0.00     0.000 C 
BRANCH  21  22
ATOM     22  C   UNL     1     -23.554 -14.012  11.035  1.00  0.00    -0.000 C 
BRANCH  22  23
ATOM     23  C   UNL     1     -22.732 -14.777   9.978  1.00  0.00    -0.000 C 
BRANCH  23  24
ATOM     24  C   UNL     1     -23.544 -15.313   8.784  1.00  0.00    -0.000 C 
BRANCH  24  25
ATOM     25  C   UNL     1     -24.714 -14.391   8.401  1.00  0.00    -0.000 C 
BRANCH  25  26
ATOM     26  C   UNL     1     -24.920 -14.289   6.880  1.00  0.00    -0.000 C 
BRANCH  26  27
ATOM     27  C   UNL     1     -25.384 -15.590   6.195  1.00  0.00    -0.000 C 
BRANCH  27  28
ATOM     28  C   UNL     1     -24.921 -15.722   4.729  1.00  0.00    -0.000 C 
BRANCH  28  29
ATOM     29  C   UNL     1     -24.708 -14.354   4.061  1.00  0.00    -0.003 C 
ATOM     30  C   UNL     1     -26.030 -13.608   3.900  1.00  0.00     0.004 C 
ENDBRANCH  28  29
ENDBRANCH  27  28
ENDBRANCH  26  27
ENDBRANCH  25  26
ENDBRANCH  24  25
ENDBRANCH  23  24
ENDBRANCH  22  23
ENDBRANCH  21  22
ENDBRANCH  20  21
ENDBRANCH  19  20
ENDBRANCH  18  19
ENDBRANCH  17  18
ENDBRANCH   1  17
TORSDOF 26
ENDMDL
MODEL 4
REMARK VINA RESULT:    -1.692      0.923      2.274
REMARK INTER + INTRA:          -7.689
REMARK INTER:                  -5.912
REMARK INTRA:                  -1.777
REMARK UNBOUND:                -3.424
REMARK SMILES CCCCCCCCCCCCCCCCCCCCCCCCCCCC(=O)[O-]
REMARK SMILES IDX 15 1 16 2 17 3 18 4 19 5 20 6 21 7 22 8 23 9 24 10 25 11
REMARK SMILES IDX 26 12 27 13 28 14 29 15 30 16 14 17 13 18 12 19 11 20 10 21
REMARK SMILES IDX 9 22 8 23 7 24 6 25 5 26 4 27 3 28 2 29 1 30
REMARK H PARENT
REMARK Flexibility Score: inf
ROOT
ATOM      1  C   UNL     1     -24.016 -14.383   3.877  1.00  0.00     0.000 C 
ENDROOT
BRANCH   1   2
ATOM      2  C   UNL     1     -25.356 -14.641   4.582  1.00  0.00     0.000 C 
BRANCH   2   3
ATOM      3  C   UNL     1     -25.165 -15.572   5.789  1.00  0.00     0.000 C 
BRANCH   3   4
ATOM      4  C   UNL     1     -25.401 -14.860   7.132  1.00  0.00     0.000 C 
BRANCH   4   5
ATOM      5  C   UNL     1     -24.486 -13.646   7.387  1.00  0.00     0.000 C 
BRANCH   5   6
ATOM      6  C   UNL     1     -24.408 -13.230   8.872  1.00  0.00     0.000 C 
BRANCH   6   7
ATOM      7  C   UNL     1     -24.793 -14.382   9.819  1.00  0.00     0.000 C 
BRANCH   7   8
ATOM      8  C   UNL     1     -23.586 -14.905  10.627  1.00  0.00     0.000 C 
BRANCH   8   9
ATOM      9  C   UNL     1     -22.246 -14.801   9.879  1.00  0.00     0.000 C 
BRANCH   9  10
ATOM     10  C   UNL     1     -21.465 -13.525  10.223  1.00  0.00     0.000 C 
BRANCH  10  11
ATOM     11  C   UNL     1     -22.370 -12.491  10.903  1.00  0.00     0.000 C 
BRANCH  11  12
ATOM     12  C   UNL     1     -21.617 -11.178  11.149  1.00  0.00     0.006 C 
BRANCH  12  13
ATOM     13  C   UNL     1     -20.118 -11.348  10.887  1.00  0.00     0.053 C 
BRANCH  13  14
ATOM     14  C   UNL     1     -19.694 -10.522   9.714  1.00  0.00     0.041 C 
ATOM     15  O   UNL     1     -20.320 -10.603   8.624  1.00  0.00    -0.550 OA
ATOM     16  O   UNL     1     -18.578  -9.700   9.809  1.00  0.00    -0.550 OA
ENDBRANCH  13  14
ENDBRANCH  12  13
ENDBRANCH  11  12
ENDBRANCH  10  11
ENDBRANCH   9  10
ENDBRANCH   8   9
ENDBRANCH   7   8
ENDBRANCH   6   7
ENDBRANCH   5   6
ENDBRANCH   4   5
ENDBRANCH   3   4
ENDBRANCH   2   3
ENDBRANCH   1   2
BRANCH   1  17
ATOM     17  C   UNL     1     -23.610 -12.898   3.878  1.00  0.00     0.000 C 
BRANCH  17  18
ATOM     18  C   UNL     1     -24.639 -11.943   4.514  1.00  0.00     0.000 C 
BRANCH  18  19
ATOM     19  C   UNL     1     -24.002 -10.668   5.085  1.00  0.00     0.000 C 
BRANCH  19  20
ATOM     20  C   UNL     1     -22.683 -10.345   4.369  1.00  0.00     0.000 C 
BRANCH  20  21
ATOM     21  C   UNL     1     -21.833  -9.308   5.127  1.00  0.00     0.000 C 
BRANCH  21  22
ATOM     22  C   UNL     1     -22.592  -8.511   6.207  1.00  0.00    -0.000 C 
BRANCH  22  23
ATOM     23  C   UNL     1     -22.246  -8.888   7.662  1.00  0.00    -0.000 C 
BRANCH  23  24
ATOM     24  C   UNL     1     -23.366  -9.615   8.429  1.00  0.00    -0.000 C 
BRANCH  24  25
ATOM     25  C   UNL     1     -24.721  -9.550   7.705  1.00  0.00    -0.000 C 
BRANCH  25  26
ATOM     26  C   UNL     1     -25.779  -8.752   8.487  1.00  0.00    -0.000 C 
BRANCH  26  27
ATOM     27  C   UNL     1     -25.868  -7.256   8.124  1.00  0.00    -0.000 C 
BRANCH  27  28
ATOM     28  C   UNL     1     -25.298  -6.317   9.208  1.00  0.00    -0.000 C 
BRANCH  28  29
ATOM     29  C   UNL     1     -23.817  -5.985   8.971  1.00  0.00    -0.003 C 
ATOM     30  C   UNL     1     -23.640  -5.111   7.732  1.00  0.00     0.004 C 
ENDBRANCH  28  29
ENDBRANCH  27  28
ENDBRANCH  26  27
ENDBRANCH  25  26
ENDBRANCH  24  25
ENDBRANCH  23  24
ENDBRANCH  22  23
ENDBRANCH  21  22
ENDBRANCH  20  21
ENDBRANCH  19  20
ENDBRANCH  18  19
ENDBRANCH  17  18
ENDBRANCH   1  17
TORSDOF 26
ENDMDL
MODEL 5
REMARK VINA RESULT:    -1.505      1.687      4.462
REMARK INTER + INTRA:          -7.216
REMARK INTER:                  -4.376
REMARK INTRA:                  -2.840
REMARK UNBOUND:                -3.424
REMARK SMILES CCCCCCCCCCCCCCCCCCCCCCCCCCCC(=O)[O-]
REMARK SMILES IDX 15 1 16 2 17 3 18 4 19 5 20 6 21 7 22 8 23 9 24 10 25 11
REMARK SMILES IDX 26 12 27 13 28 14 29 15 30 16 14 17 13 18 12 19 11 20 10 21
REMARK SMILES IDX 9 22 8 23 7 24 6 25 5 26 4 27 3 28 2 29 1 30
REMARK H PARENT
REMARK Flexibility Score: inf
ROOT
ATOM      1  C   UNL     1     -21.299  -8.608   8.301  1.00  0.00     0.000 C 
ENDROOT
BRANCH   1   2
ATOM      2  C   UNL     1     -22.056  -8.137   7.051  1.00  0.00     0.000 C 
BRANCH   2   3
ATOM      3  C   UNL     1     -21.637  -8.956   5.821  1.00  0.00     0.000 C 
BRANCH   3   4
ATOM      4  C   UNL     1     -22.801  -9.763   5.219  1.00  0.00     0.000 C 
BRANCH   4   5
ATOM      5  C   UNL     1     -22.435 -10.583   3.966  1.00  0.00     0.000 C 
BRANCH   5   6
ATOM      6  C   UNL     1     -23.171 -11.937   3.875  1.00  0.00     0.000 C 
BRANCH   6   7
ATOM      7  C   UNL     1     -24.267 -12.075   4.947  1.00  0.00     0.000 C 
BRANCH   7   8
ATOM      8  C   UNL     1     -25.276 -13.194   4.613  1.00  0.00     0.000 C 
BRANCH   8   9
ATOM      9  C   UNL     1     -24.647 -14.596   4.540  1.00  0.00     0.000 C 
BRANCH   9  10
ATOM     10  C   UNL     1     -25.093 -15.513   5.687  1.00  0.00     0.000 C 
BRANCH  10  11
ATOM     11  C   UNL     1     -25.966 -14.754   6.693  1.00  0.00     0.000 C 
BRANCH  11  12
ATOM     12  C   UNL     1     -25.423 -14.910   8.119  1.00  0.00     0.006 C 
BRANCH  12  13
ATOM     13  C   UNL     1     -23.958 -14.473   8.200  1.00  0.00     0.053 C 
BRANCH  13  14
ATOM     14  C   UNL     1     -23.353 -14.905   9.498  1.00  0.00     0.041 C 
ATOM     15  O   UNL     1     -24.061 -14.961  10.539  1.00  0.00    -0.550 OA
ATOM     16  O   UNL     1     -21.997 -15.196   9.571  1.00  0.00    -0.550 OA
ENDBRANCH  13  14
ENDBRANCH  12  13
ENDBRANCH  11  12
ENDBRANCH  10  11
ENDBRANCH   9  10
ENDBRANCH   8   9
ENDBRANCH   7   8
ENDBRANCH   6   7
ENDBRANCH   5   6
ENDBRANCH   4   5
ENDBRANCH   3   4
ENDBRANCH   2   3
ENDBRANCH   1   2
BRANCH   1  17
ATOM     17  C   UNL     1     -20.359  -9.796   8.025  1.00  0.00     0.000 C 
BRANCH  17  18
ATOM     18  C   UNL     1     -19.380 -10.130   9.167  1.00  0.00     0.000 C 
BRANCH  18  19
ATOM     19  C   UNL     1     -20.089 -10.556  10.461  1.00  0.00     0.000 C 
BRANCH  19  20
ATOM     20  C   UNL     1     -20.917 -11.831  10.240  1.00  0.00     0.000 C 
BRANCH  20  21
ATOM     21  C   UNL     1     -22.072 -11.973  11.248  1.00  0.00     0.000 C 
BRANCH  21  22
ATOM     22  C   UNL     1     -23.482 -11.799  10.649  1.00  0.00    -0.000 C 
BRANCH  22  23
ATOM     23  C   UNL     1     -23.528 -11.102   9.274  1.00  0.00    -0.000 C 
BRANCH  23  24
ATOM     24  C   UNL     1     -24.909 -10.556   8.866  1.00  0.00    -0.000 C 
BRANCH  24  25
ATOM     25  C   UNL     1     -24.863  -9.735   7.566  1.00  0.00    -0.000 C 
BRANCH  25  26
ATOM     26  C   UNL     1     -25.607  -8.394   7.680  1.00  0.00    -0.000 C 
BRANCH  26  27
ATOM     27  C   UNL     1     -25.661  -7.796   9.100  1.00  0.00    -0.000 C 
BRANCH  27  28
ATOM     28  C   UNL     1     -26.084  -6.312   9.136  1.00  0.00    -0.000 C 
BRANCH  28  29
ATOM     29  C   UNL     1     -24.980  -5.381   8.610  1.00  0.00    -0.003 C 
ATOM     30  C   UNL     1     -23.604  -6.025   8.747  1.00  0.00     0.004 C 
ENDBRANCH  28  29
ENDBRANCH  27  28
ENDBRANCH  26  27
ENDBRANCH  25  26
ENDBRANCH  24  25
ENDBRANCH  23  24
ENDBRANCH  22  23
ENDBRANCH  21  22
ENDBRANCH  20  21
ENDBRANCH  19  20
ENDBRANCH  18  19
ENDBRANCH  17  18
ENDBRANCH   1  17
TORSDOF 26
ENDMDL
MODEL 6
REMARK VINA RESULT:    -1.305      1.013      4.353
REMARK INTER + INTRA:          -6.713
REMARK INTER:                  -5.284
REMARK INTRA:                  -1.429
REMARK UNBOUND:                -3.424
REMARK SMILES CCCCCCCCCCCCCCCCCCCCCCCCCCCC(=O)[O-]
REMARK SMILES IDX 15 1 16 2 17 3 18 4 19 5 20 6 21 7 22 8 23 9 24 10 25 11
REMARK SMILES IDX 26 12 27 13 28 14 29 15 30 16 14 17 13 18 12 19 11 20 10 21
REMARK SMILES IDX 9 22 8 23 7 24 6 25 5 26 4 27 3 28 2 29 1 30
REMARK H PARENT
REMARK Flexibility Score: inf
ROOT
ATOM      1  C   UNL     1     -25.028 -15.116   7.706  1.00  0.00     0.000 C 
ENDROOT
BRANCH   1   2
ATOM      2  C   UNL     1     -24.868 -14.363   6.377  1.00  0.00     0.000 C 
BRANCH   2   3
ATOM      3  C   UNL     1     -25.187 -15.283   5.189  1.00  0.00     0.000 C 
BRANCH   3   4
ATOM      4  C   UNL     1     -24.529 -14.813   3.880  1.00  0.00     0.000 C 
BRANCH   4   5
ATOM      5  C   UNL     1     -23.731 -13.500   3.996  1.00  0.00     0.000 C 
BRANCH   5   6
ATOM      6  C   UNL     1     -24.620 -12.244   4.124  1.00  0.00     0.000 C 
BRANCH   6   7
ATOM      7  C   UNL     1     -23.922 -11.116   4.905  1.00  0.00     0.000 C 
BRANCH   7   8
ATOM      8  C   UNL     1     -22.768 -10.476   4.105  1.00  0.00     0.000 C 
BRANCH   8   9
ATOM      9  C   UNL     1     -21.692  -9.817   4.985  1.00  0.00     0.000 C 
BRANCH   9  10
ATOM     10  C   UNL     1     -22.140  -8.472   5.573  1.00  0.00     0.000 C 
BRANCH  10  11
ATOM     11  C   UNL     1     -22.033  -8.476   7.102  1.00  0.00     0.000 C 
BRANCH  11  12
ATOM     12  C   UNL     1     -20.875  -9.367   7.569  1.00  0.00     0.006 C 
BRANCH  12  13
ATOM     13  C   UNL     1     -21.090  -9.834   9.012  1.00  0.00     0.053 C 
BRANCH  13  14
ATOM     14  C   UNL     1     -19.784 -10.202   9.644  1.00  0.00     0.041 C 
ATOM     15  O   UNL     1     -18.705  -9.756   9.172  1.00  0.00    -0.550 OA
ATOM     16  O   UNL     1     -19.755 -11.077  10.721  1.00  0.00    -0.550 OA
ENDBRANCH  13  14
ENDBRANCH  12  13
ENDBRANCH  11  12
ENDBRANCH  10  11
ENDBRANCH   9  10
ENDBRANCH   8   9
ENDBRANCH   7   8
ENDBRANCH   6   7
ENDBRANCH   5   6
ENDBRANCH   4   5
ENDBRANCH   3   4
ENDBRANCH   2   3
ENDBRANCH   1   2
BRANCH   1  17
ATOM     17  C   UNL     1     -24.699 -14.249   8.934  1.00  0.00     0.000 C 
BRANCH  17  18
ATOM     18  C   UNL     1     -24.008 -14.996  10.091  1.00  0.00     0.000 C 
BRANCH  18  19
ATOM     19  C   UNL     1     -22.479 -15.032   9.955  1.00  0.00     0.000 C 
BRANCH  19  20
ATOM     20  C   UNL     1     -21.911 -13.618   9.754  1.00  0.00     0.000 C 
BRANCH  20  21
ATOM     21  C   UNL     1     -22.214 -12.682  10.938  1.00  0.00     0.000 C 
BRANCH  21  22
ATOM     22  C   UNL     1     -23.587 -11.983  10.880  1.00  0.00    -0.000 C 
BRANCH  22  23
ATOM     23  C   UNL     1     -23.680 -10.804   9.889  1.00  0.00    -0.000 C 
BRANCH  23  24
ATOM     24  C   UNL     1     -24.307 -11.148   8.526  1.00  0.00    -0.000 C 
BRANCH  24  25
ATOM     25  C   UNL     1     -24.920  -9.922   7.828  1.00  0.00    -0.000 C 
BRANCH  25  26
ATOM     26  C   UNL     1     -24.870  -8.653   8.697  1.00  0.00    -0.000 C 
BRANCH  26  27
ATOM     27  C   UNL     1     -26.117  -7.751   8.608  1.00  0.00    -0.000 C 
BRANCH  27  28
ATOM     28  C   UNL     1     -25.813  -6.248   8.783  1.00  0.00    -0.000 C 
BRANCH  28  29
ATOM     29  C   UNL     1     -24.332  -5.987   9.098  1.00  0.00    -0.003 C 
ATOM     30  C   UNL     1     -23.640  -5.272   7.941  1.00  0.00     0.004 C 
ENDBRANCH  28  29
ENDBRANCH  27  28
ENDBRANCH  26  27
ENDBRANCH  25  26
ENDBRANCH  24  25
ENDBRANCH  23  24
ENDBRANCH  22  23
ENDBRANCH  21  22
ENDBRANCH  20  21
ENDBRANCH  19  20
ENDBRANCH  18  19
ENDBRANCH  17  18
ENDBRANCH   1  17
TORSDOF 26
ENDMDL
MODEL 7
REMARK VINA RESULT:    -1.193      1.745      4.540
REMARK INTER + INTRA:          -6.431
REMARK INTER:                  -4.426
REMARK INTRA:                  -2.005
REMARK UNBOUND:                -3.424
REMARK SMILES CCCCCCCCCCCCCCCCCCCCCCCCCCCC(=O)[O-]
REMARK SMILES IDX 15 1 16 2 17 3 18 4 19 5 20 6 21 7 22 8 23 9 24 10 25 11
REMARK SMILES IDX 26 12 27 13 28 14 29 15 30 16 14 17 13 18 12 19 11 20 10 21
REMARK SMILES IDX 9 22 8 23 7 24 6 25 5 26 4 27 3 28 2 29 1 30
REMARK H PARENT
REMARK Flexibility Score: inf
ROOT
ATOM      1  C   UNL     1     -24.237 -11.555   9.430  1.00  0.00     0.000 C 
ENDROOT
BRANCH   1   2
ATOM      2  C   UNL     1     -24.117 -10.191   8.734  1.00  0.00     0.000 C 
BRANCH   2   3
ATOM      3  C   UNL     1     -24.811 -10.216   7.364  1.00  0.00     0.000 C 
BRANCH   3   4
ATOM      4  C   UNL     1     -24.220 -11.275   6.418  1.00  0.00     0.000 C 
BRANCH   4   5
ATOM      5  C   UNL     1     -23.563 -10.706   5.145  1.00  0.00     0.000 C 
BRANCH   5   6
ATOM      6  C   UNL     1     -23.849 -11.537   3.875  1.00  0.00     0.000 C 
BRANCH   6   7
ATOM      7  C   UNL     1     -23.583 -13.038   4.092  1.00  0.00     0.000 C 
BRANCH   7   8
ATOM      8  C   UNL     1     -24.881 -13.874   4.062  1.00  0.00     0.000 C 
BRANCH   8   9
ATOM      9  C   UNL     1     -24.649 -15.386   4.219  1.00  0.00     0.000 C 
BRANCH   9  10
ATOM     10  C   UNL     1     -25.108 -15.925   5.581  1.00  0.00     0.000 C 
BRANCH  10  11
ATOM     11  C   UNL     1     -25.683 -14.802   6.452  1.00  0.00     0.000 C 
BRANCH  11  12
ATOM     12  C   UNL     1     -25.315 -15.007   7.927  1.00  0.00     0.006 C 
BRANCH  12  13
ATOM     13  C   UNL     1     -23.958 -14.373   8.247  1.00  0.00     0.053 C 
BRANCH  13  14
ATOM     14  C   UNL     1     -23.394 -14.949   9.508  1.00  0.00     0.041 C 
ATOM     15  O   UNL     1     -24.098 -14.995  10.552  1.00  0.00    -0.550 OA
ATOM     16  O   UNL     1     -22.078 -15.389   9.544  1.00  0.00    -0.550 OA
ENDBRANCH  13  14
ENDBRANCH  12  13
ENDBRANCH  11  12
ENDBRANCH  10  11
ENDBRANCH   9  10
ENDBRANCH   8   9
ENDBRANCH   7   8
ENDBRANCH   6   7
ENDBRANCH   5   6
ENDBRANCH   4   5
ENDBRANCH   3   4
ENDBRANCH   2   3
ENDBRANCH   1   2
BRANCH   1  17
ATOM     17  C   UNL     1     -23.374 -11.662  10.700  1.00  0.00     0.000 C 
BRANCH  17  18
ATOM     18  C   UNL     1     -21.921 -12.120  10.461  1.00  0.00     0.000 C 
BRANCH  18  19
ATOM     19  C   UNL     1     -20.886 -11.204  11.129  1.00  0.00     0.000 C 
BRANCH  19  20
ATOM     20  C   UNL     1     -19.841 -10.721  10.112  1.00  0.00     0.000 C 
BRANCH  20  21
ATOM     21  C   UNL     1     -20.443 -10.462   8.719  1.00  0.00     0.000 C 
BRANCH  21  22
ATOM     22  C   UNL     1     -20.705  -8.978   8.390  1.00  0.00    -0.000 C 
BRANCH  22  23
ATOM     23  C   UNL     1     -21.270  -8.710   6.981  1.00  0.00    -0.000 C 
BRANCH  23  24
ATOM     24  C   UNL     1     -22.452  -7.724   6.930  1.00  0.00    -0.000 C 
BRANCH  24  25
ATOM     25  C   UNL     1     -23.080  -7.478   8.313  1.00  0.00    -0.000 C 
BRANCH  25  26
ATOM     26  C   UNL     1     -23.314  -5.987   8.606  1.00  0.00    -0.000 C 
BRANCH  26  27
ATOM     27  C   UNL     1     -24.764  -5.502   8.411  1.00  0.00    -0.000 C 
BRANCH  27  28
ATOM     28  C   UNL     1     -25.792  -6.237   9.297  1.00  0.00    -0.000 C 
BRANCH  28  29
ATOM     29  C   UNL     1     -26.216  -7.587   8.698  1.00  0.00    -0.003 C 
ATOM     30  C   UNL     1     -27.478  -7.442   7.851  1.00  0.00     0.004 C 
ENDBRANCH  28  29
ENDBRANCH  27  28
ENDBRANCH  26  27
ENDBRANCH  25  26
ENDBRANCH  24  25
ENDBRANCH  23  24
ENDBRANCH  22  23
ENDBRANCH  21  22
ENDBRANCH  20  21
ENDBRANCH  19  20
ENDBRANCH  18  19
ENDBRANCH  17  18
ENDBRANCH   1  17
TORSDOF 26
ENDMDL
MODEL 8
REMARK VINA RESULT:    -1.014      2.526      7.014
REMARK INTER + INTRA:          -5.979
REMARK INTER:                  -4.678
REMARK INTRA:                  -1.301
REMARK UNBOUND:                -3.424
REMARK SMILES CCCCCCCCCCCCCCCCCCCCCCCCCCCC(=O)[O-]
REMARK SMILES IDX 15 1 16 2 17 3 18 4 19 5 20 6 21 7 22 8 23 9 24 10 25 11
REMARK SMILES IDX 26 12 27 13 28 14 29 15 30 16 14 17 13 18 12 19 11 20 10 21
REMARK SMILES IDX 9 22 8 23 7 24 6 25 5 26 4 27 3 28 2 29 1 30
REMARK H PARENT
REMARK Flexibility Score: inf
ROOT
ATOM      1  C   UNL     1     -26.697  -6.857   8.577  1.00  0.00     0.000 C 
ENDROOT
BRANCH   1   2
ATOM      2  C   UNL     1     -25.382  -6.752   9.363  1.00  0.00     0.000 C 
BRANCH   2   3
ATOM      3  C   UNL     1     -24.482  -5.656   8.773  1.00  0.00     0.000 C 
BRANCH   3   4
ATOM      4  C   UNL     1     -23.055  -6.150   8.483  1.00  0.00     0.000 C 
BRANCH   4   5
ATOM      5  C   UNL     1     -22.961  -7.625   8.045  1.00  0.00     0.000 C 
BRANCH   5   6
ATOM      6  C   UNL     1     -21.968  -7.866   6.887  1.00  0.00     0.000 C 
BRANCH   6   7
ATOM      7  C   UNL     1     -22.133  -9.264   6.263  1.00  0.00     0.000 C 
BRANCH   7   8
ATOM      8  C   UNL     1     -21.692  -9.300   4.784  1.00  0.00     0.000 C 
BRANCH   8   9
ATOM      9  C   UNL     1     -22.317 -10.451   3.978  1.00  0.00     0.000 C 
BRANCH   9  10
ATOM     10  C   UNL     1     -23.607 -10.994   4.610  1.00  0.00     0.000 C 
BRANCH  10  11
ATOM     11  C   UNL     1     -24.000 -12.340   3.990  1.00  0.00     0.000 C 
BRANCH  11  12
ATOM     12  C   UNL     1     -24.653 -13.256   5.033  1.00  0.00     0.006 C 
BRANCH  12  13
ATOM     13  C   UNL     1     -25.524 -14.320   4.360  1.00  0.00     0.053 C 
BRANCH  13  14
ATOM     14  C   UNL     1     -25.435 -15.616   5.102  1.00  0.00     0.041 C 
ATOM     15  O   UNL     1     -24.758 -16.569   4.632  1.00  0.00    -0.550 OA
ATOM     16  O   UNL     1     -26.140 -15.790   6.286  1.00  0.00    -0.550 OA
ENDBRANCH  13  14
ENDBRANCH  12  13
ENDBRANCH  11  12
ENDBRANCH  10  11
ENDBRANCH   9  10
ENDBRANCH   8   9
ENDBRANCH   7   8
ENDBRANCH   6   7
ENDBRANCH   5   6
ENDBRANCH   4   5
ENDBRANCH   3   4
ENDBRANCH   2   3
ENDBRANCH   1   2
BRANCH   1  17
ATOM     17  C   UNL     1     -26.723  -8.048   7.603  1.00  0.00     0.000 C 
BRANCH  17  18
ATOM     18  C   UNL     1     -25.455  -8.924   7.612  1.00  0.00     0.000 C 
BRANCH  18  19
ATOM     19  C   UNL     1     -25.319  -9.769   8.888  1.00  0.00     0.000 C 
BRANCH  19  20
ATOM     20  C   UNL     1     -24.142 -10.749   8.775  1.00  0.00     0.000 C 
BRANCH  20  21
ATOM     21  C   UNL     1     -24.542 -12.089   8.131  1.00  0.00     0.000 C 
BRANCH  21  22
ATOM     22  C   UNL     1     -24.737 -13.254   9.122  1.00  0.00    -0.000 C 
BRANCH  22  23
ATOM     23  C   UNL     1     -23.852 -14.490   8.862  1.00  0.00    -0.000 C 
BRANCH  23  24
ATOM     24  C   UNL     1     -22.455 -14.438   9.506  1.00  0.00    -0.000 C 
BRANCH  24  25
ATOM     25  C   UNL     1     -22.493 -13.974  10.972  1.00  0.00    -0.000 C 
BRANCH  25  26
ATOM     26  C   UNL     1     -22.955 -12.515  11.125  1.00  0.00    -0.000 C 
BRANCH  26  27
ATOM     27  C   UNL     1     -21.840 -11.511  11.480  1.00  0.00    -0.000 C 
BRANCH  27  28
ATOM     28  C   UNL     1     -20.541 -11.711  10.672  1.00  0.00    -0.000 C 
BRANCH  28  29
ATOM     29  C   UNL     1     -20.579 -10.983   9.319  1.00  0.00    -0.003 C 
ATOM     30  C   UNL     1     -19.370 -10.068   9.151  1.00  0.00     0.004 C 
ENDBRANCH  28  29
ENDBRANCH  27  28
ENDBRANCH  26  27
ENDBRANCH  25  26
ENDBRANCH  24  25
ENDBRANCH  23  24
ENDBRANCH  22  23
ENDBRANCH  21  22
ENDBRANCH  20  21
ENDBRANCH  19  20
ENDBRANCH  18  19
ENDBRANCH  17  18
ENDBRANCH   1  17
TORSDOF 26
ENDMDL
