MODEL 1
REMARK VINA RESULT:    31.331      0.000      0.000
REMARK INTER + INTRA:          49.327
REMARK INTER:                  41.405
REMARK INTRA:                   7.922
REMARK UNBOUND:                 7.922
REMARK SMILES CC[C@H](C=C[C@H](C)[C@H]1CC[C@H]2C3=CC[C@H]4C[C@H](O)CC[C@@]4(C)[C@H]3CC[C@]12C)C(C)C
REMARK SMILES IDX 6 1 7 2 5 3 4 4 3 5 2 6 1 7 28 8 29 9 30 10 8 11 9 12 26 13
REMARK SMILES IDX 10 14 11 15 25 16 27 17 12 18 24 19 23 20 13 21 21 22 14 23
REMARK SMILES IDX 15 24 20 25 22 26 16 27 19 28 17 29 18 30
REMARK H PARENT 18 31
REMARK Flexibility Score: inf
ROOT
ATOM      1  C   UNL     1      -0.597  47.103  49.775  1.00  0.00     0.012 C 
ATOM      2  C   UNL     1      -1.125  47.637  51.131  1.00  0.00     0.012 C 
ENDROOT
BRANCH   1   3
ATOM      3  C   UNL     1       0.698  47.803  49.416  1.00  0.00    -0.028 C 
ATOM      4  C   UNL     1       1.428  47.468  48.335  1.00  0.00    -0.027 C 
BRANCH   4   5
ATOM      5  C   UNL     1       2.765  48.124  48.038  1.00  0.00     0.014 C 
BRANCH   5   6
ATOM      6  C   UNL     1       3.642  48.101  49.317  1.00  0.00     0.004 C 
ATOM      7  C   UNL     1       2.842  47.969  50.619  1.00  0.00     0.004 C 
ENDBRANCH   5   6
BRANCH   5   8
ATOM      8  C   UNL     1       3.457  47.486  46.790  1.00  0.00    -0.011 C 
ATOM      9  C   UNL     1       3.188  45.972  46.691  1.00  0.00     0.008 C 
ATOM     10  C   UNL     1       4.981  47.712  46.810  1.00  0.00     0.008 C 
ENDBRANCH   5   8
ENDBRANCH   4   5
ENDBRANCH   1   3
BRANCH   1  11
ATOM     11  C   UNL     1      -0.435  45.547  49.618  1.00  0.00     0.002 C 
ATOM     12  C   UNL     1      -1.064  44.887  48.360  1.00  0.00     0.005 C 
ATOM     13  C   UNL     1       0.991  44.938  49.709  1.00  0.00    -0.023 C 
ATOM     14  C   UNL     1      -0.198  43.658  48.028  1.00  0.00     0.009 C 
ATOM     15  C   UNL     1       0.708  43.505  49.245  1.00  0.00     0.021 C 
ATOM     16  C   UNL     1       1.571  44.864  51.147  1.00  0.00     0.008 C 
ATOM     17  C   UNL     1       1.994  45.662  48.753  1.00  0.00     0.012 C 
ATOM     18  C   UNL     1       1.993  42.701  49.195  1.00  0.00    -0.067 C 
ATOM     19  C   UNL     1       2.867  44.012  51.200  1.00  0.00     0.009 C 
ATOM     20  C   UNL     1       2.715  42.594  50.543  1.00  0.00     0.021 C 
ATOM     21  C   UNL     1       2.430  42.099  48.082  1.00  0.00    -0.027 C 
ATOM     22  C   UNL     1       4.038  41.706  50.563  1.00  0.00    -0.023 C 
ATOM     23  C   UNL     1       3.737  41.380  48.036  1.00  0.00     0.031 C 
ATOM     24  C   UNL     1       4.042  40.682  49.373  1.00  0.00     0.002 C 
ATOM     25  C   UNL     1       5.326  42.585  50.485  1.00  0.00     0.010 C 
ATOM     26  C   UNL     1       4.048  40.925  51.906  1.00  0.00     0.012 C 
ATOM     27  C   UNL     1       5.370  39.887  49.263  1.00  0.00     0.036 C 
ATOM     28  C   UNL     1       6.624  41.773  50.400  1.00  0.00     0.032 C 
ATOM     29  C   UNL     1       6.611  40.792  49.222  1.00  0.00     0.114 C 
BRANCH  29  30
ATOM     30  O   UNL     1       7.763  39.990  49.258  1.00  0.00    -0.393 OA
ATOM     31  H   UNL     1       7.897  39.636  48.339  1.00  0.00     0.210 HD
ENDBRANCH  29  30
ENDBRANCH   1  11
TORSDOF 6
ENDMDL
