MODEL 1
REMARK VINA RESULT:    45.404      0.000      0.000
REMARK INTER + INTRA:          62.587
REMARK INTER:                  60.002
REMARK INTRA:                   2.585
REMARK UNBOUND:                 2.585
REMARK SMILES CC[C@H](C=C[C@@H](C)[C@@H]1CC[C@@H]2[C@@H]3CC=C4C[C@@H](O)CC[C@@]4(C)[C@@H]3CC[C@@]21C)C(C)C
REMARK SMILES IDX 6 1 7 2 5 3 4 4 3 5 2 6 1 7 28 8 29 9 30 10 8 11 9 12 26 13
REMARK SMILES IDX 10 14 11 15 25 16 27 17 12 18 24 19 23 20 13 21 21 22 14 23
REMARK SMILES IDX 15 24 20 25 22 26 16 27 19 28 17 29 18 30
REMARK H PARENT 18 31
REMARK Flexibility Score: inf
ROOT
ATOM      1  C   UNL     1      28.377  28.256   3.170  1.00  0.00     0.012 C 
ATOM      2  C   UNL     1      29.835  27.995   3.595  1.00  0.00     0.012 C 
ENDROOT
BRANCH   1   3
ATOM      3  C   UNL     1      27.813  27.015   2.512  1.00  0.00    -0.028 C 
ATOM      4  C   UNL     1      26.560  26.583   2.735  1.00  0.00    -0.027 C 
BRANCH   4   5
ATOM      5  C   UNL     1      25.983  25.389   2.000  1.00  0.00     0.014 C 
BRANCH   5   6
ATOM      6  C   UNL     1      26.277  25.583   0.492  1.00  0.00     0.004 C 
ATOM      7  C   UNL     1      27.731  25.944   0.192  1.00  0.00     0.004 C 
ENDBRANCH   5   6
BRANCH   5   8
ATOM      8  C   UNL     1      26.527  24.014   2.545  1.00  0.00    -0.011 C 
ATOM      9  C   UNL     1      27.960  24.169   3.084  1.00  0.00     0.008 C 
ATOM     10  C   UNL     1      26.517  22.867   1.514  1.00  0.00     0.008 C 
ENDBRANCH   5   8
ENDBRANCH   4   5
ENDBRANCH   1   3
BRANCH   1  11
ATOM     11  C   UNL     1      28.254  29.525   2.263  1.00  0.00     0.002 C 
ATOM     12  C   UNL     1      28.154  30.804   3.093  1.00  0.00     0.005 C 
ATOM     13  C   UNL     1      27.075  29.608   1.231  1.00  0.00    -0.026 C 
ATOM     14  C   UNL     1      27.493  31.853   2.213  1.00  0.00     0.005 C 
ATOM     15  C   UNL     1      26.982  31.139   0.950  1.00  0.00    -0.001 C 
ATOM     16  C   UNL     1      25.710  29.028   1.755  1.00  0.00     0.007 C 
ATOM     17  C   UNL     1      27.445  28.873  -0.084  1.00  0.00     0.012 C 
ATOM     18  C   UNL     1      25.585  31.621   0.446  1.00  0.00     0.000 C 
ATOM     19  C   UNL     1      24.775  30.078   2.363  1.00  0.00     0.005 C 
ATOM     20  C   UNL     1      24.356  31.096   1.278  1.00  0.00     0.003 C 
ATOM     21  C   UNL     1      25.562  33.143   0.176  1.00  0.00     0.031 C 
ATOM     22  C   UNL     1      23.328  32.199   1.758  1.00  0.00    -0.008 C 
ATOM     23  C   UNL     1      24.170  33.611  -0.125  1.00  0.00    -0.027 C 
ATOM     24  C   UNL     1      23.124  33.202   0.617  1.00  0.00    -0.065 C 
ATOM     25  C   UNL     1      21.956  31.526   2.079  1.00  0.00     0.014 C 
ATOM     26  C   UNL     1      23.810  32.953   3.024  1.00  0.00     0.016 C 
ATOM     27  C   UNL     1      21.727  33.615   0.210  1.00  0.00     0.063 C 
ATOM     28  C   UNL     1      20.797  32.515   2.327  1.00  0.00     0.033 C 
ATOM     29  C   UNL     1      20.839  33.787   1.449  1.00  0.00     0.118 C 
BRANCH  29  30
ATOM     30  O   UNL     1      19.533  34.123   1.054  1.00  0.00    -0.393 OA
ATOM     31  H   UNL     1      19.559  35.061   0.737  1.00  0.00     0.210 HD
ENDBRANCH  29  30
ENDBRANCH   1  11
TORSDOF 6
ENDMDL
