MODEL 1
REMARK VINA RESULT:    -0.506      0.000      0.000
REMARK INTER + INTRA:          -0.794
REMARK INTER:                  -0.550
REMARK INTRA:                  -0.243
REMARK UNBOUND:                -0.243
REMARK SMILES C[C@H]1[C@@H](C)CC[C@@]2(C(=O)[O-])CC[C@@]3(C)C(=CC[C@@H]4[C@]5(C)CC[C@H](O)C(C)(C)[C@@H]5CC[C@]43C)[C@@H]12
REMARK SMILES IDX 7 1 6 2 11 3 33 4 5 5 12 6 15 7 2 8 3 9 13 10 16 11 1 12
REMARK SMILES IDX 4 13 14 14 31 15 17 16 18 17 30 18 32 19 19 20 29 21 28 22
REMARK SMILES IDX 21 23 20 24 25 25 22 26 23 27 26 28 27 29 8 30 9 31 10 32
REMARK SMILES IDX 24 33
REMARK H PARENT 24 34
REMARK Flexibility Score: inf
ROOT
ATOM      1  C   UNL     1      -9.708  21.977  -8.812  1.00  0.00     0.017 C 
ATOM      2  C   UNL     1      -9.865  23.529  -8.972  1.00  0.00     0.014 C 
ATOM      3  C   UNL     1     -11.093  21.433  -8.324  1.00  0.00     0.014 C 
ATOM      4  C   UNL     1      -9.174  21.255 -10.137  1.00  0.00     0.030 C 
ATOM      5  C   UNL     1      -8.999  24.125 -10.076  1.00  0.00     0.004 C 
ATOM      6  C   UNL     1     -11.285  19.907  -8.421  1.00  0.00     0.013 C 
ATOM      7  C   UNL     1      -9.585  19.771 -10.233  1.00  0.00    -0.063 C 
ATOM      8  C   UNL     1      -9.104  22.040 -11.517  1.00  0.00    -0.003 C 
ATOM      9  C   UNL     1      -9.404  23.565 -11.444  1.00  0.00    -0.011 C 
ATOM     10  C   UNL     1     -11.023  19.332  -9.845  1.00  0.00    -0.006 C 
ATOM     11  C   UNL     1      -8.582  18.868 -10.446  1.00  0.00    -0.027 C 
ATOM     12  C   UNL     1      -9.744  21.356 -12.744  1.00  0.00     0.008 C 
ATOM     13  C   UNL     1     -10.850  23.952 -11.822  1.00  0.00     0.008 C 
ATOM     14  C   UNL     1     -12.069  19.999 -10.795  1.00  0.00     0.017 C 
ATOM     15  C   UNL     1     -11.161  17.719  -9.917  1.00  0.00    -0.020 C 
ATOM     16  C   UNL     1      -8.660  17.391 -10.130  1.00  0.00     0.032 C 
ATOM     17  C   UNL     1      -9.887  17.086  -9.248  1.00  0.00     0.006 C 
ATOM     18  C   UNL     1     -12.440  17.160  -9.205  1.00  0.00     0.008 C 
ATOM     19  C   UNL     1     -11.253  17.311 -11.439  1.00  0.00     0.012 C 
ATOM     20  C   UNL     1     -10.027  15.611  -8.651  1.00  0.00    -0.025 C 
ATOM     21  C   UNL     1     -12.218  16.749  -7.741  1.00  0.00     0.005 C 
ATOM     22  C   UNL     1     -11.158  15.606  -7.521  1.00  0.00     0.003 C 
ATOM     23  C   UNL     1     -10.347  14.564  -9.754  1.00  0.00     0.010 C 
ATOM     24  C   UNL     1      -8.649  15.250  -8.018  1.00  0.00     0.012 C 
ATOM     25  C   UNL     1     -11.747  14.163  -7.100  1.00  0.00    -0.006 C 
ATOM     26  C   UNL     1     -10.654  13.173  -9.208  1.00  0.00     0.033 C 
ATOM     27  C   UNL     1     -11.912  13.210  -8.324  1.00  0.00     0.120 C 
ATOM     28  C   UNL     1     -13.125  14.266  -6.379  1.00  0.00     0.014 C 
ATOM     29  C   UNL     1     -10.823  13.469  -6.048  1.00  0.00     0.014 C 
ENDROOT
BRANCH   1  30
ATOM     30  C   UNL     1      -8.685  21.720  -7.691  1.00  0.00     0.048 C 
ATOM     31  O   UNL     1      -7.589  21.148  -7.939  1.00  0.00    -0.550 OA
ATOM     32  O   UNL     1      -8.882  22.232  -6.411  1.00  0.00    -0.550 OA
ENDBRANCH   1  30
BRANCH  27  33
ATOM     33  O   UNL     1     -13.021  13.595  -9.100  1.00  0.00    -0.393 OA
ATOM     34  H   UNL     1     -13.835  13.347  -8.589  1.00  0.00     0.210 HD
ENDBRANCH  27  33
TORSDOF 2
ENDMDL
MODEL 2
REMARK VINA RESULT:    -0.240      1.831      7.515
REMARK INTER + INTRA:          -0.504
REMARK INTER:                  -0.207
REMARK INTRA:                  -0.297
REMARK UNBOUND:                -0.243
REMARK SMILES C[C@H]1[C@@H](C)CC[C@@]2(C(=O)[O-])CC[C@@]3(C)C(=CC[C@@H]4[C@]5(C)CC[C@H](O)C(C)(C)[C@@H]5CC[C@]43C)[C@@H]12
REMARK SMILES IDX 7 1 6 2 11 3 33 4 5 5 12 6 15 7 2 8 3 9 13 10 16 11 1 12
REMARK SMILES IDX 4 13 14 14 31 15 17 16 18 17 30 18 32 19 19 20 29 21 28 22
REMARK SMILES IDX 21 23 20 24 25 25 22 26 23 27 26 28 27 29 8 30 9 31 10 32
REMARK SMILES IDX 24 33
REMARK H PARENT 24 34
REMARK Flexibility Score: inf
ROOT
ATOM      1  C   UNL     1     -10.943  15.106  -7.841  1.00  0.00     0.017 C 
ATOM      2  C   UNL     1     -10.551  13.593  -7.970  1.00  0.00     0.014 C 
ATOM      3  C   UNL     1      -9.624  15.885  -7.514  1.00  0.00     0.014 C 
ATOM      4  C   UNL     1     -11.711  15.673  -9.125  1.00  0.00     0.030 C 
ATOM      5  C   UNL     1     -11.412  12.818  -8.962  1.00  0.00     0.004 C 
ATOM      6  C   UNL     1      -9.692  17.416  -7.675  1.00  0.00     0.013 C 
ATOM      7  C   UNL     1     -11.558  17.198  -9.306  1.00  0.00    -0.063 C 
ATOM      8  C   UNL     1     -11.786  14.825 -10.468  1.00  0.00    -0.003 C 
ATOM      9  C   UNL     1     -11.236  13.373 -10.380  1.00  0.00    -0.011 C 
ATOM     10  C   UNL     1     -10.181  17.877  -9.080  1.00  0.00    -0.006 C 
ATOM     11  C   UNL     1     -12.710  17.919  -9.442  1.00  0.00    -0.027 C 
ATOM     12  C   UNL     1     -11.385  15.545 -11.773  1.00  0.00     0.008 C 
ATOM     13  C   UNL     1      -9.789  13.203 -10.893  1.00  0.00     0.008 C 
ATOM     14  C   UNL     1      -9.136  17.341 -10.112  1.00  0.00     0.017 C 
ATOM     15  C   UNL     1     -10.313  19.486  -9.214  1.00  0.00    -0.020 C 
ATOM     16  C   UNL     1     -12.844  19.403  -9.179  1.00  0.00     0.032 C 
ATOM     17  C   UNL     1     -11.603  19.939  -8.437  1.00  0.00     0.006 C 
ATOM     18  C   UNL     1      -9.080  20.273  -8.652  1.00  0.00     0.008 C 
ATOM     19  C   UNL     1     -10.436  19.834 -10.748  1.00  0.00     0.012 C 
ATOM     20  C   UNL     1     -11.648  21.443  -7.901  1.00  0.00    -0.025 C 
ATOM     21  C   UNL     1      -9.225  20.710  -7.186  1.00  0.00     0.005 C 
ATOM     22  C   UNL     1     -10.430  21.679  -6.893  1.00  0.00     0.003 C 
ATOM     23  C   UNL     1     -11.610  22.476  -9.061  1.00  0.00     0.010 C 
ATOM     24  C   UNL     1     -12.999  21.610  -7.141  1.00  0.00     0.012 C 
ATOM     25  C   UNL     1     -10.045  23.215  -6.577  1.00  0.00    -0.006 C 
ATOM     26  C   UNL     1     -11.482  23.922  -8.590  1.00  0.00     0.033 C 
ATOM     27  C   UNL     1     -10.156  24.125  -7.839  1.00  0.00     0.120 C 
ATOM     28  C   UNL     1      -8.606  23.364  -5.997  1.00  0.00     0.014 C 
ATOM     29  C   UNL     1     -10.965  23.801  -5.457  1.00  0.00     0.014 C 
ENDROOT
BRANCH   1  30
ATOM     30  C   UNL     1     -11.882  15.248  -6.630  1.00  0.00     0.048 C 
ATOM     31  O   UNL     1     -13.125  15.083  -6.756  1.00  0.00    -0.550 OA
ATOM     32  O   UNL     1     -11.371  15.426  -5.346  1.00  0.00    -0.550 OA
ENDBRANCH   1  30
BRANCH  27  33
ATOM     33  O   UNL     1      -9.078  23.886  -8.713  1.00  0.00    -0.393 OA
ATOM     34  H   UNL     1      -9.466  23.632  -9.591  1.00  0.00     0.210 HD
ENDBRANCH  27  33
TORSDOF 2
ENDMDL
