MODEL 1
REMARK VINA RESULT:    -3.917      0.000      0.000
REMARK INTER + INTRA:          -8.851
REMARK INTER:                  -7.123
REMARK INTRA:                  -1.728
REMARK UNBOUND:                -1.728
REMARK SMILES CCCCCCCCCCCCCCCC(=O)[O-]
REMARK SMILES IDX 9 1 10 2 11 3 12 4 13 5 14 6 15 7 16 8 17 9 18 10 8 11 7 12
REMARK SMILES IDX 6 13 5 14 4 15 3 16 2 17 1 18
REMARK H PARENT
REMARK Flexibility Score: inf
ROOT
ATOM      1  C   UNL     1     301.061 323.548 647.477  1.00  0.00     0.000 C 
ENDROOT
BRANCH   1   2
ATOM      2  C   UNL     1     302.173 324.556 647.838  1.00  0.00     0.000 C 
BRANCH   2   3
ATOM      3  C   UNL     1     303.447 323.871 648.354  1.00  0.00     0.000 C 
BRANCH   3   4
ATOM      4  C   UNL     1     303.626 322.488 647.716  1.00  0.00     0.000 C 
BRANCH   4   5
ATOM      5  C   UNL     1     305.114 322.125 647.596  1.00  0.00     0.000 C 
BRANCH   5   6
ATOM      6  C   UNL     1     305.965 322.752 648.713  1.00  0.00     0.006 C 
BRANCH   6   7
ATOM      7  C   UNL     1     306.788 321.711 649.481  1.00  0.00     0.053 C 
BRANCH   7   8
ATOM      8  C   UNL     1     306.118 321.369 650.774  1.00  0.00     0.041 C 
ATOM      9  O   UNL     1     306.336 322.062 651.802  1.00  0.00    -0.550 OA
ATOM     10  O   UNL     1     305.227 320.304 650.836  1.00  0.00    -0.550 OA
ENDBRANCH   7   8
ENDBRANCH   6   7
ENDBRANCH   5   6
ENDBRANCH   4   5
ENDBRANCH   3   4
ENDBRANCH   2   3
ENDBRANCH   1   2
BRANCH   1  11
ATOM     11  C   UNL     1     299.644 324.156 647.486  1.00  0.00     0.000 C 
BRANCH  11  12
ATOM     12  C   UNL     1     299.036 324.422 646.096  1.00  0.00    -0.000 C 
BRANCH  12  13
ATOM     13  C   UNL     1     299.147 325.879 645.608  1.00  0.00    -0.000 C 
BRANCH  13  14
ATOM     14  C   UNL     1     299.982 326.012 644.323  1.00  0.00    -0.000 C 
BRANCH  14  15
ATOM     15  C   UNL     1     301.466 326.314 644.618  1.00  0.00    -0.000 C 
BRANCH  15  16
ATOM     16  C   UNL     1     302.446 325.411 643.846  1.00  0.00    -0.000 C 
BRANCH  16  17
ATOM     17  C   UNL     1     302.322 323.928 644.226  1.00  0.00    -0.003 C 
ATOM     18  C   UNL     1     303.602 323.166 643.897  1.00  0.00     0.004 C 
ENDBRANCH  16  17
ENDBRANCH  15  16
ENDBRANCH  14  15
ENDBRANCH  13  14
ENDBRANCH  12  13
ENDBRANCH  11  12
ENDBRANCH   1  11
TORSDOF 14
ENDMDL
MODEL 2
REMARK VINA RESULT:    -3.906      1.373      3.106
REMARK INTER + INTRA:          -8.831
REMARK INTER:                  -6.859
REMARK INTRA:                  -1.972
REMARK UNBOUND:                -1.728
REMARK SMILES CCCCCCCCCCCCCCCC(=O)[O-]
REMARK SMILES IDX 9 1 10 2 11 3 12 4 13 5 14 6 15 7 16 8 17 9 18 10 8 11 7 12
REMARK SMILES IDX 6 13 5 14 4 15 3 16 2 17 1 18
REMARK H PARENT
REMARK Flexibility Score: inf
ROOT
ATOM      1  C   UNL     1     302.655 325.159 644.140  1.00  0.00     0.000 C 
ENDROOT
BRANCH   1   2
ATOM      2  C   UNL     1     303.027 324.220 645.307  1.00  0.00     0.000 C 
BRANCH   2   3
ATOM      3  C   UNL     1     303.515 324.982 646.547  1.00  0.00     0.000 C 
BRANCH   3   4
ATOM      4  C   UNL     1     302.928 324.381 647.830  1.00  0.00     0.000 C 
BRANCH   4   5
ATOM      5  C   UNL     1     303.127 322.858 647.866  1.00  0.00     0.000 C 
BRANCH   5   6
ATOM      6  C   UNL     1     304.556 322.461 648.270  1.00  0.00     0.006 C 
BRANCH   6   7
ATOM      7  C   UNL     1     304.879 322.824 649.725  1.00  0.00     0.053 C 
BRANCH   7   8
ATOM      8  C   UNL     1     305.344 321.613 650.471  1.00  0.00     0.041 C 
ATOM      9  O   UNL     1     306.111 321.736 651.461  1.00  0.00    -0.550 OA
ATOM     10  O   UNL     1     304.905 320.350 650.091  1.00  0.00    -0.550 OA
ENDBRANCH   7   8
ENDBRANCH   6   7
ENDBRANCH   5   6
ENDBRANCH   4   5
ENDBRANCH   3   4
ENDBRANCH   2   3
ENDBRANCH   1   2
BRANCH   1  11
ATOM     11  C   UNL     1     301.171 325.083 643.729  1.00  0.00     0.000 C 
BRANCH  11  12
ATOM     12  C   UNL     1     300.374 323.925 644.359  1.00  0.00    -0.000 C 
BRANCH  12  13
ATOM     13  C   UNL     1     299.169 324.358 645.215  1.00  0.00    -0.000 C 
BRANCH  13  14
ATOM     14  C   UNL     1     299.472 324.335 646.722  1.00  0.00    -0.000 C 
BRANCH  14  15
ATOM     15  C   UNL     1     299.601 325.754 647.315  1.00  0.00    -0.000 C 
BRANCH  15  16
ATOM     16  C   UNL     1     299.182 326.871 646.340  1.00  0.00    -0.000 C 
BRANCH  16  17
ATOM     17  C   UNL     1     300.370 327.699 645.830  1.00  0.00    -0.003 C 
ATOM     18  C   UNL     1     299.950 328.621 644.689  1.00  0.00     0.004 C 
ENDBRANCH  16  17
ENDBRANCH  15  16
ENDBRANCH  14  15
ENDBRANCH  13  14
ENDBRANCH  12  13
ENDBRANCH  11  12
ENDBRANCH   1  11
TORSDOF 14
ENDMDL
MODEL 3
REMARK VINA RESULT:    -3.877      3.457      7.099
REMARK INTER + INTRA:          -8.779
REMARK INTER:                  -7.287
REMARK INTRA:                  -1.492
REMARK UNBOUND:                -1.728
REMARK SMILES CCCCCCCCCCCCCCCC(=O)[O-]
REMARK SMILES IDX 9 1 10 2 11 3 12 4 13 5 14 6 15 7 16 8 17 9 18 10 8 11 7 12
REMARK SMILES IDX 6 13 5 14 4 15 3 16 2 17 1 18
REMARK H PARENT
REMARK Flexibility Score: inf
ROOT
ATOM      1  C   UNL     1     301.441 323.711 647.526  1.00  0.00     0.000 C 
ENDROOT
BRANCH   1   2
ATOM      2  C   UNL     1     300.084 324.406 647.765  1.00  0.00     0.000 C 
BRANCH   2   3
ATOM      3  C   UNL     1     299.022 324.002 646.732  1.00  0.00     0.000 C 
BRANCH   3   4
ATOM      4  C   UNL     1     298.929 325.036 645.604  1.00  0.00     0.000 C 
BRANCH   4   5
ATOM      5  C   UNL     1     298.875 326.464 646.167  1.00  0.00     0.000 C 
BRANCH   5   6
ATOM      6  C   UNL     1     299.812 327.427 645.420  1.00  0.00     0.006 C 
BRANCH   6   7
ATOM      7  C   UNL     1     301.245 326.892 645.315  1.00  0.00     0.053 C 
BRANCH   7   8
ATOM      8  C   UNL     1     302.229 328.008 645.475  1.00  0.00     0.041 C 
ATOM      9  O   UNL     1     303.412 327.762 645.832  1.00  0.00    -0.550 OA
ATOM     10  O   UNL     1     301.849 329.316 645.200  1.00  0.00    -0.550 OA
ENDBRANCH   7   8
ENDBRANCH   6   7
ENDBRANCH   5   6
ENDBRANCH   4   5
ENDBRANCH   3   4
ENDBRANCH   2   3
ENDBRANCH   1   2
BRANCH   1  11
ATOM     11  C   UNL     1     302.660 324.616 647.788  1.00  0.00     0.000 C 
BRANCH  11  12
ATOM     12  C   UNL     1     303.853 324.402 646.838  1.00  0.00    -0.000 C 
BRANCH  12  13
ATOM     13  C   UNL     1     305.074 323.712 647.475  1.00  0.00    -0.000 C 
BRANCH  13  14
ATOM     14  C   UNL     1     304.952 322.178 647.481  1.00  0.00    -0.000 C 
BRANCH  14  15
ATOM     15  C   UNL     1     304.584 321.627 648.874  1.00  0.00    -0.000 C 
BRANCH  15  16
ATOM     16  C   UNL     1     305.052 322.522 650.036  1.00  0.00    -0.000 C 
BRANCH  16  17
ATOM     17  C   UNL     1     306.007 321.804 651.001  1.00  0.00    -0.003 C 
ATOM     18  C   UNL     1     306.076 320.310 650.699  1.00  0.00     0.004 C 
ENDBRANCH  16  17
ENDBRANCH  15  16
ENDBRANCH  14  15
ENDBRANCH  13  14
ENDBRANCH  12  13
ENDBRANCH  11  12
ENDBRANCH   1  11
TORSDOF 14
ENDMDL
MODEL 4
REMARK VINA RESULT:    -3.871      1.406      2.551
REMARK INTER + INTRA:          -8.767
REMARK INTER:                  -6.499
REMARK INTRA:                  -2.269
REMARK UNBOUND:                -1.728
REMARK SMILES CCCCCCCCCCCCCCCC(=O)[O-]
REMARK SMILES IDX 9 1 10 2 11 3 12 4 13 5 14 6 15 7 16 8 17 9 18 10 8 11 7 12
REMARK SMILES IDX 6 13 5 14 4 15 3 16 2 17 1 18
REMARK H PARENT
REMARK Flexibility Score: inf
ROOT
ATOM      1  C   UNL     1     299.079 324.469 645.734  1.00  0.00     0.000 C 
ENDROOT
BRANCH   1   2
ATOM      2  C   UNL     1     299.501 324.366 647.215  1.00  0.00     0.000 C 
BRANCH   2   3
ATOM      3  C   UNL     1     300.843 323.643 647.400  1.00  0.00     0.000 C 
BRANCH   3   4
ATOM      4  C   UNL     1     301.963 324.637 647.729  1.00  0.00     0.000 C 
BRANCH   4   5
ATOM      5  C   UNL     1     303.175 323.919 648.343  1.00  0.00     0.000 C 
BRANCH   5   6
ATOM      6  C   UNL     1     303.332 322.480 647.823  1.00  0.00     0.006 C 
BRANCH   6   7
ATOM      7  C   UNL     1     304.386 321.685 648.602  1.00  0.00     0.053 C 
BRANCH   7   8
ATOM      8  C   UNL     1     305.737 322.304 648.428  1.00  0.00     0.041 C 
ATOM      9  O   UNL     1     306.186 322.528 647.273  1.00  0.00    -0.550 OA
ATOM     10  O   UNL     1     306.488 322.661 649.541  1.00  0.00    -0.550 OA
ENDBRANCH   7   8
ENDBRANCH   6   7
ENDBRANCH   5   6
ENDBRANCH   4   5
ENDBRANCH   3   4
ENDBRANCH   2   3
ENDBRANCH   1   2
BRANCH   1  11
ATOM     11  C   UNL     1     298.875 325.916 645.244  1.00  0.00     0.000 C 
BRANCH  11  12
ATOM     12  C   UNL     1     299.504 327.004 646.134  1.00  0.00    -0.000 C 
BRANCH  12  13
ATOM     13  C   UNL     1     300.917 327.449 645.713  1.00  0.00    -0.000 C 
BRANCH  13  14
ATOM     14  C   UNL     1     301.293 326.973 644.299  1.00  0.00    -0.000 C 
BRANCH  14  15
ATOM     15  C   UNL     1     302.483 325.991 644.309  1.00  0.00    -0.000 C 
BRANCH  15  16
ATOM     16  C   UNL     1     302.210 324.681 643.549  1.00  0.00    -0.000 C 
BRANCH  16  17
ATOM     17  C   UNL     1     303.102 323.520 644.011  1.00  0.00    -0.003 C 
ATOM     18  C   UNL     1     304.322 324.032 644.772  1.00  0.00     0.004 C 
ENDBRANCH  16  17
ENDBRANCH  15  16
ENDBRANCH  14  15
ENDBRANCH  13  14
ENDBRANCH  12  13
ENDBRANCH  11  12
ENDBRANCH   1  11
TORSDOF 14
ENDMDL
MODEL 5
REMARK VINA RESULT:    -3.869      1.299      1.587
REMARK INTER + INTRA:          -8.764
REMARK INTER:                  -7.541
REMARK INTRA:                  -1.223
REMARK UNBOUND:                -1.728
REMARK SMILES CCCCCCCCCCCCCCCC(=O)[O-]
REMARK SMILES IDX 9 1 10 2 11 3 12 4 13 5 14 6 15 7 16 8 17 9 18 10 8 11 7 12
REMARK SMILES IDX 6 13 5 14 4 15 3 16 2 17 1 18
REMARK H PARENT
REMARK Flexibility Score: inf
ROOT
ATOM      1  C   UNL     1     300.765 323.695 647.645  1.00  0.00     0.000 C 
ENDROOT
BRANCH   1   2
ATOM      2  C   UNL     1     302.219 324.055 648.017  1.00  0.00     0.000 C 
BRANCH   2   3
ATOM      3  C   UNL     1     303.251 323.284 647.182  1.00  0.00     0.000 C 
BRANCH   3   4
ATOM      4  C   UNL     1     303.913 322.175 648.009  1.00  0.00     0.000 C 
BRANCH   4   5
ATOM      5  C   UNL     1     305.271 321.777 647.412  1.00  0.00     0.000 C 
BRANCH   5   6
ATOM      6  C   UNL     1     306.074 320.852 648.341  1.00  0.00     0.006 C 
BRANCH   6   7
ATOM      7  C   UNL     1     305.276 320.425 649.579  1.00  0.00     0.053 C 
BRANCH   7   8
ATOM      8  C   UNL     1     305.973 320.871 650.825  1.00  0.00     0.041 C 
ATOM      9  O   UNL     1     305.935 320.157 651.862  1.00  0.00    -0.550 OA
ATOM     10  O   UNL     1     306.691 322.061 650.833  1.00  0.00    -0.550 OA
ENDBRANCH   7   8
ENDBRANCH   6   7
ENDBRANCH   5   6
ENDBRANCH   4   5
ENDBRANCH   3   4
ENDBRANCH   2   3
ENDBRANCH   1   2
BRANCH   1  11
ATOM     11  C   UNL     1     299.783 324.878 647.754  1.00  0.00     0.000 C 
BRANCH  11  12
ATOM     12  C   UNL     1     299.126 325.310 646.429  1.00  0.00    -0.000 C 
BRANCH  12  13
ATOM     13  C   UNL     1     299.373 324.358 645.243  1.00  0.00    -0.000 C 
BRANCH  13  14
ATOM     14  C   UNL     1     300.218 325.003 644.131  1.00  0.00    -0.000 C 
BRANCH  14  15
ATOM     15  C   UNL     1     301.731 324.798 644.352  1.00  0.00    -0.000 C 
BRANCH  15  16
ATOM     16  C   UNL     1     302.319 323.622 643.552  1.00  0.00    -0.000 C 
BRANCH  16  17
ATOM     17  C   UNL     1     301.540 323.323 642.263  1.00  0.00    -0.003 C 
ATOM     18  C   UNL     1     301.460 321.822 642.002  1.00  0.00     0.004 C 
ENDBRANCH  16  17
ENDBRANCH  15  16
ENDBRANCH  14  15
ENDBRANCH  13  14
ENDBRANCH  12  13
ENDBRANCH  11  12
ENDBRANCH   1  11
TORSDOF 14
ENDMDL
MODEL 6
REMARK VINA RESULT:    -3.860      3.078      6.994
REMARK INTER + INTRA:          -8.747
REMARK INTER:                  -7.148
REMARK INTRA:                  -1.599
REMARK UNBOUND:                -1.728
REMARK SMILES CCCCCCCCCCCCCCCC(=O)[O-]
REMARK SMILES IDX 9 1 10 2 11 3 12 4 13 5 14 6 15 7 16 8 17 9 18 10 8 11 7 12
REMARK SMILES IDX 6 13 5 14 4 15 3 16 2 17 1 18
REMARK H PARENT
REMARK Flexibility Score: inf
ROOT
ATOM      1  C   UNL     1     302.279 324.473 647.758  1.00  0.00     0.000 C 
ENDROOT
BRANCH   1   2
ATOM      2  C   UNL     1     301.047 323.576 647.516  1.00  0.00     0.000 C 
BRANCH   2   3
ATOM      3  C   UNL     1     299.729 324.269 647.889  1.00  0.00     0.000 C 
BRANCH   3   4
ATOM      4  C   UNL     1     299.246 325.183 646.757  1.00  0.00     0.000 C 
BRANCH   4   5
ATOM      5  C   UNL     1     299.250 324.444 645.411  1.00  0.00     0.000 C 
BRANCH   5   6
ATOM      6  C   UNL     1     299.727 325.334 644.252  1.00  0.00     0.006 C 
BRANCH   6   7
ATOM      7  C   UNL     1     301.255 325.376 644.132  1.00  0.00     0.053 C 
BRANCH   7   8
ATOM      8  C   UNL     1     301.782 324.033 643.735  1.00  0.00     0.041 C 
ATOM      9  O   UNL     1     302.735 323.513 644.373  1.00  0.00    -0.550 OA
ATOM     10  O   UNL     1     301.201 323.342 642.678  1.00  0.00    -0.550 OA
ENDBRANCH   7   8
ENDBRANCH   6   7
ENDBRANCH   5   6
ENDBRANCH   4   5
ENDBRANCH   3   4
ENDBRANCH   2   3
ENDBRANCH   1   2
BRANCH   1  11
ATOM     11  C   UNL     1     303.416 323.775 648.530  1.00  0.00     0.000 C 
BRANCH  11  12
ATOM     12  C   UNL     1     303.976 322.504 647.865  1.00  0.00    -0.000 C 
BRANCH  12  13
ATOM     13  C   UNL     1     304.663 321.517 648.828  1.00  0.00    -0.000 C 
BRANCH  13  14
ATOM     14  C   UNL     1     305.075 322.174 650.157  1.00  0.00    -0.000 C 
BRANCH  14  15
ATOM     15  C   UNL     1     306.577 321.990 650.459  1.00  0.00    -0.000 C 
BRANCH  15  16
ATOM     16  C   UNL     1     307.494 322.366 649.280  1.00  0.00    -0.000 C 
BRANCH  16  17
ATOM     17  C   UNL     1     307.883 323.851 649.272  1.00  0.00    -0.003 C 
ATOM     18  C   UNL     1     307.088 324.624 648.223  1.00  0.00     0.004 C 
ENDBRANCH  16  17
ENDBRANCH  15  16
ENDBRANCH  14  15
ENDBRANCH  13  14
ENDBRANCH  12  13
ENDBRANCH  11  12
ENDBRANCH   1  11
TORSDOF 14
ENDMDL
MODEL 7
REMARK VINA RESULT:    -3.795      1.476      2.135
REMARK INTER + INTRA:          -8.629
REMARK INTER:                  -6.837
REMARK INTRA:                  -1.791
REMARK UNBOUND:                -1.728
REMARK SMILES CCCCCCCCCCCCCCCC(=O)[O-]
REMARK SMILES IDX 9 1 10 2 11 3 12 4 13 5 14 6 15 7 16 8 17 9 18 10 8 11 7 12
REMARK SMILES IDX 6 13 5 14 4 15 3 16 2 17 1 18
REMARK H PARENT
REMARK Flexibility Score: inf
ROOT
ATOM      1  C   UNL     1     302.028 324.944 647.529  1.00  0.00     0.000 C 
ENDROOT
BRANCH   1   2
ATOM      2  C   UNL     1     303.397 324.778 646.836  1.00  0.00     0.000 C 
BRANCH   2   3
ATOM      3  C   UNL     1     303.729 323.311 646.525  1.00  0.00     0.000 C 
BRANCH   3   4
ATOM      4  C   UNL     1     305.074 322.907 647.140  1.00  0.00     0.000 C 
BRANCH   4   5
ATOM      5  C   UNL     1     305.270 323.563 648.515  1.00  0.00     0.000 C 
BRANCH   5   6
ATOM      6  C   UNL     1     304.510 322.829 649.631  1.00  0.00     0.006 C 
BRANCH   6   7
ATOM      7  C   UNL     1     305.447 322.094 650.597  1.00  0.00     0.053 C 
BRANCH   7   8
ATOM      8  C   UNL     1     305.629 320.674 650.164  1.00  0.00     0.041 C 
ATOM      9  O   UNL     1     304.649 319.884 650.153  1.00  0.00    -0.550 OA
ATOM     10  O   UNL     1     306.877 320.230 649.742  1.00  0.00    -0.550 OA
ENDBRANCH   7   8
ENDBRANCH   6   7
ENDBRANCH   5   6
ENDBRANCH   4   5
ENDBRANCH   3   4
ENDBRANCH   2   3
ENDBRANCH   1   2
BRANCH   1  11
ATOM     11  C   UNL     1     301.140 323.686 647.463  1.00  0.00     0.000 C 
BRANCH  11  12
ATOM     12  C   UNL     1     299.623 323.953 647.454  1.00  0.00    -0.000 C 
BRANCH  12  13
ATOM     13  C   UNL     1     299.107 324.718 646.220  1.00  0.00    -0.000 C 
BRANCH  13  14
ATOM     14  C   UNL     1     299.825 324.305 644.923  1.00  0.00    -0.000 C 
BRANCH  14  15
ATOM     15  C   UNL     1     300.170 325.518 644.034  1.00  0.00    -0.000 C 
BRANCH  15  16
ATOM     16  C   UNL     1     300.340 326.832 644.820  1.00  0.00    -0.000 C 
BRANCH  16  17
ATOM     17  C   UNL     1     301.755 327.416 644.715  1.00  0.00    -0.003 C 
ATOM     18  C   UNL     1     302.597 326.644 643.704  1.00  0.00     0.004 C 
ENDBRANCH  16  17
ENDBRANCH  15  16
ENDBRANCH  14  15
ENDBRANCH  13  14
ENDBRANCH  12  13
ENDBRANCH  11  12
ENDBRANCH   1  11
TORSDOF 14
ENDMDL
MODEL 8
REMARK VINA RESULT:    -3.794      4.263      5.922
REMARK INTER + INTRA:          -8.627
REMARK INTER:                  -6.282
REMARK INTRA:                  -2.345
REMARK UNBOUND:                -1.728
REMARK SMILES CCCCCCCCCCCCCCCC(=O)[O-]
REMARK SMILES IDX 9 1 10 2 11 3 12 4 13 5 14 6 15 7 16 8 17 9 18 10 8 11 7 12
REMARK SMILES IDX 6 13 5 14 4 15 3 16 2 17 1 18
REMARK H PARENT
REMARK Flexibility Score: inf
ROOT
ATOM      1  C   UNL     1     301.942 324.196 647.843  1.00  0.00     0.000 C 
ENDROOT
BRANCH   1   2
ATOM      2  C   UNL     1     303.160 323.439 647.273  1.00  0.00     0.000 C 
BRANCH   2   3
ATOM      3  C   UNL     1     303.611 323.986 645.910  1.00  0.00     0.000 C 
BRANCH   3   4
ATOM      4  C   UNL     1     302.905 325.307 645.586  1.00  0.00     0.000 C 
BRANCH   4   5
ATOM      5  C   UNL     1     302.466 325.351 644.115  1.00  0.00     0.000 C 
BRANCH   5   6
ATOM      6  C   UNL     1     302.357 323.951 643.491  1.00  0.00     0.006 C 
BRANCH   6   7
ATOM      7  C   UNL     1     300.984 323.692 642.860  1.00  0.00     0.053 C 
BRANCH   7   8
ATOM      8  C   UNL     1     301.121 322.805 641.663  1.00  0.00     0.041 C 
ATOM      9  O   UNL     1     301.987 323.057 640.784  1.00  0.00    -0.550 OA
ATOM     10  O   UNL     1     300.312 321.682 641.531  1.00  0.00    -0.550 OA
ENDBRANCH   7   8
ENDBRANCH   6   7
ENDBRANCH   5   6
ENDBRANCH   4   5
ENDBRANCH   3   4
ENDBRANCH   2   3
ENDBRANCH   1   2
BRANCH   1  11
ATOM     11  C   UNL     1     300.602 323.463 647.638  1.00  0.00     0.000 C 
BRANCH  11  12
ATOM     12  C   UNL     1     299.390 324.375 647.369  1.00  0.00    -0.000 C 
BRANCH  12  13
ATOM     13  C   UNL     1     298.880 324.363 645.916  1.00  0.00    -0.000 C 
BRANCH  13  14
ATOM     14  C   UNL     1     298.905 325.757 645.266  1.00  0.00    -0.000 C 
BRANCH  14  15
ATOM     15  C   UNL     1     299.515 326.825 646.197  1.00  0.00    -0.000 C 
BRANCH  15  16
ATOM     16  C   UNL     1     300.099 328.037 645.447  1.00  0.00    -0.000 C 
BRANCH  16  17
ATOM     17  C   UNL     1     299.482 328.236 644.055  1.00  0.00    -0.003 C 
ATOM     18  C   UNL     1     300.555 328.228 642.971  1.00  0.00     0.004 C 
ENDBRANCH  16  17
ENDBRANCH  15  16
ENDBRANCH  14  15
ENDBRANCH  13  14
ENDBRANCH  12  13
ENDBRANCH  11  12
ENDBRANCH   1  11
TORSDOF 14
ENDMDL
MODEL 9
REMARK VINA RESULT:    -3.709      1.881      3.264
REMARK INTER + INTRA:          -8.472
REMARK INTER:                  -6.642
REMARK INTRA:                  -1.830
REMARK UNBOUND:                -1.728
REMARK SMILES CCCCCCCCCCCCCCCC(=O)[O-]
REMARK SMILES IDX 9 1 10 2 11 3 12 4 13 5 14 6 15 7 16 8 17 9 18 10 8 11 7 12
REMARK SMILES IDX 6 13 5 14 4 15 3 16 2 17 1 18
REMARK H PARENT
REMARK Flexibility Score: inf
ROOT
ATOM      1  C   UNL     1     299.197 324.006 646.882  1.00  0.00     0.000 C 
ENDROOT
BRANCH   1   2
ATOM      2  C   UNL     1     300.230 324.820 647.689  1.00  0.00     0.000 C 
BRANCH   2   3
ATOM      3  C   UNL     1     301.510 324.025 647.983  1.00  0.00     0.000 C 
BRANCH   3   4
ATOM      4  C   UNL     1     302.757 324.808 647.556  1.00  0.00     0.000 C 
BRANCH   4   5
ATOM      5  C   UNL     1     303.659 323.958 646.648  1.00  0.00     0.000 C 
BRANCH   5   6
ATOM      6  C   UNL     1     305.063 323.752 647.239  1.00  0.00     0.006 C 
BRANCH   6   7
ATOM      7  C   UNL     1     305.346 322.286 647.587  1.00  0.00     0.053 C 
BRANCH   7   8
ATOM      8  C   UNL     1     304.913 321.992 648.989  1.00  0.00     0.041 C 
ATOM      9  O   UNL     1     304.796 322.927 649.825  1.00  0.00    -0.550 OA
ATOM     10  O   UNL     1     304.610 320.689 649.365  1.00  0.00    -0.550 OA
ENDBRANCH   7   8
ENDBRANCH   6   7
ENDBRANCH   5   6
ENDBRANCH   4   5
ENDBRANCH   3   4
ENDBRANCH   2   3
ENDBRANCH   1   2
BRANCH   1  11
ATOM     11  C   UNL     1     299.050 324.462 645.417  1.00  0.00     0.000 C 
BRANCH  11  12
ATOM     12  C   UNL     1     300.345 324.418 644.584  1.00  0.00    -0.000 C 
BRANCH  12  13
ATOM     13  C   UNL     1     300.647 325.701 643.787  1.00  0.00    -0.000 C 
BRANCH  13  14
ATOM     14  C   UNL     1     301.753 326.554 644.430  1.00  0.00    -0.000 C 
BRANCH  14  15
ATOM     15  C   UNL     1     301.191 327.577 645.439  1.00  0.00    -0.000 C 
BRANCH  15  16
ATOM     16  C   UNL     1     299.834 328.174 645.023  1.00  0.00    -0.000 C 
BRANCH  16  17
ATOM     17  C   UNL     1     299.960 329.252 643.937  1.00  0.00    -0.003 C 
ATOM     18  C   UNL     1     299.480 330.608 644.448  1.00  0.00     0.004 C 
ENDBRANCH  16  17
ENDBRANCH  15  16
ENDBRANCH  14  15
ENDBRANCH  13  14
ENDBRANCH  12  13
ENDBRANCH  11  12
ENDBRANCH   1  11
TORSDOF 14
ENDMDL
