MODEL 1
REMARK VINA RESULT:    -7.350      0.000      0.000
REMARK INTER + INTRA:         -12.147
REMARK INTER:                 -10.788
REMARK INTRA:                  -1.359
REMARK UNBOUND:                -1.359
REMARK SMILES O=c1c(O[C@@H]2O[C@@H](CO)[C@H](O)[C@@H](O)[C@H]2O)c(-c2ccc(O)c(O)c2)oc2cc(O)cc(O)c12
REMARK SMILES IDX 4 1 3 2 16 3 25 4 2 5 26 6 1 7 33 8 27 9 31 10 28 11 30 12
REMARK SMILES IDX 17 13 18 14 19 15 20 16 24 17 22 18 21 19 23 21 32 23 29 25
REMARK SMILES IDX 5 27 14 28 6 29 12 30 7 31 10 32 15 33 13 35 8 37 9 38 11 40
REMARK H PARENT 21 20 23 22 32 24 29 26 15 34 13 36 9 39 11 41
REMARK Flexibility Score: inf
ROOT
ATOM      1  O   UNL     1       3.251  75.387  40.347  1.00  0.00    -0.454 OA
ENDROOT
BRANCH   1   2
ATOM      2  C   UNL     1       2.748  74.073  40.451  1.00  0.00     0.214 A 
ATOM      3  C   UNL     1       1.491  73.804  39.878  1.00  0.00     0.180 A 
ATOM      4  O   UNL     1       0.991  72.575  39.910  1.00  0.00    -0.452 OA
ATOM      5  C   UNL     1       3.441  73.009  41.075  1.00  0.00     0.239 A 
ATOM      6  C   UNL     1       1.614  71.545  40.463  1.00  0.00     0.146 A 
ATOM      7  O   UNL     1       4.518  73.238  41.680  1.00  0.00    -0.285 OA
ATOM      8  C   UNL     1       2.896  71.701  41.049  1.00  0.00     0.111 A 
ATOM      9  C   UNL     1       0.974  70.303  40.469  1.00  0.00     0.094 A 
ATOM     10  C   UNL     1       3.537  70.546  41.593  1.00  0.00     0.134 A 
ATOM     11  C   UNL     1       1.584  69.197  41.060  1.00  0.00     0.123 A 
ATOM     12  C   UNL     1       2.853  69.324  41.620  1.00  0.00     0.093 A 
BRANCH   3  13
ATOM     13  C   UNL     1       0.694  74.859  39.215  1.00  0.00     0.025 A 
ATOM     14  C   UNL     1       1.029  75.330  37.937  1.00  0.00     0.016 A 
ATOM     15  C   UNL     1       0.268  76.330  37.332  1.00  0.00     0.051 A 
ATOM     16  C   UNL     1      -0.830  76.891  37.994  1.00  0.00     0.157 A 
ATOM     17  C   UNL     1      -0.391  75.436  39.893  1.00  0.00     0.062 A 
ATOM     18  C   UNL     1      -1.161  76.442  39.294  1.00  0.00     0.158 A 
BRANCH  16  19
ATOM     19  O   UNL     1      -1.555  77.884  37.331  1.00  0.00    -0.504 OA
ATOM     20  H   UNL     1      -2.243  77.698  36.617  1.00  0.00     0.293 HD
ENDBRANCH  16  19
BRANCH  18  21
ATOM     21  O   UNL     1      -2.234  76.961  40.021  1.00  0.00    -0.504 OA
ATOM     22  H   UNL     1      -2.846  76.403  40.599  1.00  0.00     0.293 HD
ENDBRANCH  18  21
ENDBRANCH   3  13
BRANCH  10  23
ATOM     23  O   UNL     1       4.845  70.539  42.088  1.00  0.00    -0.507 OA
ATOM     24  H   UNL     1       5.604  71.092  41.719  1.00  0.00     0.293 HD
ENDBRANCH  10  23
BRANCH  11  25
ATOM     25  O   UNL     1       0.941  67.962  41.088  1.00  0.00    -0.508 OA
ATOM     26  H   UNL     1       0.065  67.808  40.600  1.00  0.00     0.293 HD
ENDBRANCH  11  25
ENDBRANCH   1   2
BRANCH   1  27
ATOM     27  C   UNL     1       4.304  75.856  39.496  1.00  0.00     0.339 C 
ATOM     28  C   UNL     1       3.913  77.209  38.874  1.00  0.00     0.214 C 
ATOM     29  O   UNL     1       5.537  75.954  40.194  1.00  0.00    -0.332 OA
ATOM     30  C   UNL     1       3.853  78.295  39.963  1.00  0.00     0.180 C 
ATOM     31  C   UNL     1       5.457  76.863  41.281  1.00  0.00     0.179 C 
ATOM     32  C   UNL     1       5.151  78.297  40.788  1.00  0.00     0.177 C 
BRANCH  28  33
ATOM     33  O   UNL     1       4.851  77.572  37.893  1.00  0.00    -0.384 OA
ATOM     34  H   UNL     1       4.581  78.465  37.551  1.00  0.00     0.211 HD
ENDBRANCH  28  33
BRANCH  30  35
ATOM     35  O   UNL     1       3.665  79.560  39.380  1.00  0.00    -0.387 OA
ATOM     36  H   UNL     1       3.298  80.150  40.087  1.00  0.00     0.211 HD
ENDBRANCH  30  35
BRANCH  31  37
ATOM     37  C   UNL     1       6.781  76.810  42.061  1.00  0.00     0.191 C 
BRANCH  37  38
ATOM     38  O   UNL     1       7.685  77.777  41.596  1.00  0.00    -0.394 OA
ATOM     39  H   UNL     1       7.901  77.539  40.656  1.00  0.00     0.210 HD
ENDBRANCH  37  38
ENDBRANCH  31  37
BRANCH  32  40
ATOM     40  O   UNL     1       5.006  79.155  41.891  1.00  0.00    -0.387 OA
ATOM     41  H   UNL     1       5.808  79.030  42.461  1.00  0.00     0.211 HD
ENDBRANCH  32  40
ENDBRANCH   1  27
TORSDOF 12
ENDMDL
MODEL 2
REMARK VINA RESULT:    -7.183      3.945      7.187
REMARK INTER + INTRA:         -11.902
REMARK INTER:                 -10.572
REMARK INTRA:                  -1.330
REMARK UNBOUND:                -1.359
REMARK SMILES O=c1c(O[C@@H]2O[C@@H](CO)[C@H](O)[C@@H](O)[C@H]2O)c(-c2ccc(O)c(O)c2)oc2cc(O)cc(O)c12
REMARK SMILES IDX 4 1 3 2 16 3 25 4 2 5 26 6 1 7 33 8 27 9 31 10 28 11 30 12
REMARK SMILES IDX 17 13 18 14 19 15 20 16 24 17 22 18 21 19 23 21 32 23 29 25
REMARK SMILES IDX 5 27 14 28 6 29 12 30 7 31 10 32 15 33 13 35 8 37 9 38 11 40
REMARK H PARENT 21 20 23 22 32 24 29 26 15 34 13 36 9 39 11 41
REMARK Flexibility Score: inf
ROOT
ATOM      1  O   UNL     1       1.981  76.428  41.773  1.00  0.00    -0.454 OA
ENDROOT
BRANCH   1   2
ATOM      2  C   UNL     1       1.447  76.318  43.074  1.00  0.00     0.214 A 
ATOM      3  C   UNL     1       2.337  76.417  44.160  1.00  0.00     0.180 A 
ATOM      4  O   UNL     1       1.881  76.364  45.405  1.00  0.00    -0.452 OA
ATOM      5  C   UNL     1       0.071  76.139  43.350  1.00  0.00     0.239 A 
ATOM      6  C   UNL     1       0.600  76.220  45.710  1.00  0.00     0.146 A 
ATOM      7  O   UNL     1      -0.735  75.951  42.404  1.00  0.00    -0.285 OA
ATOM      8  C   UNL     1      -0.384  76.134  44.692  1.00  0.00     0.111 A 
ATOM      9  C   UNL     1       0.240  76.141  47.058  1.00  0.00     0.094 A 
ATOM     10  C   UNL     1      -1.754  76.021  45.082  1.00  0.00     0.134 A 
ATOM     11  C   UNL     1      -1.095  75.967  47.424  1.00  0.00     0.123 A 
ATOM     12  C   UNL     1      -2.079  75.904  46.439  1.00  0.00     0.093 A 
BRANCH   3  13
ATOM     13  C   UNL     1       3.792  76.594  43.962  1.00  0.00     0.025 A 
ATOM     14  C   UNL     1       4.401  77.848  44.122  1.00  0.00     0.016 A 
ATOM     15  C   UNL     1       5.774  77.996  43.925  1.00  0.00     0.051 A 
ATOM     16  C   UNL     1       6.563  76.902  43.549  1.00  0.00     0.157 A 
ATOM     17  C   UNL     1       4.574  75.501  43.561  1.00  0.00     0.062 A 
ATOM     18  C   UNL     1       5.954  75.640  43.359  1.00  0.00     0.158 A 
BRANCH  16  19
ATOM     19  O   UNL     1       7.931  77.115  43.374  1.00  0.00    -0.504 OA
ATOM     20  H   UNL     1       8.559  77.388  44.116  1.00  0.00     0.293 HD
ENDBRANCH  16  19
BRANCH  18  21
ATOM     21  O   UNL     1       6.673  74.507  42.974  1.00  0.00    -0.504 OA
ATOM     22  H   UNL     1       7.675  74.419  43.057  1.00  0.00     0.293 HD
ENDBRANCH  18  21
ENDBRANCH   3  13
BRANCH  10  23
ATOM     23  O   UNL     1      -2.827  76.049  44.185  1.00  0.00    -0.507 OA
ATOM     24  H   UNL     1      -3.480  76.812  44.094  1.00  0.00     0.293 HD
ENDBRANCH  10  23
BRANCH  11  25
ATOM     25  O   UNL     1      -1.456  75.866  48.765  1.00  0.00    -0.508 OA
ATOM     26  H   UNL     1      -1.015  76.435  49.478  1.00  0.00     0.293 HD
ENDBRANCH  11  25
ENDBRANCH   1   2
BRANCH   1  27
ATOM     27  C   UNL     1       1.914  77.555  40.891  1.00  0.00     0.339 C 
ATOM     28  C   UNL     1       3.116  77.541  39.929  1.00  0.00     0.214 C 
ATOM     29  O   UNL     1       0.688  77.588  40.175  1.00  0.00    -0.332 OA
ATOM     30  C   UNL     1       3.005  76.351  38.959  1.00  0.00     0.180 C 
ATOM     31  C   UNL     1       0.517  76.430  39.369  1.00  0.00     0.179 C 
ATOM     32  C   UNL     1       1.621  76.334  38.290  1.00  0.00     0.177 C 
BRANCH  28  33
ATOM     33  O   UNL     1       3.158  78.743  39.201  1.00  0.00    -0.384 OA
ATOM     34  H   UNL     1       2.796  79.452  39.795  1.00  0.00     0.211 HD
ENDBRANCH  28  33
BRANCH  30  35
ATOM     35  O   UNL     1       4.003  76.431  37.974  1.00  0.00    -0.387 OA
ATOM     36  H   UNL     1       4.276  77.382  37.918  1.00  0.00     0.211 HD
ENDBRANCH  30  35
BRANCH  31  37
ATOM     37  C   UNL     1      -0.883  76.478  38.737  1.00  0.00     0.191 C 
BRANCH  37  38
ATOM     38  O   UNL     1      -1.852  76.864  39.676  1.00  0.00    -0.394 OA
ATOM     39  H   UNL     1      -1.898  76.141  40.355  1.00  0.00     0.210 HD
ENDBRANCH  37  38
ENDBRANCH  31  37
BRANCH  32  40
ATOM     40  O   UNL     1       1.465  75.144  37.560  1.00  0.00    -0.387 OA
ATOM     41  H   UNL     1       2.221  75.097  36.919  1.00  0.00     0.211 HD
ENDBRANCH  32  40
ENDBRANCH   1  27
TORSDOF 12
ENDMDL
MODEL 3
REMARK VINA RESULT:    -7.115      1.410      2.157
REMARK INTER + INTRA:         -11.802
REMARK INTER:                 -10.521
REMARK INTRA:                  -1.281
REMARK UNBOUND:                -1.359
REMARK SMILES O=c1c(O[C@@H]2O[C@@H](CO)[C@H](O)[C@@H](O)[C@H]2O)c(-c2ccc(O)c(O)c2)oc2cc(O)cc(O)c12
REMARK SMILES IDX 4 1 3 2 16 3 25 4 2 5 26 6 1 7 33 8 27 9 31 10 28 11 30 12
REMARK SMILES IDX 17 13 18 14 19 15 20 16 24 17 22 18 21 19 23 21 32 23 29 25
REMARK SMILES IDX 5 27 14 28 6 29 12 30 7 31 10 32 15 33 13 35 8 37 9 38 11 40
REMARK H PARENT 21 20 23 22 32 24 29 26 15 34 13 36 9 39 11 41
REMARK Flexibility Score: inf
ROOT
ATOM      1  O   UNL     1       2.172  74.801  41.192  1.00  0.00    -0.454 OA
ENDROOT
BRANCH   1   2
ATOM      2  C   UNL     1       1.955  73.522  40.637  1.00  0.00     0.214 A 
ATOM      3  C   UNL     1       1.095  73.426  39.527  1.00  0.00     0.180 A 
ATOM      4  O   UNL     1       0.891  72.253  38.939  1.00  0.00    -0.452 OA
ATOM      5  C   UNL     1       2.568  72.340  41.114  1.00  0.00     0.239 A 
ATOM      6  C   UNL     1       1.461  71.125  39.338  1.00  0.00     0.146 A 
ATOM      7  O   UNL     1       3.264  72.378  42.160  1.00  0.00    -0.285 OA
ATOM      8  C   UNL     1       2.363  71.115  40.432  1.00  0.00     0.111 A 
ATOM      9  C   UNL     1       1.144  69.943  38.664  1.00  0.00     0.094 A 
ATOM     10  C   UNL     1       2.979  69.876  40.791  1.00  0.00     0.134 A 
ATOM     11  C   UNL     1       1.704  68.730  39.064  1.00  0.00     0.123 A 
ATOM     12  C   UNL     1       2.610  68.702  40.121  1.00  0.00     0.093 A 
BRANCH   3  13
ATOM     13  C   UNL     1       0.404  74.609  38.969  1.00  0.00     0.025 A 
ATOM     14  C   UNL     1       0.790  75.165  37.741  1.00  0.00     0.016 A 
ATOM     15  C   UNL     1       0.129  76.285  37.235  1.00  0.00     0.051 A 
ATOM     16  C   UNL     1      -0.915  76.882  37.951  1.00  0.00     0.157 A 
ATOM     17  C   UNL     1      -0.625  75.218  39.703  1.00  0.00     0.062 A 
ATOM     18  C   UNL     1      -1.293  76.345  39.204  1.00  0.00     0.158 A 
BRANCH  16  19
ATOM     19  O   UNL     1      -1.539  77.996  37.388  1.00  0.00    -0.504 OA
ATOM     20  H   UNL     1      -1.606  78.895  37.842  1.00  0.00     0.293 HD
ENDBRANCH  16  19
BRANCH  18  21
ATOM     21  O   UNL     1      -2.317  76.891  39.981  1.00  0.00    -0.504 OA
ATOM     22  H   UNL     1      -3.237  77.110  39.628  1.00  0.00     0.293 HD
ENDBRANCH  18  21
ENDBRANCH   3  13
BRANCH  10  23
ATOM     23  O   UNL     1       3.973  69.751  41.766  1.00  0.00    -0.507 OA
ATOM     24  H   UNL     1       4.852  69.273  41.635  1.00  0.00     0.293 HD
ENDBRANCH  10  23
BRANCH  11  25
ATOM     25  O   UNL     1       1.373  67.546  38.409  1.00  0.00    -0.508 OA
ATOM     26  H   UNL     1       1.817  67.279  37.537  1.00  0.00     0.293 HD
ENDBRANCH  11  25
ENDBRANCH   1   2
BRANCH   1  27
ATOM     27  C   UNL     1       3.426  75.444  41.447  1.00  0.00     0.339 C 
ATOM     28  C   UNL     1       4.240  75.543  40.143  1.00  0.00     0.214 C 
ATOM     29  O   UNL     1       3.249  76.724  42.036  1.00  0.00    -0.332 OA
ATOM     30  C   UNL     1       3.558  76.517  39.166  1.00  0.00     0.180 C 
ATOM     31  C   UNL     1       2.510  77.594  41.192  1.00  0.00     0.179 C 
ATOM     32  C   UNL     1       3.260  77.854  39.864  1.00  0.00     0.177 C 
BRANCH  28  33
ATOM     33  O   UNL     1       5.542  75.990  40.427  1.00  0.00    -0.384 OA
ATOM     34  H   UNL     1       5.607  76.922  40.089  1.00  0.00     0.211 HD
ENDBRANCH  28  33
BRANCH  30  35
ATOM     35  O   UNL     1       4.380  76.742  38.050  1.00  0.00    -0.387 OA
ATOM     36  H   UNL     1       4.979  75.955  37.971  1.00  0.00     0.211 HD
ENDBRANCH  30  35
BRANCH  31  37
ATOM     37  C   UNL     1       2.246  78.904  41.952  1.00  0.00     0.191 C 
BRANCH  37  38
ATOM     38  O   UNL     1       3.105  79.926  41.518  1.00  0.00    -0.394 OA
ATOM     39  H   UNL     1       3.939  79.845  42.050  1.00  0.00     0.210 HD
ENDBRANCH  37  38
ENDBRANCH  31  37
BRANCH  32  40
ATOM     40  O   UNL     1       2.470  78.658  39.025  1.00  0.00    -0.387 OA
ATOM     41  H   UNL     1       1.597  78.198  38.925  1.00  0.00     0.211 HD
ENDBRANCH  32  40
ENDBRANCH   1  27
TORSDOF 12
ENDMDL
MODEL 4
REMARK VINA RESULT:    -6.876      1.045      2.190
REMARK INTER + INTRA:         -11.450
REMARK INTER:                 -10.421
REMARK INTRA:                  -1.030
REMARK UNBOUND:                -1.359
REMARK SMILES O=c1c(O[C@@H]2O[C@@H](CO)[C@H](O)[C@@H](O)[C@H]2O)c(-c2ccc(O)c(O)c2)oc2cc(O)cc(O)c12
REMARK SMILES IDX 4 1 3 2 16 3 25 4 2 5 26 6 1 7 33 8 27 9 31 10 28 11 30 12
REMARK SMILES IDX 17 13 18 14 19 15 20 16 24 17 22 18 21 19 23 21 32 23 29 25
REMARK SMILES IDX 5 27 14 28 6 29 12 30 7 31 10 32 15 33 13 35 8 37 9 38 11 40
REMARK H PARENT 21 20 23 22 32 24 29 26 15 34 13 36 9 39 11 41
REMARK Flexibility Score: inf
ROOT
ATOM      1  O   UNL     1       3.399  74.894  40.145  1.00  0.00    -0.454 OA
ENDROOT
BRANCH   1   2
ATOM      2  C   UNL     1       2.750  73.696  40.510  1.00  0.00     0.214 A 
ATOM      3  C   UNL     1       1.399  73.543  40.145  1.00  0.00     0.180 A 
ATOM      4  O   UNL     1       0.754  72.418  40.425  1.00  0.00    -0.452 OA
ATOM      5  C   UNL     1       3.382  72.633  41.197  1.00  0.00     0.239 A 
ATOM      6  C   UNL     1       1.312  71.389  41.047  1.00  0.00     0.146 A 
ATOM      7  O   UNL     1       4.556  72.777  41.621  1.00  0.00    -0.285 OA
ATOM      8  C   UNL     1       2.675  71.429  41.438  1.00  0.00     0.111 A 
ATOM      9  C   UNL     1       0.524  70.268  41.321  1.00  0.00     0.094 A 
ATOM     10  C   UNL     1       3.233  70.274  42.067  1.00  0.00     0.134 A 
ATOM     11  C   UNL     1       1.065  69.172  41.992  1.00  0.00     0.123 A 
ATOM     12  C   UNL     1       2.407  69.182  42.364  1.00  0.00     0.093 A 
BRANCH   3  13
ATOM     13  C   UNL     1       0.658  74.607  39.434  1.00  0.00     0.025 A 
ATOM     14  C   UNL     1       1.022  75.007  38.140  1.00  0.00     0.016 A 
ATOM     15  C   UNL     1       0.314  76.018  37.488  1.00  0.00     0.051 A 
ATOM     16  C   UNL     1      -0.758  76.660  38.120  1.00  0.00     0.157 A 
ATOM     17  C   UNL     1      -0.399  75.265  40.081  1.00  0.00     0.062 A 
ATOM     18  C   UNL     1      -1.115  76.282  39.436  1.00  0.00     0.158 A 
BRANCH  16  19
ATOM     19  O   UNL     1      -1.430  77.658  37.412  1.00  0.00    -0.504 OA
ATOM     20  H   UNL     1      -1.442  77.724  36.405  1.00  0.00     0.293 HD
ENDBRANCH  16  19
BRANCH  18  21
ATOM     21  O   UNL     1      -2.164  76.883  40.134  1.00  0.00    -0.504 OA
ATOM     22  H   UNL     1      -2.900  77.418  39.696  1.00  0.00     0.293 HD
ENDBRANCH  18  21
ENDBRANCH   3  13
BRANCH  10  23
ATOM     23  O   UNL     1       4.586  70.138  42.391  1.00  0.00    -0.507 OA
ATOM     24  H   UNL     1       5.348  70.517  41.850  1.00  0.00     0.293 HD
ENDBRANCH  10  23
BRANCH  11  25
ATOM     25  O   UNL     1       0.277  68.061  42.287  1.00  0.00    -0.508 OA
ATOM     26  H   UNL     1      -0.724  68.142  42.426  1.00  0.00     0.293 HD
ENDBRANCH  11  25
ENDBRANCH   1   2
BRANCH   1  27
ATOM     27  C   UNL     1       3.418  76.133  40.864  1.00  0.00     0.339 C 
ATOM     28  C   UNL     1       4.576  76.134  41.879  1.00  0.00     0.214 C 
ATOM     29  O   UNL     1       3.509  77.246  39.987  1.00  0.00    -0.332 OA
ATOM     30  C   UNL     1       5.927  76.154  41.143  1.00  0.00     0.180 C 
ATOM     31  C   UNL     1       4.697  77.209  39.210  1.00  0.00     0.179 C 
ATOM     32  C   UNL     1       5.954  77.290  40.107  1.00  0.00     0.177 C 
BRANCH  28  33
ATOM     33  O   UNL     1       4.475  77.258  42.717  1.00  0.00    -0.384 OA
ATOM     34  H   UNL     1       4.570  76.933  43.650  1.00  0.00     0.211 HD
ENDBRANCH  28  33
BRANCH  30  35
ATOM     35  O   UNL     1       6.978  76.326  42.058  1.00  0.00    -0.387 OA
ATOM     36  H   UNL     1       7.811  76.056  41.592  1.00  0.00     0.211 HD
ENDBRANCH  30  35
BRANCH  31  37
ATOM     37  C   UNL     1       4.654  78.366  38.198  1.00  0.00     0.191 C 
BRANCH  37  38
ATOM     38  O   UNL     1       4.012  79.491  38.738  1.00  0.00    -0.394 OA
ATOM     39  H   UNL     1       4.727  80.121  39.019  1.00  0.00     0.210 HD
ENDBRANCH  37  38
ENDBRANCH  31  37
BRANCH  32  40
ATOM     40  O   UNL     1       7.108  77.177  39.314  1.00  0.00    -0.387 OA
ATOM     41  H   UNL     1       7.717  76.546  39.780  1.00  0.00     0.211 HD
ENDBRANCH  32  40
ENDBRANCH   1  27
TORSDOF 12
ENDMDL
MODEL 5
REMARK VINA RESULT:    -6.776      3.990      5.539
REMARK INTER + INTRA:         -11.304
REMARK INTER:                  -9.531
REMARK INTRA:                  -1.774
REMARK UNBOUND:                -1.359
REMARK SMILES O=c1c(O[C@@H]2O[C@@H](CO)[C@H](O)[C@@H](O)[C@H]2O)c(-c2ccc(O)c(O)c2)oc2cc(O)cc(O)c12
REMARK SMILES IDX 4 1 3 2 16 3 25 4 2 5 26 6 1 7 33 8 27 9 31 10 28 11 30 12
REMARK SMILES IDX 17 13 18 14 19 15 20 16 24 17 22 18 21 19 23 21 32 23 29 25
REMARK SMILES IDX 5 27 14 28 6 29 12 30 7 31 10 32 15 33 13 35 8 37 9 38 11 40
REMARK H PARENT 21 20 23 22 32 24 29 26 15 34 13 36 9 39 11 41
REMARK Flexibility Score: inf
ROOT
ATOM      1  O   UNL     1       3.211  76.923  42.877  1.00  0.00    -0.454 OA
ENDROOT
BRANCH   1   2
ATOM      2  C   UNL     1       2.015  76.746  43.605  1.00  0.00     0.214 A 
ATOM      3  C   UNL     1       0.873  76.327  42.898  1.00  0.00     0.180 A 
ATOM      4  O   UNL     1      -0.266  76.104  43.542  1.00  0.00    -0.452 OA
ATOM      5  C   UNL     1       1.905  76.941  45.002  1.00  0.00     0.239 A 
ATOM      6  C   UNL     1      -0.409  76.252  44.851  1.00  0.00     0.146 A 
ATOM      7  O   UNL     1       2.880  77.407  45.644  1.00  0.00    -0.285 OA
ATOM      8  C   UNL     1       0.685  76.648  45.660  1.00  0.00     0.111 A 
ATOM      9  C   UNL     1      -1.667  76.022  45.414  1.00  0.00     0.094 A 
ATOM     10  C   UNL     1       0.482  76.751  47.071  1.00  0.00     0.134 A 
ATOM     11  C   UNL     1      -1.868  76.188  46.784  1.00  0.00     0.123 A 
ATOM     12  C   UNL     1      -0.799  76.553  47.601  1.00  0.00     0.093 A 
BRANCH   3  13
ATOM     13  C   UNL     1       0.896  76.109  41.436  1.00  0.00     0.025 A 
ATOM     14  C   UNL     1       1.292  74.880  40.889  1.00  0.00     0.016 A 
ATOM     15  C   UNL     1       1.313  74.696  39.506  1.00  0.00     0.051 A 
ATOM     16  C   UNL     1       0.956  75.738  38.642  1.00  0.00     0.157 A 
ATOM     17  C   UNL     1       0.561  77.164  40.573  1.00  0.00     0.062 A 
ATOM     18  C   UNL     1       0.581  76.991  39.183  1.00  0.00     0.158 A 
BRANCH  16  19
ATOM     19  O   UNL     1       0.992  75.489  37.269  1.00  0.00    -0.504 OA
ATOM     20  H   UNL     1       1.815  75.182  36.773  1.00  0.00     0.293 HD
ENDBRANCH  16  19
BRANCH  18  21
ATOM     21  O   UNL     1       0.224  78.079  38.386  1.00  0.00    -0.504 OA
ATOM     22  H   UNL     1       0.559  78.224  37.444  1.00  0.00     0.293 HD
ENDBRANCH  18  21
ENDBRANCH   3  13
BRANCH  10  23
ATOM     23  O   UNL     1       1.502  77.012  47.991  1.00  0.00    -0.507 OA
ATOM     24  H   UNL     1       2.119  76.315  48.380  1.00  0.00     0.293 HD
ENDBRANCH  10  23
BRANCH  11  25
ATOM     25  O   UNL     1      -3.125  75.981  47.348  1.00  0.00    -0.508 OA
ATOM     26  H   UNL     1      -3.819  75.395  46.898  1.00  0.00     0.293 HD
ENDBRANCH  11  25
ENDBRANCH   1   2
BRANCH   1  27
ATOM     27  C   UNL     1       3.811  78.157  42.465  1.00  0.00     0.339 C 
ATOM     28  C   UNL     1       5.247  78.252  43.013  1.00  0.00     0.214 C 
ATOM     29  O   UNL     1       3.794  78.302  41.053  1.00  0.00    -0.332 OA
ATOM     30  C   UNL     1       6.143  77.201  42.335  1.00  0.00     0.180 C 
ATOM     31  C   UNL     1       4.517  77.263  40.408  1.00  0.00     0.179 C 
ATOM     32  C   UNL     1       6.011  77.294  40.805  1.00  0.00     0.177 C 
BRANCH  28  33
ATOM     33  O   UNL     1       5.763  79.538  42.779  1.00  0.00    -0.384 OA
ATOM     34  H   UNL     1       5.771  80.009  43.654  1.00  0.00     0.211 HD
ENDBRANCH  28  33
BRANCH  30  35
ATOM     35  O   UNL     1       7.485  77.395  42.703  1.00  0.00    -0.387 OA
ATOM     36  H   UNL     1       7.612  78.371  42.825  1.00  0.00     0.211 HD
ENDBRANCH  30  35
BRANCH  31  37
ATOM     37  C   UNL     1       4.338  77.415  38.889  1.00  0.00     0.191 C 
BRANCH  37  38
ATOM     38  O   UNL     1       4.299  76.163  38.254  1.00  0.00    -0.394 OA
ATOM     39  H   UNL     1       4.841  76.245  37.426  1.00  0.00     0.210 HD
ENDBRANCH  37  38
ENDBRANCH  31  37
BRANCH  32  40
ATOM     40  O   UNL     1       6.680  76.211  40.209  1.00  0.00    -0.387 OA
ATOM     41  H   UNL     1       6.183  75.391  40.461  1.00  0.00     0.211 HD
ENDBRANCH  32  40
ENDBRANCH   1  27
TORSDOF 12
ENDMDL
MODEL 6
REMARK VINA RESULT:    -6.738      3.970      6.653
REMARK INTER + INTRA:         -11.248
REMARK INTER:                  -9.751
REMARK INTRA:                  -1.498
REMARK UNBOUND:                -1.359
REMARK SMILES O=c1c(O[C@@H]2O[C@@H](CO)[C@H](O)[C@@H](O)[C@H]2O)c(-c2ccc(O)c(O)c2)oc2cc(O)cc(O)c12
REMARK SMILES IDX 4 1 3 2 16 3 25 4 2 5 26 6 1 7 33 8 27 9 31 10 28 11 30 12
REMARK SMILES IDX 17 13 18 14 19 15 20 16 24 17 22 18 21 19 23 21 32 23 29 25
REMARK SMILES IDX 5 27 14 28 6 29 12 30 7 31 10 32 15 33 13 35 8 37 9 38 11 40
REMARK H PARENT 21 20 23 22 32 24 29 26 15 34 13 36 9 39 11 41
REMARK Flexibility Score: inf
ROOT
ATOM      1  O   UNL     1       1.925  76.864  41.882  1.00  0.00    -0.454 OA
ENDROOT
BRANCH   1   2
ATOM      2  C   UNL     1       1.404  76.540  43.152  1.00  0.00     0.214 A 
ATOM      3  C   UNL     1       2.306  76.460  44.230  1.00  0.00     0.180 A 
ATOM      4  O   UNL     1       1.863  76.201  45.454  1.00  0.00    -0.452 OA
ATOM      5  C   UNL     1       0.031  76.317  43.409  1.00  0.00     0.239 A 
ATOM      6  C   UNL     1       0.585  76.007  45.745  1.00  0.00     0.146 A 
ATOM      7  O   UNL     1      -0.785  76.286  42.454  1.00  0.00    -0.285 OA
ATOM      8  C   UNL     1      -0.410  76.090  44.737  1.00  0.00     0.111 A 
ATOM      9  C   UNL     1       0.239  75.706  47.065  1.00  0.00     0.094 A 
ATOM     10  C   UNL     1      -1.776  75.912  45.117  1.00  0.00     0.134 A 
ATOM     11  C   UNL     1      -1.092  75.474  47.411  1.00  0.00     0.123 A 
ATOM     12  C   UNL     1      -2.086  75.573  46.440  1.00  0.00     0.093 A 
BRANCH   3  13
ATOM     13  C   UNL     1       3.759  76.668  44.049  1.00  0.00     0.025 A 
ATOM     14  C   UNL     1       4.337  77.936  44.210  1.00  0.00     0.016 A 
ATOM     15  C   UNL     1       5.709  78.113  44.029  1.00  0.00     0.051 A 
ATOM     16  C   UNL     1       6.527  77.036  43.668  1.00  0.00     0.157 A 
ATOM     17  C   UNL     1       4.570  75.591  43.663  1.00  0.00     0.062 A 
ATOM     18  C   UNL     1       5.949  75.759  43.477  1.00  0.00     0.158 A 
BRANCH  16  19
ATOM     19  O   UNL     1       7.892  77.278  43.508  1.00  0.00    -0.504 OA
ATOM     20  H   UNL     1       8.327  78.178  43.652  1.00  0.00     0.293 HD
ENDBRANCH  16  19
BRANCH  18  21
ATOM     21  O   UNL     1       6.697  74.641  43.105  1.00  0.00    -0.504 OA
ATOM     22  H   UNL     1       7.616  74.432  43.467  1.00  0.00     0.293 HD
ENDBRANCH  18  21
ENDBRANCH   3  13
BRANCH  10  23
ATOM     23  O   UNL     1      -2.858  76.088  44.249  1.00  0.00    -0.507 OA
ATOM     24  H   UNL     1      -3.235  76.981  43.972  1.00  0.00     0.293 HD
ENDBRANCH  10  23
BRANCH  11  25
ATOM     25  O   UNL     1      -1.439  75.152  48.721  1.00  0.00    -0.508 OA
ATOM     26  H   UNL     1      -1.630  75.870  49.411  1.00  0.00     0.293 HD
ENDBRANCH  11  25
ENDBRANCH   1   2
BRANCH   1  27
ATOM     27  C   UNL     1       2.161  75.978  40.781  1.00  0.00     0.339 C 
ATOM     28  C   UNL     1       1.256  76.362  39.595  1.00  0.00     0.214 C 
ATOM     29  O   UNL     1       3.528  75.972  40.397  1.00  0.00    -0.332 OA
ATOM     30  C   UNL     1       1.681  77.726  39.024  1.00  0.00     0.180 C 
ATOM     31  C   UNL     1       3.966  77.259  39.985  1.00  0.00     0.179 C 
ATOM     32  C   UNL     1       3.191  77.737  38.735  1.00  0.00     0.177 C 
BRANCH  28  33
ATOM     33  O   UNL     1       1.342  75.380  38.592  1.00  0.00    -0.384 OA
ATOM     34  H   UNL     1       2.194  74.891  38.740  1.00  0.00     0.211 HD
ENDBRANCH  28  33
BRANCH  30  35
ATOM     35  O   UNL     1       0.974  78.001  37.841  1.00  0.00    -0.387 OA
ATOM     36  H   UNL     1       1.631  78.359  37.190  1.00  0.00     0.211 HD
ENDBRANCH  30  35
BRANCH  31  37
ATOM     37  C   UNL     1       5.478  77.197  39.718  1.00  0.00     0.191 C 
BRANCH  37  38
ATOM     38  O   UNL     1       6.044  76.033  40.261  1.00  0.00    -0.394 OA
ATOM     39  H   UNL     1       6.360  75.485  39.495  1.00  0.00     0.210 HD
ENDBRANCH  37  38
ENDBRANCH  31  37
BRANCH  32  40
ATOM     40  O   UNL     1       3.596  79.040  38.399  1.00  0.00    -0.387 OA
ATOM     41  H   UNL     1       2.810  79.630  38.534  1.00  0.00     0.211 HD
ENDBRANCH  32  40
ENDBRANCH   1  27
TORSDOF 12
ENDMDL
MODEL 7
REMARK VINA RESULT:    -6.704      4.069      5.593
REMARK INTER + INTRA:         -11.198
REMARK INTER:                  -9.548
REMARK INTRA:                  -1.650
REMARK UNBOUND:                -1.359
REMARK SMILES O=c1c(O[C@@H]2O[C@@H](CO)[C@H](O)[C@@H](O)[C@H]2O)c(-c2ccc(O)c(O)c2)oc2cc(O)cc(O)c12
REMARK SMILES IDX 4 1 3 2 16 3 25 4 2 5 26 6 1 7 33 8 27 9 31 10 28 11 30 12
REMARK SMILES IDX 17 13 18 14 19 15 20 16 24 17 22 18 21 19 23 21 32 23 29 25
REMARK SMILES IDX 5 27 14 28 6 29 12 30 7 31 10 32 15 33 13 35 8 37 9 38 11 40
REMARK H PARENT 21 20 23 22 32 24 29 26 15 34 13 36 9 39 11 41
REMARK Flexibility Score: inf
ROOT
ATOM      1  O   UNL     1       1.728  76.626  41.840  1.00  0.00    -0.454 OA
ENDROOT
BRANCH   1   2
ATOM      2  C   UNL     1       1.027  76.376  43.038  1.00  0.00     0.214 A 
ATOM      3  C   UNL     1      -0.233  75.755  42.945  1.00  0.00     0.180 A 
ATOM      4  O   UNL     1      -0.914  75.457  44.044  1.00  0.00    -0.452 OA
ATOM      5  C   UNL     1       1.525  76.689  44.325  1.00  0.00     0.239 A 
ATOM      6  C   UNL     1      -0.477  75.712  45.268  1.00  0.00     0.146 A 
ATOM      7  O   UNL     1       2.601  77.330  44.437  1.00  0.00    -0.285 OA
ATOM      8  C   UNL     1       0.790  76.314  45.477  1.00  0.00     0.111 A 
ATOM      9  C   UNL     1      -1.298  75.386  46.351  1.00  0.00     0.094 A 
ATOM     10  C   UNL     1       1.226  76.527  46.820  1.00  0.00     0.134 A 
ATOM     11  C   UNL     1      -0.887  75.656  47.656  1.00  0.00     0.123 A 
ATOM     12  C   UNL     1       0.364  76.226  47.883  1.00  0.00     0.093 A 
BRANCH   3  13
ATOM     13  C   UNL     1      -0.834  75.402  41.640  1.00  0.00     0.025 A 
ATOM     14  C   UNL     1      -0.660  74.128  41.080  1.00  0.00     0.016 A 
ATOM     15  C   UNL     1      -1.230  73.817  39.845  1.00  0.00     0.051 A 
ATOM     16  C   UNL     1      -1.969  74.773  39.139  1.00  0.00     0.157 A 
ATOM     17  C   UNL     1      -1.553  76.371  40.925  1.00  0.00     0.062 A 
ATOM     18  C   UNL     1      -2.127  76.069  39.683  1.00  0.00     0.158 A 
BRANCH  16  19
ATOM     19  O   UNL     1      -2.519  74.397  37.912  1.00  0.00    -0.504 OA
ATOM     20  H   UNL     1      -2.711  75.041  37.158  1.00  0.00     0.293 HD
ENDBRANCH  16  19
BRANCH  18  21
ATOM     21  O   UNL     1      -2.841  77.078  39.033  1.00  0.00    -0.504 OA
ATOM     22  H   UNL     1      -3.614  77.579  39.447  1.00  0.00     0.293 HD
ENDBRANCH  18  21
ENDBRANCH   3  13
BRANCH  10  23
ATOM     23  O   UNL     1       2.497  76.997  47.164  1.00  0.00    -0.507 OA
ATOM     24  H   UNL     1       3.171  77.367  46.510  1.00  0.00     0.293 HD
ENDBRANCH  10  23
BRANCH  11  25
ATOM     25  O   UNL     1      -1.711  75.353  48.738  1.00  0.00    -0.508 OA
ATOM     26  H   UNL     1      -1.826  74.402  49.067  1.00  0.00     0.293 HD
ENDBRANCH  11  25
ENDBRANCH   1   2
BRANCH   1  27
ATOM     27  C   UNL     1       1.913  77.885  41.181  1.00  0.00     0.339 C 
ATOM     28  C   UNL     1       3.417  78.174  41.016  1.00  0.00     0.214 C 
ATOM     29  O   UNL     1       1.246  77.923  39.928  1.00  0.00    -0.332 OA
ATOM     30  C   UNL     1       4.042  77.180  40.021  1.00  0.00     0.180 C 
ATOM     31  C   UNL     1       1.731  76.925  39.042  1.00  0.00     0.179 C 
ATOM     32  C   UNL     1       3.227  77.146  38.717  1.00  0.00     0.177 C 
BRANCH  28  33
ATOM     33  O   UNL     1       3.601  79.488  40.553  1.00  0.00    -0.384 OA
ATOM     34  H   UNL     1       2.883  80.041  40.958  1.00  0.00     0.211 HD
ENDBRANCH  28  33
BRANCH  30  35
ATOM     35  O   UNL     1       5.368  77.544  39.737  1.00  0.00    -0.387 OA
ATOM     36  H   UNL     1       5.337  78.161  38.960  1.00  0.00     0.211 HD
ENDBRANCH  30  35
BRANCH  31  37
ATOM     37  C   UNL     1       0.872  76.945  37.768  1.00  0.00     0.191 C 
BRANCH  37  38
ATOM     38  O   UNL     1      -0.077  77.979  37.809  1.00  0.00    -0.394 OA
ATOM     39  H   UNL     1       0.352  78.742  38.278  1.00  0.00     0.210 HD
ENDBRANCH  37  38
ENDBRANCH  31  37
BRANCH  32  40
ATOM     40  O   UNL     1       3.692  76.102  37.899  1.00  0.00    -0.387 OA
ATOM     41  H   UNL     1       3.956  75.360  38.502  1.00  0.00     0.211 HD
ENDBRANCH  32  40
ENDBRANCH   1  27
TORSDOF 12
ENDMDL
MODEL 8
REMARK VINA RESULT:    -6.667      3.821      4.918
REMARK INTER + INTRA:         -11.144
REMARK INTER:                 -10.028
REMARK INTRA:                  -1.116
REMARK UNBOUND:                -1.359
REMARK SMILES O=c1c(O[C@@H]2O[C@@H](CO)[C@H](O)[C@@H](O)[C@H]2O)c(-c2ccc(O)c(O)c2)oc2cc(O)cc(O)c12
REMARK SMILES IDX 4 1 3 2 16 3 25 4 2 5 26 6 1 7 33 8 27 9 31 10 28 11 30 12
REMARK SMILES IDX 17 13 18 14 19 15 20 16 24 17 22 18 21 19 23 21 32 23 29 25
REMARK SMILES IDX 5 27 14 28 6 29 12 30 7 31 10 32 15 33 13 35 8 37 9 38 11 40
REMARK H PARENT 21 20 23 22 32 24 29 26 15 34 13 36 9 39 11 41
REMARK Flexibility Score: inf
ROOT
ATOM      1  O   UNL     1       2.377  76.530  42.146  1.00  0.00    -0.454 OA
ENDROOT
BRANCH   1   2
ATOM      2  C   UNL     1       1.318  76.344  43.060  1.00  0.00     0.214 A 
ATOM      3  C   UNL     1       0.029  76.133  42.537  1.00  0.00     0.180 A 
ATOM      4  O   UNL     1      -0.994  75.909  43.352  1.00  0.00    -0.452 OA
ATOM      5  C   UNL     1       1.482  76.333  44.465  1.00  0.00     0.239 A 
ATOM      6  C   UNL     1      -0.884  75.868  44.672  1.00  0.00     0.146 A 
ATOM      7  O   UNL     1       2.600  76.614  44.965  1.00  0.00    -0.285 OA
ATOM      8  C   UNL     1       0.374  76.045  45.302  1.00  0.00     0.111 A 
ATOM      9  C   UNL     1      -2.038  75.660  45.432  1.00  0.00     0.094 A 
ATOM     10  C   UNL     1       0.439  75.949  46.726  1.00  0.00     0.134 A 
ATOM     11  C   UNL     1      -1.972  75.632  46.825  1.00  0.00     0.123 A 
ATOM     12  C   UNL     1      -0.741  75.780  47.461  1.00  0.00     0.093 A 
BRANCH   3  13
ATOM     13  C   UNL     1      -0.234  76.138  41.082  1.00  0.00     0.025 A 
ATOM     14  C   UNL     1      -0.925  75.086  40.463  1.00  0.00     0.016 A 
ATOM     15  C   UNL     1      -1.157  75.107  39.088  1.00  0.00     0.051 A 
ATOM     16  C   UNL     1      -0.691  76.166  38.301  1.00  0.00     0.157 A 
ATOM     17  C   UNL     1       0.257  77.190  40.294  1.00  0.00     0.062 A 
ATOM     18  C   UNL     1       0.030  77.219  38.911  1.00  0.00     0.158 A 
BRANCH  16  19
ATOM     19  O   UNL     1      -0.962  76.131  36.932  1.00  0.00    -0.504 OA
ATOM     20  H   UNL     1      -1.880  76.268  36.535  1.00  0.00     0.293 HD
ENDBRANCH  16  19
BRANCH  18  21
ATOM     21  O   UNL     1       0.535  78.303  38.191  1.00  0.00    -0.504 OA
ATOM     22  H   UNL     1       0.879  79.152  38.617  1.00  0.00     0.293 HD
ENDBRANCH  18  21
ENDBRANCH   3  13
BRANCH  10  23
ATOM     23  O   UNL     1       1.630  75.983  47.458  1.00  0.00    -0.507 OA
ATOM     24  H   UNL     1       2.483  75.515  47.192  1.00  0.00     0.293 HD
ENDBRANCH  10  23
BRANCH  11  25
ATOM     25  O   UNL     1      -3.123  75.447  47.587  1.00  0.00    -0.508 OA
ATOM     26  H   UNL     1      -3.101  75.489  48.600  1.00  0.00     0.293 HD
ENDBRANCH  11  25
ENDBRANCH   1   2
BRANCH   1  27
ATOM     27  C   UNL     1       3.468  75.642  41.878  1.00  0.00     0.339 C 
ATOM     28  C   UNL     1       3.433  75.196  40.404  1.00  0.00     0.214 C 
ATOM     29  O   UNL     1       4.718  76.235  42.200  1.00  0.00    -0.332 OA
ATOM     30  C   UNL     1       3.738  76.390  39.482  1.00  0.00     0.180 C 
ATOM     31  C   UNL     1       4.954  77.411  41.441  1.00  0.00     0.179 C 
ATOM     32  C   UNL     1       5.030  77.094  39.929  1.00  0.00     0.177 C 
BRANCH  28  33
ATOM     33  O   UNL     1       4.378  74.178  40.191  1.00  0.00    -0.384 OA
ATOM     34  H   UNL     1       3.915  73.315  40.356  1.00  0.00     0.211 HD
ENDBRANCH  28  33
BRANCH  30  35
ATOM     35  O   UNL     1       3.875  75.956  38.153  1.00  0.00    -0.387 OA
ATOM     36  H   UNL     1       4.771  75.537  38.079  1.00  0.00     0.211 HD
ENDBRANCH  30  35
BRANCH  31  37
ATOM     37  C   UNL     1       6.253  78.062  41.943  1.00  0.00     0.191 C 
BRANCH  37  38
ATOM     38  O   UNL     1       7.359  77.640  41.187  1.00  0.00    -0.394 OA
ATOM     39  H   UNL     1       7.277  76.656  41.086  1.00  0.00     0.210 HD
ENDBRANCH  37  38
ENDBRANCH  31  37
BRANCH  32  40
ATOM     40  O   UNL     1       5.191  78.286  39.204  1.00  0.00    -0.387 OA
ATOM     41  H   UNL     1       4.756  78.149  38.323  1.00  0.00     0.211 HD
ENDBRANCH  32  40
ENDBRANCH   1  27
TORSDOF 12
ENDMDL
MODEL 9
REMARK VINA RESULT:    -6.496      4.024      6.634
REMARK INTER + INTRA:         -10.892
REMARK INTER:                  -9.342
REMARK INTRA:                  -1.550
REMARK UNBOUND:                -1.359
REMARK SMILES O=c1c(O[C@@H]2O[C@@H](CO)[C@H](O)[C@@H](O)[C@H]2O)c(-c2ccc(O)c(O)c2)oc2cc(O)cc(O)c12
REMARK SMILES IDX 4 1 3 2 16 3 25 4 2 5 26 6 1 7 33 8 27 9 31 10 28 11 30 12
REMARK SMILES IDX 17 13 18 14 19 15 20 16 24 17 22 18 21 19 23 21 32 23 29 25
REMARK SMILES IDX 5 27 14 28 6 29 12 30 7 31 10 32 15 33 13 35 8 37 9 38 11 40
REMARK H PARENT 21 20 23 22 32 24 29 26 15 34 13 36 9 39 11 41
REMARK Flexibility Score: inf
ROOT
ATOM      1  O   UNL     1       1.399  76.425  41.944  1.00  0.00    -0.454 OA
ENDROOT
BRANCH   1   2
ATOM      2  C   UNL     1       1.693  76.169  43.299  1.00  0.00     0.214 A 
ATOM      3  C   UNL     1       3.046  76.144  43.685  1.00  0.00     0.180 A 
ATOM      4  O   UNL     1       3.376  75.951  44.955  1.00  0.00    -0.452 OA
ATOM      5  C   UNL     1       0.709  75.960  44.294  1.00  0.00     0.239 A 
ATOM      6  C   UNL     1       2.489  75.773  45.923  1.00  0.00     0.146 A 
ATOM      7  O   UNL     1      -0.501  75.880  43.967  1.00  0.00    -0.285 OA
ATOM      8  C   UNL     1       1.098  75.803  45.648  1.00  0.00     0.111 A 
ATOM      9  C   UNL     1       2.954  75.542  47.221  1.00  0.00     0.094 A 
ATOM     10  C   UNL     1       0.188  75.647  46.739  1.00  0.00     0.134 A 
ATOM     11  C   UNL     1       2.056  75.329  48.266  1.00  0.00     0.123 A 
ATOM     12  C   UNL     1       0.685  75.377  48.020  1.00  0.00     0.093 A 
BRANCH   3  13
ATOM     13  C   UNL     1       4.139  76.343  42.708  1.00  0.00     0.025 A 
ATOM     14  C   UNL     1       4.475  77.622  42.242  1.00  0.00     0.016 A 
ATOM     15  C   UNL     1       5.506  77.788  41.316  1.00  0.00     0.051 A 
ATOM     16  C   UNL     1       6.208  76.681  40.825  1.00  0.00     0.157 A 
ATOM     17  C   UNL     1       4.824  75.229  42.199  1.00  0.00     0.062 A 
ATOM     18  C   UNL     1       5.859  75.384  41.268  1.00  0.00     0.158 A 
BRANCH  16  19
ATOM     19  O   UNL     1       7.232  76.915  39.905  1.00  0.00    -0.504 OA
ATOM     20  H   UNL     1       7.852  76.198  39.556  1.00  0.00     0.293 HD
ENDBRANCH  16  19
BRANCH  18  21
ATOM     21  O   UNL     1       6.506  74.233  40.815  1.00  0.00    -0.504 OA
ATOM     22  H   UNL     1       6.165  73.654  40.061  1.00  0.00     0.293 HD
ENDBRANCH  18  21
ENDBRANCH   3  13
BRANCH  10  23
ATOM     23  O   UNL     1      -1.199  75.776  46.624  1.00  0.00    -0.507 OA
ATOM     24  H   UNL     1      -1.872  75.143  47.028  1.00  0.00     0.293 HD
ENDBRANCH  10  23
BRANCH  11  25
ATOM     25  O   UNL     1       2.515  75.076  49.556  1.00  0.00    -0.508 OA
ATOM     26  H   UNL     1       3.424  75.400  49.869  1.00  0.00     0.293 HD
ENDBRANCH  11  25
ENDBRANCH   1   2
BRANCH   1  27
ATOM     27  C   UNL     1       1.248  75.472  40.885  1.00  0.00     0.339 C 
ATOM     28  C   UNL     1      -0.181  75.542  40.315  1.00  0.00     0.214 C 
ATOM     29  O   UNL     1       2.214  75.666  39.863  1.00  0.00    -0.332 OA
ATOM     30  C   UNL     1      -0.398  76.883  39.591  1.00  0.00     0.180 C 
ATOM     31  C   UNL     1       2.103  76.952  39.271  1.00  0.00     0.179 C 
ATOM     32  C   UNL     1       0.732  77.131  38.578  1.00  0.00     0.177 C 
BRANCH  28  33
ATOM     33  O   UNL     1      -0.389  74.479  39.419  1.00  0.00    -0.384 OA
ATOM     34  H   UNL     1      -0.830  73.752  39.931  1.00  0.00     0.211 HD
ENDBRANCH  28  33
BRANCH  30  35
ATOM     35  O   UNL     1      -1.635  76.882  38.926  1.00  0.00    -0.387 OA
ATOM     36  H   UNL     1      -1.837  77.826  38.696  1.00  0.00     0.211 HD
ENDBRANCH  30  35
BRANCH  31  37
ATOM     37  C   UNL     1       3.261  77.133  38.276  1.00  0.00     0.191 C 
BRANCH  37  38
ATOM     38  O   UNL     1       4.022  75.959  38.162  1.00  0.00    -0.394 OA
ATOM     39  H   UNL     1       4.040  75.541  39.063  1.00  0.00     0.210 HD
ENDBRANCH  37  38
ENDBRANCH  31  37
BRANCH  32  40
ATOM     40  O   UNL     1       0.627  78.436  38.068  1.00  0.00    -0.387 OA
ATOM     41  H   UNL     1       1.278  78.507  37.322  1.00  0.00     0.211 HD
ENDBRANCH  32  40
ENDBRANCH   1  27
TORSDOF 12
ENDMDL
