MODEL 1
REMARK VINA RESULT:    -6.610      0.000      0.000
REMARK INTER + INTRA:          -8.387
REMARK INTER:                  -8.156
REMARK INTRA:                  -0.231
REMARK UNBOUND:                -0.231
REMARK SMILES Oc1cc(O)c2cc(O)c(-c3cc(O)c(O)c(O)c3)[o+]c2c1
REMARK SMILES IDX 10 1 20 2 21 3 22 4 2 5 3 6 4 7 6 8 7 9 8 10 11 11 12 12
REMARK SMILES IDX 13 13 19 14 15 15 17 16 14 17 16 19 18 21 9 23 1 25 5 27
REMARK H PARENT 14 18 16 20 18 22 9 24 1 26 5 28
REMARK Flexibility Score: inf
ROOT
ATOM      1  C   UNL     1       7.434  -5.386   5.963  1.00  0.00     0.402 A 
ATOM      2  O   UNL     1       7.678  -4.921   4.740  1.00  0.00    -0.202 OA
ATOM      3  C   UNL     1       8.412  -3.837   4.504  1.00  0.00     0.368 A 
ATOM      4  C   UNL     1       8.609  -3.424   3.184  1.00  0.00     0.162 A 
ATOM      5  C   UNL     1       9.373  -2.287   2.908  1.00  0.00     0.128 A 
ATOM      6  C   UNL     1       9.942  -1.560   3.956  1.00  0.00     0.093 A 
ATOM      7  C   UNL     1       9.759  -1.953   5.288  1.00  0.00     0.136 A 
ATOM      8  C   UNL     1       8.985  -3.108   5.573  1.00  0.00     0.125 A 
ATOM      9  C   UNL     1       8.759  -3.584   6.875  1.00  0.00     0.078 A 
ATOM     10  C   UNL     1       7.990  -4.733   7.078  1.00  0.00     0.223 A 
ENDROOT
BRANCH   1  11
ATOM     11  C   UNL     1       6.593  -6.597   6.096  1.00  0.00     0.091 A 
ATOM     12  C   UNL     1       5.228  -6.527   5.779  1.00  0.00     0.068 A 
ATOM     13  C   UNL     1       4.404  -7.648   5.914  1.00  0.00     0.162 A 
ATOM     14  C   UNL     1       7.119  -7.803   6.590  1.00  0.00     0.068 A 
ATOM     15  C   UNL     1       4.940  -8.859   6.389  1.00  0.00     0.200 A 
ATOM     16  C   UNL     1       6.301  -8.932   6.730  1.00  0.00     0.162 A 
BRANCH  13  17
ATOM     17  O   UNL     1       3.056  -7.541   5.575  1.00  0.00    -0.504 OA
ATOM     18  H   UNL     1       2.351  -8.152   5.969  1.00  0.00     0.293 HD
ENDBRANCH  13  17
BRANCH  15  19
ATOM     19  O   UNL     1       4.112  -9.975   6.518  1.00  0.00    -0.502 OA
ATOM     20  H   UNL     1       4.335 -10.743   7.139  1.00  0.00     0.293 HD
ENDBRANCH  15  19
BRANCH  16  21
ATOM     21  O   UNL     1       6.835 -10.125   7.215  1.00  0.00    -0.504 OA
ATOM     22  H   UNL     1       7.021 -10.263   8.201  1.00  0.00     0.293 HD
ENDBRANCH  16  21
ENDBRANCH   1  11
BRANCH  10  23
ATOM     23  O   UNL     1       7.807  -5.234   8.368  1.00  0.00    -0.500 OA
ATOM     24  H   UNL     1       8.040  -4.688   9.189  1.00  0.00     0.294 HD
ENDBRANCH  10  23
BRANCH   5  25
ATOM     25  O   UNL     1       9.575  -1.869   1.594  1.00  0.00    -0.507 OA
ATOM     26  H   UNL     1       8.828  -1.897   0.909  1.00  0.00     0.293 HD
ENDBRANCH   5  25
BRANCH   7  27
ATOM     27  O   UNL     1      10.358  -1.169   6.279  1.00  0.00    -0.507 OA
ATOM     28  H   UNL     1      10.842  -0.301   6.103  1.00  0.00     0.293 HD
ENDBRANCH   7  27
TORSDOF 7
ENDMDL
MODEL 2
REMARK VINA RESULT:    -6.583      0.097      1.795
REMARK INTER + INTRA:          -8.353
REMARK INTER:                  -8.090
REMARK INTRA:                  -0.263
REMARK UNBOUND:                -0.231
REMARK SMILES Oc1cc(O)c2cc(O)c(-c3cc(O)c(O)c(O)c3)[o+]c2c1
REMARK SMILES IDX 10 1 20 2 21 3 22 4 2 5 3 6 4 7 6 8 7 9 8 10 11 11 12 12
REMARK SMILES IDX 13 13 19 14 15 15 17 16 14 17 16 19 18 21 9 23 1 25 5 27
REMARK H PARENT 14 18 16 20 18 22 9 24 1 26 5 28
REMARK Flexibility Score: inf
ROOT
ATOM      1  C   UNL     1       7.393  -5.365   5.994  1.00  0.00     0.402 A 
ATOM      2  O   UNL     1       7.647  -4.897   4.775  1.00  0.00    -0.202 OA
ATOM      3  C   UNL     1       8.416  -3.838   4.545  1.00  0.00     0.368 A 
ATOM      4  C   UNL     1       8.621  -3.419   3.228  1.00  0.00     0.162 A 
ATOM      5  C   UNL     1       9.423  -2.306   2.958  1.00  0.00     0.128 A 
ATOM      6  C   UNL     1      10.021  -1.609   4.010  1.00  0.00     0.093 A 
ATOM      7  C   UNL     1       9.831  -2.008   5.340  1.00  0.00     0.136 A 
ATOM      8  C   UNL     1       9.020  -3.139   5.618  1.00  0.00     0.125 A 
ATOM      9  C   UNL     1       8.784  -3.619   6.917  1.00  0.00     0.078 A 
ATOM     10  C   UNL     1       7.977  -4.742   7.113  1.00  0.00     0.223 A 
ENDROOT
BRANCH   1  11
ATOM     11  C   UNL     1       6.512  -6.548   6.122  1.00  0.00     0.091 A 
ATOM     12  C   UNL     1       7.063  -7.782   6.498  1.00  0.00     0.068 A 
ATOM     13  C   UNL     1       6.259  -8.921   6.607  1.00  0.00     0.162 A 
ATOM     14  C   UNL     1       5.141  -6.476   5.818  1.00  0.00     0.068 A 
ATOM     15  C   UNL     1       4.885  -8.839   6.323  1.00  0.00     0.200 A 
ATOM     16  C   UNL     1       4.328  -7.612   5.923  1.00  0.00     0.162 A 
BRANCH  13  17
ATOM     17  O   UNL     1       6.843 -10.125   6.998  1.00  0.00    -0.504 OA
ATOM     18  H   UNL     1       6.504 -10.656   7.791  1.00  0.00     0.293 HD
ENDBRANCH  13  17
BRANCH  15  19
ATOM     19  O   UNL     1       4.088  -9.979   6.437  1.00  0.00    -0.502 OA
ATOM     20  H   UNL     1       3.364 -10.064   7.140  1.00  0.00     0.293 HD
ENDBRANCH  15  19
BRANCH  16  21
ATOM     21  O   UNL     1       2.968  -7.527   5.626  1.00  0.00    -0.504 OA
ATOM     22  H   UNL     1       2.366  -8.341   5.654  1.00  0.00     0.293 HD
ENDBRANCH  16  21
ENDBRANCH   1  11
BRANCH  10  23
ATOM     23  O   UNL     1       7.783  -5.249   8.399  1.00  0.00    -0.500 OA
ATOM     24  H   UNL     1       6.984  -5.828   8.629  1.00  0.00     0.294 HD
ENDBRANCH  10  23
BRANCH   5  25
ATOM     25  O   UNL     1       9.633  -1.883   1.648  1.00  0.00    -0.507 OA
ATOM     26  H   UNL     1       8.866  -1.562   1.067  1.00  0.00     0.293 HD
ENDBRANCH   5  25
BRANCH   7  27
ATOM     27  O   UNL     1      10.462  -1.255   6.334  1.00  0.00    -0.507 OA
ATOM     28  H   UNL     1      10.531  -0.248   6.329  1.00  0.00     0.293 HD
ENDBRANCH   7  27
TORSDOF 7
ENDMDL
MODEL 3
REMARK VINA RESULT:    -6.533      1.258      7.055
REMARK INTER + INTRA:          -8.291
REMARK INTER:                  -8.082
REMARK INTRA:                  -0.209
REMARK UNBOUND:                -0.231
REMARK SMILES Oc1cc(O)c2cc(O)c(-c3cc(O)c(O)c(O)c3)[o+]c2c1
REMARK SMILES IDX 10 1 20 2 21 3 22 4 2 5 3 6 4 7 6 8 7 9 8 10 11 11 12 12
REMARK SMILES IDX 13 13 19 14 15 15 17 16 14 17 16 19 18 21 9 23 1 25 5 27
REMARK H PARENT 14 18 16 20 18 22 9 24 1 26 5 28
REMARK Flexibility Score: inf
ROOT
ATOM      1  C   UNL     1       7.361  -5.547   6.161  1.00  0.00     0.402 A 
ATOM      2  O   UNL     1       6.067  -5.734   5.913  1.00  0.00    -0.202 OA
ATOM      3  C   UNL     1       5.406  -6.830   6.271  1.00  0.00     0.368 A 
ATOM      4  C   UNL     1       4.047  -6.936   5.963  1.00  0.00     0.162 A 
ATOM      5  C   UNL     1       3.328  -8.078   6.325  1.00  0.00     0.128 A 
ATOM      6  C   UNL     1       3.972  -9.119   6.998  1.00  0.00     0.093 A 
ATOM      7  C   UNL     1       5.333  -9.039   7.319  1.00  0.00     0.136 A 
ATOM      8  C   UNL     1       6.066  -7.879   6.954  1.00  0.00     0.125 A 
ATOM      9  C   UNL     1       7.429  -7.705   7.246  1.00  0.00     0.078 A 
ATOM     10  C   UNL     1       8.084  -6.532   6.859  1.00  0.00     0.223 A 
ENDROOT
BRANCH   1  11
ATOM     11  C   UNL     1       7.988  -4.287   5.702  1.00  0.00     0.091 A 
ATOM     12  C   UNL     1       8.109  -4.038   4.326  1.00  0.00     0.068 A 
ATOM     13  C   UNL     1       8.714  -2.866   3.862  1.00  0.00     0.162 A 
ATOM     14  C   UNL     1       8.518  -3.358   6.613  1.00  0.00     0.068 A 
ATOM     15  C   UNL     1       9.224  -1.930   4.778  1.00  0.00     0.200 A 
ATOM     16  C   UNL     1       9.128  -2.182   6.157  1.00  0.00     0.162 A 
BRANCH  13  17
ATOM     17  O   UNL     1       8.801  -2.650   2.487  1.00  0.00    -0.504 OA
ATOM     18  H   UNL     1       8.772  -1.721   2.085  1.00  0.00     0.293 HD
ENDBRANCH  13  17
BRANCH  15  19
ATOM     19  O   UNL     1       9.824  -0.761   4.307  1.00  0.00    -0.502 OA
ATOM     20  H   UNL     1      10.829  -0.653   4.258  1.00  0.00     0.293 HD
ENDBRANCH  15  19
BRANCH  16  21
ATOM     21  O   UNL     1       9.644  -1.264   7.071  1.00  0.00    -0.504 OA
ATOM     22  H   UNL     1      10.237  -1.555   7.839  1.00  0.00     0.293 HD
ENDBRANCH  16  21
ENDBRANCH   1  11
BRANCH  10  23
ATOM     23  O   UNL     1       9.425  -6.338   7.193  1.00  0.00    -0.500 OA
ATOM     24  H   UNL     1       9.883  -5.444   7.058  1.00  0.00     0.294 HD
ENDBRANCH  10  23
BRANCH   5  25
ATOM     25  O   UNL     1       1.973  -8.191   6.022  1.00  0.00    -0.507 OA
ATOM     26  H   UNL     1       1.618  -7.967   5.099  1.00  0.00     0.293 HD
ENDBRANCH   5  25
BRANCH   7  27
ATOM     27  O   UNL     1       5.902 -10.125   7.989  1.00  0.00    -0.507 OA
ATOM     28  H   UNL     1       5.849 -11.082   7.673  1.00  0.00     0.293 HD
ENDBRANCH   7  27
TORSDOF 7
ENDMDL
MODEL 4
REMARK VINA RESULT:    -6.488      1.276      7.125
REMARK INTER + INTRA:          -8.236
REMARK INTER:                  -8.039
REMARK INTRA:                  -0.197
REMARK UNBOUND:                -0.231
REMARK SMILES Oc1cc(O)c2cc(O)c(-c3cc(O)c(O)c(O)c3)[o+]c2c1
REMARK SMILES IDX 10 1 20 2 21 3 22 4 2 5 3 6 4 7 6 8 7 9 8 10 11 11 12 12
REMARK SMILES IDX 13 13 19 14 15 15 17 16 14 17 16 19 18 21 9 23 1 25 5 27
REMARK H PARENT 14 18 16 20 18 22 9 24 1 26 5 28
REMARK Flexibility Score: inf
ROOT
ATOM      1  C   UNL     1       7.374  -5.599   6.104  1.00  0.00     0.402 A 
ATOM      2  O   UNL     1       6.077  -5.789   5.875  1.00  0.00    -0.202 OA
ATOM      3  C   UNL     1       5.417  -6.873   6.268  1.00  0.00     0.368 A 
ATOM      4  C   UNL     1       4.055  -6.983   5.977  1.00  0.00     0.162 A 
ATOM      5  C   UNL     1       3.337  -8.113   6.376  1.00  0.00     0.128 A 
ATOM      6  C   UNL     1       3.985  -9.139   7.069  1.00  0.00     0.093 A 
ATOM      7  C   UNL     1       5.349  -9.054   7.372  1.00  0.00     0.136 A 
ATOM      8  C   UNL     1       6.081  -7.906   6.971  1.00  0.00     0.125 A 
ATOM      9  C   UNL     1       7.448  -7.729   7.243  1.00  0.00     0.078 A 
ATOM     10  C   UNL     1       8.102  -6.568   6.820  1.00  0.00     0.223 A 
ENDROOT
BRANCH   1  11
ATOM     11  C   UNL     1       8.000  -4.354   5.606  1.00  0.00     0.091 A 
ATOM     12  C   UNL     1       8.504  -3.420   6.524  1.00  0.00     0.068 A 
ATOM     13  C   UNL     1       9.083  -2.226   6.085  1.00  0.00     0.162 A 
ATOM     14  C   UNL     1       8.048  -4.056   4.233  1.00  0.00     0.068 A 
ATOM     15  C   UNL     1       9.148  -1.942   4.709  1.00  0.00     0.200 A 
ATOM     16  C   UNL     1       8.624  -2.861   3.783  1.00  0.00     0.162 A 
BRANCH  13  17
ATOM     17  O   UNL     1       9.586  -1.331   7.029  1.00  0.00    -0.504 OA
ATOM     18  H   UNL     1      10.155  -1.635   7.810  1.00  0.00     0.293 HD
ENDBRANCH  13  17
BRANCH  15  19
ATOM     19  O   UNL     1       9.729  -0.749   4.278  1.00  0.00    -0.502 OA
ATOM     20  H   UNL     1      10.729  -0.652   4.146  1.00  0.00     0.293 HD
ENDBRANCH  15  19
BRANCH  16  21
ATOM     21  O   UNL     1       8.673  -2.579   2.419  1.00  0.00    -0.504 OA
ATOM     22  H   UNL     1       7.834  -2.385   1.886  1.00  0.00     0.293 HD
ENDBRANCH  16  21
ENDBRANCH   1  11
BRANCH  10  23
ATOM     23  O   UNL     1       9.447  -6.369   7.133  1.00  0.00    -0.500 OA
ATOM     24  H   UNL     1       9.734  -5.971   8.020  1.00  0.00     0.294 HD
ENDBRANCH  10  23
BRANCH   5  25
ATOM     25  O   UNL     1       1.978  -8.230   6.090  1.00  0.00    -0.507 OA
ATOM     26  H   UNL     1       1.361  -8.784   6.673  1.00  0.00     0.293 HD
ENDBRANCH   5  25
BRANCH   7  27
ATOM     27  O   UNL     1       5.923 -10.124   8.065  1.00  0.00    -0.507 OA
ATOM     28  H   UNL     1       6.075 -11.042   7.671  1.00  0.00     0.293 HD
ENDBRANCH   7  27
TORSDOF 7
ENDMDL
MODEL 5
REMARK VINA RESULT:    -6.452      1.838      7.489
REMARK INTER + INTRA:          -8.191
REMARK INTER:                  -7.820
REMARK INTRA:                  -0.371
REMARK UNBOUND:                -0.231
REMARK SMILES Oc1cc(O)c2cc(O)c(-c3cc(O)c(O)c(O)c3)[o+]c2c1
REMARK SMILES IDX 10 1 20 2 21 3 22 4 2 5 3 6 4 7 6 8 7 9 8 10 11 11 12 12
REMARK SMILES IDX 13 13 19 14 15 15 17 16 14 17 16 19 18 21 9 23 1 25 5 27
REMARK H PARENT 14 18 16 20 18 22 9 24 1 26 5 28
REMARK Flexibility Score: inf
ROOT
ATOM      1  C   UNL     1       8.632  -4.329   5.957  1.00  0.00     0.402 A 
ATOM      2  O   UNL     1       8.792  -5.438   6.674  1.00  0.00    -0.202 OA
ATOM      3  C   UNL     1       7.957  -6.471   6.618  1.00  0.00     0.368 A 
ATOM      4  C   UNL     1       8.207  -7.592   7.412  1.00  0.00     0.162 A 
ATOM      5  C   UNL     1       7.343  -8.691   7.375  1.00  0.00     0.128 A 
ATOM      6  C   UNL     1       6.224  -8.667   6.540  1.00  0.00     0.093 A 
ATOM      7  C   UNL     1       5.950  -7.555   5.733  1.00  0.00     0.136 A 
ATOM      8  C   UNL     1       6.826  -6.438   5.766  1.00  0.00     0.125 A 
ATOM      9  C   UNL     1       6.639  -5.287   4.984  1.00  0.00     0.078 A 
ATOM     10  C   UNL     1       7.547  -4.228   5.066  1.00  0.00     0.223 A 
ENDROOT
BRANCH   1  11
ATOM     11  C   UNL     1       9.625  -3.243   6.115  1.00  0.00     0.091 A 
ATOM     12  C   UNL     1      10.726  -3.183   5.246  1.00  0.00     0.068 A 
ATOM     13  C   UNL     1      11.691  -2.181   5.383  1.00  0.00     0.162 A 
ATOM     14  C   UNL     1       9.522  -2.301   7.153  1.00  0.00     0.068 A 
ATOM     15  C   UNL     1      11.572  -1.229   6.411  1.00  0.00     0.200 A 
ATOM     16  C   UNL     1      10.486  -1.295   7.300  1.00  0.00     0.162 A 
BRANCH  13  17
ATOM     17  O   UNL     1      12.761  -2.147   4.491  1.00  0.00    -0.504 OA
ATOM     18  H   UNL     1      13.648  -2.593   4.695  1.00  0.00     0.293 HD
ENDBRANCH  13  17
BRANCH  15  19
ATOM     19  O   UNL     1      12.538  -0.230   6.540  1.00  0.00    -0.502 OA
ATOM     20  H   UNL     1      12.520   0.445   7.294  1.00  0.00     0.293 HD
ENDBRANCH  15  19
BRANCH  16  21
ATOM     21  O   UNL     1      10.370  -0.362   8.329  1.00  0.00    -0.504 OA
ATOM     22  H   UNL     1       9.468  -0.096   8.707  1.00  0.00     0.293 HD
ENDBRANCH  16  21
ENDBRANCH   1  11
BRANCH  10  23
ATOM     23  O   UNL     1       7.388  -3.105   4.253  1.00  0.00    -0.500 OA
ATOM     24  H   UNL     1       6.519  -2.918   3.767  1.00  0.00     0.294 HD
ENDBRANCH  10  23
BRANCH   5  25
ATOM     25  O   UNL     1       7.587  -9.813   8.164  1.00  0.00    -0.507 OA
ATOM     26  H   UNL     1       8.032 -10.640   7.784  1.00  0.00     0.293 HD
ENDBRANCH   5  25
BRANCH   7  27
ATOM     27  O   UNL     1       4.809  -7.608   4.928  1.00  0.00    -0.507 OA
ATOM     28  H   UNL     1       4.549  -8.402   4.360  1.00  0.00     0.293 HD
ENDBRANCH   7  27
TORSDOF 7
ENDMDL
MODEL 6
REMARK VINA RESULT:    -6.432      1.782      6.861
REMARK INTER + INTRA:          -8.166
REMARK INTER:                  -7.876
REMARK INTRA:                  -0.291
REMARK UNBOUND:                -0.231
REMARK SMILES Oc1cc(O)c2cc(O)c(-c3cc(O)c(O)c(O)c3)[o+]c2c1
REMARK SMILES IDX 10 1 20 2 21 3 22 4 2 5 3 6 4 7 6 8 7 9 8 10 11 11 12 12
REMARK SMILES IDX 13 13 19 14 15 15 17 16 14 17 16 19 18 21 9 23 1 25 5 27
REMARK H PARENT 14 18 16 20 18 22 9 24 1 26 5 28
REMARK Flexibility Score: inf
ROOT
ATOM      1  C   UNL     1       8.133  -5.484   6.477  1.00  0.00     0.402 A 
ATOM      2  O   UNL     1       7.700  -6.280   5.503  1.00  0.00    -0.202 OA
ATOM      3  C   UNL     1       7.011  -7.396   5.723  1.00  0.00     0.368 A 
ATOM      4  C   UNL     1       6.602  -8.169   4.634  1.00  0.00     0.162 A 
ATOM      5  C   UNL     1       5.880  -9.348   4.837  1.00  0.00     0.128 A 
ATOM      6  C   UNL     1       5.566  -9.756   6.135  1.00  0.00     0.093 A 
ATOM      7  C   UNL     1       5.965  -8.999   7.245  1.00  0.00     0.136 A 
ATOM      8  C   UNL     1       6.697  -7.800   7.043  1.00  0.00     0.125 A 
ATOM      9  C   UNL     1       7.126  -6.972   8.093  1.00  0.00     0.078 A 
ATOM     10  C   UNL     1       7.839  -5.802   7.817  1.00  0.00     0.223 A 
ENDROOT
BRANCH   1  11
ATOM     11  C   UNL     1       8.899  -4.274   6.105  1.00  0.00     0.091 A 
ATOM     12  C   UNL     1       8.267  -3.254   5.376  1.00  0.00     0.068 A 
ATOM     13  C   UNL     1       8.970  -2.108   4.993  1.00  0.00     0.162 A 
ATOM     14  C   UNL     1      10.264  -4.146   6.415  1.00  0.00     0.068 A 
ATOM     15  C   UNL     1      10.330  -1.976   5.324  1.00  0.00     0.200 A 
ATOM     16  C   UNL     1      10.977  -3.002   6.034  1.00  0.00     0.162 A 
BRANCH  13  17
ATOM     17  O   UNL     1       8.302  -1.112   4.283  1.00  0.00    -0.504 OA
ATOM     18  H   UNL     1       8.642  -0.159   4.241  1.00  0.00     0.293 HD
ENDBRANCH  13  17
BRANCH  15  19
ATOM     19  O   UNL     1      11.024  -0.828   4.941  1.00  0.00    -0.502 OA
ATOM     20  H   UNL     1      11.441  -0.198   5.616  1.00  0.00     0.293 HD
ENDBRANCH  15  19
BRANCH  16  21
ATOM     21  O   UNL     1      12.329  -2.884   6.353  1.00  0.00    -0.504 OA
ATOM     22  H   UNL     1      12.846  -3.649   6.768  1.00  0.00     0.293 HD
ENDBRANCH  16  21
ENDBRANCH   1  11
BRANCH  10  23
ATOM     23  O   UNL     1       8.222  -4.954   8.856  1.00  0.00    -0.500 OA
ATOM     24  H   UNL     1       8.216  -5.259   9.822  1.00  0.00     0.294 HD
ENDBRANCH  10  23
BRANCH   5  25
ATOM     25  O   UNL     1       5.468 -10.124   3.755  1.00  0.00    -0.507 OA
ATOM     26  H   UNL     1       4.486 -10.254   3.542  1.00  0.00     0.293 HD
ENDBRANCH   5  25
BRANCH   7  27
ATOM     27  O   UNL     1       5.615  -9.479   8.510  1.00  0.00    -0.507 OA
ATOM     28  H   UNL     1       4.768  -9.991   8.711  1.00  0.00     0.293 HD
ENDBRANCH   7  27
TORSDOF 7
ENDMDL
MODEL 7
REMARK VINA RESULT:    -6.410      2.040      3.236
REMARK INTER + INTRA:          -8.139
REMARK INTER:                  -7.765
REMARK INTRA:                  -0.374
REMARK UNBOUND:                -0.231
REMARK SMILES Oc1cc(O)c2cc(O)c(-c3cc(O)c(O)c(O)c3)[o+]c2c1
REMARK SMILES IDX 10 1 20 2 21 3 22 4 2 5 3 6 4 7 6 8 7 9 8 10 11 11 12 12
REMARK SMILES IDX 13 13 19 14 15 15 17 16 14 17 16 19 18 21 9 23 1 25 5 27
REMARK H PARENT 14 18 16 20 18 22 9 24 1 26 5 28
REMARK Flexibility Score: inf
ROOT
ATOM      1  C   UNL     1       8.030  -4.519   5.329  1.00  0.00     0.402 A 
ATOM      2  O   UNL     1       9.022  -4.693   6.198  1.00  0.00    -0.202 OA
ATOM      3  C   UNL     1      10.072  -3.882   6.280  1.00  0.00     0.368 A 
ATOM      4  C   UNL     1      11.067  -4.149   7.223  1.00  0.00     0.162 A 
ATOM      5  C   UNL     1      12.183  -3.314   7.328  1.00  0.00     0.128 A 
ATOM      6  C   UNL     1      12.305  -2.208   6.485  1.00  0.00     0.093 A 
ATOM      7  C   UNL     1      11.322  -1.917   5.530  1.00  0.00     0.136 A 
ATOM      8  C   UNL     1      10.186  -2.761   5.422  1.00  0.00     0.125 A 
ATOM      9  C   UNL     1       9.146  -2.541   4.504  1.00  0.00     0.078 A 
ATOM     10  C   UNL     1       8.055  -3.413   4.459  1.00  0.00     0.223 A 
ENDROOT
BRANCH   1  11
ATOM     11  C   UNL     1       6.919  -5.497   5.329  1.00  0.00     0.091 A 
ATOM     12  C   UNL     1       5.782  -5.250   6.113  1.00  0.00     0.068 A 
ATOM     13  C   UNL     1       4.725  -6.165   6.148  1.00  0.00     0.162 A 
ATOM     14  C   UNL     1       7.002  -6.699   4.604  1.00  0.00     0.068 A 
ATOM     15  C   UNL     1       4.804  -7.356   5.405  1.00  0.00     0.200 A 
ATOM     16  C   UNL     1       5.949  -7.623   4.635  1.00  0.00     0.162 A 
BRANCH  13  17
ATOM     17  O   UNL     1       3.606  -5.875   6.927  1.00  0.00    -0.504 OA
ATOM     18  H   UNL     1       3.216  -4.942   6.985  1.00  0.00     0.293 HD
ENDBRANCH  13  17
BRANCH  15  19
ATOM     19  O   UNL     1       3.744  -8.263   5.443  1.00  0.00    -0.502 OA
ATOM     20  H   UNL     1       3.627  -8.926   6.200  1.00  0.00     0.293 HD
ENDBRANCH  15  19
BRANCH  16  21
ATOM     21  O   UNL     1       6.039  -8.808   3.908  1.00  0.00    -0.504 OA
ATOM     22  H   UNL     1       5.291  -9.491   3.908  1.00  0.00     0.293 HD
ENDBRANCH  16  21
ENDBRANCH   1  11
BRANCH  10  23
ATOM     23  O   UNL     1       6.997  -3.166   3.582  1.00  0.00    -0.500 OA
ATOM     24  H   UNL     1       7.113  -3.228   2.577  1.00  0.00     0.294 HD
ENDBRANCH  10  23
BRANCH   5  25
ATOM     25  O   UNL     1      13.179  -3.574   8.267  1.00  0.00    -0.507 OA
ATOM     26  H   UNL     1      13.212  -4.452   8.774  1.00  0.00     0.293 HD
ENDBRANCH   5  25
BRANCH   7  27
ATOM     27  O   UNL     1      11.521  -0.794   4.723  1.00  0.00    -0.507 OA
ATOM     28  H   UNL     1      10.861  -0.035   4.629  1.00  0.00     0.293 HD
ENDBRANCH   7  27
TORSDOF 7
ENDMDL
MODEL 8
REMARK VINA RESULT:    -6.268      2.026      3.454
REMARK INTER + INTRA:          -7.964
REMARK INTER:                  -7.589
REMARK INTRA:                  -0.375
REMARK UNBOUND:                -0.231
REMARK SMILES Oc1cc(O)c2cc(O)c(-c3cc(O)c(O)c(O)c3)[o+]c2c1
REMARK SMILES IDX 10 1 20 2 21 3 22 4 2 5 3 6 4 7 6 8 7 9 8 10 11 11 12 12
REMARK SMILES IDX 13 13 19 14 15 15 17 16 14 17 16 19 18 21 9 23 1 25 5 27
REMARK H PARENT 14 18 16 20 18 22 9 24 1 26 5 28
REMARK Flexibility Score: inf
ROOT
ATOM      1  C   UNL     1       8.015  -4.515   5.366  1.00  0.00     0.402 A 
ATOM      2  O   UNL     1       9.020  -4.655   6.226  1.00  0.00    -0.202 OA
ATOM      3  C   UNL     1      10.070  -3.841   6.262  1.00  0.00     0.368 A 
ATOM      4  C   UNL     1      11.079  -4.072   7.200  1.00  0.00     0.162 A 
ATOM      5  C   UNL     1      12.195  -3.233   7.257  1.00  0.00     0.128 A 
ATOM      6  C   UNL     1      12.303  -2.158   6.371  1.00  0.00     0.093 A 
ATOM      7  C   UNL     1      11.306  -1.905   5.420  1.00  0.00     0.136 A 
ATOM      8  C   UNL     1      10.170  -2.753   5.360  1.00  0.00     0.125 A 
ATOM      9  C   UNL     1       9.116  -2.568   4.451  1.00  0.00     0.078 A 
ATOM     10  C   UNL     1       8.025  -3.443   4.454  1.00  0.00     0.223 A 
ENDROOT
BRANCH   1  11
ATOM     11  C   UNL     1       6.906  -5.494   5.418  1.00  0.00     0.091 A 
ATOM     12  C   UNL     1       6.986  -6.668   4.654  1.00  0.00     0.068 A 
ATOM     13  C   UNL     1       5.946  -7.602   4.669  1.00  0.00     0.162 A 
ATOM     14  C   UNL     1       5.746  -5.247   6.173  1.00  0.00     0.068 A 
ATOM     15  C   UNL     1       4.796  -7.361   5.441  1.00  0.00     0.200 A 
ATOM     16  C   UNL     1       4.697  -6.176   6.191  1.00  0.00     0.162 A 
BRANCH  13  17
ATOM     17  O   UNL     1       6.070  -8.764   3.907  1.00  0.00    -0.504 OA
ATOM     18  H   UNL     1       6.153  -8.740   2.898  1.00  0.00     0.293 HD
ENDBRANCH  13  17
BRANCH  15  19
ATOM     19  O   UNL     1       3.763  -8.299   5.452  1.00  0.00    -0.502 OA
ATOM     20  H   UNL     1       3.810  -9.148   6.003  1.00  0.00     0.293 HD
ENDBRANCH  15  19
BRANCH  16  21
ATOM     21  O   UNL     1       3.554  -5.924   6.948  1.00  0.00    -0.504 OA
ATOM     22  H   UNL     1       3.180  -6.611   7.591  1.00  0.00     0.293 HD
ENDBRANCH  16  21
ENDBRANCH   1  11
BRANCH  10  23
ATOM     23  O   UNL     1       6.955  -3.230   3.584  1.00  0.00    -0.500 OA
ATOM     24  H   UNL     1       6.012  -3.087   3.925  1.00  0.00     0.294 HD
ENDBRANCH  10  23
BRANCH   5  25
ATOM     25  O   UNL     1      13.205  -3.456   8.190  1.00  0.00    -0.507 OA
ATOM     26  H   UNL     1      12.993  -3.675   9.157  1.00  0.00     0.293 HD
ENDBRANCH   5  25
BRANCH   7  27
ATOM     27  O   UNL     1      11.491  -0.812   4.568  1.00  0.00    -0.507 OA
ATOM     28  H   UNL     1      11.914   0.062   4.846  1.00  0.00     0.293 HD
ENDBRANCH   7  27
TORSDOF 7
ENDMDL
MODEL 9
REMARK VINA RESULT:    -6.211      1.726      2.022
REMARK INTER + INTRA:          -7.894
REMARK INTER:                  -7.523
REMARK INTRA:                  -0.370
REMARK UNBOUND:                -0.231
REMARK SMILES Oc1cc(O)c2cc(O)c(-c3cc(O)c(O)c(O)c3)[o+]c2c1
REMARK SMILES IDX 10 1 20 2 21 3 22 4 2 5 3 6 4 7 6 8 7 9 8 10 11 11 12 12
REMARK SMILES IDX 13 13 19 14 15 15 17 16 14 17 16 19 18 21 9 23 1 25 5 27
REMARK H PARENT 14 18 16 20 18 22 9 24 1 26 5 28
REMARK Flexibility Score: inf
ROOT
ATOM      1  C   UNL     1       8.383  -5.072   6.727  1.00  0.00     0.402 A 
ATOM      2  O   UNL     1       9.032  -4.481   5.727  1.00  0.00    -0.202 OA
ATOM      3  C   UNL     1      10.008  -3.597   5.910  1.00  0.00     0.368 A 
ATOM      4  C   UNL     1      10.629  -3.028   4.796  1.00  0.00     0.162 A 
ATOM      5  C   UNL     1      11.655  -2.093   4.961  1.00  0.00     0.128 A 
ATOM      6  C   UNL     1      12.061  -1.727   6.246  1.00  0.00     0.093 A 
ATOM      7  C   UNL     1      11.455  -2.282   7.380  1.00  0.00     0.136 A 
ATOM      8  C   UNL     1      10.414  -3.233   7.217  1.00  0.00     0.125 A 
ATOM      9  C   UNL     1       9.758  -3.852   8.294  1.00  0.00     0.078 A 
ATOM     10  C   UNL     1       8.744  -4.784   8.056  1.00  0.00     0.223 A 
ENDROOT
BRANCH   1  11
ATOM     11  C   UNL     1       7.307  -6.032   6.393  1.00  0.00     0.091 A 
ATOM     12  C   UNL     1       5.971  -5.603   6.406  1.00  0.00     0.068 A 
ATOM     13  C   UNL     1       4.932  -6.492   6.114  1.00  0.00     0.162 A 
ATOM     14  C   UNL     1       7.589  -7.382   6.119  1.00  0.00     0.068 A 
ATOM     15  C   UNL     1       5.220  -7.836   5.821  1.00  0.00     0.200 A 
ATOM     16  C   UNL     1       6.554  -8.280   5.828  1.00  0.00     0.162 A 
BRANCH  13  17
ATOM     17  O   UNL     1       3.619  -6.022   6.123  1.00  0.00    -0.504 OA
ATOM     18  H   UNL     1       3.244  -5.483   6.893  1.00  0.00     0.293 HD
ENDBRANCH  13  17
BRANCH  15  19
ATOM     19  O   UNL     1       4.178  -8.717   5.528  1.00  0.00    -0.502 OA
ATOM     20  H   UNL     1       3.910  -9.464   6.156  1.00  0.00     0.293 HD
ENDBRANCH  15  19
BRANCH  16  21
ATOM     21  O   UNL     1       6.845  -9.615   5.552  1.00  0.00    -0.504 OA
ATOM     22  H   UNL     1       7.782  -9.916   5.312  1.00  0.00     0.293 HD
ENDBRANCH  16  21
ENDBRANCH   1  11
BRANCH  10  23
ATOM     23  O   UNL     1       8.127  -5.435   9.125  1.00  0.00    -0.500 OA
ATOM     24  H   UNL     1       8.545  -6.245   9.568  1.00  0.00     0.294 HD
ENDBRANCH  10  23
BRANCH   5  25
ATOM     25  O   UNL     1      12.279  -1.521   3.854  1.00  0.00    -0.507 OA
ATOM     26  H   UNL     1      12.183  -0.534   3.644  1.00  0.00     0.293 HD
ENDBRANCH   5  25
BRANCH   7  27
ATOM     27  O   UNL     1      11.917  -1.860   8.629  1.00  0.00    -0.507 OA
ATOM     28  H   UNL     1      11.687  -2.309   9.504  1.00  0.00     0.293 HD
ENDBRANCH   7  27
TORSDOF 7
ENDMDL
