MODEL 1
REMARK VINA RESULT:    -3.789      0.000      0.000
REMARK INTER + INTRA:         -11.671
REMARK INTER:                  -9.547
REMARK INTRA:                  -2.124
REMARK UNBOUND:                -2.124
REMARK SMILES CCCCCCCCCCCCCCCCCCCCCCCCCCCC(=O)[O-]
REMARK SMILES IDX 15 1 16 2 17 3 18 4 19 5 20 6 21 7 22 8 23 9 24 10 25 11
REMARK SMILES IDX 26 12 27 13 28 14 29 15 30 16 14 17 13 18 12 19 11 20 10 21
REMARK SMILES IDX 9 22 8 23 7 24 6 25 5 26 4 27 3 28 2 29 1 30
REMARK H PARENT
REMARK Flexibility Score: inf
ROOT
ATOM      1  C   UNL     1      12.723   8.970  -2.363  1.00  0.00     0.000 C 
ENDROOT
BRANCH   1   2
ATOM      2  C   UNL     1      11.811   7.742  -2.505  1.00  0.00     0.000 C 
BRANCH   2   3
ATOM      3  C   UNL     1      11.006   7.446  -1.228  1.00  0.00     0.000 C 
BRANCH   3   4
ATOM      4  C   UNL     1      11.007   5.968  -0.787  1.00  0.00     0.000 C 
BRANCH   4   5
ATOM      5  C   UNL     1      10.785   4.944  -1.919  1.00  0.00     0.000 C 
BRANCH   5   6
ATOM      6  C   UNL     1      11.938   3.943  -2.122  1.00  0.00     0.000 C 
BRANCH   6   7
ATOM      7  C   UNL     1      13.314   4.545  -1.790  1.00  0.00     0.000 C 
BRANCH   7   8
ATOM      8  C   UNL     1      14.307   3.497  -1.259  1.00  0.00     0.000 C 
BRANCH   8   9
ATOM      9  C   UNL     1      14.684   2.453  -2.324  1.00  0.00     0.000 C 
BRANCH   9  10
ATOM     10  C   UNL     1      15.545   1.313  -1.754  1.00  0.00     0.000 C 
BRANCH  10  11
ATOM     11  C   UNL     1      16.494   0.708  -2.803  1.00  0.00     0.000 C 
BRANCH  11  12
ATOM     12  C   UNL     1      17.864   1.411  -2.850  1.00  0.00     0.006 C 
BRANCH  12  13
ATOM     13  C   UNL     1      19.055   0.450  -3.019  1.00  0.00     0.053 C 
BRANCH  13  14
ATOM     14  C   UNL     1      20.226   0.826  -2.162  1.00  0.00     0.041 C 
ATOM     15  O   UNL     1      20.716  -0.010  -1.359  1.00  0.00    -0.550 OA
ATOM     16  O   UNL     1      20.801   2.086  -2.276  1.00  0.00    -0.550 OA
ENDBRANCH  13  14
ENDBRANCH  12  13
ENDBRANCH  11  12
ENDBRANCH  10  11
ENDBRANCH   9  10
ENDBRANCH   8   9
ENDBRANCH   7   8
ENDBRANCH   6   7
ENDBRANCH   5   6
ENDBRANCH   4   5
ENDBRANCH   3   4
ENDBRANCH   2   3
ENDBRANCH   1   2
BRANCH   1  17
ATOM     17  C   UNL     1      11.935  10.181  -1.847  1.00  0.00     0.000 C 
BRANCH  17  18
ATOM     18  C   UNL     1      11.715  11.211  -2.965  1.00  0.00     0.000 C 
BRANCH  18  19
ATOM     19  C   UNL     1      10.724  12.316  -2.566  1.00  0.00     0.000 C 
BRANCH  19  20
ATOM     20  C   UNL     1       9.607  11.804  -1.635  1.00  0.00     0.000 C 
BRANCH  20  21
ATOM     21  C   UNL     1       9.080  12.908  -0.704  1.00  0.00     0.000 C 
BRANCH  21  22
ATOM     22  C   UNL     1       9.752  14.266  -0.972  1.00  0.00    -0.000 C 
BRANCH  22  23
ATOM     23  C   UNL     1       8.819  15.465  -0.715  1.00  0.00    -0.000 C 
BRANCH  23  24
ATOM     24  C   UNL     1       9.532  16.789  -0.374  1.00  0.00    -0.000 C 
BRANCH  24  25
ATOM     25  C   UNL     1      10.918  16.915  -1.023  1.00  0.00    -0.000 C 
BRANCH  25  26
ATOM     26  C   UNL     1      12.027  16.993   0.033  1.00  0.00    -0.000 C 
BRANCH  26  27
ATOM     27  C   UNL     1      13.323  16.294  -0.416  1.00  0.00    -0.000 C 
BRANCH  27  28
ATOM     28  C   UNL     1      13.102  14.849  -0.916  1.00  0.00    -0.000 C 
BRANCH  28  29
ATOM     29  C   UNL     1      13.636  14.636  -2.341  1.00  0.00    -0.003 C 
ATOM     30  C   UNL     1      15.059  14.084  -2.321  1.00  0.00     0.004 C 
ENDBRANCH  28  29
ENDBRANCH  27  28
ENDBRANCH  26  27
ENDBRANCH  25  26
ENDBRANCH  24  25
ENDBRANCH  23  24
ENDBRANCH  22  23
ENDBRANCH  21  22
ENDBRANCH  20  21
ENDBRANCH  19  20
ENDBRANCH  18  19
ENDBRANCH  17  18
ENDBRANCH   1  17
TORSDOF 26
ENDMDL
MODEL 2
REMARK VINA RESULT:    -3.644      1.883      3.395
REMARK INTER + INTRA:         -11.307
REMARK INTER:                  -8.278
REMARK INTRA:                  -3.029
REMARK UNBOUND:                -2.124
REMARK SMILES CCCCCCCCCCCCCCCCCCCCCCCCCCCC(=O)[O-]
REMARK SMILES IDX 15 1 16 2 17 3 18 4 19 5 20 6 21 7 22 8 23 9 24 10 25 11
REMARK SMILES IDX 26 12 27 13 28 14 29 15 30 16 14 17 13 18 12 19 11 20 10 21
REMARK SMILES IDX 9 22 8 23 7 24 6 25 5 26 4 27 3 28 2 29 1 30
REMARK H PARENT
REMARK Flexibility Score: inf
ROOT
ATOM      1  C   UNL     1      13.253  10.399  -1.997  1.00  0.00     0.000 C 
ENDROOT
BRANCH   1   2
ATOM      2  C   UNL     1      12.753   9.183  -2.792  1.00  0.00     0.000 C 
BRANCH   2   3
ATOM      3  C   UNL     1      11.672   8.384  -2.042  1.00  0.00     0.000 C 
BRANCH   3   4
ATOM      4  C   UNL     1      10.221   8.733  -2.428  1.00  0.00     0.000 C 
BRANCH   4   5
ATOM      5  C   UNL     1       9.131   8.034  -1.590  1.00  0.00     0.000 C 
BRANCH   5   6
ATOM      6  C   UNL     1       8.103   7.230  -2.406  1.00  0.00     0.000 C 
BRANCH   6   7
ATOM      7  C   UNL     1       8.698   5.952  -3.021  1.00  0.00     0.000 C 
BRANCH   7   8
ATOM      8  C   UNL     1       9.440   5.088  -1.988  1.00  0.00     0.000 C 
BRANCH   8   9
ATOM      9  C   UNL     1      10.894   4.798  -2.399  1.00  0.00     0.000 C 
BRANCH   9  10
ATOM     10  C   UNL     1      11.850   4.747  -1.196  1.00  0.00     0.000 C 
BRANCH  10  11
ATOM     11  C   UNL     1      13.329   4.826  -1.612  1.00  0.00     0.000 C 
BRANCH  11  12
ATOM     12  C   UNL     1      13.925   3.454  -1.976  1.00  0.00     0.006 C 
BRANCH  12  13
ATOM     13  C   UNL     1      15.220   3.111  -1.216  1.00  0.00     0.053 C 
BRANCH  13  14
ATOM     14  C   UNL     1      15.969   1.971  -1.836  1.00  0.00     0.041 C 
ATOM     15  O   UNL     1      15.346   0.965  -2.266  1.00  0.00    -0.550 OA
ATOM     16  O   UNL     1      17.350   2.034  -1.975  1.00  0.00    -0.550 OA
ENDBRANCH  13  14
ENDBRANCH  12  13
ENDBRANCH  11  12
ENDBRANCH  10  11
ENDBRANCH   9  10
ENDBRANCH   8   9
ENDBRANCH   7   8
ENDBRANCH   6   7
ENDBRANCH   5   6
ENDBRANCH   4   5
ENDBRANCH   3   4
ENDBRANCH   2   3
ENDBRANCH   1   2
BRANCH   1  17
ATOM     17  C   UNL     1      13.403  11.624  -2.907  1.00  0.00     0.000 C 
BRANCH  17  18
ATOM     18  C   UNL     1      12.422  12.734  -2.500  1.00  0.00     0.000 C 
BRANCH  18  19
ATOM     19  C   UNL     1      11.562  12.349  -1.286  1.00  0.00     0.000 C 
BRANCH  19  20
ATOM     20  C   UNL     1      10.055  12.328  -1.608  1.00  0.00     0.000 C 
BRANCH  20  21
ATOM     21  C   UNL     1       9.211  12.908  -0.461  1.00  0.00     0.000 C 
BRANCH  21  22
ATOM     22  C   UNL     1       8.455  14.182  -0.881  1.00  0.00    -0.000 C 
BRANCH  22  23
ATOM     23  C   UNL     1       9.074  14.876  -2.109  1.00  0.00    -0.000 C 
BRANCH  23  24
ATOM     24  C   UNL     1       9.208  16.408  -1.997  1.00  0.00    -0.000 C 
BRANCH  24  25
ATOM     25  C   UNL     1       9.798  16.868  -0.656  1.00  0.00    -0.000 C 
BRANCH  25  26
ATOM     26  C   UNL     1      11.205  17.452  -0.831  1.00  0.00    -0.000 C 
BRANCH  26  27
ATOM     27  C   UNL     1      12.191  16.445  -1.449  1.00  0.00    -0.000 C 
BRANCH  27  28
ATOM     28  C   UNL     1      13.189  15.853  -0.428  1.00  0.00    -0.000 C 
BRANCH  28  29
ATOM     29  C   UNL     1      13.784  16.927   0.496  1.00  0.00    -0.003 C 
ATOM     30  C   UNL     1      14.841  17.756  -0.229  1.00  0.00     0.004 C 
ENDBRANCH  28  29
ENDBRANCH  27  28
ENDBRANCH  26  27
ENDBRANCH  25  26
ENDBRANCH  24  25
ENDBRANCH  23  24
ENDBRANCH  22  23
ENDBRANCH  21  22
ENDBRANCH  20  21
ENDBRANCH  19  20
ENDBRANCH  18  19
ENDBRANCH  17  18
ENDBRANCH   1  17
TORSDOF 26
ENDMDL
MODEL 3
REMARK VINA RESULT:    -3.549      2.130      4.798
REMARK INTER + INTRA:         -11.067
REMARK INTER:                  -7.893
REMARK INTRA:                  -3.174
REMARK UNBOUND:                -2.124
REMARK SMILES CCCCCCCCCCCCCCCCCCCCCCCCCCCC(=O)[O-]
REMARK SMILES IDX 15 1 16 2 17 3 18 4 19 5 20 6 21 7 22 8 23 9 24 10 25 11
REMARK SMILES IDX 26 12 27 13 28 14 29 15 30 16 14 17 13 18 12 19 11 20 10 21
REMARK SMILES IDX 9 22 8 23 7 24 6 25 5 26 4 27 3 28 2 29 1 30
REMARK H PARENT
REMARK Flexibility Score: inf
ROOT
ATOM      1  C   UNL     1      11.726  12.194  -1.275  1.00  0.00     0.000 C 
ENDROOT
BRANCH   1   2
ATOM      2  C   UNL     1      10.635  11.120  -1.405  1.00  0.00     0.000 C 
BRANCH   2   3
ATOM      3  C   UNL     1      10.672  10.393  -2.760  1.00  0.00     0.000 C 
BRANCH   3   4
ATOM      4  C   UNL     1       9.599   9.300  -2.941  1.00  0.00     0.000 C 
BRANCH   4   5
ATOM      5  C   UNL     1       8.649   9.106  -1.741  1.00  0.00     0.000 C 
BRANCH   5   6
ATOM      6  C   UNL     1       8.355   7.638  -1.380  1.00  0.00     0.000 C 
BRANCH   6   7
ATOM      7  C   UNL     1       8.769   6.657  -2.489  1.00  0.00     0.000 C 
BRANCH   7   8
ATOM      8  C   UNL     1       9.820   5.638  -2.018  1.00  0.00     0.000 C 
BRANCH   8   9
ATOM      9  C   UNL     1      10.660   6.162  -0.840  1.00  0.00     0.000 C 
BRANCH   9  10
ATOM     10  C   UNL     1      11.773   5.184  -0.427  1.00  0.00     0.000 C 
BRANCH  10  11
ATOM     11  C   UNL     1      12.944   5.166  -1.425  1.00  0.00     0.000 C 
BRANCH  11  12
ATOM     12  C   UNL     1      13.428   3.743  -1.758  1.00  0.00     0.006 C 
BRANCH  12  13
ATOM     13  C   UNL     1      14.827   3.412  -1.208  1.00  0.00     0.053 C 
BRANCH  13  14
ATOM     14  C   UNL     1      15.500   2.308  -1.966  1.00  0.00     0.041 C 
ATOM     15  O   UNL     1      14.986   1.864  -3.025  1.00  0.00    -0.550 OA
ATOM     16  O   UNL     1      16.716   1.797  -1.527  1.00  0.00    -0.550 OA
ENDBRANCH  13  14
ENDBRANCH  12  13
ENDBRANCH  11  12
ENDBRANCH  10  11
ENDBRANCH   9  10
ENDBRANCH   8   9
ENDBRANCH   7   8
ENDBRANCH   6   7
ENDBRANCH   5   6
ENDBRANCH   4   5
ENDBRANCH   3   4
ENDBRANCH   2   3
ENDBRANCH   1   2
BRANCH   1  17
ATOM     17  C   UNL     1      11.908  12.952  -2.595  1.00  0.00     0.000 C 
BRANCH  17  18
ATOM     18  C   UNL     1      13.389  13.005  -3.000  1.00  0.00     0.000 C 
BRANCH  18  19
ATOM     19  C   UNL     1      13.972  14.426  -2.930  1.00  0.00     0.000 C 
BRANCH  19  20
ATOM     20  C   UNL     1      14.604  14.742  -1.560  1.00  0.00     0.000 C 
BRANCH  20  21
ATOM     21  C   UNL     1      14.003  16.007  -0.925  1.00  0.00     0.000 C 
BRANCH  21  22
ATOM     22  C   UNL     1      12.694  15.714  -0.169  1.00  0.00    -0.000 C 
BRANCH  22  23
ATOM     23  C   UNL     1      11.540  16.652  -0.569  1.00  0.00    -0.000 C 
BRANCH  23  24
ATOM     24  C   UNL     1      11.525  17.079  -2.051  1.00  0.00    -0.000 C 
BRANCH  24  25
ATOM     25  C   UNL     1      10.453  16.354  -2.878  1.00  0.00    -0.000 C 
BRANCH  25  26
ATOM     26  C   UNL     1       9.103  17.077  -2.804  1.00  0.00    -0.000 C 
BRANCH  26  27
ATOM     27  C   UNL     1       8.073  16.321  -1.946  1.00  0.00    -0.000 C 
BRANCH  27  28
ATOM     28  C   UNL     1       8.383  14.816  -1.793  1.00  0.00    -0.000 C 
BRANCH  28  29
ATOM     29  C   UNL     1       7.469  14.132  -0.764  1.00  0.00    -0.003 C 
ATOM     30  C   UNL     1       7.430  12.621  -0.978  1.00  0.00     0.004 C 
ENDBRANCH  28  29
ENDBRANCH  27  28
ENDBRANCH  26  27
ENDBRANCH  25  26
ENDBRANCH  24  25
ENDBRANCH  23  24
ENDBRANCH  22  23
ENDBRANCH  21  22
ENDBRANCH  20  21
ENDBRANCH  19  20
ENDBRANCH  18  19
ENDBRANCH  17  18
ENDBRANCH   1  17
TORSDOF 26
ENDMDL
MODEL 4
REMARK VINA RESULT:    -3.315      1.494      2.008
REMARK INTER + INTRA:         -10.479
REMARK INTER:                  -8.931
REMARK INTRA:                  -1.547
REMARK UNBOUND:                -2.124
REMARK SMILES CCCCCCCCCCCCCCCCCCCCCCCCCCCC(=O)[O-]
REMARK SMILES IDX 15 1 16 2 17 3 18 4 19 5 20 6 21 7 22 8 23 9 24 10 25 11
REMARK SMILES IDX 26 12 27 13 28 14 29 15 30 16 14 17 13 18 12 19 11 20 10 21
REMARK SMILES IDX 9 22 8 23 7 24 6 25 5 26 4 27 3 28 2 29 1 30
REMARK H PARENT
REMARK Flexibility Score: inf
ROOT
ATOM      1  C   UNL     1       9.081   8.010  -1.802  1.00  0.00     0.000 C 
ENDROOT
BRANCH   1   2
ATOM      2  C   UNL     1      10.393   7.236  -2.005  1.00  0.00     0.000 C 
BRANCH   2   3
ATOM      3  C   UNL     1      10.773   6.377  -0.787  1.00  0.00     0.000 C 
BRANCH   3   4
ATOM      4  C   UNL     1      10.894   4.866  -1.069  1.00  0.00     0.000 C 
BRANCH   4   5
ATOM      5  C   UNL     1      11.430   4.499  -2.468  1.00  0.00     0.000 C 
BRANCH   5   6
ATOM      6  C   UNL     1      12.803   3.804  -2.473  1.00  0.00     0.000 C 
BRANCH   6   7
ATOM      7  C   UNL     1      13.558   3.966  -1.143  1.00  0.00     0.000 C 
BRANCH   7   8
ATOM      8  C   UNL     1      14.934   3.280  -1.154  1.00  0.00     0.000 C 
BRANCH   8   9
ATOM      9  C   UNL     1      15.132   2.381  -2.387  1.00  0.00     0.000 C 
BRANCH   9  10
ATOM     10  C   UNL     1      15.679   0.991  -2.022  1.00  0.00     0.000 C 
BRANCH  10  11
ATOM     11  C   UNL     1      16.669   0.452  -3.070  1.00  0.00     0.000 C 
BRANCH  11  12
ATOM     12  C   UNL     1      17.993   1.239  -3.107  1.00  0.00     0.006 C 
BRANCH  12  13
ATOM     13  C   UNL     1      19.249   0.359  -2.975  1.00  0.00     0.053 C 
BRANCH  13  14
ATOM     14  C   UNL     1      20.310   0.991  -2.126  1.00  0.00     0.041 C 
ATOM     15  O   UNL     1      20.693   2.166  -2.364  1.00  0.00    -0.550 OA
ATOM     16  O   UNL     1      20.849   0.299  -1.048  1.00  0.00    -0.550 OA
ENDBRANCH  13  14
ENDBRANCH  12  13
ENDBRANCH  11  12
ENDBRANCH  10  11
ENDBRANCH   9  10
ENDBRANCH   8   9
ENDBRANCH   7   8
ENDBRANCH   6   7
ENDBRANCH   5   6
ENDBRANCH   4   5
ENDBRANCH   3   4
ENDBRANCH   2   3
ENDBRANCH   1   2
BRANCH   1  17
ATOM     17  C   UNL     1       8.628   8.674  -3.108  1.00  0.00     0.000 C 
BRANCH  17  18
ATOM     18  C   UNL     1       8.803  10.198  -3.040  1.00  0.00     0.000 C 
BRANCH  18  19
ATOM     19  C   UNL     1       8.331  10.790  -1.703  1.00  0.00     0.000 C 
BRANCH  19  20
ATOM     20  C   UNL     1       7.377  11.986  -1.886  1.00  0.00     0.000 C 
BRANCH  20  21
ATOM     21  C   UNL     1       8.090  13.206  -2.494  1.00  0.00     0.000 C 
BRANCH  21  22
ATOM     22  C   UNL     1       8.901  13.988  -1.446  1.00  0.00    -0.000 C 
BRANCH  22  23
ATOM     23  C   UNL     1       8.800  15.515  -1.618  1.00  0.00    -0.000 C 
BRANCH  23  24
ATOM     24  C   UNL     1       9.404  16.346  -0.468  1.00  0.00    -0.000 C 
BRANCH  24  25
ATOM     25  C   UNL     1      10.490  17.326  -0.935  1.00  0.00    -0.000 C 
BRANCH  25  26
ATOM     26  C   UNL     1      11.636  16.597  -1.646  1.00  0.00    -0.000 C 
BRANCH  26  27
ATOM     27  C   UNL     1      12.285  15.513  -0.766  1.00  0.00    -0.000 C 
BRANCH  27  28
ATOM     28  C   UNL     1      13.806  15.701  -0.576  1.00  0.00    -0.000 C 
BRANCH  28  29
ATOM     29  C   UNL     1      14.191  17.176  -0.382  1.00  0.00    -0.003 C 
ATOM     30  C   UNL     1      13.931  17.631   1.052  1.00  0.00     0.004 C 
ENDBRANCH  28  29
ENDBRANCH  27  28
ENDBRANCH  26  27
ENDBRANCH  25  26
ENDBRANCH  24  25
ENDBRANCH  23  24
ENDBRANCH  22  23
ENDBRANCH  21  22
ENDBRANCH  20  21
ENDBRANCH  19  20
ENDBRANCH  18  19
ENDBRANCH  17  18
ENDBRANCH   1  17
TORSDOF 26
ENDMDL
MODEL 5
REMARK VINA RESULT:    -3.307      5.427     12.072
REMARK INTER + INTRA:         -10.458
REMARK INTER:                  -8.086
REMARK INTRA:                  -2.372
REMARK UNBOUND:                -2.124
REMARK SMILES CCCCCCCCCCCCCCCCCCCCCCCCCCCC(=O)[O-]
REMARK SMILES IDX 15 1 16 2 17 3 18 4 19 5 20 6 21 7 22 8 23 9 24 10 25 11
REMARK SMILES IDX 26 12 27 13 28 14 29 15 30 16 14 17 13 18 12 19 11 20 10 21
REMARK SMILES IDX 9 22 8 23 7 24 6 25 5 26 4 27 3 28 2 29 1 30
REMARK H PARENT
REMARK Flexibility Score: inf
ROOT
ATOM      1  C   UNL     1      13.954   9.137  -2.409  1.00  0.00     0.000 C 
ENDROOT
BRANCH   1   2
ATOM      2  C   UNL     1      15.080  10.159  -2.633  1.00  0.00     0.000 C 
BRANCH   2   3
ATOM      3  C   UNL     1      14.552  11.576  -2.916  1.00  0.00     0.000 C 
BRANCH   3   4
ATOM      4  C   UNL     1      15.591  12.702  -2.747  1.00  0.00     0.000 C 
BRANCH   4   5
ATOM      5  C   UNL     1      15.004  14.108  -2.504  1.00  0.00     0.000 C 
BRANCH   5   6
ATOM      6  C   UNL     1      13.574  14.123  -1.934  1.00  0.00     0.000 C 
BRANCH   6   7
ATOM      7  C   UNL     1      12.931  15.520  -1.976  1.00  0.00     0.000 C 
BRANCH   7   8
ATOM      8  C   UNL     1      13.927  16.641  -1.638  1.00  0.00     0.000 C 
BRANCH   8   9
ATOM      9  C   UNL     1      14.129  16.811  -0.123  1.00  0.00     0.000 C 
BRANCH   9  10
ATOM     10  C   UNL     1      12.804  16.777   0.658  1.00  0.00     0.000 C 
BRANCH  10  11
ATOM     11  C   UNL     1      11.968  18.053   0.458  1.00  0.00     0.000 C 
BRANCH  11  12
ATOM     12  C   UNL     1      10.454  17.808   0.602  1.00  0.00     0.006 C 
BRANCH  12  13
ATOM     13  C   UNL     1       9.824  17.064  -0.589  1.00  0.00     0.053 C 
BRANCH  13  14
ATOM     14  C   UNL     1       8.428  16.598  -0.305  1.00  0.00     0.041 C 
ATOM     15  O   UNL     1       8.143  15.374  -0.377  1.00  0.00    -0.550 OA
ATOM     16  O   UNL     1       7.451  17.508   0.077  1.00  0.00    -0.550 OA
ENDBRANCH  13  14
ENDBRANCH  12  13
ENDBRANCH  11  12
ENDBRANCH  10  11
ENDBRANCH   9  10
ENDBRANCH   8   9
ENDBRANCH   7   8
ENDBRANCH   6   7
ENDBRANCH   5   6
ENDBRANCH   4   5
ENDBRANCH   3   4
ENDBRANCH   2   3
ENDBRANCH   1   2
BRANCH   1  17
ATOM     17  C   UNL     1      12.657   9.836  -1.983  1.00  0.00     0.000 C 
BRANCH  17  18
ATOM     18  C   UNL     1      11.436   9.178  -2.643  1.00  0.00     0.000 C 
BRANCH  18  19
ATOM     19  C   UNL     1      10.397  10.205  -3.120  1.00  0.00     0.000 C 
BRANCH  19  20
ATOM     20  C   UNL     1       9.034  10.042  -2.418  1.00  0.00     0.000 C 
BRANCH  20  21
ATOM     21  C   UNL     1       8.945   8.727  -1.627  1.00  0.00     0.000 C 
BRANCH  21  22
ATOM     22  C   UNL     1       7.656   7.945  -1.939  1.00  0.00    -0.000 C 
BRANCH  22  23
ATOM     23  C   UNL     1       7.860   6.833  -2.984  1.00  0.00    -0.000 C 
BRANCH  23  24
ATOM     24  C   UNL     1       8.539   5.553  -2.455  1.00  0.00    -0.000 C 
BRANCH  24  25
ATOM     25  C   UNL     1      10.056   5.531  -2.691  1.00  0.00    -0.000 C 
BRANCH  25  26
ATOM     26  C   UNL     1      10.831   5.693  -1.378  1.00  0.00    -0.000 C 
BRANCH  26  27
ATOM     27  C   UNL     1      11.895   4.598  -1.179  1.00  0.00    -0.000 C 
BRANCH  27  28
ATOM     28  C   UNL     1      13.078   4.701  -2.167  1.00  0.00    -0.000 C 
BRANCH  28  29
ATOM     29  C   UNL     1      13.896   3.402  -2.235  1.00  0.00    -0.003 C 
ATOM     30  C   UNL     1      14.888   3.314  -1.077  1.00  0.00     0.004 C 
ENDBRANCH  28  29
ENDBRANCH  27  28
ENDBRANCH  26  27
ENDBRANCH  25  26
ENDBRANCH  24  25
ENDBRANCH  23  24
ENDBRANCH  22  23
ENDBRANCH  21  22
ENDBRANCH  20  21
ENDBRANCH  19  20
ENDBRANCH  18  19
ENDBRANCH  17  18
ENDBRANCH   1  17
TORSDOF 26
ENDMDL
MODEL 6
REMARK VINA RESULT:    -3.290      2.218      4.110
REMARK INTER + INTRA:         -10.415
REMARK INTER:                  -7.650
REMARK INTRA:                  -2.765
REMARK UNBOUND:                -2.124
REMARK SMILES CCCCCCCCCCCCCCCCCCCCCCCCCCCC(=O)[O-]
REMARK SMILES IDX 15 1 16 2 17 3 18 4 19 5 20 6 21 7 22 8 23 9 24 10 25 11
REMARK SMILES IDX 26 12 27 13 28 14 29 15 30 16 14 17 13 18 12 19 11 20 10 21
REMARK SMILES IDX 9 22 8 23 7 24 6 25 5 26 4 27 3 28 2 29 1 30
REMARK H PARENT
REMARK Flexibility Score: inf
ROOT
ATOM      1  C   UNL     1      13.763  11.386  -2.552  1.00  0.00     0.000 C 
ENDROOT
BRANCH   1   2
ATOM      2  C   UNL     1      14.545  10.178  -3.091  1.00  0.00     0.000 C 
BRANCH   2   3
ATOM      3  C   UNL     1      13.707   8.889  -3.120  1.00  0.00     0.000 C 
BRANCH   3   4
ATOM      4  C   UNL     1      12.494   8.880  -2.167  1.00  0.00     0.000 C 
BRANCH   4   5
ATOM      5  C   UNL     1      11.132   8.608  -2.838  1.00  0.00     0.000 C 
BRANCH   5   6
ATOM      6  C   UNL     1       9.936   8.543  -1.871  1.00  0.00     0.000 C 
BRANCH   6   7
ATOM      7  C   UNL     1       9.582   7.104  -1.458  1.00  0.00     0.000 C 
BRANCH   7   8
ATOM      8  C   UNL     1      10.557   6.528  -0.418  1.00  0.00     0.000 C 
BRANCH   8   9
ATOM      9  C   UNL     1      10.752   5.010  -0.573  1.00  0.00     0.000 C 
BRANCH   9  10
ATOM     10  C   UNL     1      11.178   4.610  -1.995  1.00  0.00     0.000 C 
BRANCH  10  11
ATOM     11  C   UNL     1      12.604   5.077  -2.339  1.00  0.00     0.000 C 
BRANCH  11  12
ATOM     12  C   UNL     1      13.694   4.245  -1.638  1.00  0.00     0.006 C 
BRANCH  12  13
ATOM     13  C   UNL     1      13.952   2.874  -2.291  1.00  0.00     0.053 C 
BRANCH  13  14
ATOM     14  C   UNL     1      15.273   2.286  -1.895  1.00  0.00     0.041 C 
ATOM     15  O   UNL     1      16.075   2.951  -1.188  1.00  0.00    -0.550 OA
ATOM     16  O   UNL     1      15.603   0.990  -2.273  1.00  0.00    -0.550 OA
ENDBRANCH  13  14
ENDBRANCH  12  13
ENDBRANCH  11  12
ENDBRANCH  10  11
ENDBRANCH   9  10
ENDBRANCH   8   9
ENDBRANCH   7   8
ENDBRANCH   6   7
ENDBRANCH   5   6
ENDBRANCH   4   5
ENDBRANCH   3   4
ENDBRANCH   2   3
ENDBRANCH   1   2
BRANCH   1  17
ATOM     17  C   UNL     1      14.363  12.701  -3.064  1.00  0.00     0.000 C 
BRANCH  17  18
ATOM     18  C   UNL     1      13.354  13.853  -2.935  1.00  0.00     0.000 C 
BRANCH  18  19
ATOM     19  C   UNL     1      11.909  13.358  -2.771  1.00  0.00     0.000 C 
BRANCH  19  20
ATOM     20  C   UNL     1      11.495  13.212  -1.293  1.00  0.00     0.000 C 
BRANCH  20  21
ATOM     21  C   UNL     1      10.246  12.330  -1.127  1.00  0.00     0.000 C 
BRANCH  21  22
ATOM     22  C   UNL     1       9.114  13.058  -0.379  1.00  0.00    -0.000 C 
BRANCH  22  23
ATOM     23  C   UNL     1       8.004  13.574  -1.314  1.00  0.00    -0.000 C 
BRANCH  23  24
ATOM     24  C   UNL     1       8.428  14.704  -2.274  1.00  0.00    -0.000 C 
BRANCH  24  25
ATOM     25  C   UNL     1       8.036  16.102  -1.773  1.00  0.00    -0.000 C 
BRANCH  25  26
ATOM     26  C   UNL     1       8.556  16.356  -0.353  1.00  0.00    -0.000 C 
BRANCH  26  27
ATOM     27  C   UNL     1       9.059  17.797  -0.156  1.00  0.00    -0.000 C 
BRANCH  27  28
ATOM     28  C   UNL     1      10.522  17.878   0.332  1.00  0.00    -0.000 C 
BRANCH  28  29
ATOM     29  C   UNL     1      11.378  16.715  -0.193  1.00  0.00    -0.003 C 
ATOM     30  C   UNL     1      11.992  17.050  -1.550  1.00  0.00     0.004 C 
ENDBRANCH  28  29
ENDBRANCH  27  28
ENDBRANCH  26  27
ENDBRANCH  25  26
ENDBRANCH  24  25
ENDBRANCH  23  24
ENDBRANCH  22  23
ENDBRANCH  21  22
ENDBRANCH  20  21
ENDBRANCH  19  20
ENDBRANCH  18  19
ENDBRANCH  17  18
ENDBRANCH   1  17
TORSDOF 26
ENDMDL
MODEL 7
REMARK VINA RESULT:    -3.119      5.201     12.331
REMARK INTER + INTRA:          -9.983
REMARK INTER:                  -8.151
REMARK INTRA:                  -1.832
REMARK UNBOUND:                -2.124
REMARK SMILES CCCCCCCCCCCCCCCCCCCCCCCCCCCC(=O)[O-]
REMARK SMILES IDX 15 1 16 2 17 3 18 4 19 5 20 6 21 7 22 8 23 9 24 10 25 11
REMARK SMILES IDX 26 12 27 13 28 14 29 15 30 16 14 17 13 18 12 19 11 20 10 21
REMARK SMILES IDX 9 22 8 23 7 24 6 25 5 26 4 27 3 28 2 29 1 30
REMARK H PARENT
REMARK Flexibility Score: inf
ROOT
ATOM      1  C   UNL     1      12.820   9.241  -2.199  1.00  0.00     0.000 C 
ENDROOT
BRANCH   1   2
ATOM      2  C   UNL     1      14.010   9.540  -3.123  1.00  0.00     0.000 C 
BRANCH   2   3
ATOM      3  C   UNL     1      14.727  10.855  -2.767  1.00  0.00     0.000 C 
BRANCH   3   4
ATOM      4  C   UNL     1      13.818  12.100  -2.728  1.00  0.00     0.000 C 
BRANCH   4   5
ATOM      5  C   UNL     1      14.557  13.454  -2.731  1.00  0.00     0.000 C 
BRANCH   5   6
ATOM      6  C   UNL     1      13.787  14.613  -2.073  1.00  0.00     0.000 C 
BRANCH   6   7
ATOM      7  C   UNL     1      14.710  15.752  -1.607  1.00  0.00     0.000 C 
BRANCH   7   8
ATOM      8  C   UNL     1      14.099  16.579  -0.463  1.00  0.00     0.000 C 
BRANCH   8   9
ATOM      9  C   UNL     1      12.704  16.076  -0.055  1.00  0.00     0.000 C 
BRANCH   9  10
ATOM     10  C   UNL     1      11.668  17.210   0.028  1.00  0.00     0.000 C 
BRANCH  10  11
ATOM     11  C   UNL     1      10.325  16.832  -0.620  1.00  0.00     0.000 C 
BRANCH  11  12
ATOM     12  C   UNL     1      10.380  15.495  -1.383  1.00  0.00     0.006 C 
BRANCH  12  13
ATOM     13  C   UNL     1       9.286  14.493  -0.972  1.00  0.00     0.053 C 
BRANCH  13  14
ATOM     14  C   UNL     1       7.903  15.047  -1.141  1.00  0.00     0.041 C 
ATOM     15  O   UNL     1       7.212  15.341  -0.131  1.00  0.00    -0.550 OA
ATOM     16  O   UNL     1       7.392  15.275  -2.413  1.00  0.00    -0.550 OA
ENDBRANCH  13  14
ENDBRANCH  12  13
ENDBRANCH  11  12
ENDBRANCH  10  11
ENDBRANCH   9  10
ENDBRANCH   8   9
ENDBRANCH   7   8
ENDBRANCH   6   7
ENDBRANCH   5   6
ENDBRANCH   4   5
ENDBRANCH   3   4
ENDBRANCH   2   3
ENDBRANCH   1   2
BRANCH   1  17
ATOM     17  C   UNL     1      11.501   9.687  -2.842  1.00  0.00     0.000 C 
BRANCH  17  18
ATOM     18  C   UNL     1      10.331   9.536  -1.859  1.00  0.00     0.000 C 
BRANCH  18  19
ATOM     19  C   UNL     1       9.046   9.037  -2.539  1.00  0.00     0.000 C 
BRANCH  19  20
ATOM     20  C   UNL     1       8.772   7.545  -2.268  1.00  0.00     0.000 C 
BRANCH  20  21
ATOM     21  C   UNL     1       9.735   6.961  -1.221  1.00  0.00     0.000 C 
BRANCH  21  22
ATOM     22  C   UNL     1      10.627   5.851  -1.805  1.00  0.00    -0.000 C 
BRANCH  22  23
ATOM     23  C   UNL     1      12.100   5.966  -1.370  1.00  0.00    -0.000 C 
BRANCH  23  24
ATOM     24  C   UNL     1      12.789   4.630  -1.026  1.00  0.00    -0.000 C 
BRANCH  24  25
ATOM     25  C   UNL     1      12.856   3.661  -2.216  1.00  0.00    -0.000 C 
BRANCH  25  26
ATOM     26  C   UNL     1      14.306   3.324  -2.585  1.00  0.00    -0.000 C 
BRANCH  26  27
ATOM     27  C   UNL     1      14.816   2.054  -1.882  1.00  0.00    -0.000 C 
BRANCH  27  28
ATOM     28  C   UNL     1      16.334   2.076  -1.594  1.00  0.00    -0.000 C 
BRANCH  28  29
ATOM     29  C   UNL     1      17.173   1.999  -2.879  1.00  0.00    -0.003 C 
ATOM     30  C   UNL     1      18.397   1.107  -2.687  1.00  0.00     0.004 C 
ENDBRANCH  28  29
ENDBRANCH  27  28
ENDBRANCH  26  27
ENDBRANCH  25  26
ENDBRANCH  24  25
ENDBRANCH  23  24
ENDBRANCH  22  23
ENDBRANCH  21  22
ENDBRANCH  20  21
ENDBRANCH  19  20
ENDBRANCH  18  19
ENDBRANCH  17  18
ENDBRANCH   1  17
TORSDOF 26
ENDMDL
MODEL 8
REMARK VINA RESULT:    -3.034      4.799     12.439
REMARK INTER + INTRA:          -9.770
REMARK INTER:                  -7.555
REMARK INTRA:                  -2.214
REMARK UNBOUND:                -2.124
REMARK SMILES CCCCCCCCCCCCCCCCCCCCCCCCCCCC(=O)[O-]
REMARK SMILES IDX 15 1 16 2 17 3 18 4 19 5 20 6 21 7 22 8 23 9 24 10 25 11
REMARK SMILES IDX 26 12 27 13 28 14 29 15 30 16 14 17 13 18 12 19 11 20 10 21
REMARK SMILES IDX 9 22 8 23 7 24 6 25 5 26 4 27 3 28 2 29 1 30
REMARK H PARENT
REMARK Flexibility Score: inf
ROOT
ATOM      1  C   UNL     1      11.681  11.427  -1.040  1.00  0.00     0.000 C 
ENDROOT
BRANCH   1   2
ATOM      2  C   UNL     1      10.938  12.495  -1.858  1.00  0.00     0.000 C 
BRANCH   2   3
ATOM      3  C   UNL     1       9.953  13.318  -1.010  1.00  0.00     0.000 C 
BRANCH   3   4
ATOM      4  C   UNL     1       8.523  12.746  -0.937  1.00  0.00     0.000 C 
BRANCH   4   5
ATOM      5  C   UNL     1       7.417  13.670  -1.485  1.00  0.00     0.000 C 
BRANCH   5   6
ATOM      6  C   UNL     1       6.895  14.719  -0.486  1.00  0.00     0.000 C 
BRANCH   6   7
ATOM      7  C   UNL     1       7.596  16.081  -0.632  1.00  0.00     0.000 C 
BRANCH   7   8
ATOM      8  C   UNL     1       7.683  16.548  -2.094  1.00  0.00     0.000 C 
BRANCH   8   9
ATOM      9  C   UNL     1       9.117  16.485  -2.647  1.00  0.00     0.000 C 
BRANCH   9  10
ATOM     10  C   UNL     1      10.000  17.634  -2.132  1.00  0.00     0.000 C 
BRANCH  10  11
ATOM     11  C   UNL     1      11.461  17.513  -2.601  1.00  0.00     0.000 C 
BRANCH  11  12
ATOM     12  C   UNL     1      12.402  16.981  -1.506  1.00  0.00     0.006 C 
BRANCH  12  13
ATOM     13  C   UNL     1      11.968  17.345  -0.074  1.00  0.00     0.053 C 
BRANCH  13  14
ATOM     14  C   UNL     1      13.055  17.122   0.934  1.00  0.00     0.041 C 
ATOM     15  O   UNL     1      14.226  16.864   0.553  1.00  0.00    -0.550 OA
ATOM     16  O   UNL     1      12.784  17.238   2.292  1.00  0.00    -0.550 OA
ENDBRANCH  13  14
ENDBRANCH  12  13
ENDBRANCH  11  12
ENDBRANCH  10  11
ENDBRANCH   9  10
ENDBRANCH   8   9
ENDBRANCH   7   8
ENDBRANCH   6   7
ENDBRANCH   5   6
ENDBRANCH   4   5
ENDBRANCH   3   4
ENDBRANCH   2   3
ENDBRANCH   1   2
BRANCH   1  17
ATOM     17  C   UNL     1      11.760  10.103  -1.810  1.00  0.00     0.000 C 
BRANCH  17  18
ATOM     18  C   UNL     1      10.445   9.817  -2.550  1.00  0.00     0.000 C 
BRANCH  18  19
ATOM     19  C   UNL     1       9.384   9.170  -1.645  1.00  0.00     0.000 C 
BRANCH  19  20
ATOM     20  C   UNL     1       8.555   8.097  -2.377  1.00  0.00     0.000 C 
BRANCH  20  21
ATOM     21  C   UNL     1       9.321   6.771  -2.517  1.00  0.00     0.000 C 
BRANCH  21  22
ATOM     22  C   UNL     1      10.212   6.480  -1.296  1.00  0.00    -0.000 C 
BRANCH  22  23
ATOM     23  C   UNL     1      10.666   5.011  -1.213  1.00  0.00    -0.000 C 
BRANCH  23  24
ATOM     24  C   UNL     1      12.150   4.763  -1.552  1.00  0.00    -0.000 C 
BRANCH  24  25
ATOM     25  C   UNL     1      12.351   4.005  -2.872  1.00  0.00    -0.000 C 
BRANCH  25  26
ATOM     26  C   UNL     1      13.292   2.807  -2.695  1.00  0.00    -0.000 C 
BRANCH  26  27
ATOM     27  C   UNL     1      14.774   3.189  -2.859  1.00  0.00    -0.000 C 
BRANCH  27  28
ATOM     28  C   UNL     1      15.661   2.739  -1.677  1.00  0.00    -0.000 C 
BRANCH  28  29
ATOM     29  C   UNL     1      15.774   1.209  -1.583  1.00  0.00    -0.003 C 
ATOM     30  C   UNL     1      16.298   0.613  -2.887  1.00  0.00     0.004 C 
ENDBRANCH  28  29
ENDBRANCH  27  28
ENDBRANCH  26  27
ENDBRANCH  25  26
ENDBRANCH  24  25
ENDBRANCH  23  24
ENDBRANCH  22  23
ENDBRANCH  21  22
ENDBRANCH  20  21
ENDBRANCH  19  20
ENDBRANCH  18  19
ENDBRANCH  17  18
ENDBRANCH   1  17
TORSDOF 26
ENDMDL
MODEL 9
REMARK VINA RESULT:    -3.017      1.819      3.097
REMARK INTER + INTRA:          -9.727
REMARK INTER:                  -7.558
REMARK INTRA:                  -2.169
REMARK UNBOUND:                -2.124
REMARK SMILES CCCCCCCCCCCCCCCCCCCCCCCCCCCC(=O)[O-]
REMARK SMILES IDX 15 1 16 2 17 3 18 4 19 5 20 6 21 7 22 8 23 9 24 10 25 11
REMARK SMILES IDX 26 12 27 13 28 14 29 15 30 16 14 17 13 18 12 19 11 20 10 21
REMARK SMILES IDX 9 22 8 23 7 24 6 25 5 26 4 27 3 28 2 29 1 30
REMARK H PARENT
REMARK Flexibility Score: inf
ROOT
ATOM      1  C   UNL     1      12.116  11.630  -1.356  1.00  0.00     0.000 C 
ENDROOT
BRANCH   1   2
ATOM      2  C   UNL     1      11.126  10.459  -1.269  1.00  0.00     0.000 C 
BRANCH   2   3
ATOM      3  C   UNL     1      11.140   9.571  -2.526  1.00  0.00     0.000 C 
BRANCH   3   4
ATOM      4  C   UNL     1       9.909   8.657  -2.690  1.00  0.00     0.000 C 
BRANCH   4   5
ATOM      5  C   UNL     1      10.169   7.155  -2.457  1.00  0.00     0.000 C 
BRANCH   5   6
ATOM      6  C   UNL     1      10.237   6.731  -0.979  1.00  0.00     0.000 C 
BRANCH   6   7
ATOM      7  C   UNL     1      10.661   5.264  -0.799  1.00  0.00     0.000 C 
BRANCH   7   8
ATOM      8  C   UNL     1      10.566   4.455  -2.103  1.00  0.00     0.000 C 
BRANCH   8   9
ATOM      9  C   UNL     1      11.916   3.841  -2.514  1.00  0.00     0.000 C 
BRANCH   9  10
ATOM     10  C   UNL     1      13.109   4.516  -1.817  1.00  0.00     0.000 C 
BRANCH  10  11
ATOM     11  C   UNL     1      14.322   3.579  -1.682  1.00  0.00     0.000 C 
BRANCH  11  12
ATOM     12  C   UNL     1      14.314   2.433  -2.711  1.00  0.00     0.006 C 
BRANCH  12  13
ATOM     13  C   UNL     1      15.196   1.233  -2.320  1.00  0.00     0.053 C 
BRANCH  13  14
ATOM     14  C   UNL     1      16.645   1.596  -2.203  1.00  0.00     0.041 C 
ATOM     15  O   UNL     1      17.469   1.192  -3.064  1.00  0.00    -0.550 OA
ATOM     16  O   UNL     1      17.081   2.413  -1.166  1.00  0.00    -0.550 OA
ENDBRANCH  13  14
ENDBRANCH  12  13
ENDBRANCH  11  12
ENDBRANCH  10  11
ENDBRANCH   9  10
ENDBRANCH   8   9
ENDBRANCH   7   8
ENDBRANCH   6   7
ENDBRANCH   5   6
ENDBRANCH   4   5
ENDBRANCH   3   4
ENDBRANCH   2   3
ENDBRANCH   1   2
BRANCH   1  17
ATOM     17  C   UNL     1      11.425  12.958  -1.027  1.00  0.00     0.000 C 
BRANCH  17  18
ATOM     18  C   UNL     1       9.978  12.726  -0.565  1.00  0.00     0.000 C 
BRANCH  18  19
ATOM     19  C   UNL     1       8.957  13.517  -1.398  1.00  0.00     0.000 C 
BRANCH  19  20
ATOM     20  C   UNL     1       7.741  13.975  -0.569  1.00  0.00     0.000 C 
BRANCH  20  21
ATOM     21  C   UNL     1       7.129  15.277  -1.111  1.00  0.00     0.000 C 
BRANCH  21  22
ATOM     22  C   UNL     1       7.539  15.550  -2.570  1.00  0.00    -0.000 C 
BRANCH  22  23
ATOM     23  C   UNL     1       8.144  16.951  -2.776  1.00  0.00    -0.000 C 
BRANCH  23  24
ATOM     24  C   UNL     1       8.566  17.680  -1.485  1.00  0.00    -0.000 C 
BRANCH  24  25
ATOM     25  C   UNL     1      10.087  17.709  -1.276  1.00  0.00    -0.000 C 
BRANCH  25  26
ATOM     26  C   UNL     1      10.529  16.687  -0.222  1.00  0.00    -0.000 C 
BRANCH  26  27
ATOM     27  C   UNL     1      11.902  17.021   0.389  1.00  0.00    -0.000 C 
BRANCH  27  28
ATOM     28  C   UNL     1      13.088  16.408  -0.388  1.00  0.00    -0.000 C 
BRANCH  28  29
ATOM     29  C   UNL     1      14.377  17.230  -0.231  1.00  0.00    -0.003 C 
ATOM     30  C   UNL     1      15.079  17.417  -1.573  1.00  0.00     0.004 C 
ENDBRANCH  28  29
ENDBRANCH  27  28
ENDBRANCH  26  27
ENDBRANCH  25  26
ENDBRANCH  24  25
ENDBRANCH  23  24
ENDBRANCH  22  23
ENDBRANCH  21  22
ENDBRANCH  20  21
ENDBRANCH  19  20
ENDBRANCH  18  19
ENDBRANCH  17  18
ENDBRANCH   1  17
TORSDOF 26
ENDMDL
