MODEL 1
REMARK VINA RESULT:    -7.861      0.000      0.000
REMARK INTER + INTRA:          -9.738
REMARK INTER:                  -9.469
REMARK INTRA:                  -0.268
REMARK UNBOUND:                -0.268
REMARK SMILES Oc1cc(O)c2cc(O)c(-c3ccc(O)c(O)c3)[o+]c2c1.[Cl-]
REMARK SMILES IDX 10 1 19 2 20 3 21 4 2 5 3 6 4 7 6 8 7 9 8 10 11 11 12 12
REMARK SMILES IDX 13 13 14 14 18 15 16 16 15 17 17 19 9 21 1 23 5 25
REMARK H PARENT 15 18 17 20 9 22 1 24 5 26
REMARK Flexibility Score: inf
ROOT
ATOM      1  C   UNL     1      33.643   5.248   8.368  1.00  0.00     0.402 A 
ATOM      2  O   UNL     1      32.985   5.835   9.364  1.00  0.00    -0.202 OA
ATOM      3  C   UNL     1      33.571   6.611  10.270  1.00  0.00     0.368 A 
ATOM      4  C   UNL     1      32.794   7.181  11.282  1.00  0.00     0.162 A 
ATOM      5  C   UNL     1      33.386   7.998  12.250  1.00  0.00     0.128 A 
ATOM      6  C   UNL     1      34.760   8.245  12.205  1.00  0.00     0.093 A 
ATOM      7  C   UNL     1      35.560   7.685  11.201  1.00  0.00     0.136 A 
ATOM      8  C   UNL     1      34.964   6.856  10.215  1.00  0.00     0.125 A 
ATOM      9  C   UNL     1      35.685   6.265   9.167  1.00  0.00     0.078 A 
ATOM     10  C   UNL     1      35.027   5.464   8.228  1.00  0.00     0.223 A 
ENDROOT
BRANCH   1  11
ATOM     11  C   UNL     1      32.879   4.399   7.426  1.00  0.00     0.087 A 
ATOM     12  C   UNL     1      32.389   3.138   7.810  1.00  0.00     0.022 A 
ATOM     13  C   UNL     1      31.649   2.365   6.912  1.00  0.00     0.051 A 
ATOM     14  C   UNL     1      31.376   2.844   5.624  1.00  0.00     0.157 A 
ATOM     15  C   UNL     1      32.585   4.883   6.142  1.00  0.00     0.068 A 
ATOM     16  C   UNL     1      31.845   4.111   5.239  1.00  0.00     0.158 A 
BRANCH  14  17
ATOM     17  O   UNL     1      30.639   2.068   4.730  1.00  0.00    -0.504 OA
ATOM     18  H   UNL     1      30.645   1.057   4.775  1.00  0.00     0.293 HD
ENDBRANCH  14  17
BRANCH  16  19
ATOM     19  O   UNL     1      31.585   4.619   3.967  1.00  0.00    -0.504 OA
ATOM     20  H   UNL     1      31.980   4.205   3.131  1.00  0.00     0.293 HD
ENDBRANCH  16  19
ENDBRANCH   1  11
BRANCH  10  21
ATOM     21  O   UNL     1      35.734   4.916   7.157  1.00  0.00    -0.500 OA
ATOM     22  H   UNL     1      36.429   4.191   7.293  1.00  0.00     0.294 HD
ENDBRANCH  10  21
BRANCH   5  23
ATOM     23  O   UNL     1      32.617   8.570  13.261  1.00  0.00    -0.507 OA
ATOM     24  H   UNL     1      32.814   9.499  13.615  1.00  0.00     0.293 HD
ENDBRANCH   5  23
BRANCH   7  25
ATOM     25  O   UNL     1      36.927   7.978  11.230  1.00  0.00    -0.507 OA
ATOM     26  H   UNL     1      37.648   7.366  10.879  1.00  0.00     0.293 HD
ENDBRANCH   7  25
TORSDOF 6
ENDMDL
MODEL 2
REMARK VINA RESULT:    -6.821      2.697      2.870
REMARK INTER + INTRA:          -8.484
REMARK INTER:                  -8.969
REMARK INTRA:                   0.484
REMARK UNBOUND:                -0.268
REMARK SMILES Oc1cc(O)c2cc(O)c(-c3ccc(O)c(O)c3)[o+]c2c1.[Cl-]
REMARK SMILES IDX 10 1 19 2 20 3 21 4 2 5 3 6 4 7 6 8 7 9 8 10 11 11 12 12
REMARK SMILES IDX 13 13 14 14 18 15 16 16 15 17 17 19 9 21 1 23 5 25
REMARK H PARENT 15 18 17 20 9 22 1 24 5 26
REMARK Flexibility Score: inf
ROOT
ATOM      1  C   UNL     1      33.013   4.326   9.367  1.00  0.00     0.402 A 
ATOM      2  O   UNL     1      32.819   3.547  10.427  1.00  0.00    -0.202 OA
ATOM      3  C   UNL     1      33.250   3.853  11.647  1.00  0.00     0.368 A 
ATOM      4  C   UNL     1      33.001   2.967  12.698  1.00  0.00     0.162 A 
ATOM      5  C   UNL     1      33.446   3.262  13.990  1.00  0.00     0.128 A 
ATOM      6  C   UNL     1      34.145   4.448  14.231  1.00  0.00     0.093 A 
ATOM      7  C   UNL     1      34.408   5.351  13.193  1.00  0.00     0.136 A 
ATOM      8  C   UNL     1      33.956   5.057  11.881  1.00  0.00     0.125 A 
ATOM      9  C   UNL     1      34.163   5.909  10.785  1.00  0.00     0.078 A 
ATOM     10  C   UNL     1      33.683   5.554   9.520  1.00  0.00     0.223 A 
ENDROOT
BRANCH   1  11
ATOM     11  C   UNL     1      32.491   3.870   8.058  1.00  0.00     0.087 A 
ATOM     12  C   UNL     1      31.908   2.600   7.904  1.00  0.00     0.022 A 
ATOM     13  C   UNL     1      31.401   2.202   6.664  1.00  0.00     0.051 A 
ATOM     14  C   UNL     1      31.456   3.070   5.565  1.00  0.00     0.157 A 
ATOM     15  C   UNL     1      32.525   4.743   6.959  1.00  0.00     0.068 A 
ATOM     16  C   UNL     1      32.019   4.347   5.715  1.00  0.00     0.158 A 
BRANCH  14  17
ATOM     17  O   UNL     1      30.951   2.667   4.330  1.00  0.00    -0.504 OA
ATOM     18  H   UNL     1      31.359   1.897   3.815  1.00  0.00     0.293 HD
ENDBRANCH  14  17
BRANCH  16  19
ATOM     19  O   UNL     1      32.083   5.237   4.643  1.00  0.00    -0.504 OA
ATOM     20  H   UNL     1      32.285   6.221   4.772  1.00  0.00     0.293 HD
ENDBRANCH  16  19
ENDBRANCH   1  11
BRANCH  10  21
ATOM     21  O   UNL     1      33.844   6.424   8.440  1.00  0.00    -0.500 OA
ATOM     22  H   UNL     1      34.439   6.191   7.654  1.00  0.00     0.294 HD
ENDBRANCH  10  21
BRANCH   5  23
ATOM     23  O   UNL     1      33.200   2.384  15.043  1.00  0.00    -0.507 OA
ATOM     24  H   UNL     1      32.951   1.416  14.879  1.00  0.00     0.293 HD
ENDBRANCH   5  23
BRANCH   7  25
ATOM     25  O   UNL     1      35.116   6.513  13.517  1.00  0.00    -0.507 OA
ATOM     26  H   UNL     1      34.693   7.419  13.651  1.00  0.00     0.293 HD
ENDBRANCH   7  25
TORSDOF 6
ENDMDL
MODEL 3
REMARK VINA RESULT:    -6.743      1.415      1.422
REMARK INTER + INTRA:          -8.391
REMARK INTER:                  -8.258
REMARK INTRA:                  -0.133
REMARK UNBOUND:                -0.268
REMARK SMILES Oc1cc(O)c2cc(O)c(-c3ccc(O)c(O)c3)[o+]c2c1.[Cl-]
REMARK SMILES IDX 10 1 19 2 20 3 21 4 2 5 3 6 4 7 6 8 7 9 8 10 11 11 12 12
REMARK SMILES IDX 13 13 14 14 18 15 16 16 15 17 17 19 9 21 1 23 5 25
REMARK H PARENT 15 18 17 20 9 22 1 24 5 26
REMARK Flexibility Score: inf
ROOT
ATOM      1  C   UNL     1      33.451   4.581   8.372  1.00  0.00     0.402 A 
ATOM      2  O   UNL     1      32.837   4.669   9.549  1.00  0.00    -0.202 OA
ATOM      3  C   UNL     1      33.432   5.115  10.651  1.00  0.00     0.368 A 
ATOM      4  C   UNL     1      32.704   5.167  11.843  1.00  0.00     0.162 A 
ATOM      5  C   UNL     1      33.305   5.628  13.018  1.00  0.00     0.128 A 
ATOM      6  C   UNL     1      34.641   6.037  13.000  1.00  0.00     0.093 A 
ATOM      7  C   UNL     1      35.392   5.994  11.819  1.00  0.00     0.136 A 
ATOM      8  C   UNL     1      34.786   5.528  10.623  1.00  0.00     0.125 A 
ATOM      9  C   UNL     1      35.457   5.463   9.393  1.00  0.00     0.078 A 
ATOM     10  C   UNL     1      34.791   4.998   8.255  1.00  0.00     0.223 A 
ENDROOT
BRANCH   1  11
ATOM     11  C   UNL     1      32.683   4.060   7.219  1.00  0.00     0.087 A 
ATOM     12  C   UNL     1      32.119   2.772   7.236  1.00  0.00     0.022 A 
ATOM     13  C   UNL     1      31.378   2.311   6.145  1.00  0.00     0.051 A 
ATOM     14  C   UNL     1      31.178   3.133   5.028  1.00  0.00     0.157 A 
ATOM     15  C   UNL     1      32.462   4.887   6.106  1.00  0.00     0.068 A 
ATOM     16  C   UNL     1      31.721   4.428   5.011  1.00  0.00     0.158 A 
BRANCH  14  17
ATOM     17  O   UNL     1      30.440   2.668   3.941  1.00  0.00    -0.504 OA
ATOM     18  H   UNL     1      30.112   3.294   3.215  1.00  0.00     0.293 HD
ENDBRANCH  14  17
BRANCH  16  19
ATOM     19  O   UNL     1      31.534   5.273   3.917  1.00  0.00    -0.504 OA
ATOM     20  H   UNL     1      30.721   5.871   3.833  1.00  0.00     0.293 HD
ENDBRANCH  16  19
ENDBRANCH   1  11
BRANCH  10  21
ATOM     21  O   UNL     1      35.442   4.979   7.020  1.00  0.00    -0.500 OA
ATOM     22  H   UNL     1      35.731   4.112   6.584  1.00  0.00     0.294 HD
ENDBRANCH  10  21
BRANCH   5  23
ATOM     23  O   UNL     1      32.585   5.684  14.209  1.00  0.00    -0.507 OA
ATOM     24  H   UNL     1      32.236   6.561  14.576  1.00  0.00     0.293 HD
ENDBRANCH   5  23
BRANCH   7  25
ATOM     25  O   UNL     1      36.723   6.417  11.887  1.00  0.00    -0.507 OA
ATOM     26  H   UNL     1      37.289   6.649  11.084  1.00  0.00     0.293 HD
ENDBRANCH   7  25
TORSDOF 6
ENDMDL
MODEL 4
REMARK VINA RESULT:    -6.529      1.653      2.862
REMARK INTER + INTRA:          -8.134
REMARK INTER:                  -8.102
REMARK INTRA:                  -0.032
REMARK UNBOUND:                -0.268
REMARK SMILES Oc1cc(O)c2cc(O)c(-c3ccc(O)c(O)c3)[o+]c2c1.[Cl-]
REMARK SMILES IDX 10 1 19 2 20 3 21 4 2 5 3 6 4 7 6 8 7 9 8 10 11 11 12 12
REMARK SMILES IDX 13 13 14 14 18 15 16 16 15 17 17 19 9 21 1 23 5 25
REMARK H PARENT 15 18 17 20 9 22 1 24 5 26
REMARK Flexibility Score: inf
ROOT
ATOM      1  C   UNL     1      33.595   4.662   8.980  1.00  0.00     0.402 A 
ATOM      2  O   UNL     1      34.816   5.159   8.802  1.00  0.00    -0.202 OA
ATOM      3  C   UNL     1      35.538   5.691   9.783  1.00  0.00     0.368 A 
ATOM      4  C   UNL     1      36.810   6.192   9.496  1.00  0.00     0.162 A 
ATOM      5  C   UNL     1      37.590   6.760  10.509  1.00  0.00     0.128 A 
ATOM      6  C   UNL     1      37.093   6.828  11.813  1.00  0.00     0.093 A 
ATOM      7  C   UNL     1      35.821   6.334  12.125  1.00  0.00     0.136 A 
ATOM      8  C   UNL     1      35.026   5.755  11.102  1.00  0.00     0.125 A 
ATOM      9  C   UNL     1      33.747   5.223  11.326  1.00  0.00     0.078 A 
ATOM     10  C   UNL     1      33.025   4.663  10.267  1.00  0.00     0.223 A 
ENDROOT
BRANCH   1  11
ATOM     11  C   UNL     1      32.887   4.104   7.805  1.00  0.00     0.087 A 
ATOM     12  C   UNL     1      32.312   2.821   7.837  1.00  0.00     0.022 A 
ATOM     13  C   UNL     1      31.629   2.326   6.724  1.00  0.00     0.051 A 
ATOM     14  C   UNL     1      31.497   3.108   5.569  1.00  0.00     0.157 A 
ATOM     15  C   UNL     1      32.734   4.892   6.653  1.00  0.00     0.068 A 
ATOM     16  C   UNL     1      32.051   4.398   5.535  1.00  0.00     0.158 A 
BRANCH  14  17
ATOM     17  O   UNL     1      30.816   2.609   4.460  1.00  0.00    -0.504 OA
ATOM     18  H   UNL     1      31.086   2.855   3.516  1.00  0.00     0.293 HD
ENDBRANCH  14  17
BRANCH  16  19
ATOM     19  O   UNL     1      31.931   5.204   4.403  1.00  0.00    -0.504 OA
ATOM     20  H   UNL     1      31.115   5.780   4.237  1.00  0.00     0.293 HD
ENDBRANCH  16  19
ENDBRANCH   1  11
BRANCH  10  21
ATOM     21  O   UNL     1      31.774   4.089  10.499  1.00  0.00    -0.500 OA
ATOM     22  H   UNL     1      31.154   3.840   9.737  1.00  0.00     0.294 HD
ENDBRANCH  10  21
BRANCH   5  23
ATOM     23  O   UNL     1      38.860   7.260  10.230  1.00  0.00    -0.507 OA
ATOM     24  H   UNL     1      39.059   8.252  10.271  1.00  0.00     0.293 HD
ENDBRANCH   5  23
BRANCH   7  25
ATOM     25  O   UNL     1      35.396   6.444  13.453  1.00  0.00    -0.507 OA
ATOM     26  H   UNL     1      35.952   6.179  14.253  1.00  0.00     0.293 HD
ENDBRANCH   7  25
TORSDOF 6
ENDMDL
MODEL 5
REMARK VINA RESULT:    -6.517      2.918      6.869
REMARK INTER + INTRA:          -8.118
REMARK INTER:                  -7.965
REMARK INTRA:                  -0.154
REMARK UNBOUND:                -0.268
REMARK SMILES Oc1cc(O)c2cc(O)c(-c3ccc(O)c(O)c3)[o+]c2c1.[Cl-]
REMARK SMILES IDX 10 1 19 2 20 3 21 4 2 5 3 6 4 7 6 8 7 9 8 10 11 11 12 12
REMARK SMILES IDX 13 13 14 14 18 15 16 16 15 17 17 19 9 21 1 23 5 25
REMARK H PARENT 15 18 17 20 9 22 1 24 5 26
REMARK Flexibility Score: inf
ROOT
ATOM      1  C   UNL     1      32.775   3.839   9.548  1.00  0.00     0.402 A 
ATOM      2  O   UNL     1      32.045   3.076   8.740  1.00  0.00    -0.202 OA
ATOM      3  C   UNL     1      31.870   3.337   7.448  1.00  0.00     0.368 A 
ATOM      4  C   UNL     1      31.081   2.476   6.682  1.00  0.00     0.162 A 
ATOM      5  C   UNL     1      30.877   2.729   5.321  1.00  0.00     0.128 A 
ATOM      6  C   UNL     1      31.466   3.849   4.727  1.00  0.00     0.093 A 
ATOM      7  C   UNL     1      32.260   4.727   5.475  1.00  0.00     0.136 A 
ATOM      8  C   UNL     1      32.471   4.473   6.855  1.00  0.00     0.125 A 
ATOM      9  C   UNL     1      33.262   5.290   7.678  1.00  0.00     0.078 A 
ATOM     10  C   UNL     1      33.428   4.973   9.029  1.00  0.00     0.223 A 
ENDROOT
BRANCH   1  11
ATOM     11  C   UNL     1      32.887   3.447  10.972  1.00  0.00     0.087 A 
ATOM     12  C   UNL     1      33.484   2.232  11.352  1.00  0.00     0.022 A 
ATOM     13  C   UNL     1      33.600   1.895  12.702  1.00  0.00     0.051 A 
ATOM     14  C   UNL     1      33.134   2.770  13.693  1.00  0.00     0.157 A 
ATOM     15  C   UNL     1      32.441   4.330  11.968  1.00  0.00     0.068 A 
ATOM     16  C   UNL     1      32.555   3.995  13.323  1.00  0.00     0.158 A 
BRANCH  14  17
ATOM     17  O   UNL     1      33.250   2.429  15.039  1.00  0.00    -0.504 OA
ATOM     18  H   UNL     1      32.470   2.519  15.679  1.00  0.00     0.293 HD
ENDBRANCH  14  17
BRANCH  16  19
ATOM     19  O   UNL     1      32.088   4.891  14.284  1.00  0.00    -0.504 OA
ATOM     20  H   UNL     1      31.839   4.594  15.220  1.00  0.00     0.293 HD
ENDBRANCH  16  19
ENDBRANCH   1  11
BRANCH  10  21
ATOM     21  O   UNL     1      34.255   5.757   9.836  1.00  0.00    -0.500 OA
ATOM     22  H   UNL     1      34.300   5.623  10.840  1.00  0.00     0.294 HD
ENDBRANCH  10  21
BRANCH   5  23
ATOM     23  O   UNL     1      30.093   1.875   4.551  1.00  0.00    -0.507 OA
ATOM     24  H   UNL     1      30.225   1.793   3.549  1.00  0.00     0.293 HD
ENDBRANCH   5  23
BRANCH   7  25
ATOM     25  O   UNL     1      32.809   5.826   4.806  1.00  0.00    -0.507 OA
ATOM     26  H   UNL     1      32.352   6.321   4.055  1.00  0.00     0.293 HD
ENDBRANCH   7  25
TORSDOF 6
ENDMDL
MODEL 6
REMARK VINA RESULT:    -6.474      1.702      7.091
REMARK INTER + INTRA:          -8.066
REMARK INTER:                  -7.722
REMARK INTRA:                  -0.344
REMARK UNBOUND:                -0.268
REMARK SMILES Oc1cc(O)c2cc(O)c(-c3ccc(O)c(O)c3)[o+]c2c1.[Cl-]
REMARK SMILES IDX 10 1 19 2 20 3 21 4 2 5 3 6 4 7 6 8 7 9 8 10 11 11 12 12
REMARK SMILES IDX 13 13 14 14 18 15 16 16 15 17 17 19 9 21 1 23 5 25
REMARK H PARENT 15 18 17 20 9 22 1 24 5 26
REMARK Flexibility Score: inf
ROOT
ATOM      1  C   UNL     1      33.475   5.191   8.425  1.00  0.00     0.402 A 
ATOM      2  O   UNL     1      33.177   5.591   7.192  1.00  0.00    -0.202 OA
ATOM      3  C   UNL     1      32.343   4.932   6.393  1.00  0.00     0.368 A 
ATOM      4  C   UNL     1      32.096   5.430   5.111  1.00  0.00     0.162 A 
ATOM      5  C   UNL     1      31.226   4.756   4.248  1.00  0.00     0.128 A 
ATOM      6  C   UNL     1      30.602   3.579   4.670  1.00  0.00     0.093 A 
ATOM      7  C   UNL     1      30.835   3.060   5.950  1.00  0.00     0.136 A 
ATOM      8  C   UNL     1      31.715   3.741   6.830  1.00  0.00     0.125 A 
ATOM      9  C   UNL     1      31.996   3.302   8.133  1.00  0.00     0.078 A 
ATOM     10  C   UNL     1      32.871   4.031   8.945  1.00  0.00     0.223 A 
ENDROOT
BRANCH   1  11
ATOM     11  C   UNL     1      34.426   6.007   9.216  1.00  0.00     0.087 A 
ATOM     12  C   UNL     1      33.989   7.098   9.987  1.00  0.00     0.022 A 
ATOM     13  C   UNL     1      34.901   7.837  10.744  1.00  0.00     0.051 A 
ATOM     14  C   UNL     1      36.259   7.491  10.751  1.00  0.00     0.157 A 
ATOM     15  C   UNL     1      35.783   5.651   9.243  1.00  0.00     0.068 A 
ATOM     16  C   UNL     1      36.701   6.390   9.999  1.00  0.00     0.158 A 
BRANCH  14  17
ATOM     17  O   UNL     1      37.167   8.233  11.506  1.00  0.00    -0.504 OA
ATOM     18  H   UNL     1      37.406   9.186  11.261  1.00  0.00     0.293 HD
ENDBRANCH  14  17
BRANCH  16  19
ATOM     19  O   UNL     1      38.044   6.015   9.991  1.00  0.00    -0.504 OA
ATOM     20  H   UNL     1      38.699   6.377   9.309  1.00  0.00     0.293 HD
ENDBRANCH  16  19
ENDBRANCH   1  11
BRANCH  10  21
ATOM     21  O   UNL     1      33.112   3.622  10.257  1.00  0.00    -0.500 OA
ATOM     22  H   UNL     1      34.053   3.483  10.607  1.00  0.00     0.294 HD
ENDBRANCH  10  21
BRANCH   5  23
ATOM     23  O   UNL     1      30.974   5.246   2.969  1.00  0.00    -0.507 OA
ATOM     24  H   UNL     1      31.067   4.659   2.148  1.00  0.00     0.293 HD
ENDBRANCH   5  23
BRANCH   7  25
ATOM     25  O   UNL     1      30.175   1.876   6.293  1.00  0.00    -0.507 OA
ATOM     26  H   UNL     1      29.942   1.144   5.638  1.00  0.00     0.293 HD
ENDBRANCH   7  25
TORSDOF 6
ENDMDL
MODEL 7
REMARK VINA RESULT:    -6.229      2.973      3.557
REMARK INTER + INTRA:          -7.772
REMARK INTER:                  -8.182
REMARK INTRA:                   0.410
REMARK UNBOUND:                -0.268
REMARK SMILES Oc1cc(O)c2cc(O)c(-c3ccc(O)c(O)c3)[o+]c2c1.[Cl-]
REMARK SMILES IDX 10 1 19 2 20 3 21 4 2 5 3 6 4 7 6 8 7 9 8 10 11 11 12 12
REMARK SMILES IDX 13 13 14 14 18 15 16 16 15 17 17 19 9 21 1 23 5 25
REMARK H PARENT 15 18 17 20 9 22 1 24 5 26
REMARK Flexibility Score: inf
ROOT
ATOM      1  C   UNL     1      33.835   5.342  10.085  1.00  0.00     0.402 A 
ATOM      2  O   UNL     1      33.400   4.402  10.919  1.00  0.00    -0.202 OA
ATOM      3  C   UNL     1      33.754   4.340  12.199  1.00  0.00     0.368 A 
ATOM      4  C   UNL     1      33.247   3.310  12.995  1.00  0.00     0.162 A 
ATOM      5  C   UNL     1      33.606   3.219  14.344  1.00  0.00     0.128 A 
ATOM      6  C   UNL     1      34.478   4.160  14.896  1.00  0.00     0.093 A 
ATOM      7  C   UNL     1      35.001   5.201  14.118  1.00  0.00     0.136 A 
ATOM      8  C   UNL     1      34.638   5.299  12.749  1.00  0.00     0.125 A 
ATOM      9  C   UNL     1      35.102   6.314  11.899  1.00  0.00     0.078 A 
ATOM     10  C   UNL     1      34.695   6.349  10.562  1.00  0.00     0.223 A 
ENDROOT
BRANCH   1  11
ATOM     11  C   UNL     1      33.374   5.299   8.678  1.00  0.00     0.087 A 
ATOM     12  C   UNL     1      33.660   6.344   7.782  1.00  0.00     0.022 A 
ATOM     13  C   UNL     1      33.235   6.270   6.453  1.00  0.00     0.051 A 
ATOM     14  C   UNL     1      32.531   5.148   5.997  1.00  0.00     0.157 A 
ATOM     15  C   UNL     1      32.687   4.168   8.211  1.00  0.00     0.068 A 
ATOM     16  C   UNL     1      32.258   4.091   6.881  1.00  0.00     0.158 A 
BRANCH  14  17
ATOM     17  O   UNL     1      32.107   5.079   4.671  1.00  0.00    -0.504 OA
ATOM     18  H   UNL     1      31.447   5.745   4.289  1.00  0.00     0.293 HD
ENDBRANCH  14  17
BRANCH  16  19
ATOM     19  O   UNL     1      31.566   2.957   6.456  1.00  0.00    -0.504 OA
ATOM     20  H   UNL     1      31.436   2.150   7.055  1.00  0.00     0.293 HD
ENDBRANCH  16  19
ENDBRANCH   1  11
BRANCH  10  21
ATOM     21  O   UNL     1      35.116   7.386   9.728  1.00  0.00    -0.500 OA
ATOM     22  H   UNL     1      34.893   8.354   9.928  1.00  0.00     0.294 HD
ENDBRANCH  10  21
BRANCH   5  23
ATOM     23  O   UNL     1      33.103   2.196  15.144  1.00  0.00    -0.507 OA
ATOM     24  H   UNL     1      32.696   1.360  14.742  1.00  0.00     0.293 HD
ENDBRANCH   5  23
BRANCH   7  25
ATOM     25  O   UNL     1      35.870   6.099  14.745  1.00  0.00    -0.507 OA
ATOM     26  H   UNL     1      36.563   6.652  14.262  1.00  0.00     0.293 HD
ENDBRANCH   7  25
TORSDOF 6
ENDMDL
MODEL 8
REMARK VINA RESULT:    -6.094      3.481      6.587
REMARK INTER + INTRA:          -7.609
REMARK INTER:                  -7.889
REMARK INTRA:                   0.280
REMARK UNBOUND:                -0.268
REMARK SMILES Oc1cc(O)c2cc(O)c(-c3ccc(O)c(O)c3)[o+]c2c1.[Cl-]
REMARK SMILES IDX 10 1 19 2 20 3 21 4 2 5 3 6 4 7 6 8 7 9 8 10 11 11 12 12
REMARK SMILES IDX 13 13 14 14 18 15 16 16 15 17 17 19 9 21 1 23 5 25
REMARK H PARENT 15 18 17 20 9 22 1 24 5 26
REMARK Flexibility Score: inf
ROOT
ATOM      1  C   UNL     1      33.686   5.513  11.463  1.00  0.00     0.402 A 
ATOM      2  O   UNL     1      33.550   5.004  10.242  1.00  0.00    -0.202 OA
ATOM      3  C   UNL     1      33.543   5.744   9.138  1.00  0.00     0.368 A 
ATOM      4  C   UNL     1      33.389   5.116   7.899  1.00  0.00     0.162 A 
ATOM      5  C   UNL     1      33.374   5.871   6.722  1.00  0.00     0.128 A 
ATOM      6  C   UNL     1      33.513   7.260   6.786  1.00  0.00     0.093 A 
ATOM      7  C   UNL     1      33.668   7.913   8.015  1.00  0.00     0.136 A 
ATOM      8  C   UNL     1      33.685   7.151   9.212  1.00  0.00     0.125 A 
ATOM      9  C   UNL     1      33.848   7.718  10.486  1.00  0.00     0.078 A 
ATOM     10  C   UNL     1      33.860   6.901  11.620  1.00  0.00     0.223 A 
ENDROOT
BRANCH   1  11
ATOM     11  C   UNL     1      33.670   4.585  12.616  1.00  0.00     0.087 A 
ATOM     12  C   UNL     1      32.949   3.378  12.574  1.00  0.00     0.022 A 
ATOM     13  C   UNL     1      32.968   2.506  13.665  1.00  0.00     0.051 A 
ATOM     14  C   UNL     1      33.716   2.819  14.808  1.00  0.00     0.157 A 
ATOM     15  C   UNL     1      34.435   4.883  13.754  1.00  0.00     0.068 A 
ATOM     16  C   UNL     1      34.455   4.013  14.851  1.00  0.00     0.158 A 
BRANCH  14  17
ATOM     17  O   UNL     1      33.731   1.947  15.896  1.00  0.00    -0.504 OA
ATOM     18  H   UNL     1      33.311   2.198  16.782  1.00  0.00     0.293 HD
ENDBRANCH  14  17
BRANCH  16  19
ATOM     19  O   UNL     1      35.216   4.350  15.970  1.00  0.00    -0.504 OA
ATOM     20  H   UNL     1      35.460   5.309  16.185  1.00  0.00     0.293 HD
ENDBRANCH  16  19
ENDBRANCH   1  11
BRANCH  10  21
ATOM     21  O   UNL     1      34.072   7.459  12.882  1.00  0.00    -0.500 OA
ATOM     22  H   UNL     1      33.625   7.086  13.711  1.00  0.00     0.294 HD
ENDBRANCH  10  21
BRANCH   5  23
ATOM     23  O   UNL     1      33.223   5.252   5.484  1.00  0.00    -0.507 OA
ATOM     24  H   UNL     1      33.223   4.243   5.393  1.00  0.00     0.293 HD
ENDBRANCH   5  23
BRANCH   7  25
ATOM     25  O   UNL     1      33.796   9.305   7.992  1.00  0.00    -0.507 OA
ATOM     26  H   UNL     1      34.570   9.812   8.395  1.00  0.00     0.293 HD
ENDBRANCH   7  25
TORSDOF 6
ENDMDL
