MODEL 1
REMARK VINA RESULT:    -4.907      0.000      0.000
REMARK INTER + INTRA:         -14.936
REMARK INTER:                 -12.938
REMARK INTRA:                  -1.998
REMARK UNBOUND:                -1.998
REMARK SMILES CCCCCCCCCCCCCCCCCCCCCCCCCCCCCC(=O)[O-]
REMARK SMILES IDX 16 1 17 2 18 3 19 4 20 5 21 6 22 7 23 8 24 9 25 10 26 11
REMARK SMILES IDX 27 12 28 13 29 14 30 15 31 16 32 17 15 18 14 19 13 20 12 21
REMARK SMILES IDX 11 22 10 23 9 24 8 25 7 26 6 27 5 28 4 29 3 30 2 31 1 32
REMARK H PARENT
REMARK Flexibility Score: inf
ROOT
ATOM      1  C   UNL     1       3.135  54.734  24.098  1.00  0.00     0.000 C 
ENDROOT
BRANCH   1   2
ATOM      2  C   UNL     1       3.350  56.239  24.354  1.00  0.00     0.000 C 
BRANCH   2   3
ATOM      3  C   UNL     1       2.375  56.848  25.384  1.00  0.00     0.000 C 
BRANCH   3   4
ATOM      4  C   UNL     1       1.492  57.955  24.778  1.00  0.00     0.000 C 
BRANCH   4   5
ATOM      5  C   UNL     1       2.011  58.444  23.416  1.00  0.00     0.000 C 
BRANCH   5   6
ATOM      6  C   UNL     1       2.235  59.965  23.381  1.00  0.00     0.000 C 
BRANCH   6   7
ATOM      7  C   UNL     1       1.023  60.743  23.935  1.00  0.00     0.000 C 
BRANCH   7   8
ATOM      8  C   UNL     1      -0.289  60.457  23.186  1.00  0.00     0.000 C 
BRANCH   8   9
ATOM      9  C   UNL     1      -1.289  61.622  23.263  1.00  0.00     0.000 C 
BRANCH   9  10
ATOM     10  C   UNL     1      -0.611  62.964  23.588  1.00  0.00     0.000 C 
BRANCH  10  11
ATOM     11  C   UNL     1      -1.306  64.159  22.916  1.00  0.00     0.000 C 
BRANCH  11  12
ATOM     12  C   UNL     1      -0.988  65.467  23.656  1.00  0.00     0.000 C 
BRANCH  12  13
ATOM     13  C   UNL     1      -1.917  66.626  23.245  1.00  0.00     0.006 C 
BRANCH  13  14
ATOM     14  C   UNL     1      -2.998  66.246  22.220  1.00  0.00     0.053 C 
BRANCH  14  15
ATOM     15  C   UNL     1      -4.204  65.635  22.867  1.00  0.00     0.041 C 
ATOM     16  O   UNL     1      -4.602  66.051  23.986  1.00  0.00    -0.550 OA
ATOM     17  O   UNL     1      -4.872  64.588  22.244  1.00  0.00    -0.550 OA
ENDBRANCH  14  15
ENDBRANCH  13  14
ENDBRANCH  12  13
ENDBRANCH  11  12
ENDBRANCH  10  11
ENDBRANCH   9  10
ENDBRANCH   8   9
ENDBRANCH   7   8
ENDBRANCH   6   7
ENDBRANCH   5   6
ENDBRANCH   4   5
ENDBRANCH   3   4
ENDBRANCH   2   3
ENDBRANCH   1   2
BRANCH   1  18
ATOM     18  C   UNL     1       2.057  54.389  23.053  1.00  0.00     0.000 C 
BRANCH  18  19
ATOM     19  C   UNL     1       2.374  53.165  22.174  1.00  0.00     0.000 C 
BRANCH  19  20
ATOM     20  C   UNL     1       1.505  51.942  22.514  1.00  0.00     0.000 C 
BRANCH  20  21
ATOM     21  C   UNL     1       2.349  50.717  22.901  1.00  0.00     0.000 C 
BRANCH  21  22
ATOM     22  C   UNL     1       1.597  49.392  22.676  1.00  0.00     0.000 C 
BRANCH  22  23
ATOM     23  C   UNL     1       2.050  48.277  23.633  1.00  0.00     0.000 C 
BRANCH  23  24
ATOM     24  C   UNL     1       2.684  47.068  22.911  1.00  0.00    -0.000 C 
BRANCH  24  25
ATOM     25  C   UNL     1       2.941  47.348  21.423  1.00  0.00    -0.000 C 
BRANCH  25  26
ATOM     26  C   UNL     1       4.436  47.585  21.162  1.00  0.00    -0.000 C 
BRANCH  26  27
ATOM     27  C   UNL     1       5.323  47.206  22.363  1.00  0.00    -0.000 C 
BRANCH  27  28
ATOM     28  C   UNL     1       6.467  48.192  22.666  1.00  0.00    -0.000 C 
BRANCH  28  29
ATOM     29  C   UNL     1       6.725  48.451  24.163  1.00  0.00    -0.000 C 
BRANCH  29  30
ATOM     30  C   UNL     1       5.446  48.770  24.967  1.00  0.00    -0.000 C 
BRANCH  30  31
ATOM     31  C   UNL     1       5.130  47.695  26.018  1.00  0.00    -0.003 C 
ATOM     32  C   UNL     1       3.661  47.741  26.427  1.00  0.00     0.004 C 
ENDBRANCH  30  31
ENDBRANCH  29  30
ENDBRANCH  28  29
ENDBRANCH  27  28
ENDBRANCH  26  27
ENDBRANCH  25  26
ENDBRANCH  24  25
ENDBRANCH  23  24
ENDBRANCH  22  23
ENDBRANCH  21  22
ENDBRANCH  20  21
ENDBRANCH  19  20
ENDBRANCH  18  19
ENDBRANCH   1  18
TORSDOF 28
ENDMDL
MODEL 2
REMARK VINA RESULT:    -4.729      5.281     13.623
REMARK INTER + INTRA:         -14.467
REMARK INTER:                 -11.698
REMARK INTRA:                  -2.769
REMARK UNBOUND:                -1.998
REMARK SMILES CCCCCCCCCCCCCCCCCCCCCCCCCCCCCC(=O)[O-]
REMARK SMILES IDX 16 1 17 2 18 3 19 4 20 5 21 6 22 7 23 8 24 9 25 10 26 11
REMARK SMILES IDX 27 12 28 13 29 14 30 15 31 16 32 17 15 18 14 19 13 20 12 21
REMARK SMILES IDX 11 22 10 23 9 24 8 25 7 26 6 27 5 28 4 29 3 30 2 31 1 32
REMARK H PARENT
REMARK Flexibility Score: inf
ROOT
ATOM      1  C   UNL     1       3.117  54.880  25.711  1.00  0.00     0.000 C 
ENDROOT
BRANCH   1   2
ATOM      2  C   UNL     1       3.593  54.903  24.245  1.00  0.00     0.000 C 
BRANCH   2   3
ATOM      3  C   UNL     1       3.393  53.567  23.497  1.00  0.00     0.000 C 
BRANCH   3   4
ATOM      4  C   UNL     1       2.153  53.582  22.583  1.00  0.00     0.000 C 
BRANCH   4   5
ATOM      5  C   UNL     1       1.513  52.193  22.435  1.00  0.00     0.000 C 
BRANCH   5   6
ATOM      6  C   UNL     1       2.458  51.058  22.865  1.00  0.00     0.000 C 
BRANCH   6   7
ATOM      7  C   UNL     1       1.758  49.683  22.857  1.00  0.00     0.000 C 
BRANCH   7   8
ATOM      8  C   UNL     1       2.711  48.507  22.585  1.00  0.00     0.000 C 
BRANCH   8   9
ATOM      9  C   UNL     1       2.589  47.386  23.630  1.00  0.00     0.000 C 
BRANCH   9  10
ATOM     10  C   UNL     1       2.887  47.871  25.059  1.00  0.00     0.000 C 
BRANCH  10  11
ATOM     11  C   UNL     1       3.837  46.932  25.819  1.00  0.00     0.000 C 
BRANCH  11  12
ATOM     12  C   UNL     1       5.302  47.231  25.467  1.00  0.00     0.000 C 
BRANCH  12  13
ATOM     13  C   UNL     1       5.583  48.738  25.303  1.00  0.00     0.006 C 
BRANCH  13  14
ATOM     14  C   UNL     1       6.996  49.072  24.797  1.00  0.00     0.053 C 
BRANCH  14  15
ATOM     15  C   UNL     1       7.916  49.474  25.909  1.00  0.00     0.041 C 
ATOM     16  O   UNL     1       7.710  49.066  27.081  1.00  0.00    -0.550 OA
ATOM     17  O   UNL     1       8.987  50.322  25.653  1.00  0.00    -0.550 OA
ENDBRANCH  14  15
ENDBRANCH  13  14
ENDBRANCH  12  13
ENDBRANCH  11  12
ENDBRANCH  10  11
ENDBRANCH   9  10
ENDBRANCH   8   9
ENDBRANCH   7   8
ENDBRANCH   6   7
ENDBRANCH   5   6
ENDBRANCH   4   5
ENDBRANCH   3   4
ENDBRANCH   2   3
ENDBRANCH   1   2
BRANCH   1  18
ATOM     18  C   UNL     1       2.739  56.251  26.304  1.00  0.00     0.000 C 
BRANCH  18  19
ATOM     19  C   UNL     1       2.437  57.346  25.265  1.00  0.00     0.000 C 
BRANCH  19  20
ATOM     20  C   UNL     1       0.950  57.734  25.218  1.00  0.00     0.000 C 
BRANCH  20  21
ATOM     21  C   UNL     1       0.427  57.866  23.778  1.00  0.00     0.000 C 
BRANCH  21  22
ATOM     22  C   UNL     1       0.972  56.763  22.853  1.00  0.00     0.000 C 
BRANCH  22  23
ATOM     23  C   UNL     1       1.812  57.317  21.690  1.00  0.00     0.000 C 
BRANCH  23  24
ATOM     24  C   UNL     1       3.139  57.964  22.144  1.00  0.00    -0.000 C 
BRANCH  24  25
ATOM     25  C   UNL     1       3.150  59.484  21.925  1.00  0.00    -0.000 C 
BRANCH  25  26
ATOM     26  C   UNL     1       3.118  60.230  23.267  1.00  0.00    -0.000 C 
BRANCH  26  27
ATOM     27  C   UNL     1       2.129  61.410  23.275  1.00  0.00    -0.000 C 
BRANCH  27  28
ATOM     28  C   UNL     1       0.837  61.174  24.079  1.00  0.00    -0.000 C 
BRANCH  28  29
ATOM     29  C   UNL     1      -0.443  61.744  23.437  1.00  0.00    -0.000 C 
BRANCH  29  30
ATOM     30  C   UNL     1      -0.631  63.259  23.668  1.00  0.00    -0.000 C 
BRANCH  30  31
ATOM     31  C   UNL     1      -1.793  63.838  22.848  1.00  0.00    -0.003 C 
ATOM     32  C   UNL     1      -1.744  65.363  22.825  1.00  0.00     0.004 C 
ENDBRANCH  30  31
ENDBRANCH  29  30
ENDBRANCH  28  29
ENDBRANCH  27  28
ENDBRANCH  26  27
ENDBRANCH  25  26
ENDBRANCH  24  25
ENDBRANCH  23  24
ENDBRANCH  22  23
ENDBRANCH  21  22
ENDBRANCH  20  21
ENDBRANCH  19  20
ENDBRANCH  18  19
ENDBRANCH   1  18
TORSDOF 28
ENDMDL
MODEL 3
REMARK VINA RESULT:    -4.714      1.158      2.065
REMARK INTER + INTRA:         -14.429
REMARK INTER:                 -12.048
REMARK INTRA:                  -2.381
REMARK UNBOUND:                -1.998
REMARK SMILES CCCCCCCCCCCCCCCCCCCCCCCCCCCCCC(=O)[O-]
REMARK SMILES IDX 16 1 17 2 18 3 19 4 20 5 21 6 22 7 23 8 24 9 25 10 26 11
REMARK SMILES IDX 27 12 28 13 29 14 30 15 31 16 32 17 15 18 14 19 13 20 12 21
REMARK SMILES IDX 11 22 10 23 9 24 8 25 7 26 6 27 5 28 4 29 3 30 2 31 1 32
REMARK H PARENT
REMARK Flexibility Score: inf
ROOT
ATOM      1  C   UNL     1       2.761  56.056  24.643  1.00  0.00     0.000 C 
ENDROOT
BRANCH   1   2
ATOM      2  C   UNL     1       3.555  57.276  24.136  1.00  0.00     0.000 C 
BRANCH   2   3
ATOM      3  C   UNL     1       2.671  58.437  23.631  1.00  0.00     0.000 C 
BRANCH   3   4
ATOM      4  C   UNL     1       1.355  57.944  22.998  1.00  0.00     0.000 C 
BRANCH   4   5
ATOM      5  C   UNL     1       0.150  58.813  23.394  1.00  0.00     0.000 C 
BRANCH   5   6
ATOM      6  C   UNL     1       0.472  59.779  24.547  1.00  0.00     0.000 C 
BRANCH   6   7
ATOM      7  C   UNL     1       0.208  61.250  24.162  1.00  0.00     0.000 C 
BRANCH   7   8
ATOM      8  C   UNL     1      -0.937  61.427  23.150  1.00  0.00     0.000 C 
BRANCH   8   9
ATOM      9  C   UNL     1      -1.429  62.881  23.053  1.00  0.00     0.000 C 
BRANCH   9  10
ATOM     10  C   UNL     1      -0.437  63.885  23.664  1.00  0.00     0.000 C 
BRANCH  10  11
ATOM     11  C   UNL     1      -0.974  65.325  23.662  1.00  0.00     0.000 C 
BRANCH  11  12
ATOM     12  C   UNL     1      -1.163  65.839  22.228  1.00  0.00     0.000 C 
BRANCH  12  13
ATOM     13  C   UNL     1      -2.361  66.799  22.090  1.00  0.00     0.006 C 
BRANCH  13  14
ATOM     14  C   UNL     1      -3.647  66.143  21.560  1.00  0.00     0.053 C 
BRANCH  14  15
ATOM     15  C   UNL     1      -4.397  65.416  22.634  1.00  0.00     0.041 C 
ATOM     16  O   UNL     1      -4.852  64.262  22.420  1.00  0.00    -0.550 OA
ATOM     17  O   UNL     1      -4.616  66.026  23.863  1.00  0.00    -0.550 OA
ENDBRANCH  14  15
ENDBRANCH  13  14
ENDBRANCH  12  13
ENDBRANCH  11  12
ENDBRANCH  10  11
ENDBRANCH   9  10
ENDBRANCH   8   9
ENDBRANCH   7   8
ENDBRANCH   6   7
ENDBRANCH   5   6
ENDBRANCH   4   5
ENDBRANCH   3   4
ENDBRANCH   2   3
ENDBRANCH   1   2
BRANCH   1  18
ATOM     18  C   UNL     1       3.083  54.721  23.944  1.00  0.00     0.000 C 
BRANCH  18  19
ATOM     19  C   UNL     1       2.045  54.268  22.901  1.00  0.00     0.000 C 
BRANCH  19  20
ATOM     20  C   UNL     1       2.470  52.999  22.143  1.00  0.00     0.000 C 
BRANCH  20  21
ATOM     21  C   UNL     1       1.658  51.766  22.570  1.00  0.00     0.000 C 
BRANCH  21  22
ATOM     22  C   UNL     1       2.553  50.622  23.082  1.00  0.00     0.000 C 
BRANCH  22  23
ATOM     23  C   UNL     1       2.126  49.244  22.549  1.00  0.00     0.000 C 
BRANCH  23  24
ATOM     24  C   UNL     1       1.615  48.291  23.651  1.00  0.00    -0.000 C 
BRANCH  24  25
ATOM     25  C   UNL     1       2.701  47.317  24.129  1.00  0.00    -0.000 C 
BRANCH  25  26
ATOM     26  C   UNL     1       3.111  47.624  25.576  1.00  0.00    -0.000 C 
BRANCH  26  27
ATOM     27  C   UNL     1       4.603  47.354  25.849  1.00  0.00    -0.000 C 
BRANCH  27  28
ATOM     28  C   UNL     1       5.434  46.969  24.611  1.00  0.00    -0.000 C 
BRANCH  28  29
ATOM     29  C   UNL     1       6.402  48.059  24.110  1.00  0.00    -0.000 C 
BRANCH  29  30
ATOM     30  C   UNL     1       6.315  49.378  24.907  1.00  0.00    -0.000 C 
BRANCH  30  31
ATOM     31  C   UNL     1       7.639  49.733  25.602  1.00  0.00    -0.003 C 
ATOM     32  C   UNL     1       7.761  49.023  26.947  1.00  0.00     0.004 C 
ENDBRANCH  30  31
ENDBRANCH  29  30
ENDBRANCH  28  29
ENDBRANCH  27  28
ENDBRANCH  26  27
ENDBRANCH  25  26
ENDBRANCH  24  25
ENDBRANCH  23  24
ENDBRANCH  22  23
ENDBRANCH  21  22
ENDBRANCH  20  21
ENDBRANCH  19  20
ENDBRANCH  18  19
ENDBRANCH   1  18
TORSDOF 28
ENDMDL
MODEL 4
REMARK VINA RESULT:    -4.660      5.014     14.116
REMARK INTER + INTRA:         -14.285
REMARK INTER:                 -11.518
REMARK INTRA:                  -2.767
REMARK UNBOUND:                -1.998
REMARK SMILES CCCCCCCCCCCCCCCCCCCCCCCCCCCCCC(=O)[O-]
REMARK SMILES IDX 16 1 17 2 18 3 19 4 20 5 21 6 22 7 23 8 24 9 25 10 26 11
REMARK SMILES IDX 27 12 28 13 29 14 30 15 31 16 32 17 15 18 14 19 13 20 12 21
REMARK SMILES IDX 11 22 10 23 9 24 8 25 7 26 6 27 5 28 4 29 3 30 2 31 1 32
REMARK H PARENT
REMARK Flexibility Score: inf
ROOT
ATOM      1  C   UNL     1       2.435  57.371  25.505  1.00  0.00     0.000 C 
ENDROOT
BRANCH   1   2
ATOM      2  C   UNL     1       2.743  55.863  25.593  1.00  0.00     0.000 C 
BRANCH   2   3
ATOM      3  C   UNL     1       3.658  55.340  24.465  1.00  0.00     0.000 C 
BRANCH   3   4
ATOM      4  C   UNL     1       3.187  53.986  23.902  1.00  0.00     0.000 C 
BRANCH   4   5
ATOM      5  C   UNL     1       2.286  54.142  22.666  1.00  0.00     0.000 C 
BRANCH   5   6
ATOM      6  C   UNL     1       1.754  52.795  22.149  1.00  0.00     0.000 C 
BRANCH   6   7
ATOM      7  C   UNL     1       2.469  51.597  22.808  1.00  0.00     0.000 C 
BRANCH   7   8
ATOM      8  C   UNL     1       1.652  50.294  22.772  1.00  0.00     0.000 C 
BRANCH   8   9
ATOM      9  C   UNL     1       2.532  49.035  22.819  1.00  0.00     0.000 C 
BRANCH   9  10
ATOM     10  C   UNL     1       1.858  47.867  23.560  1.00  0.00     0.000 C 
BRANCH  10  11
ATOM     11  C   UNL     1       2.870  46.932  24.239  1.00  0.00     0.000 C 
BRANCH  11  12
ATOM     12  C   UNL     1       3.090  47.331  25.706  1.00  0.00     0.000 C 
BRANCH  12  13
ATOM     13  C   UNL     1       4.428  48.063  25.932  1.00  0.00     0.006 C 
BRANCH  13  14
ATOM     14  C   UNL     1       5.611  47.492  25.133  1.00  0.00     0.053 C 
BRANCH  14  15
ATOM     15  C   UNL     1       6.380  48.560  24.417  1.00  0.00     0.041 C 
ATOM     16  O   UNL     1       6.841  48.346  23.266  1.00  0.00    -0.550 OA
ATOM     17  O   UNL     1       6.610  49.783  25.035  1.00  0.00    -0.550 OA
ENDBRANCH  14  15
ENDBRANCH  13  14
ENDBRANCH  12  13
ENDBRANCH  11  12
ENDBRANCH  10  11
ENDBRANCH   9  10
ENDBRANCH   8   9
ENDBRANCH   7   8
ENDBRANCH   6   7
ENDBRANCH   5   6
ENDBRANCH   4   5
ENDBRANCH   3   4
ENDBRANCH   2   3
ENDBRANCH   1   2
BRANCH   1  18
ATOM     18  C   UNL     1       1.008  57.728  25.046  1.00  0.00     0.000 C 
BRANCH  18  19
ATOM     19  C   UNL     1       0.562  57.058  23.734  1.00  0.00     0.000 C 
BRANCH  19  20
ATOM     20  C   UNL     1       0.949  57.869  22.485  1.00  0.00     0.000 C 
BRANCH  20  21
ATOM     21  C   UNL     1       2.346  57.498  21.960  1.00  0.00     0.000 C 
BRANCH  21  22
ATOM     22  C   UNL     1       3.391  58.591  22.253  1.00  0.00     0.000 C 
BRANCH  22  23
ATOM     23  C   UNL     1       2.795  60.008  22.241  1.00  0.00     0.000 C 
BRANCH  23  24
ATOM     24  C   UNL     1       2.570  60.593  23.652  1.00  0.00    -0.000 C 
BRANCH  24  25
ATOM     25  C   UNL     1       1.488  61.682  23.665  1.00  0.00    -0.000 C 
BRANCH  25  26
ATOM     26  C   UNL     1       0.087  61.060  23.581  1.00  0.00    -0.000 C 
BRANCH  26  27
ATOM     27  C   UNL     1      -1.025  62.107  23.379  1.00  0.00    -0.000 C 
BRANCH  27  28
ATOM     28  C   UNL     1      -0.591  63.570  23.590  1.00  0.00    -0.000 C 
BRANCH  28  29
ATOM     29  C   UNL     1      -1.534  64.624  22.980  1.00  0.00    -0.000 C 
BRANCH  29  30
ATOM     30  C   UNL     1      -1.126  66.079  23.297  1.00  0.00    -0.000 C 
BRANCH  30  31
ATOM     31  C   UNL     1       0.349  66.359  22.972  1.00  0.00    -0.003 C 
ATOM     32  C   UNL     1       0.489  67.100  21.645  1.00  0.00     0.004 C 
ENDBRANCH  30  31
ENDBRANCH  29  30
ENDBRANCH  28  29
ENDBRANCH  27  28
ENDBRANCH  26  27
ENDBRANCH  25  26
ENDBRANCH  24  25
ENDBRANCH  23  24
ENDBRANCH  22  23
ENDBRANCH  21  22
ENDBRANCH  20  21
ENDBRANCH  19  20
ENDBRANCH  18  19
ENDBRANCH   1  18
TORSDOF 28
ENDMDL
MODEL 5
REMARK VINA RESULT:    -4.646      0.919      2.503
REMARK INTER + INTRA:         -14.249
REMARK INTER:                 -12.020
REMARK INTRA:                  -2.229
REMARK UNBOUND:                -1.998
REMARK SMILES CCCCCCCCCCCCCCCCCCCCCCCCCCCCCC(=O)[O-]
REMARK SMILES IDX 16 1 17 2 18 3 19 4 20 5 21 6 22 7 23 8 24 9 25 10 26 11
REMARK SMILES IDX 27 12 28 13 29 14 30 15 31 16 32 17 15 18 14 19 13 20 12 21
REMARK SMILES IDX 11 22 10 23 9 24 8 25 7 26 6 27 5 28 4 29 3 30 2 31 1 32
REMARK H PARENT
REMARK Flexibility Score: inf
ROOT
ATOM      1  C   UNL     1       3.408  57.138  24.393  1.00  0.00     0.000 C 
ENDROOT
BRANCH   1   2
ATOM      2  C   UNL     1       2.488  57.854  23.383  1.00  0.00     0.000 C 
BRANCH   2   3
ATOM      3  C   UNL     1       0.981  57.642  23.644  1.00  0.00     0.000 C 
BRANCH   3   4
ATOM      4  C   UNL     1       0.499  58.346  24.926  1.00  0.00     0.000 C 
BRANCH   4   5
ATOM      5  C   UNL     1       0.366  59.867  24.748  1.00  0.00     0.000 C 
BRANCH   5   6
ATOM      6  C   UNL     1       0.069  60.268  23.293  1.00  0.00     0.000 C 
BRANCH   6   7
ATOM      7  C   UNL     1      -0.947  61.426  23.205  1.00  0.00     0.000 C 
BRANCH   7   8
ATOM      8  C   UNL     1      -0.465  62.722  23.880  1.00  0.00     0.000 C 
BRANCH   8   9
ATOM      9  C   UNL     1      -1.068  63.986  23.246  1.00  0.00     0.000 C 
BRANCH   9  10
ATOM     10  C   UNL     1      -0.614  65.277  23.948  1.00  0.00     0.000 C 
BRANCH  10  11
ATOM     11  C   UNL     1      -0.629  66.497  23.015  1.00  0.00     0.000 C 
BRANCH  11  12
ATOM     12  C   UNL     1      -1.362  66.177  21.703  1.00  0.00     0.000 C 
BRANCH  12  13
ATOM     13  C   UNL     1      -2.691  66.945  21.559  1.00  0.00     0.006 C 
BRANCH  13  14
ATOM     14  C   UNL     1      -3.928  66.050  21.372  1.00  0.00     0.053 C 
BRANCH  14  15
ATOM     15  C   UNL     1      -4.361  65.406  22.654  1.00  0.00     0.041 C 
ATOM     16  O   UNL     1      -4.149  65.979  23.754  1.00  0.00    -0.550 OA
ATOM     17  O   UNL     1      -4.975  64.160  22.633  1.00  0.00    -0.550 OA
ENDBRANCH  14  15
ENDBRANCH  13  14
ENDBRANCH  12  13
ENDBRANCH  11  12
ENDBRANCH  10  11
ENDBRANCH   9  10
ENDBRANCH   8   9
ENDBRANCH   7   8
ENDBRANCH   6   7
ENDBRANCH   5   6
ENDBRANCH   4   5
ENDBRANCH   3   4
ENDBRANCH   2   3
ENDBRANCH   1   2
BRANCH   1  18
ATOM     18  C   UNL     1       2.977  55.711  24.782  1.00  0.00     0.000 C 
BRANCH  18  19
ATOM     19  C   UNL     1       3.286  54.630  23.729  1.00  0.00     0.000 C 
BRANCH  19  20
ATOM     20  C   UNL     1       2.035  54.160  22.968  1.00  0.00     0.000 C 
BRANCH  20  21
ATOM     21  C   UNL     1       2.296  52.884  22.151  1.00  0.00     0.000 C 
BRANCH  21  22
ATOM     22  C   UNL     1       1.366  51.726  22.557  1.00  0.00     0.000 C 
BRANCH  22  23
ATOM     23  C   UNL     1       2.132  50.450  22.943  1.00  0.00     0.000 C 
BRANCH  23  24
ATOM     24  C   UNL     1       1.341  49.152  22.672  1.00  0.00    -0.000 C 
BRANCH  24  25
ATOM     25  C   UNL     1       2.106  47.899  23.121  1.00  0.00    -0.000 C 
BRANCH  25  26
ATOM     26  C   UNL     1       1.943  47.672  24.631  1.00  0.00    -0.000 C 
BRANCH  26  27
ATOM     27  C   UNL     1       3.204  47.085  25.291  1.00  0.00    -0.000 C 
BRANCH  27  28
ATOM     28  C   UNL     1       4.193  48.126  25.849  1.00  0.00    -0.000 C 
BRANCH  28  29
ATOM     29  C   UNL     1       5.503  48.275  25.051  1.00  0.00    -0.000 C 
BRANCH  29  30
ATOM     30  C   UNL     1       5.639  47.267  23.889  1.00  0.00    -0.000 C 
BRANCH  30  31
ATOM     31  C   UNL     1       5.992  47.949  22.559  1.00  0.00    -0.003 C 
ATOM     32  C   UNL     1       5.022  47.537  21.455  1.00  0.00     0.004 C 
ENDBRANCH  30  31
ENDBRANCH  29  30
ENDBRANCH  28  29
ENDBRANCH  27  28
ENDBRANCH  26  27
ENDBRANCH  25  26
ENDBRANCH  24  25
ENDBRANCH  23  24
ENDBRANCH  22  23
ENDBRANCH  21  22
ENDBRANCH  20  21
ENDBRANCH  19  20
ENDBRANCH  18  19
ENDBRANCH   1  18
TORSDOF 28
ENDMDL
MODEL 6
REMARK VINA RESULT:    -4.618      4.319      6.077
REMARK INTER + INTRA:         -14.176
REMARK INTER:                 -11.162
REMARK INTRA:                  -3.014
REMARK UNBOUND:                -1.998
REMARK SMILES CCCCCCCCCCCCCCCCCCCCCCCCCCCCCC(=O)[O-]
REMARK SMILES IDX 16 1 17 2 18 3 19 4 20 5 21 6 22 7 23 8 24 9 25 10 26 11
REMARK SMILES IDX 27 12 28 13 29 14 30 15 31 16 32 17 15 18 14 19 13 20 12 21
REMARK SMILES IDX 11 22 10 23 9 24 8 25 7 26 6 27 5 28 4 29 3 30 2 31 1 32
REMARK H PARENT
REMARK Flexibility Score: inf
ROOT
ATOM      1  C   UNL     1       2.455  55.036  21.160  1.00  0.00     0.000 C 
ENDROOT
BRANCH   1   2
ATOM      2  C   UNL     1       1.449  55.759  22.078  1.00  0.00     0.000 C 
BRANCH   2   3
ATOM      3  C   UNL     1       1.502  57.299  21.979  1.00  0.00     0.000 C 
BRANCH   3   4
ATOM      4  C   UNL     1       2.869  57.813  21.490  1.00  0.00     0.000 C 
BRANCH   4   5
ATOM      5  C   UNL     1       3.456  58.895  22.410  1.00  0.00     0.000 C 
BRANCH   5   6
ATOM      6  C   UNL     1       2.876  60.291  22.125  1.00  0.00     0.000 C 
BRANCH   6   7
ATOM      7  C   UNL     1       2.687  61.116  23.415  1.00  0.00     0.000 C 
BRANCH   7   8
ATOM      8  C   UNL     1       1.214  61.398  23.756  1.00  0.00     0.000 C 
BRANCH   8   9
ATOM      9  C   UNL     1       0.344  60.130  23.746  1.00  0.00     0.000 C 
BRANCH   9  10
ATOM     10  C   UNL     1      -0.111  59.712  25.154  1.00  0.00     0.000 C 
BRANCH  10  11
ATOM     11  C   UNL     1       0.290  58.270  25.504  1.00  0.00     0.000 C 
BRANCH  11  12
ATOM     12  C   UNL     1       1.750  57.995  25.112  1.00  0.00     0.000 C 
BRANCH  12  13
ATOM     13  C   UNL     1       2.238  56.605  25.564  1.00  0.00     0.006 C 
BRANCH  13  14
ATOM     14  C   UNL     1       3.428  56.054  24.760  1.00  0.00     0.053 C 
BRANCH  14  15
ATOM     15  C   UNL     1       3.768  54.647  25.144  1.00  0.00     0.041 C 
ATOM     16  O   UNL     1       4.585  53.981  24.456  1.00  0.00    -0.550 OA
ATOM     17  O   UNL     1       3.162  54.062  26.250  1.00  0.00    -0.550 OA
ENDBRANCH  14  15
ENDBRANCH  13  14
ENDBRANCH  12  13
ENDBRANCH  11  12
ENDBRANCH  10  11
ENDBRANCH   9  10
ENDBRANCH   8   9
ENDBRANCH   7   8
ENDBRANCH   6   7
ENDBRANCH   5   6
ENDBRANCH   4   5
ENDBRANCH   3   4
ENDBRANCH   2   3
ENDBRANCH   1   2
BRANCH   1  18
ATOM     18  C   UNL     1       2.421  53.497  21.227  1.00  0.00     0.000 C 
BRANCH  18  19
ATOM     19  C   UNL     1       2.023  52.916  22.596  1.00  0.00     0.000 C 
BRANCH  19  20
ATOM     20  C   UNL     1       1.202  51.620  22.482  1.00  0.00     0.000 C 
BRANCH  20  21
ATOM     21  C   UNL     1       2.025  50.375  22.850  1.00  0.00     0.000 C 
BRANCH  21  22
ATOM     22  C   UNL     1       1.175  49.091  22.854  1.00  0.00     0.000 C 
BRANCH  22  23
ATOM     23  C   UNL     1       2.007  47.823  23.114  1.00  0.00     0.000 C 
BRANCH  23  24
ATOM     24  C   UNL     1       1.867  47.281  24.553  1.00  0.00    -0.000 C 
BRANCH  24  25
ATOM     25  C   UNL     1       3.228  47.085  25.236  1.00  0.00    -0.000 C 
BRANCH  25  26
ATOM     26  C   UNL     1       3.737  48.407  25.828  1.00  0.00    -0.000 C 
BRANCH  26  27
ATOM     27  C   UNL     1       4.864  49.045  24.995  1.00  0.00    -0.000 C 
BRANCH  27  28
ATOM     28  C   UNL     1       6.265  48.449  25.226  1.00  0.00    -0.000 C 
BRANCH  28  29
ATOM     29  C   UNL     1       7.195  48.472  23.997  1.00  0.00    -0.000 C 
BRANCH  29  30
ATOM     30  C   UNL     1       6.441  48.503  22.650  1.00  0.00    -0.000 C 
BRANCH  30  31
ATOM     31  C   UNL     1       5.641  47.216  22.395  1.00  0.00    -0.003 C 
ATOM     32  C   UNL     1       4.691  47.384  21.213  1.00  0.00     0.004 C 
ENDBRANCH  30  31
ENDBRANCH  29  30
ENDBRANCH  28  29
ENDBRANCH  27  28
ENDBRANCH  26  27
ENDBRANCH  25  26
ENDBRANCH  24  25
ENDBRANCH  23  24
ENDBRANCH  22  23
ENDBRANCH  21  22
ENDBRANCH  20  21
ENDBRANCH  19  20
ENDBRANCH  18  19
ENDBRANCH   1  18
TORSDOF 28
ENDMDL
MODEL 7
REMARK VINA RESULT:    -4.614      5.184     15.009
REMARK INTER + INTRA:         -14.166
REMARK INTER:                 -12.210
REMARK INTRA:                  -1.956
REMARK UNBOUND:                -1.998
REMARK SMILES CCCCCCCCCCCCCCCCCCCCCCCCCCCCCC(=O)[O-]
REMARK SMILES IDX 16 1 17 2 18 3 19 4 20 5 21 6 22 7 23 8 24 9 25 10 26 11
REMARK SMILES IDX 27 12 28 13 29 14 30 15 31 16 32 17 15 18 14 19 13 20 12 21
REMARK SMILES IDX 11 22 10 23 9 24 8 25 7 26 6 27 5 28 4 29 3 30 2 31 1 32
REMARK H PARENT
REMARK Flexibility Score: inf
ROOT
ATOM      1  C   UNL     1       2.509  56.620  23.758  1.00  0.00     0.000 C 
ENDROOT
BRANCH   1   2
ATOM      2  C   UNL     1       3.104  55.514  24.653  1.00  0.00     0.000 C 
BRANCH   2   3
ATOM      3  C   UNL     1       3.239  54.144  23.954  1.00  0.00     0.000 C 
BRANCH   3   4
ATOM      4  C   UNL     1       2.466  54.081  22.623  1.00  0.00     0.000 C 
BRANCH   4   5
ATOM      5  C   UNL     1       1.620  52.804  22.493  1.00  0.00     0.000 C 
BRANCH   5   6
ATOM      6  C   UNL     1       2.472  51.524  22.548  1.00  0.00     0.000 C 
BRANCH   6   7
ATOM      7  C   UNL     1       1.621  50.273  22.852  1.00  0.00     0.000 C 
BRANCH   7   8
ATOM      8  C   UNL     1       2.406  48.954  22.752  1.00  0.00     0.000 C 
BRANCH   8   9
ATOM      9  C   UNL     1       1.617  47.747  23.287  1.00  0.00     0.000 C 
BRANCH   9  10
ATOM     10  C   UNL     1       2.033  47.352  24.714  1.00  0.00     0.000 C 
BRANCH  10  11
ATOM     11  C   UNL     1       3.535  47.053  24.834  1.00  0.00     0.000 C 
BRANCH  11  12
ATOM     12  C   UNL     1       4.201  47.986  25.857  1.00  0.00     0.000 C 
BRANCH  12  13
ATOM     13  C   UNL     1       5.737  48.011  25.731  1.00  0.00     0.006 C 
BRANCH  13  14
ATOM     14  C   UNL     1       6.302  49.282  25.074  1.00  0.00     0.053 C 
BRANCH  14  15
ATOM     15  C   UNL     1       7.732  49.526  25.450  1.00  0.00     0.041 C 
ATOM     16  O   UNL     1       8.012  50.242  26.447  1.00  0.00    -0.550 OA
ATOM     17  O   UNL     1       8.755  48.983  24.682  1.00  0.00    -0.550 OA
ENDBRANCH  14  15
ENDBRANCH  13  14
ENDBRANCH  12  13
ENDBRANCH  11  12
ENDBRANCH  10  11
ENDBRANCH   9  10
ENDBRANCH   8   9
ENDBRANCH   7   8
ENDBRANCH   6   7
ENDBRANCH   5   6
ENDBRANCH   4   5
ENDBRANCH   3   4
ENDBRANCH   2   3
ENDBRANCH   1   2
BRANCH   1  18
ATOM     18  C   UNL     1       3.364  57.895  23.628  1.00  0.00     0.000 C 
BRANCH  18  19
ATOM     19  C   UNL     1       3.355  58.542  22.230  1.00  0.00     0.000 C 
BRANCH  19  20
ATOM     20  C   UNL     1       2.973  60.031  22.261  1.00  0.00     0.000 C 
BRANCH  20  21
ATOM     21  C   UNL     1       2.212  60.412  23.542  1.00  0.00     0.000 C 
BRANCH  21  22
ATOM     22  C   UNL     1       0.725  60.020  23.478  1.00  0.00     0.000 C 
BRANCH  22  23
ATOM     23  C   UNL     1      -0.207  61.119  24.017  1.00  0.00     0.000 C 
BRANCH  23  24
ATOM     24  C   UNL     1      -1.374  61.457  23.065  1.00  0.00    -0.000 C 
BRANCH  24  25
ATOM     25  C   UNL     1      -1.590  62.971  22.924  1.00  0.00    -0.000 C 
BRANCH  25  26
ATOM     26  C   UNL     1      -0.438  63.750  23.574  1.00  0.00    -0.000 C 
BRANCH  26  27
ATOM     27  C   UNL     1      -0.729  65.257  23.704  1.00  0.00    -0.000 C 
BRANCH  27  28
ATOM     28  C   UNL     1      -0.992  65.988  22.375  1.00  0.00    -0.000 C 
BRANCH  28  29
ATOM     29  C   UNL     1      -2.409  66.577  22.225  1.00  0.00    -0.000 C 
BRANCH  29  30
ATOM     30  C   UNL     1      -3.278  66.431  23.492  1.00  0.00    -0.000 C 
BRANCH  30  31
ATOM     31  C   UNL     1      -4.559  65.623  23.236  1.00  0.00    -0.003 C 
ATOM     32  C   UNL     1      -4.949  65.663  21.761  1.00  0.00     0.004 C 
ENDBRANCH  30  31
ENDBRANCH  29  30
ENDBRANCH  28  29
ENDBRANCH  27  28
ENDBRANCH  26  27
ENDBRANCH  25  26
ENDBRANCH  24  25
ENDBRANCH  23  24
ENDBRANCH  22  23
ENDBRANCH  21  22
ENDBRANCH  20  21
ENDBRANCH  19  20
ENDBRANCH  18  19
ENDBRANCH   1  18
TORSDOF 28
ENDMDL
MODEL 8
REMARK VINA RESULT:    -4.543      1.054      2.385
REMARK INTER + INTRA:         -13.978
REMARK INTER:                 -11.569
REMARK INTRA:                  -2.409
REMARK UNBOUND:                -1.998
REMARK SMILES CCCCCCCCCCCCCCCCCCCCCCCCCCCCCC(=O)[O-]
REMARK SMILES IDX 16 1 17 2 18 3 19 4 20 5 21 6 22 7 23 8 24 9 25 10 26 11
REMARK SMILES IDX 27 12 28 13 29 14 30 15 31 16 32 17 15 18 14 19 13 20 12 21
REMARK SMILES IDX 11 22 10 23 9 24 8 25 7 26 6 27 5 28 4 29 3 30 2 31 1 32
REMARK H PARENT
REMARK Flexibility Score: inf
ROOT
ATOM      1  C   UNL     1       2.466  53.854  21.585  1.00  0.00     0.000 C 
ENDROOT
BRANCH   1   2
ATOM      2  C   UNL     1       2.356  55.390  21.649  1.00  0.00     0.000 C 
BRANCH   2   3
ATOM      3  C   UNL     1       2.275  55.957  23.083  1.00  0.00     0.000 C 
BRANCH   3   4
ATOM      4  C   UNL     1       1.532  57.304  23.144  1.00  0.00     0.000 C 
BRANCH   4   5
ATOM      5  C   UNL     1       1.348  57.811  24.584  1.00  0.00     0.000 C 
BRANCH   5   6
ATOM      6  C   UNL     1       0.462  59.066  24.659  1.00  0.00     0.000 C 
BRANCH   6   7
ATOM      7  C   UNL     1       1.101  60.272  23.938  1.00  0.00     0.000 C 
BRANCH   7   8
ATOM      8  C   UNL     1       0.262  61.558  24.024  1.00  0.00     0.000 C 
BRANCH   8   9
ATOM      9  C   UNL     1      -1.078  61.448  23.278  1.00  0.00     0.000 C 
BRANCH   9  10
ATOM     10  C   UNL     1      -1.652  62.819  22.884  1.00  0.00     0.000 C 
BRANCH  10  11
ATOM     11  C   UNL     1      -0.995  63.980  23.647  1.00  0.00     0.000 C 
BRANCH  11  12
ATOM     12  C   UNL     1      -1.079  65.284  22.841  1.00  0.00     0.000 C 
BRANCH  12  13
ATOM     13  C   UNL     1      -2.334  66.115  23.176  1.00  0.00     0.006 C 
BRANCH  13  14
ATOM     14  C   UNL     1      -3.287  66.337  21.990  1.00  0.00     0.053 C 
BRANCH  14  15
ATOM     15  C   UNL     1      -4.566  65.570  22.139  1.00  0.00     0.041 C 
ATOM     16  O   UNL     1      -5.627  65.999  21.616  1.00  0.00    -0.550 OA
ATOM     17  O   UNL     1      -4.589  64.395  22.880  1.00  0.00    -0.550 OA
ENDBRANCH  14  15
ENDBRANCH  13  14
ENDBRANCH  12  13
ENDBRANCH  11  12
ENDBRANCH  10  11
ENDBRANCH   9  10
ENDBRANCH   8   9
ENDBRANCH   7   8
ENDBRANCH   6   7
ENDBRANCH   5   6
ENDBRANCH   4   5
ENDBRANCH   3   4
ENDBRANCH   2   3
ENDBRANCH   1   2
BRANCH   1  18
ATOM     18  C   UNL     1       1.941  53.102  22.824  1.00  0.00     0.000 C 
BRANCH  18  19
ATOM     19  C   UNL     1       1.265  51.752  22.526  1.00  0.00     0.000 C 
BRANCH  19  20
ATOM     20  C   UNL     1       2.270  50.644  22.170  1.00  0.00     0.000 C 
BRANCH  20  21
ATOM     21  C   UNL     1       2.333  49.546  23.245  1.00  0.00     0.000 C 
BRANCH  21  22
ATOM     22  C   UNL     1       1.404  48.361  22.929  1.00  0.00     0.000 C 
BRANCH  22  23
ATOM     23  C   UNL     1       1.519  47.219  23.952  1.00  0.00     0.000 C 
BRANCH  23  24
ATOM     24  C   UNL     1       2.949  47.030  24.503  1.00  0.00    -0.000 C 
BRANCH  24  25
ATOM     25  C   UNL     1       3.043  47.351  26.001  1.00  0.00    -0.000 C 
BRANCH  25  26
ATOM     26  C   UNL     1       4.212  48.306  26.283  1.00  0.00    -0.000 C 
BRANCH  26  27
ATOM     27  C   UNL     1       5.545  47.817  25.686  1.00  0.00    -0.000 C 
BRANCH  27  28
ATOM     28  C   UNL     1       6.290  48.849  24.819  1.00  0.00    -0.000 C 
BRANCH  28  29
ATOM     29  C   UNL     1       6.892  48.291  23.514  1.00  0.00    -0.000 C 
BRANCH  29  30
ATOM     30  C   UNL     1       5.971  47.289  22.785  1.00  0.00    -0.000 C 
BRANCH  30  31
ATOM     31  C   UNL     1       5.082  47.968  21.733  1.00  0.00    -0.003 C 
ATOM     32  C   UNL     1       4.177  46.954  21.039  1.00  0.00     0.004 C 
ENDBRANCH  30  31
ENDBRANCH  29  30
ENDBRANCH  28  29
ENDBRANCH  27  28
ENDBRANCH  26  27
ENDBRANCH  25  26
ENDBRANCH  24  25
ENDBRANCH  23  24
ENDBRANCH  22  23
ENDBRANCH  21  22
ENDBRANCH  20  21
ENDBRANCH  19  20
ENDBRANCH  18  19
ENDBRANCH   1  18
TORSDOF 28
ENDMDL
MODEL 9
REMARK VINA RESULT:    -4.515      5.136     14.968
REMARK INTER + INTRA:         -13.903
REMARK INTER:                 -11.880
REMARK INTRA:                  -2.023
REMARK UNBOUND:                -1.998
REMARK SMILES CCCCCCCCCCCCCCCCCCCCCCCCCCCCCC(=O)[O-]
REMARK SMILES IDX 16 1 17 2 18 3 19 4 20 5 21 6 22 7 23 8 24 9 25 10 26 11
REMARK SMILES IDX 27 12 28 13 29 14 30 15 31 16 32 17 15 18 14 19 13 20 12 21
REMARK SMILES IDX 11 22 10 23 9 24 8 25 7 26 6 27 5 28 4 29 3 30 2 31 1 32
REMARK H PARENT
REMARK Flexibility Score: inf
ROOT
ATOM      1  C   UNL     1       3.035  55.241  23.661  1.00  0.00     0.000 C 
ENDROOT
BRANCH   1   2
ATOM      2  C   UNL     1       2.860  53.711  23.579  1.00  0.00     0.000 C 
BRANCH   2   3
ATOM      3  C   UNL     1       2.107  53.230  22.320  1.00  0.00     0.000 C 
BRANCH   3   4
ATOM      4  C   UNL     1       1.398  51.880  22.536  1.00  0.00     0.000 C 
BRANCH   4   5
ATOM      5  C   UNL     1       2.377  50.695  22.538  1.00  0.00     0.000 C 
BRANCH   5   6
ATOM      6  C   UNL     1       1.841  49.487  23.326  1.00  0.00     0.000 C 
BRANCH   6   7
ATOM      7  C   UNL     1       1.427  48.326  22.398  1.00  0.00     0.000 C 
BRANCH   7   8
ATOM      8  C   UNL     1       2.422  47.152  22.397  1.00  0.00     0.000 C 
BRANCH   8   9
ATOM      9  C   UNL     1       3.153  46.989  21.055  1.00  0.00     0.000 C 
BRANCH   9  10
ATOM     10  C   UNL     1       4.636  47.388  21.134  1.00  0.00     0.000 C 
BRANCH  10  11
ATOM     11  C   UNL     1       5.097  47.678  22.571  1.00  0.00     0.000 C 
BRANCH  11  12
ATOM     12  C   UNL     1       6.550  48.175  22.593  1.00  0.00     0.000 C 
BRANCH  12  13
ATOM     13  C   UNL     1       7.174  48.135  24.002  1.00  0.00     0.006 C 
BRANCH  13  14
ATOM     14  C   UNL     1       6.737  49.283  24.927  1.00  0.00     0.053 C 
BRANCH  14  15
ATOM     15  C   UNL     1       7.768  49.597  25.967  1.00  0.00     0.041 C 
ATOM     16  O   UNL     1       7.898  48.856  26.976  1.00  0.00    -0.550 OA
ATOM     17  O   UNL     1       8.570  50.725  25.833  1.00  0.00    -0.550 OA
ENDBRANCH  14  15
ENDBRANCH  13  14
ENDBRANCH  12  13
ENDBRANCH  11  12
ENDBRANCH  10  11
ENDBRANCH   9  10
ENDBRANCH   8   9
ENDBRANCH   7   8
ENDBRANCH   6   7
ENDBRANCH   5   6
ENDBRANCH   4   5
ENDBRANCH   3   4
ENDBRANCH   2   3
ENDBRANCH   1   2
BRANCH   1  18
ATOM     18  C   UNL     1       2.778  55.861  25.048  1.00  0.00     0.000 C 
BRANCH  18  19
ATOM     19  C   UNL     1       2.771  57.401  25.079  1.00  0.00     0.000 C 
BRANCH  19  20
ATOM     20  C   UNL     1       3.301  58.028  23.779  1.00  0.00     0.000 C 
BRANCH  20  21
ATOM     21  C   UNL     1       2.416  59.185  23.287  1.00  0.00     0.000 C 
BRANCH  21  22
ATOM     22  C   UNL     1       0.933  58.982  23.645  1.00  0.00     0.000 C 
BRANCH  22  23
ATOM     23  C   UNL     1       0.412  60.019  24.654  1.00  0.00     0.000 C 
BRANCH  23  24
ATOM     24  C   UNL     1       0.143  61.404  24.028  1.00  0.00    -0.000 C 
BRANCH  24  25
ATOM     25  C   UNL     1      -1.183  61.447  23.255  1.00  0.00    -0.000 C 
BRANCH  25  26
ATOM     26  C   UNL     1      -1.553  62.890  22.885  1.00  0.00    -0.000 C 
BRANCH  26  27
ATOM     27  C   UNL     1      -0.839  63.937  23.760  1.00  0.00    -0.000 C 
BRANCH  27  28
ATOM     28  C   UNL     1      -0.636  65.313  23.097  1.00  0.00    -0.000 C 
BRANCH  28  29
ATOM     29  C   UNL     1      -1.670  66.385  23.492  1.00  0.00    -0.000 C 
BRANCH  29  30
ATOM     30  C   UNL     1      -2.917  66.410  22.582  1.00  0.00    -0.000 C 
BRANCH  30  31
ATOM     31  C   UNL     1      -4.120  65.693  23.214  1.00  0.00    -0.003 C 
ATOM     32  C   UNL     1      -4.825  64.799  22.198  1.00  0.00     0.004 C 
ENDBRANCH  30  31
ENDBRANCH  29  30
ENDBRANCH  28  29
ENDBRANCH  27  28
ENDBRANCH  26  27
ENDBRANCH  25  26
ENDBRANCH  24  25
ENDBRANCH  23  24
ENDBRANCH  22  23
ENDBRANCH  21  22
ENDBRANCH  20  21
ENDBRANCH  19  20
ENDBRANCH  18  19
ENDBRANCH   1  18
TORSDOF 28
ENDMDL
