MODEL 1
REMARK VINA RESULT:    -4.131      0.000      0.000
REMARK INTER + INTRA:          -5.428
REMARK INTER:                  -5.097
REMARK INTRA:                  -0.331
REMARK UNBOUND:                -0.331
REMARK SMILES Oc1cc(O)c2cc(O)c(-c3cc(O)c(O)c(O)c3)[o+]c2c1
REMARK SMILES IDX 10 1 20 2 21 3 22 4 2 5 3 6 4 7 6 8 7 9 8 10 11 11 12 12
REMARK SMILES IDX 13 13 19 14 15 15 17 16 14 17 16 19 18 21 9 23 1 25 5 27
REMARK H PARENT 14 18 16 20 18 22 9 24 1 26 5 28
REMARK Flexibility Score: inf
ROOT
ATOM      1  C   UNL     1     -20.717  14.163 -19.149  1.00  0.00     0.402 A 
ATOM      2  O   UNL     1     -21.230  14.340 -20.364  1.00  0.00    -0.202 OA
ATOM      3  C   UNL     1     -20.505  14.296 -21.476  1.00  0.00     0.368 A 
ATOM      4  C   UNL     1     -21.135  14.492 -22.707  1.00  0.00     0.162 A 
ATOM      5  C   UNL     1     -20.396  14.447 -23.894  1.00  0.00     0.128 A 
ATOM      6  C   UNL     1     -19.022  14.202 -23.848  1.00  0.00     0.093 A 
ATOM      7  C   UNL     1     -18.366  14.002 -22.626  1.00  0.00     0.136 A 
ATOM      8  C   UNL     1     -19.111  14.049 -21.420  1.00  0.00     0.125 A 
ATOM      9  C   UNL     1     -18.537  13.874 -20.151  1.00  0.00     0.078 A 
ATOM     10  C   UNL     1     -19.335  13.939 -19.005  1.00  0.00     0.223 A 
ENDROOT
BRANCH   1  11
ATOM     11  C   UNL     1     -21.631  14.227 -17.986  1.00  0.00     0.091 A 
ATOM     12  C   UNL     1     -22.181  15.461 -17.609  1.00  0.00     0.068 A 
ATOM     13  C   UNL     1     -23.066  15.545 -16.524  1.00  0.00     0.162 A 
ATOM     14  C   UNL     1     -22.006  13.068 -17.285  1.00  0.00     0.068 A 
ATOM     15  C   UNL     1     -23.419  14.390 -15.817  1.00  0.00     0.200 A 
ATOM     16  C   UNL     1     -22.891  13.146 -16.201  1.00  0.00     0.162 A 
BRANCH  13  17
ATOM     17  O   UNL     1     -23.598  16.777 -16.144  1.00  0.00    -0.504 OA
ATOM     18  H   UNL     1     -23.895  17.460 -16.830  1.00  0.00     0.293 HD
ENDBRANCH  13  17
BRANCH  15  19
ATOM     19  O   UNL     1     -24.298  14.494 -14.737  1.00  0.00    -0.502 OA
ATOM     20  H   UNL     1     -24.088  15.061 -13.925  1.00  0.00     0.293 HD
ENDBRANCH  15  19
BRANCH  16  21
ATOM     21  O   UNL     1     -23.250  11.991 -15.507  1.00  0.00    -0.504 OA
ATOM     22  H   UNL     1     -23.581  12.026 -14.550  1.00  0.00     0.293 HD
ENDBRANCH  16  21
ENDBRANCH   1  11
BRANCH  10  23
ATOM     23  O   UNL     1     -18.757  13.814 -17.741  1.00  0.00    -0.500 OA
ATOM     24  H   UNL     1     -17.938  13.239 -17.584  1.00  0.00     0.294 HD
ENDBRANCH  10  23
BRANCH   5  25
ATOM     25  O   UNL     1     -21.019  14.642 -25.125  1.00  0.00    -0.507 OA
ATOM     26  H   UNL     1     -20.495  14.628 -25.992  1.00  0.00     0.293 HD
ENDBRANCH   5  25
BRANCH   7  27
ATOM     27  O   UNL     1     -16.991  13.761 -22.667  1.00  0.00    -0.507 OA
ATOM     28  H   UNL     1     -16.372  14.101 -23.388  1.00  0.00     0.293 HD
ENDBRANCH   7  27
TORSDOF 7
ENDMDL
MODEL 2
REMARK VINA RESULT:    -4.060     13.930     16.035
REMARK INTER + INTRA:          -5.340
REMARK INTER:                  -4.963
REMARK INTRA:                  -0.377
REMARK UNBOUND:                -0.331
REMARK SMILES Oc1cc(O)c2cc(O)c(-c3cc(O)c(O)c(O)c3)[o+]c2c1
REMARK SMILES IDX 10 1 20 2 21 3 22 4 2 5 3 6 4 7 6 8 7 9 8 10 11 11 12 12
REMARK SMILES IDX 13 13 19 14 15 15 17 16 14 17 16 19 18 21 9 23 1 25 5 27
REMARK H PARENT 14 18 16 20 18 22 9 24 1 26 5 28
REMARK Flexibility Score: inf
ROOT
ATOM      1  C   UNL     1     -19.156  28.635 -20.792  1.00  0.00     0.402 A 
ATOM      2  O   UNL     1     -20.350  28.540 -21.369  1.00  0.00    -0.202 OA
ATOM      3  C   UNL     1     -21.494  28.598 -20.695  1.00  0.00     0.368 A 
ATOM      4  C   UNL     1     -22.700  28.491 -21.392  1.00  0.00     0.162 A 
ATOM      5  C   UNL     1     -23.918  28.553 -20.707  1.00  0.00     0.128 A 
ATOM      6  C   UNL     1     -23.929  28.725 -19.321  1.00  0.00     0.093 A 
ATOM      7  C   UNL     1     -22.733  28.835 -18.600  1.00  0.00     0.136 A 
ATOM      8  C   UNL     1     -21.495  28.771 -19.290  1.00  0.00     0.125 A 
ATOM      9  C   UNL     1     -20.249  28.858 -18.649  1.00  0.00     0.078 A 
ATOM     10  C   UNL     1     -19.069  28.782 -19.395  1.00  0.00     0.223 A 
ENDROOT
BRANCH   1  11
ATOM     11  C   UNL     1     -17.954  28.565 -21.653  1.00  0.00     0.091 A 
ATOM     12  C   UNL     1     -17.498  27.316 -22.100  1.00  0.00     0.068 A 
ATOM     13  C   UNL     1     -16.374  27.223 -22.934  1.00  0.00     0.162 A 
ATOM     14  C   UNL     1     -17.290  29.728 -22.080  1.00  0.00     0.068 A 
ATOM     15  C   UNL     1     -15.705  28.385 -23.339  1.00  0.00     0.200 A 
ATOM     16  C   UNL     1     -16.167  29.641 -22.915  1.00  0.00     0.162 A 
BRANCH  13  17
ATOM     17  O   UNL     1     -15.917  25.978 -23.363  1.00  0.00    -0.504 OA
ATOM     18  H   UNL     1     -14.998  25.635 -23.112  1.00  0.00     0.293 HD
ENDBRANCH  13  17
BRANCH  15  19
ATOM     19  O   UNL     1     -14.586  28.273 -24.165  1.00  0.00    -0.502 OA
ATOM     20  H   UNL     1     -14.400  28.930 -24.912  1.00  0.00     0.293 HD
ENDBRANCH  15  19
BRANCH  16  21
ATOM     21  O   UNL     1     -15.512  30.801 -23.327  1.00  0.00    -0.504 OA
ATOM     22  H   UNL     1     -14.504  30.836 -23.425  1.00  0.00     0.293 HD
ENDBRANCH  16  21
ENDBRANCH   1  11
BRANCH  10  23
ATOM     23  O   UNL     1     -17.831  28.819 -18.753  1.00  0.00    -0.500 OA
ATOM     24  H   UNL     1     -16.983  29.072 -19.246  1.00  0.00     0.294 HD
ENDBRANCH  10  23
BRANCH   5  25
ATOM     25  O   UNL     1     -25.125  28.446 -21.396  1.00  0.00    -0.507 OA
ATOM     26  H   UNL     1     -25.841  27.789 -21.111  1.00  0.00     0.293 HD
ENDBRANCH   5  25
BRANCH   7  27
ATOM     27  O   UNL     1     -22.830  29.008 -17.217  1.00  0.00    -0.507 OA
ATOM     28  H   UNL     1     -22.891  29.904 -16.756  1.00  0.00     0.293 HD
ENDBRANCH   7  27
TORSDOF 7
ENDMDL
MODEL 3
REMARK VINA RESULT:    -4.018     13.910     15.904
REMARK INTER + INTRA:          -5.288
REMARK INTER:                  -4.909
REMARK INTRA:                  -0.379
REMARK UNBOUND:                -0.331
REMARK SMILES Oc1cc(O)c2cc(O)c(-c3cc(O)c(O)c(O)c3)[o+]c2c1
REMARK SMILES IDX 10 1 20 2 21 3 22 4 2 5 3 6 4 7 6 8 7 9 8 10 11 11 12 12
REMARK SMILES IDX 13 13 19 14 15 15 17 16 14 17 16 19 18 21 9 23 1 25 5 27
REMARK H PARENT 14 18 16 20 18 22 9 24 1 26 5 28
REMARK Flexibility Score: inf
ROOT
ATOM      1  C   UNL     1     -19.160  28.583 -20.751  1.00  0.00     0.402 A 
ATOM      2  O   UNL     1     -20.350  28.492 -21.338  1.00  0.00    -0.202 OA
ATOM      3  C   UNL     1     -21.500  28.570 -20.677  1.00  0.00     0.368 A 
ATOM      4  C   UNL     1     -22.700  28.465 -21.384  1.00  0.00     0.162 A 
ATOM      5  C   UNL     1     -23.924  28.548 -20.712  1.00  0.00     0.128 A 
ATOM      6  C   UNL     1     -23.946  28.737 -19.328  1.00  0.00     0.093 A 
ATOM      7  C   UNL     1     -22.756  28.845 -18.597  1.00  0.00     0.136 A 
ATOM      8  C   UNL     1     -21.512  28.760 -19.274  1.00  0.00     0.125 A 
ATOM      9  C   UNL     1     -20.272  28.843 -18.621  1.00  0.00     0.078 A 
ATOM     10  C   UNL     1     -19.086  28.746 -19.355  1.00  0.00     0.223 A 
ENDROOT
BRANCH   1  11
ATOM     11  C   UNL     1     -17.951  28.489 -21.600  1.00  0.00     0.091 A 
ATOM     12  C   UNL     1     -17.351  29.664 -22.077  1.00  0.00     0.068 A 
ATOM     13  C   UNL     1     -16.193  29.604 -22.866  1.00  0.00     0.162 A 
ATOM     14  C   UNL     1     -17.356  27.250 -21.894  1.00  0.00     0.068 A 
ATOM     15  C   UNL     1     -15.618  28.365 -23.172  1.00  0.00     0.200 A 
ATOM     16  C   UNL     1     -16.198  27.184 -22.681  1.00  0.00     0.162 A 
BRANCH  13  17
ATOM     17  O   UNL     1     -15.610  30.774 -23.349  1.00  0.00    -0.504 OA
ATOM     18  H   UNL     1     -14.902  30.755 -24.073  1.00  0.00     0.293 HD
ENDBRANCH  13  17
BRANCH  15  19
ATOM     19  O   UNL     1     -14.468  28.324 -23.962  1.00  0.00    -0.502 OA
ATOM     20  H   UNL     1     -14.510  28.278 -24.973  1.00  0.00     0.293 HD
ENDBRANCH  15  19
BRANCH  16  21
ATOM     21  O   UNL     1     -15.620  25.949 -22.971  1.00  0.00    -0.504 OA
ATOM     22  H   UNL     1     -14.684  25.876 -23.353  1.00  0.00     0.293 HD
ENDBRANCH  16  21
ENDBRANCH   1  11
BRANCH  10  23
ATOM     23  O   UNL     1     -17.853  28.780 -18.702  1.00  0.00    -0.500 OA
ATOM     24  H   UNL     1     -17.726  29.280 -17.830  1.00  0.00     0.294 HD
ENDBRANCH  10  23
BRANCH   5  25
ATOM     25  O   UNL     1     -25.125  28.444 -21.410  1.00  0.00    -0.507 OA
ATOM     26  H   UNL     1     -26.012  28.362 -20.929  1.00  0.00     0.293 HD
ENDBRANCH   5  25
BRANCH   7  27
ATOM     27  O   UNL     1     -22.865  29.036 -17.217  1.00  0.00    -0.507 OA
ATOM     28  H   UNL     1     -22.091  29.268 -16.610  1.00  0.00     0.293 HD
ENDBRANCH   7  27
TORSDOF 7
ENDMDL
MODEL 4
REMARK VINA RESULT:    -3.966      1.282      7.064
REMARK INTER + INTRA:          -5.224
REMARK INTER:                  -4.844
REMARK INTRA:                  -0.380
REMARK UNBOUND:                -0.331
REMARK SMILES Oc1cc(O)c2cc(O)c(-c3cc(O)c(O)c(O)c3)[o+]c2c1
REMARK SMILES IDX 10 1 20 2 21 3 22 4 2 5 3 6 4 7 6 8 7 9 8 10 11 11 12 12
REMARK SMILES IDX 13 13 19 14 15 15 17 16 14 17 16 19 18 21 9 23 1 25 5 27
REMARK H PARENT 14 18 16 20 18 22 9 24 1 26 5 28
REMARK Flexibility Score: inf
ROOT
ATOM      1  C   UNL     1     -20.827  14.858 -19.575  1.00  0.00     0.402 A 
ATOM      2  O   UNL     1     -21.498  13.907 -18.931  1.00  0.00    -0.202 OA
ATOM      3  C   UNL     1     -21.933  14.037 -17.682  1.00  0.00     0.368 A 
ATOM      4  C   UNL     1     -22.632  12.982 -17.091  1.00  0.00     0.162 A 
ATOM      5  C   UNL     1     -23.104  13.094 -15.780  1.00  0.00     0.128 A 
ATOM      6  C   UNL     1     -22.877  14.268 -15.058  1.00  0.00     0.093 A 
ATOM      7  C   UNL     1     -22.180  15.341 -15.628  1.00  0.00     0.136 A 
ATOM      8  C   UNL     1     -21.697  15.231 -16.958  1.00  0.00     0.125 A 
ATOM      9  C   UNL     1     -20.977  16.248 -17.605  1.00  0.00     0.078 A 
ATOM     10  C   UNL     1     -20.529  16.065 -18.916  1.00  0.00     0.223 A 
ENDROOT
BRANCH   1  11
ATOM     11  C   UNL     1     -20.404  14.595 -20.970  1.00  0.00     0.091 A 
ATOM     12  C   UNL     1     -21.248  14.964 -22.027  1.00  0.00     0.068 A 
ATOM     13  C   UNL     1     -20.861  14.744 -23.358  1.00  0.00     0.162 A 
ATOM     14  C   UNL     1     -19.148  14.033 -21.260  1.00  0.00     0.068 A 
ATOM     15  C   UNL     1     -19.618  14.166 -23.639  1.00  0.00     0.200 A 
ATOM     16  C   UNL     1     -18.757  13.813 -22.587  1.00  0.00     0.162 A 
BRANCH  13  17
ATOM     17  O   UNL     1     -21.710  15.100 -24.404  1.00  0.00    -0.504 OA
ATOM     18  H   UNL     1     -22.047  14.416 -25.070  1.00  0.00     0.293 HD
ENDBRANCH  13  17
BRANCH  15  19
ATOM     19  O   UNL     1     -19.252  13.951 -24.969  1.00  0.00    -0.502 OA
ATOM     20  H   UNL     1     -18.949  14.705 -25.572  1.00  0.00     0.293 HD
ENDBRANCH  15  19
BRANCH  16  21
ATOM     21  O   UNL     1     -17.512  13.249 -22.864  1.00  0.00    -0.504 OA
ATOM     22  H   UNL     1     -16.873  13.670 -23.529  1.00  0.00     0.293 HD
ENDBRANCH  16  21
ENDBRANCH   1  11
BRANCH  10  23
ATOM     23  O   UNL     1     -19.772  17.056 -19.542  1.00  0.00    -0.500 OA
ATOM     24  H   UNL     1     -18.903  17.394 -19.144  1.00  0.00     0.294 HD
ENDBRANCH  10  23
BRANCH   5  25
ATOM     25  O   UNL     1     -23.800  12.045 -15.184  1.00  0.00    -0.507 OA
ATOM     26  H   UNL     1     -24.813  12.033 -15.151  1.00  0.00     0.293 HD
ENDBRANCH   5  25
BRANCH   7  27
ATOM     27  O   UNL     1     -21.998  16.481 -14.841  1.00  0.00    -0.507 OA
ATOM     28  H   UNL     1     -22.053  16.494 -13.833  1.00  0.00     0.293 HD
ENDBRANCH   7  27
TORSDOF 7
ENDMDL
MODEL 5
REMARK VINA RESULT:    -3.958     13.741     14.641
REMARK INTER + INTRA:          -5.215
REMARK INTER:                  -4.839
REMARK INTRA:                  -0.376
REMARK UNBOUND:                -0.331
REMARK SMILES Oc1cc(O)c2cc(O)c(-c3cc(O)c(O)c(O)c3)[o+]c2c1
REMARK SMILES IDX 10 1 20 2 21 3 22 4 2 5 3 6 4 7 6 8 7 9 8 10 11 11 12 12
REMARK SMILES IDX 13 13 19 14 15 15 17 16 14 17 16 19 18 21 9 23 1 25 5 27
REMARK H PARENT 14 18 16 20 18 22 9 24 1 26 5 28
REMARK Flexibility Score: inf
ROOT
ATOM      1  C   UNL     1     -19.620  28.062 -20.795  1.00  0.00     0.402 A 
ATOM      2  O   UNL     1     -18.948  29.009 -21.445  1.00  0.00    -0.202 OA
ATOM      3  C   UNL     1     -17.674  28.887 -21.802  1.00  0.00     0.368 A 
ATOM      4  C   UNL     1     -17.055  29.937 -22.484  1.00  0.00     0.162 A 
ATOM      5  C   UNL     1     -15.716  29.833 -22.875  1.00  0.00     0.128 A 
ATOM      6  C   UNL     1     -14.995  28.673 -22.583  1.00  0.00     0.093 A 
ATOM      7  C   UNL     1     -15.593  27.606 -21.900  1.00  0.00     0.136 A 
ATOM      8  C   UNL     1     -16.950  27.708 -21.500  1.00  0.00     0.125 A 
ATOM      9  C   UNL     1     -17.627  26.696 -20.800  1.00  0.00     0.078 A 
ATOM     10  C   UNL     1     -18.965  26.869 -20.435  1.00  0.00     0.223 A 
ENDROOT
BRANCH   1  11
ATOM     11  C   UNL     1     -21.040  28.314 -20.461  1.00  0.00     0.091 A 
ATOM     12  C   UNL     1     -22.038  27.952 -21.377  1.00  0.00     0.068 A 
ATOM     13  C   UNL     1     -23.392  28.162 -21.077  1.00  0.00     0.162 A 
ATOM     14  C   UNL     1     -21.414  28.858 -19.220  1.00  0.00     0.068 A 
ATOM     15  C   UNL     1     -23.757  28.723 -19.847  1.00  0.00     0.200 A 
ATOM     16  C   UNL     1     -22.766  29.068 -18.914  1.00  0.00     0.162 A 
BRANCH  13  17
ATOM     17  O   UNL     1     -24.379  27.814 -21.997  1.00  0.00    -0.504 OA
ATOM     18  H   UNL     1     -25.310  28.210 -21.953  1.00  0.00     0.293 HD
ENDBRANCH  13  17
BRANCH  15  19
ATOM     19  O   UNL     1     -25.109  28.928 -19.567  1.00  0.00    -0.502 OA
ATOM     20  H   UNL     1     -25.470  28.920 -18.621  1.00  0.00     0.293 HD
ENDBRANCH  15  19
BRANCH  16  21
ATOM     21  O   UNL     1     -23.126  29.615 -17.683  1.00  0.00    -0.504 OA
ATOM     22  H   UNL     1     -24.095  29.683 -17.394  1.00  0.00     0.293 HD
ENDBRANCH  16  21
ENDBRANCH   1  11
BRANCH  10  23
ATOM     23  O   UNL     1     -19.623  25.885 -19.697  1.00  0.00    -0.500 OA
ATOM     24  H   UNL     1     -19.633  24.916 -19.992  1.00  0.00     0.294 HD
ENDBRANCH  10  23
BRANCH   5  25
ATOM     25  O   UNL     1     -15.093  30.877 -23.555  1.00  0.00    -0.507 OA
ATOM     26  H   UNL     1     -14.371  30.703 -24.244  1.00  0.00     0.293 HD
ENDBRANCH   5  25
BRANCH   7  27
ATOM     27  O   UNL     1     -14.804  26.481 -21.649  1.00  0.00    -0.507 OA
ATOM     28  H   UNL     1     -13.803  26.444 -21.779  1.00  0.00     0.293 HD
ENDBRANCH   7  27
TORSDOF 7
ENDMDL
MODEL 6
REMARK VINA RESULT:    -3.957     13.775     14.651
REMARK INTER + INTRA:          -5.214
REMARK INTER:                  -4.856
REMARK INTRA:                  -0.358
REMARK UNBOUND:                -0.331
REMARK SMILES Oc1cc(O)c2cc(O)c(-c3cc(O)c(O)c(O)c3)[o+]c2c1
REMARK SMILES IDX 10 1 20 2 21 3 22 4 2 5 3 6 4 7 6 8 7 9 8 10 11 11 12 12
REMARK SMILES IDX 13 13 19 14 15 15 17 16 14 17 16 19 18 21 9 23 1 25 5 27
REMARK H PARENT 14 18 16 20 18 22 9 24 1 26 5 28
REMARK Flexibility Score: inf
ROOT
ATOM      1  C   UNL     1     -19.597  28.069 -20.719  1.00  0.00     0.402 A 
ATOM      2  O   UNL     1     -18.960  28.980 -21.450  1.00  0.00    -0.202 OA
ATOM      3  C   UNL     1     -17.671  28.894 -21.764  1.00  0.00     0.368 A 
ATOM      4  C   UNL     1     -17.092  29.901 -22.539  1.00  0.00     0.162 A 
ATOM      5  C   UNL     1     -15.739  29.834 -22.887  1.00  0.00     0.128 A 
ATOM      6  C   UNL     1     -14.964  28.753 -22.459  1.00  0.00     0.093 A 
ATOM      7  C   UNL     1     -15.522  27.730 -21.681  1.00  0.00     0.136 A 
ATOM      8  C   UNL     1     -16.893  27.796 -21.324  1.00  0.00     0.125 A 
ATOM      9  C   UNL     1     -17.533  26.825 -20.537  1.00  0.00     0.078 A 
ATOM     10  C   UNL     1     -18.888  26.959 -20.221  1.00  0.00     0.223 A 
ENDROOT
BRANCH   1  11
ATOM     11  C   UNL     1     -21.037  28.273 -20.445  1.00  0.00     0.091 A 
ATOM     12  C   UNL     1     -21.431  28.868 -19.238  1.00  0.00     0.068 A 
ATOM     13  C   UNL     1     -22.788  29.092 -18.962  1.00  0.00     0.162 A 
ATOM     14  C   UNL     1     -22.018  27.934 -21.393  1.00  0.00     0.068 A 
ATOM     15  C   UNL     1     -23.762  28.733 -19.902  1.00  0.00     0.200 A 
ATOM     16  C   UNL     1     -23.376  28.157 -21.123  1.00  0.00     0.162 A 
BRANCH  13  17
ATOM     17  O   UNL     1     -23.174  29.670 -17.754  1.00  0.00    -0.504 OA
ATOM     18  H   UNL     1     -24.027  30.210 -17.673  1.00  0.00     0.293 HD
ENDBRANCH  13  17
BRANCH  15  19
ATOM     19  O   UNL     1     -25.108  28.959 -19.609  1.00  0.00    -0.502 OA
ATOM     20  H   UNL     1     -25.560  28.543 -18.804  1.00  0.00     0.293 HD
ENDBRANCH  15  19
BRANCH  16  21
ATOM     21  O   UNL     1     -24.341  27.811 -22.068  1.00  0.00    -0.504 OA
ATOM     22  H   UNL     1     -24.219  28.015 -23.053  1.00  0.00     0.293 HD
ENDBRANCH  16  21
ENDBRANCH   1  11
BRANCH  10  23
ATOM     23  O   UNL     1     -19.512  26.021 -19.398  1.00  0.00    -0.500 OA
ATOM     24  H   UNL     1     -20.262  25.429 -19.738  1.00  0.00     0.294 HD
ENDBRANCH  10  23
BRANCH   5  25
ATOM     25  O   UNL     1     -15.154  30.835 -23.660  1.00  0.00    -0.507 OA
ATOM     26  H   UNL     1     -15.258  30.855 -24.667  1.00  0.00     0.293 HD
ENDBRANCH   5  25
BRANCH   7  27
ATOM     27  O   UNL     1     -14.681  26.683 -21.296  1.00  0.00    -0.507 OA
ATOM     28  H   UNL     1     -14.335  26.544 -20.358  1.00  0.00     0.293 HD
ENDBRANCH   7  27
TORSDOF 7
ENDMDL
MODEL 7
REMARK VINA RESULT:    -3.953      1.394      7.125
REMARK INTER + INTRA:          -5.208
REMARK INTER:                  -4.839
REMARK INTRA:                  -0.369
REMARK UNBOUND:                -0.331
REMARK SMILES Oc1cc(O)c2cc(O)c(-c3cc(O)c(O)c(O)c3)[o+]c2c1
REMARK SMILES IDX 10 1 20 2 21 3 22 4 2 5 3 6 4 7 6 8 7 9 8 10 11 11 12 12
REMARK SMILES IDX 13 13 19 14 15 15 17 16 14 17 16 19 18 21 9 23 1 25 5 27
REMARK H PARENT 14 18 16 20 18 22 9 24 1 26 5 28
REMARK Flexibility Score: inf
ROOT
ATOM      1  C   UNL     1     -20.774  14.853 -19.634  1.00  0.00     0.402 A 
ATOM      2  O   UNL     1     -21.471  13.929 -18.978  1.00  0.00    -0.202 OA
ATOM      3  C   UNL     1     -21.790  14.031 -17.692  1.00  0.00     0.368 A 
ATOM      4  C   UNL     1     -22.528  13.009 -17.091  1.00  0.00     0.162 A 
ATOM      5  C   UNL     1     -22.880  13.093 -15.740  1.00  0.00     0.128 A 
ATOM      6  C   UNL     1     -22.493  14.205 -14.989  1.00  0.00     0.093 A 
ATOM      7  C   UNL     1     -21.753  15.244 -15.568  1.00  0.00     0.136 A 
ATOM      8  C   UNL     1     -21.391  15.162 -16.938  1.00  0.00     0.125 A 
ATOM      9  C   UNL     1     -20.640  16.147 -17.598  1.00  0.00     0.078 A 
ATOM     10  C   UNL     1     -20.318  15.995 -18.950  1.00  0.00     0.223 A 
ENDROOT
BRANCH   1  11
ATOM     11  C   UNL     1     -20.490  14.627 -21.070  1.00  0.00     0.091 A 
ATOM     12  C   UNL     1     -19.284  14.020 -21.447  1.00  0.00     0.068 A 
ATOM     13  C   UNL     1     -18.999  13.777 -22.799  1.00  0.00     0.162 A 
ATOM     14  C   UNL     1     -21.429  14.958 -22.062  1.00  0.00     0.068 A 
ATOM     15  C   UNL     1     -19.931  14.128 -23.784  1.00  0.00     0.200 A 
ATOM     16  C   UNL     1     -21.151  14.716 -23.415  1.00  0.00     0.162 A 
BRANCH  13  17
ATOM     17  O   UNL     1     -17.792  13.186 -23.169  1.00  0.00    -0.504 OA
ATOM     18  H   UNL     1     -17.665  12.182 -23.147  1.00  0.00     0.293 HD
ENDBRANCH  13  17
BRANCH  15  19
ATOM     19  O   UNL     1     -19.629  13.882 -25.125  1.00  0.00    -0.502 OA
ATOM     20  H   UNL     1     -20.137  13.200 -25.674  1.00  0.00     0.293 HD
ENDBRANCH  15  19
BRANCH  16  21
ATOM     21  O   UNL     1     -22.087  15.054 -24.392  1.00  0.00    -0.504 OA
ATOM     22  H   UNL     1     -21.816  15.522 -25.248  1.00  0.00     0.293 HD
ENDBRANCH  16  21
ENDBRANCH   1  11
BRANCH  10  23
ATOM     23  O   UNL     1     -19.530  16.949 -19.594  1.00  0.00    -0.500 OA
ATOM     24  H   UNL     1     -18.520  16.953 -19.507  1.00  0.00     0.294 HD
ENDBRANCH  10  23
BRANCH   5  25
ATOM     25  O   UNL     1     -23.615  12.077 -15.134  1.00  0.00    -0.507 OA
ATOM     26  H   UNL     1     -23.283  11.607 -14.300  1.00  0.00     0.293 HD
ENDBRANCH   5  25
BRANCH   7  27
ATOM     27  O   UNL     1     -21.407  16.322 -14.750  1.00  0.00    -0.507 OA
ATOM     28  H   UNL     1     -22.044  16.786 -14.118  1.00  0.00     0.293 HD
ENDBRANCH   7  27
TORSDOF 7
ENDMDL
MODEL 8
REMARK VINA RESULT:    -3.905      2.753      3.660
REMARK INTER + INTRA:          -5.149
REMARK INTER:                  -4.769
REMARK INTRA:                  -0.380
REMARK UNBOUND:                -0.331
REMARK SMILES Oc1cc(O)c2cc(O)c(-c3cc(O)c(O)c(O)c3)[o+]c2c1
REMARK SMILES IDX 10 1 20 2 21 3 22 4 2 5 3 6 4 7 6 8 7 9 8 10 11 11 12 12
REMARK SMILES IDX 13 13 19 14 15 15 17 16 14 17 16 19 18 21 9 23 1 25 5 27
REMARK H PARENT 14 18 16 20 18 22 9 24 1 26 5 28
REMARK Flexibility Score: inf
ROOT
ATOM      1  C   UNL     1     -19.458  13.895 -19.708  1.00  0.00     0.402 A 
ATOM      2  O   UNL     1     -18.534  13.680 -20.641  1.00  0.00    -0.202 OA
ATOM      3  C   UNL     1     -18.746  13.872 -21.939  1.00  0.00     0.368 A 
ATOM      4  C   UNL     1     -17.711  13.620 -22.842  1.00  0.00     0.162 A 
ATOM      5  C   UNL     1     -17.907  13.818 -24.213  1.00  0.00     0.128 A 
ATOM      6  C   UNL     1     -19.143  14.270 -24.680  1.00  0.00     0.093 A 
ATOM      7  C   UNL     1     -20.197  14.530 -23.795  1.00  0.00     0.136 A 
ATOM      8  C   UNL     1     -20.003  14.329 -22.403  1.00  0.00     0.125 A 
ATOM      9  C   UNL     1     -21.005  14.550 -21.445  1.00  0.00     0.078 A 
ATOM     10  C   UNL     1     -20.742  14.326 -20.091  1.00  0.00     0.223 A 
ENDROOT
BRANCH   1  11
ATOM     11  C   UNL     1     -19.095  13.653 -18.294  1.00  0.00     0.091 A 
ATOM     12  C   UNL     1     -18.586  14.707 -17.522  1.00  0.00     0.068 A 
ATOM     13  C   UNL     1     -18.253  14.509 -16.174  1.00  0.00     0.162 A 
ATOM     14  C   UNL     1     -19.302  12.400 -17.689  1.00  0.00     0.068 A 
ATOM     15  C   UNL     1     -18.443  13.253 -15.584  1.00  0.00     0.200 A 
ATOM     16  C   UNL     1     -18.973  12.197 -16.342  1.00  0.00     0.162 A 
BRANCH  13  17
ATOM     17  O   UNL     1     -17.734  15.557 -15.416  1.00  0.00    -0.504 OA
ATOM     18  H   UNL     1     -18.329  16.283 -15.037  1.00  0.00     0.293 HD
ENDBRANCH  13  17
BRANCH  15  19
ATOM     19  O   UNL     1     -18.103  13.074 -14.242  1.00  0.00    -0.502 OA
ATOM     20  H   UNL     1     -18.613  12.442 -13.637  1.00  0.00     0.293 HD
ENDBRANCH  15  19
BRANCH  16  21
ATOM     21  O   UNL     1     -19.177  10.949 -15.754  1.00  0.00    -0.504 OA
ATOM     22  H   UNL     1     -18.899  10.092 -16.216  1.00  0.00     0.293 HD
ENDBRANCH  16  21
ENDBRANCH   1  11
BRANCH  10  23
ATOM     23  O   UNL     1     -21.752  14.498 -19.143  1.00  0.00    -0.500 OA
ATOM     24  H   UNL     1     -22.543  15.108 -19.312  1.00  0.00     0.294 HD
ENDBRANCH  10  23
BRANCH   5  25
ATOM     25  O   UNL     1     -16.879  13.568 -25.119  1.00  0.00    -0.507 OA
ATOM     26  H   UNL     1     -16.829  12.699 -25.637  1.00  0.00     0.293 HD
ENDBRANCH   5  25
BRANCH   7  27
ATOM     27  O   UNL     1     -21.400  14.983 -24.342  1.00  0.00    -0.507 OA
ATOM     28  H   UNL     1     -21.859  15.843 -24.078  1.00  0.00     0.293 HD
ENDBRANCH   7  27
TORSDOF 7
ENDMDL
MODEL 9
REMARK VINA RESULT:    -3.720      1.584      7.016
REMARK INTER + INTRA:          -4.921
REMARK INTER:                  -4.719
REMARK INTRA:                  -0.203
REMARK UNBOUND:                -0.331
REMARK SMILES Oc1cc(O)c2cc(O)c(-c3cc(O)c(O)c(O)c3)[o+]c2c1
REMARK SMILES IDX 10 1 20 2 21 3 22 4 2 5 3 6 4 7 6 8 7 9 8 10 11 11 12 12
REMARK SMILES IDX 13 13 19 14 15 15 17 16 14 17 16 19 18 21 9 23 1 25 5 27
REMARK H PARENT 14 18 16 20 18 22 9 24 1 26 5 28
REMARK Flexibility Score: inf
ROOT
ATOM      1  C   UNL     1     -20.636  13.722 -18.587  1.00  0.00     0.402 A 
ATOM      2  O   UNL     1     -21.722  14.287 -18.067  1.00  0.00    -0.202 OA
ATOM      3  C   UNL     1     -22.260  13.911 -16.912  1.00  0.00     0.368 A 
ATOM      4  C   UNL     1     -23.402  14.567 -16.447  1.00  0.00     0.162 A 
ATOM      5  C   UNL     1     -23.986  14.193 -15.232  1.00  0.00     0.128 A 
ATOM      6  C   UNL     1     -23.424  13.159 -14.481  1.00  0.00     0.093 A 
ATOM      7  C   UNL     1     -22.279  12.485 -14.925  1.00  0.00     0.136 A 
ATOM      8  C   UNL     1     -21.685  12.860 -16.157  1.00  0.00     0.125 A 
ATOM      9  C   UNL     1     -20.546  12.232 -16.687  1.00  0.00     0.078 A 
ATOM     10  C   UNL     1     -20.019  12.653 -17.911  1.00  0.00     0.223 A 
ENDROOT
BRANCH   1  11
ATOM     11  C   UNL     1     -20.128  14.238 -19.878  1.00  0.00     0.091 A 
ATOM     12  C   UNL     1     -20.978  14.264 -20.993  1.00  0.00     0.068 A 
ATOM     13  C   UNL     1     -20.527  14.767 -22.223  1.00  0.00     0.162 A 
ATOM     14  C   UNL     1     -18.826  14.756 -19.998  1.00  0.00     0.068 A 
ATOM     15  C   UNL     1     -19.223  15.262 -22.340  1.00  0.00     0.200 A 
ATOM     16  C   UNL     1     -18.371  15.261 -21.224  1.00  0.00     0.162 A 
BRANCH  13  17
ATOM     17  O   UNL     1     -21.372  14.776 -23.331  1.00  0.00    -0.504 OA
ATOM     18  H   UNL     1     -21.010  14.847 -24.274  1.00  0.00     0.293 HD
ENDBRANCH  13  17
BRANCH  15  19
ATOM     19  O   UNL     1     -18.790  15.755 -23.573  1.00  0.00    -0.502 OA
ATOM     20  H   UNL     1     -19.128  16.631 -23.951  1.00  0.00     0.293 HD
ENDBRANCH  15  19
BRANCH  16  21
ATOM     21  O   UNL     1     -17.076  15.766 -21.334  1.00  0.00    -0.504 OA
ATOM     22  H   UNL     1     -16.685  16.038 -22.228  1.00  0.00     0.293 HD
ENDBRANCH  16  21
ENDBRANCH   1  11
BRANCH  10  23
ATOM     23  O   UNL     1     -18.917  11.998 -18.462  1.00  0.00    -0.500 OA
ATOM     24  H   UNL     1     -17.976  12.360 -18.361  1.00  0.00     0.294 HD
ENDBRANCH  10  23
BRANCH   5  25
ATOM     25  O   UNL     1     -25.125  14.844 -14.763  1.00  0.00    -0.507 OA
ATOM     26  H   UNL     1     -25.337  14.892 -13.774  1.00  0.00     0.293 HD
ENDBRANCH   5  25
BRANCH   7  27
ATOM     27  O   UNL     1     -21.778  11.464 -14.113  1.00  0.00    -0.507 OA
ATOM     28  H   UNL     1     -22.291  10.632 -13.860  1.00  0.00     0.293 HD
ENDBRANCH   7  27
TORSDOF 7
ENDMDL
