MODEL 1
REMARK VINA RESULT:    -4.927      0.000      0.000
REMARK INTER + INTRA:         -14.355
REMARK INTER:                 -11.264
REMARK INTRA:                  -3.090
REMARK UNBOUND:                -3.090
REMARK SMILES CCCCCCCCCCCCCCCCCCCCCCCC(=O)[O-]
REMARK SMILES IDX 13 1 14 2 15 3 16 4 17 5 18 6 19 7 20 8 21 9 22 10 23 11
REMARK SMILES IDX 24 12 25 13 26 14 12 15 11 16 10 17 9 18 8 19 7 20 6 21 5 22
REMARK SMILES IDX 4 23 3 24 2 25 1 26
REMARK H PARENT
REMARK Flexibility Score: inf
ROOT
ATOM      1  C   UNL     1      -9.350   3.460  -8.925  1.00  0.00     0.000 C 
ENDROOT
BRANCH   1   2
ATOM      2  C   UNL     1     -10.632   2.616  -8.820  1.00  0.00     0.000 C 
BRANCH   2   3
ATOM      3  C   UNL     1     -11.882   3.469  -8.555  1.00  0.00     0.000 C 
BRANCH   3   4
ATOM      4  C   UNL     1     -13.116   2.968  -9.328  1.00  0.00     0.000 C 
BRANCH   4   5
ATOM      5  C   UNL     1     -12.765   1.918 -10.402  1.00  0.00     0.000 C 
BRANCH   5   6
ATOM      6  C   UNL     1     -12.748   2.473 -11.840  1.00  0.00     0.000 C 
BRANCH   6   7
ATOM      7  C   UNL     1     -11.413   3.089 -12.298  1.00  0.00     0.000 C 
BRANCH   7   8
ATOM      8  C   UNL     1     -11.488   4.560 -12.752  1.00  0.00     0.000 C 
BRANCH   8   9
ATOM      9  C   UNL     1     -12.337   5.434 -11.812  1.00  0.00     0.000 C 
BRANCH   9  10
ATOM     10  C   UNL     1     -11.480   6.296 -10.868  1.00  0.00     0.006 C 
BRANCH  10  11
ATOM     11  C   UNL     1     -10.020   6.471 -11.318  1.00  0.00     0.053 C 
BRANCH  11  12
ATOM     12  C   UNL     1      -9.725   7.875 -11.753  1.00  0.00     0.041 C 
ATOM     13  O   UNL     1      -9.406   8.748 -10.902  1.00  0.00    -0.550 OA
ATOM     14  O   UNL     1      -9.759   8.211 -13.101  1.00  0.00    -0.550 OA
ENDBRANCH  11  12
ENDBRANCH  10  11
ENDBRANCH   9  10
ENDBRANCH   8   9
ENDBRANCH   7   8
ENDBRANCH   6   7
ENDBRANCH   5   6
ENDBRANCH   4   5
ENDBRANCH   3   4
ENDBRANCH   2   3
ENDBRANCH   1   2
BRANCH   1  15
ATOM     15  C   UNL     1      -9.423   4.758  -8.101  1.00  0.00     0.000 C 
BRANCH  15  16
ATOM     16  C   UNL     1      -8.074   5.480  -7.906  1.00  0.00     0.000 C 
BRANCH  16  17
ATOM     17  C   UNL     1      -8.101   6.995  -8.175  1.00  0.00     0.000 C 
BRANCH  17  18
ATOM     18  C   UNL     1      -6.759   7.676  -7.875  1.00  0.00    -0.000 C 
BRANCH  18  19
ATOM     19  C   UNL     1      -6.136   8.254  -9.154  1.00  0.00    -0.000 C 
BRANCH  19  20
ATOM     20  C   UNL     1      -5.387   7.179  -9.973  1.00  0.00    -0.000 C 
BRANCH  20  21
ATOM     21  C   UNL     1      -5.877   7.063 -11.427  1.00  0.00    -0.000 C 
BRANCH  21  22
ATOM     22  C   UNL     1      -4.729   7.118 -12.448  1.00  0.00    -0.000 C 
BRANCH  22  23
ATOM     23  C   UNL     1      -3.346   7.273 -11.790  1.00  0.00    -0.000 C 
BRANCH  23  24
ATOM     24  C   UNL     1      -2.178   7.514 -12.766  1.00  0.00    -0.000 C 
BRANCH  24  25
ATOM     25  C   UNL     1      -1.875   9.003 -12.981  1.00  0.00    -0.003 C 
ATOM     26  C   UNL     1      -2.405   9.482 -14.330  1.00  0.00     0.004 C 
ENDBRANCH  24  25
ENDBRANCH  23  24
ENDBRANCH  22  23
ENDBRANCH  21  22
ENDBRANCH  20  21
ENDBRANCH  19  20
ENDBRANCH  18  19
ENDBRANCH  17  18
ENDBRANCH  16  17
ENDBRANCH  15  16
ENDBRANCH   1  15
TORSDOF 22
ENDMDL
MODEL 2
REMARK VINA RESULT:    -4.620      1.741      3.316
REMARK INTER + INTRA:         -13.653
REMARK INTER:                 -11.052
REMARK INTRA:                  -2.600
REMARK UNBOUND:                -3.090
REMARK SMILES CCCCCCCCCCCCCCCCCCCCCCCC(=O)[O-]
REMARK SMILES IDX 13 1 14 2 15 3 16 4 17 5 18 6 19 7 20 8 21 9 22 10 23 11
REMARK SMILES IDX 24 12 25 13 26 14 12 15 11 16 10 17 9 18 8 19 7 20 6 21 5 22
REMARK SMILES IDX 4 23 3 24 2 25 1 26
REMARK H PARENT
REMARK Flexibility Score: inf
ROOT
ATOM      1  C   UNL     1     -10.379   6.718 -11.082  1.00  0.00     0.000 C 
ENDROOT
BRANCH   1   2
ATOM      2  C   UNL     1     -11.812   6.766 -11.640  1.00  0.00     0.000 C 
BRANCH   2   3
ATOM      3  C   UNL     1     -12.604   5.483 -11.348  1.00  0.00     0.000 C 
BRANCH   3   4
ATOM      4  C   UNL     1     -12.905   5.301  -9.849  1.00  0.00     0.000 C 
BRANCH   4   5
ATOM      5  C   UNL     1     -12.872   3.823  -9.406  1.00  0.00     0.000 C 
BRANCH   5   6
ATOM      6  C   UNL     1     -11.625   3.443  -8.583  1.00  0.00     0.000 C 
BRANCH   6   7
ATOM      7  C   UNL     1     -10.550   2.641  -9.340  1.00  0.00     0.000 C 
BRANCH   7   8
ATOM      8  C   UNL     1      -9.284   3.433  -9.721  1.00  0.00     0.000 C 
BRANCH   8   9
ATOM      9  C   UNL     1      -8.834   3.179 -11.170  1.00  0.00     0.000 C 
BRANCH   9  10
ATOM     10  C   UNL     1     -10.019   3.011 -12.140  1.00  0.00     0.006 C 
BRANCH  10  11
ATOM     11  C   UNL     1      -9.616   2.618 -13.570  1.00  0.00     0.053 C 
BRANCH  11  12
ATOM     12  C   UNL     1      -9.759   3.758 -14.533  1.00  0.00     0.041 C 
ATOM     13  O   UNL     1     -10.472   4.753 -14.235  1.00  0.00    -0.550 OA
ATOM     14  O   UNL     1      -9.070   3.743 -15.741  1.00  0.00    -0.550 OA
ENDBRANCH  11  12
ENDBRANCH  10  11
ENDBRANCH   9  10
ENDBRANCH   8   9
ENDBRANCH   7   8
ENDBRANCH   6   7
ENDBRANCH   5   6
ENDBRANCH   4   5
ENDBRANCH   3   4
ENDBRANCH   2   3
ENDBRANCH   1   2
BRANCH   1  15
ATOM     15  C   UNL     1      -9.676   8.086 -11.130  1.00  0.00     0.000 C 
BRANCH  15  16
ATOM     16  C   UNL     1      -9.014   8.523  -9.806  1.00  0.00     0.000 C 
BRANCH  16  17
ATOM     17  C   UNL     1      -8.248   7.413  -9.064  1.00  0.00     0.000 C 
BRANCH  17  18
ATOM     18  C   UNL     1      -6.846   7.852  -8.620  1.00  0.00    -0.000 C 
BRANCH  18  19
ATOM     19  C   UNL     1      -6.037   8.393  -9.808  1.00  0.00    -0.000 C 
BRANCH  19  20
ATOM     20  C   UNL     1      -5.868   7.341 -10.925  1.00  0.00    -0.000 C 
BRANCH  20  21
ATOM     21  C   UNL     1      -4.706   7.646 -11.886  1.00  0.00    -0.000 C 
BRANCH  21  22
ATOM     22  C   UNL     1      -3.350   7.153 -11.356  1.00  0.00    -0.000 C 
BRANCH  22  23
ATOM     23  C   UNL     1      -2.192   7.410 -12.337  1.00  0.00    -0.000 C 
BRANCH  23  24
ATOM     24  C   UNL     1      -1.899   8.893 -12.632  1.00  0.00    -0.000 C 
BRANCH  24  25
ATOM     25  C   UNL     1      -2.255   9.299 -14.069  1.00  0.00    -0.003 C 
ATOM     26  C   UNL     1      -2.627   8.080 -14.909  1.00  0.00     0.004 C 
ENDBRANCH  24  25
ENDBRANCH  23  24
ENDBRANCH  22  23
ENDBRANCH  21  22
ENDBRANCH  20  21
ENDBRANCH  19  20
ENDBRANCH  18  19
ENDBRANCH  17  18
ENDBRANCH  16  17
ENDBRANCH  15  16
ENDBRANCH   1  15
TORSDOF 22
ENDMDL
MODEL 3
REMARK VINA RESULT:    -4.573     10.868     16.697
REMARK INTER + INTRA:         -13.545
REMARK INTER:                 -10.731
REMARK INTRA:                  -2.814
REMARK UNBOUND:                -3.090
REMARK SMILES CCCCCCCCCCCCCCCCCCCCCCCC(=O)[O-]
REMARK SMILES IDX 13 1 14 2 15 3 16 4 17 5 18 6 19 7 20 8 21 9 22 10 23 11
REMARK SMILES IDX 24 12 25 13 26 14 12 15 11 16 10 17 9 18 8 19 7 20 6 21 5 22
REMARK SMILES IDX 4 23 3 24 2 25 1 26
REMARK H PARENT
REMARK Flexibility Score: inf
ROOT
ATOM      1  C   UNL     1       6.027   5.403 -21.080  1.00  0.00     0.000 C 
ENDROOT
BRANCH   1   2
ATOM      2  C   UNL     1       5.070   5.655 -19.902  1.00  0.00     0.000 C 
BRANCH   2   3
ATOM      3  C   UNL     1       3.596   5.690 -20.333  1.00  0.00     0.000 C 
BRANCH   3   4
ATOM      4  C   UNL     1       2.630   5.764 -19.136  1.00  0.00     0.000 C 
BRANCH   4   5
ATOM      5  C   UNL     1       1.250   6.341 -19.514  1.00  0.00     0.000 C 
BRANCH   5   6
ATOM      6  C   UNL     1       1.224   7.065 -20.875  1.00  0.00     0.000 C 
BRANCH   6   7
ATOM      7  C   UNL     1      -0.165   7.524 -21.356  1.00  0.00     0.000 C 
BRANCH   7   8
ATOM      8  C   UNL     1      -1.359   6.931 -20.583  1.00  0.00     0.000 C 
BRANCH   8   9
ATOM      9  C   UNL     1      -2.173   7.996 -19.828  1.00  0.00     0.000 C 
BRANCH   9  10
ATOM     10  C   UNL     1      -1.891   7.996 -18.314  1.00  0.00     0.006 C 
BRANCH  10  11
ATOM     11  C   UNL     1      -2.603   9.115 -17.537  1.00  0.00     0.053 C 
BRANCH  11  12
ATOM     12  C   UNL     1      -4.071   8.851 -17.381  1.00  0.00     0.041 C 
ATOM     13  O   UNL     1      -4.473   7.952 -16.596  1.00  0.00    -0.550 OA
ATOM     14  O   UNL     1      -4.997   9.627 -18.070  1.00  0.00    -0.550 OA
ENDBRANCH  11  12
ENDBRANCH  10  11
ENDBRANCH   9  10
ENDBRANCH   8   9
ENDBRANCH   7   8
ENDBRANCH   6   7
ENDBRANCH   5   6
ENDBRANCH   4   5
ENDBRANCH   3   4
ENDBRANCH   2   3
ENDBRANCH   1   2
BRANCH   1  15
ATOM     15  C   UNL     1       5.828   6.404 -22.232  1.00  0.00     0.000 C 
BRANCH  15  16
ATOM     16  C   UNL     1       6.920   6.365 -23.322  1.00  0.00     0.000 C 
BRANCH  16  17
ATOM     17  C   UNL     1       7.034   7.641 -24.175  1.00  0.00     0.000 C 
BRANCH  17  18
ATOM     18  C   UNL     1       5.900   7.774 -25.200  1.00  0.00    -0.000 C 
BRANCH  18  19
ATOM     19  C   UNL     1       6.403   7.478 -26.620  1.00  0.00    -0.000 C 
BRANCH  19  20
ATOM     20  C   UNL     1       5.689   6.260 -27.248  1.00  0.00    -0.000 C 
BRANCH  20  21
ATOM     21  C   UNL     1       6.168   4.911 -26.685  1.00  0.00    -0.000 C 
BRANCH  21  22
ATOM     22  C   UNL     1       5.007   3.984 -26.290  1.00  0.00    -0.000 C 
BRANCH  22  23
ATOM     23  C   UNL     1       4.885   3.787 -24.769  1.00  0.00    -0.000 C 
BRANCH  23  24
ATOM     24  C   UNL     1       3.533   4.204 -24.159  1.00  0.00    -0.000 C 
BRANCH  24  25
ATOM     25  C   UNL     1       3.129   5.639 -24.524  1.00  0.00    -0.003 C 
ATOM     26  C   UNL     1       1.898   5.651 -25.426  1.00  0.00     0.004 C 
ENDBRANCH  24  25
ENDBRANCH  23  24
ENDBRANCH  22  23
ENDBRANCH  21  22
ENDBRANCH  20  21
ENDBRANCH  19  20
ENDBRANCH  18  19
ENDBRANCH  17  18
ENDBRANCH  16  17
ENDBRANCH  15  16
ENDBRANCH   1  15
TORSDOF 22
ENDMDL
MODEL 4
REMARK VINA RESULT:    -4.570      2.988      7.651
REMARK INTER + INTRA:         -13.538
REMARK INTER:                 -10.270
REMARK INTRA:                  -3.268
REMARK UNBOUND:                -3.090
REMARK SMILES CCCCCCCCCCCCCCCCCCCCCCCC(=O)[O-]
REMARK SMILES IDX 13 1 14 2 15 3 16 4 17 5 18 6 19 7 20 8 21 9 22 10 23 11
REMARK SMILES IDX 24 12 25 13 26 14 12 15 11 16 10 17 9 18 8 19 7 20 6 21 5 22
REMARK SMILES IDX 4 23 3 24 2 25 1 26
REMARK H PARENT
REMARK Flexibility Score: inf
ROOT
ATOM      1  C   UNL     1     -10.692   6.888 -10.534  1.00  0.00     0.000 C 
ENDROOT
BRANCH   1   2
ATOM      2  C   UNL     1      -9.758   7.880 -11.249  1.00  0.00     0.000 C 
BRANCH   2   3
ATOM      3  C   UNL     1      -8.921   8.717 -10.271  1.00  0.00     0.000 C 
BRANCH   3   4
ATOM      4  C   UNL     1      -8.342   7.876  -9.118  1.00  0.00     0.000 C 
BRANCH   4   5
ATOM      5  C   UNL     1      -6.800   7.910  -9.067  1.00  0.00     0.000 C 
BRANCH   5   6
ATOM      6  C   UNL     1      -6.139   8.381 -10.377  1.00  0.00     0.000 C 
BRANCH   6   7
ATOM      7  C   UNL     1      -5.703   7.261 -11.340  1.00  0.00     0.000 C 
BRANCH   7   8
ATOM      8  C   UNL     1      -4.180   7.092 -11.506  1.00  0.00     0.000 C 
BRANCH   8   9
ATOM      9  C   UNL     1      -3.559   8.143 -12.442  1.00  0.00     0.000 C 
BRANCH   9  10
ATOM     10  C   UNL     1      -2.022   8.056 -12.497  1.00  0.00     0.006 C 
BRANCH  10  11
ATOM     11  C   UNL     1      -1.425   6.887 -11.698  1.00  0.00     0.053 C 
BRANCH  11  12
ATOM     12  C   UNL     1      -0.568   7.356 -10.560  1.00  0.00     0.041 C 
ATOM     13  O   UNL     1       0.001   8.478 -10.618  1.00  0.00    -0.550 OA
ATOM     14  O   UNL     1      -0.433   6.574  -9.419  1.00  0.00    -0.550 OA
ENDBRANCH  11  12
ENDBRANCH  10  11
ENDBRANCH   9  10
ENDBRANCH   8   9
ENDBRANCH   7   8
ENDBRANCH   6   7
ENDBRANCH   5   6
ENDBRANCH   4   5
ENDBRANCH   3   4
ENDBRANCH   2   3
ENDBRANCH   1   2
BRANCH   1  15
ATOM     15  C   UNL     1     -12.066   6.766 -11.216  1.00  0.00     0.000 C 
BRANCH  15  16
ATOM     16  C   UNL     1     -13.097   5.910 -10.451  1.00  0.00     0.000 C 
BRANCH  16  17
ATOM     17  C   UNL     1     -12.753   4.414 -10.350  1.00  0.00     0.000 C 
BRANCH  17  18
ATOM     18  C   UNL     1     -12.384   3.983  -8.924  1.00  0.00    -0.000 C 
BRANCH  18  19
ATOM     19  C   UNL     1     -11.375   2.825  -8.942  1.00  0.00    -0.000 C 
BRANCH  19  20
ATOM     20  C   UNL     1     -10.010   3.235  -8.346  1.00  0.00    -0.000 C 
BRANCH  20  21
ATOM     21  C   UNL     1      -8.822   2.950  -9.281  1.00  0.00    -0.000 C 
BRANCH  21  22
ATOM     22  C   UNL     1      -8.020   4.215  -9.628  1.00  0.00    -0.000 C 
BRANCH  22  23
ATOM     23  C   UNL     1      -8.028   4.538 -11.133  1.00  0.00    -0.000 C 
BRANCH  23  24
ATOM     24  C   UNL     1      -8.579   3.422 -12.040  1.00  0.00    -0.000 C 
BRANCH  24  25
ATOM     25  C   UNL     1      -9.909   3.796 -12.710  1.00  0.00    -0.003 C 
ATOM     26  C   UNL     1     -10.878   2.618 -12.702  1.00  0.00     0.004 C 
ENDBRANCH  24  25
ENDBRANCH  23  24
ENDBRANCH  22  23
ENDBRANCH  21  22
ENDBRANCH  20  21
ENDBRANCH  19  20
ENDBRANCH  18  19
ENDBRANCH  17  18
ENDBRANCH  16  17
ENDBRANCH  15  16
ENDBRANCH   1  15
TORSDOF 22
ENDMDL
MODEL 5
REMARK VINA RESULT:    -4.541      2.502      8.164
REMARK INTER + INTRA:         -13.471
REMARK INTER:                 -10.177
REMARK INTRA:                  -3.294
REMARK UNBOUND:                -3.090
REMARK SMILES CCCCCCCCCCCCCCCCCCCCCCCC(=O)[O-]
REMARK SMILES IDX 13 1 14 2 15 3 16 4 17 5 18 6 19 7 20 8 21 9 22 10 23 11
REMARK SMILES IDX 24 12 25 13 26 14 12 15 11 16 10 17 9 18 8 19 7 20 6 21 5 22
REMARK SMILES IDX 4 23 3 24 2 25 1 26
REMARK H PARENT
REMARK Flexibility Score: inf
ROOT
ATOM      1  C   UNL     1      -7.991   7.147  -8.196  1.00  0.00     0.000 C 
ENDROOT
BRANCH   1   2
ATOM      2  C   UNL     1      -6.540   7.604  -8.422  1.00  0.00     0.000 C 
BRANCH   2   3
ATOM      3  C   UNL     1      -6.405   8.589  -9.593  1.00  0.00     0.000 C 
BRANCH   3   4
ATOM      4  C   UNL     1      -5.749   7.950 -10.831  1.00  0.00     0.000 C 
BRANCH   4   5
ATOM      5  C   UNL     1      -4.783   6.801 -10.473  1.00  0.00     0.000 C 
BRANCH   5   6
ATOM      6  C   UNL     1      -3.885   6.349 -11.641  1.00  0.00     0.000 C 
BRANCH   6   7
ATOM      7  C   UNL     1      -3.584   7.425 -12.701  1.00  0.00     0.000 C 
BRANCH   7   8
ATOM      8  C   UNL     1      -2.102   7.826 -12.830  1.00  0.00     0.000 C 
BRANCH   8   9
ATOM      9  C   UNL     1      -1.911   9.218 -13.456  1.00  0.00     0.000 C 
BRANCH   9  10
ATOM     10  C   UNL     1      -2.878   9.481 -14.625  1.00  0.00     0.006 C 
BRANCH  10  11
ATOM     11  C   UNL     1      -2.630   8.604 -15.863  1.00  0.00     0.053 C 
BRANCH  11  12
ATOM     12  C   UNL     1      -3.253   9.180 -17.100  1.00  0.00     0.041 C 
ATOM     13  O   UNL     1      -2.544   9.418 -18.113  1.00  0.00    -0.550 OA
ATOM     14  O   UNL     1      -4.623   9.412 -17.149  1.00  0.00    -0.550 OA
ENDBRANCH  11  12
ENDBRANCH  10  11
ENDBRANCH   9  10
ENDBRANCH   8   9
ENDBRANCH   7   8
ENDBRANCH   6   7
ENDBRANCH   5   6
ENDBRANCH   4   5
ENDBRANCH   3   4
ENDBRANCH   2   3
ENDBRANCH   1   2
BRANCH   1  15
ATOM     15  C   UNL     1      -8.119   5.619  -8.062  1.00  0.00     0.000 C 
BRANCH  15  16
ATOM     16  C   UNL     1      -7.640   4.817  -9.291  1.00  0.00     0.000 C 
BRANCH  16  17
ATOM     17  C   UNL     1      -8.649   4.740 -10.451  1.00  0.00     0.000 C 
BRANCH  17  18
ATOM     18  C   UNL     1      -8.076   5.268 -11.773  1.00  0.00    -0.000 C 
BRANCH  18  19
ATOM     19  C   UNL     1      -8.983   6.354 -12.371  1.00  0.00    -0.000 C 
BRANCH  19  20
ATOM     20  C   UNL     1      -9.493   7.341 -11.299  1.00  0.00    -0.000 C 
BRANCH  20  21
ATOM     21  C   UNL     1     -11.028   7.414 -11.213  1.00  0.00    -0.000 C 
BRANCH  21  22
ATOM     22  C   UNL     1     -11.726   6.453 -12.189  1.00  0.00    -0.000 C 
BRANCH  22  23
ATOM     23  C   UNL     1     -12.398   5.262 -11.483  1.00  0.00    -0.000 C 
BRANCH  23  24
ATOM     24  C   UNL     1     -12.411   5.333  -9.944  1.00  0.00    -0.000 C 
BRANCH  24  25
ATOM     25  C   UNL     1     -12.322   3.953  -9.280  1.00  0.00    -0.003 C 
ATOM     26  C   UNL     1     -11.366   3.976  -8.090  1.00  0.00     0.004 C 
ENDBRANCH  24  25
ENDBRANCH  23  24
ENDBRANCH  22  23
ENDBRANCH  21  22
ENDBRANCH  20  21
ENDBRANCH  19  20
ENDBRANCH  18  19
ENDBRANCH  17  18
ENDBRANCH  16  17
ENDBRANCH  15  16
ENDBRANCH   1  15
TORSDOF 22
ENDMDL
MODEL 6
REMARK VINA RESULT:    -4.526      2.448      4.250
REMARK INTER + INTRA:         -13.438
REMARK INTER:                 -11.891
REMARK INTRA:                  -1.547
REMARK UNBOUND:                -3.090
REMARK SMILES CCCCCCCCCCCCCCCCCCCCCCCC(=O)[O-]
REMARK SMILES IDX 13 1 14 2 15 3 16 4 17 5 18 6 19 7 20 8 21 9 22 10 23 11
REMARK SMILES IDX 24 12 25 13 26 14 12 15 11 16 10 17 9 18 8 19 7 20 6 21 5 22
REMARK SMILES IDX 4 23 3 24 2 25 1 26
REMARK H PARENT
REMARK Flexibility Score: inf
ROOT
ATOM      1  C   UNL     1      -9.720   7.911 -10.520  1.00  0.00     0.000 C 
ENDROOT
BRANCH   1   2
ATOM      2  C   UNL     1     -10.462   7.152 -11.634  1.00  0.00     0.000 C 
BRANCH   2   3
ATOM      3  C   UNL     1     -11.868   6.703 -11.209  1.00  0.00     0.000 C 
BRANCH   3   4
ATOM      4  C   UNL     1     -12.374   5.495 -12.019  1.00  0.00     0.000 C 
BRANCH   4   5
ATOM      5  C   UNL     1     -12.370   4.183 -11.206  1.00  0.00     0.000 C 
BRANCH   5   6
ATOM      6  C   UNL     1     -12.831   4.349  -9.745  1.00  0.00     0.000 C 
BRANCH   6   7
ATOM      7  C   UNL     1     -11.910   3.718  -8.683  1.00  0.00     0.000 C 
BRANCH   7   8
ATOM      8  C   UNL     1     -12.179   2.232  -8.379  1.00  0.00     0.000 C 
BRANCH   8   9
ATOM      9  C   UNL     1     -10.901   1.454  -8.021  1.00  0.00     0.000 C 
BRANCH   9  10
ATOM     10  C   UNL     1      -9.642   2.042  -8.684  1.00  0.00     0.006 C 
BRANCH  10  11
ATOM     11  C   UNL     1      -8.428   1.099  -8.689  1.00  0.00     0.053 C 
BRANCH  11  12
ATOM     12  C   UNL     1      -7.462   1.423  -9.789  1.00  0.00     0.041 C 
ATOM     13  O   UNL     1      -6.808   0.503 -10.349  1.00  0.00    -0.550 OA
ATOM     14  O   UNL     1      -7.316   2.734 -10.227  1.00  0.00    -0.550 OA
ENDBRANCH  11  12
ENDBRANCH  10  11
ENDBRANCH   9  10
ENDBRANCH   8   9
ENDBRANCH   7   8
ENDBRANCH   6   7
ENDBRANCH   5   6
ENDBRANCH   4   5
ENDBRANCH   3   4
ENDBRANCH   2   3
ENDBRANCH   1   2
BRANCH   1  15
ATOM     15  C   UNL     1      -8.928   6.977  -9.589  1.00  0.00     0.000 C 
BRANCH  15  16
ATOM     16  C   UNL     1      -8.122   7.692  -8.484  1.00  0.00     0.000 C 
BRANCH  16  17
ATOM     17  C   UNL     1      -6.594   7.641  -8.657  1.00  0.00     0.000 C 
BRANCH  17  18
ATOM     18  C   UNL     1      -6.137   8.094 -10.051  1.00  0.00    -0.000 C 
BRANCH  18  19
ATOM     19  C   UNL     1      -5.826   6.886 -10.948  1.00  0.00    -0.000 C 
BRANCH  19  20
ATOM     20  C   UNL     1      -4.814   7.235 -12.061  1.00  0.00    -0.000 C 
BRANCH  20  21
ATOM     21  C   UNL     1      -3.373   7.406 -11.549  1.00  0.00    -0.000 C 
BRANCH  21  22
ATOM     22  C   UNL     1      -2.343   7.492 -12.687  1.00  0.00    -0.000 C 
BRANCH  22  23
ATOM     23  C   UNL     1      -1.822   8.922 -12.920  1.00  0.00    -0.000 C 
BRANCH  23  24
ATOM     24  C   UNL     1      -2.308   9.594 -14.217  1.00  0.00    -0.000 C 
BRANCH  24  25
ATOM     25  C   UNL     1      -2.562   8.593 -15.353  1.00  0.00    -0.003 C 
ATOM     26  C   UNL     1      -2.844   9.314 -16.668  1.00  0.00     0.004 C 
ENDBRANCH  24  25
ENDBRANCH  23  24
ENDBRANCH  22  23
ENDBRANCH  21  22
ENDBRANCH  20  21
ENDBRANCH  19  20
ENDBRANCH  18  19
ENDBRANCH  17  18
ENDBRANCH  16  17
ENDBRANCH  15  16
ENDBRANCH   1  15
TORSDOF 22
ENDMDL
MODEL 7
REMARK VINA RESULT:    -4.494      1.986      3.376
REMARK INTER + INTRA:         -13.364
REMARK INTER:                 -10.724
REMARK INTRA:                  -2.640
REMARK UNBOUND:                -3.090
REMARK SMILES CCCCCCCCCCCCCCCCCCCCCCCC(=O)[O-]
REMARK SMILES IDX 13 1 14 2 15 3 16 4 17 5 18 6 19 7 20 8 21 9 22 10 23 11
REMARK SMILES IDX 24 12 25 13 26 14 12 15 11 16 10 17 9 18 8 19 7 20 6 21 5 22
REMARK SMILES IDX 4 23 3 24 2 25 1 26
REMARK H PARENT
REMARK Flexibility Score: inf
ROOT
ATOM      1  C   UNL     1     -10.993   5.229  -9.517  1.00  0.00     0.000 C 
ENDROOT
BRANCH   1   2
ATOM      2  C   UNL     1     -12.380   4.564  -9.541  1.00  0.00     0.000 C 
BRANCH   2   3
ATOM      3  C   UNL     1     -12.566   3.626 -10.743  1.00  0.00     0.000 C 
BRANCH   3   4
ATOM      4  C   UNL     1     -12.649   2.144 -10.332  1.00  0.00     0.000 C 
BRANCH   4   5
ATOM      5  C   UNL     1     -12.547   1.939  -8.806  1.00  0.00     0.000 C 
BRANCH   5   6
ATOM      6  C   UNL     1     -11.335   1.095  -8.366  1.00  0.00     0.000 C 
BRANCH   6   7
ATOM      7  C   UNL     1      -9.987   1.839  -8.327  1.00  0.00     0.000 C 
BRANCH   7   8
ATOM      8  C   UNL     1      -8.757   0.995  -8.711  1.00  0.00     0.000 C 
BRANCH   8   9
ATOM      9  C   UNL     1      -7.853   1.689  -9.744  1.00  0.00     0.000 C 
BRANCH   9  10
ATOM     10  C   UNL     1      -8.546   2.877 -10.436  1.00  0.00     0.006 C 
BRANCH  10  11
ATOM     11  C   UNL     1      -9.065   2.572 -11.850  1.00  0.00     0.053 C 
BRANCH  11  12
ATOM     12  C   UNL     1      -8.598   3.580 -12.857  1.00  0.00     0.041 C 
ATOM     13  O   UNL     1      -7.529   4.218 -12.664  1.00  0.00    -0.550 OA
ATOM     14  O   UNL     1      -9.319   3.784 -14.028  1.00  0.00    -0.550 OA
ENDBRANCH  11  12
ENDBRANCH  10  11
ENDBRANCH   9  10
ENDBRANCH   8   9
ENDBRANCH   7   8
ENDBRANCH   6   7
ENDBRANCH   5   6
ENDBRANCH   4   5
ENDBRANCH   3   4
ENDBRANCH   2   3
ENDBRANCH   1   2
BRANCH   1  15
ATOM     15  C   UNL     1     -10.624   5.884 -10.860  1.00  0.00     0.000 C 
BRANCH  15  16
ATOM     16  C   UNL     1     -10.704   7.425 -10.874  1.00  0.00     0.000 C 
BRANCH  16  17
ATOM     17  C   UNL     1      -9.351   8.148 -10.756  1.00  0.00     0.000 C 
BRANCH  17  18
ATOM     18  C   UNL     1      -8.685   7.946  -9.387  1.00  0.00    -0.000 C 
BRANCH  18  19
ATOM     19  C   UNL     1      -7.221   7.511  -9.545  1.00  0.00    -0.000 C 
BRANCH  19  20
ATOM     20  C   UNL     1      -6.359   8.604 -10.215  1.00  0.00    -0.000 C 
BRANCH  20  21
ATOM     21  C   UNL     1      -5.309   8.046 -11.190  1.00  0.00    -0.000 C 
BRANCH  21  22
ATOM     22  C   UNL     1      -4.485   6.896 -10.584  1.00  0.00    -0.000 C 
BRANCH  22  23
ATOM     23  C   UNL     1      -3.077   6.780 -11.193  1.00  0.00    -0.000 C 
BRANCH  23  24
ATOM     24  C   UNL     1      -2.925   7.359 -12.612  1.00  0.00    -0.000 C 
BRANCH  24  25
ATOM     25  C   UNL     1      -1.964   8.555 -12.672  1.00  0.00    -0.003 C 
ATOM     26  C   UNL     1      -2.129   9.328 -13.977  1.00  0.00     0.004 C 
ENDBRANCH  24  25
ENDBRANCH  23  24
ENDBRANCH  22  23
ENDBRANCH  21  22
ENDBRANCH  20  21
ENDBRANCH  19  20
ENDBRANCH  18  19
ENDBRANCH  17  18
ENDBRANCH  16  17
ENDBRANCH  15  16
ENDBRANCH   1  15
TORSDOF 22
ENDMDL
MODEL 8
REMARK VINA RESULT:    -4.475      4.973      6.520
REMARK INTER + INTRA:         -13.321
REMARK INTER:                 -11.674
REMARK INTRA:                  -1.647
REMARK UNBOUND:                -3.090
REMARK SMILES CCCCCCCCCCCCCCCCCCCCCCCC(=O)[O-]
REMARK SMILES IDX 13 1 14 2 15 3 16 4 17 5 18 6 19 7 20 8 21 9 22 10 23 11
REMARK SMILES IDX 24 12 25 13 26 14 12 15 11 16 10 17 9 18 8 19 7 20 6 21 5 22
REMARK SMILES IDX 4 23 3 24 2 25 1 26
REMARK H PARENT
REMARK Flexibility Score: inf
ROOT
ATOM      1  C   UNL     1     -11.035   2.117  -9.112  1.00  0.00     0.000 C 
ENDROOT
BRANCH   1   2
ATOM      2  C   UNL     1     -12.311   2.969  -9.003  1.00  0.00     0.000 C 
BRANCH   2   3
ATOM      3  C   UNL     1     -12.020   4.477  -9.036  1.00  0.00     0.000 C 
BRANCH   3   4
ATOM      4  C   UNL     1     -12.961   5.241  -9.987  1.00  0.00     0.000 C 
BRANCH   4   5
ATOM      5  C   UNL     1     -12.227   6.310 -10.825  1.00  0.00     0.000 C 
BRANCH   5   6
ATOM      6  C   UNL     1     -10.862   5.849 -11.372  1.00  0.00     0.000 C 
BRANCH   6   7
ATOM      7  C   UNL     1      -9.645   6.654 -10.880  1.00  0.00     0.000 C 
BRANCH   7   8
ATOM      8  C   UNL     1      -9.746   8.181 -11.065  1.00  0.00     0.000 C 
BRANCH   8   9
ATOM      9  C   UNL     1      -8.842   8.962 -10.096  1.00  0.00     0.000 C 
BRANCH   9  10
ATOM     10  C   UNL     1      -7.555   8.197  -9.736  1.00  0.00     0.006 C 
BRANCH  10  11
ATOM     11  C   UNL     1      -6.461   8.256 -10.814  1.00  0.00     0.053 C 
BRANCH  11  12
ATOM     12  C   UNL     1      -5.636   7.004 -10.854  1.00  0.00     0.041 C 
ATOM     13  O   UNL     1      -6.169   5.905 -11.159  1.00  0.00    -0.550 OA
ATOM     14  O   UNL     1      -4.270   7.059 -10.597  1.00  0.00    -0.550 OA
ENDBRANCH  11  12
ENDBRANCH  10  11
ENDBRANCH   9  10
ENDBRANCH   8   9
ENDBRANCH   7   8
ENDBRANCH   6   7
ENDBRANCH   5   6
ENDBRANCH   4   5
ENDBRANCH   3   4
ENDBRANCH   2   3
ENDBRANCH   1   2
BRANCH   1  15
ATOM     15  C   UNL     1      -9.896   2.842  -9.851  1.00  0.00     0.000 C 
BRANCH  15  16
ATOM     16  C   UNL     1      -8.532   2.122  -9.807  1.00  0.00     0.000 C 
BRANCH  16  17
ATOM     17  C   UNL     1      -8.366   1.111  -8.658  1.00  0.00     0.000 C 
BRANCH  17  18
ATOM     18  C   UNL     1      -7.600  -0.150  -9.081  1.00  0.00    -0.000 C 
BRANCH  18  19
ATOM     19  C   UNL     1      -6.300   0.215  -9.813  1.00  0.00    -0.000 C 
BRANCH  19  20
ATOM     20  C   UNL     1      -5.079  -0.536  -9.239  1.00  0.00    -0.000 C 
BRANCH  20  21
ATOM     21  C   UNL     1      -4.339  -1.392 -10.281  1.00  0.00    -0.000 C 
BRANCH  21  22
ATOM     22  C   UNL     1      -3.578  -0.546 -11.315  1.00  0.00    -0.000 C 
BRANCH  22  23
ATOM     23  C   UNL     1      -2.975  -1.388 -12.454  1.00  0.00    -0.000 C 
BRANCH  23  24
ATOM     24  C   UNL     1      -3.350  -2.881 -12.436  1.00  0.00    -0.000 C 
BRANCH  24  25
ATOM     25  C   UNL     1      -2.727  -3.670 -13.597  1.00  0.00    -0.003 C 
ATOM     26  C   UNL     1      -2.606  -2.803 -14.847  1.00  0.00     0.004 C 
ENDBRANCH  24  25
ENDBRANCH  23  24
ENDBRANCH  22  23
ENDBRANCH  21  22
ENDBRANCH  20  21
ENDBRANCH  19  20
ENDBRANCH  18  19
ENDBRANCH  17  18
ENDBRANCH  16  17
ENDBRANCH  15  16
ENDBRANCH   1  15
TORSDOF 22
ENDMDL
MODEL 9
REMARK VINA RESULT:    -4.466      2.285      3.850
REMARK INTER + INTRA:         -13.301
REMARK INTER:                 -10.459
REMARK INTRA:                  -2.841
REMARK UNBOUND:                -3.090
REMARK SMILES CCCCCCCCCCCCCCCCCCCCCCCC(=O)[O-]
REMARK SMILES IDX 13 1 14 2 15 3 16 4 17 5 18 6 19 7 20 8 21 9 22 10 23 11
REMARK SMILES IDX 24 12 25 13 26 14 12 15 11 16 10 17 9 18 8 19 7 20 6 21 5 22
REMARK SMILES IDX 4 23 3 24 2 25 1 26
REMARK H PARENT
REMARK Flexibility Score: inf
ROOT
ATOM      1  C   UNL     1      -9.761   8.185 -11.406  1.00  0.00     0.000 C 
ENDROOT
BRANCH   1   2
ATOM      2  C   UNL     1     -10.455   6.923 -10.866  1.00  0.00     0.000 C 
BRANCH   2   3
ATOM      3  C   UNL     1     -11.873   6.741 -11.427  1.00  0.00     0.000 C 
BRANCH   3   4
ATOM      4  C   UNL     1     -12.793   5.959 -10.472  1.00  0.00     0.000 C 
BRANCH   4   5
ATOM      5  C   UNL     1     -12.604   4.431 -10.575  1.00  0.00     0.000 C 
BRANCH   5   6
ATOM      6  C   UNL     1     -12.664   3.698  -9.220  1.00  0.00     0.000 C 
BRANCH   6   7
ATOM      7  C   UNL     1     -11.509   4.003  -8.249  1.00  0.00     0.000 C 
BRANCH   7   8
ATOM      8  C   UNL     1     -10.094   3.773  -8.816  1.00  0.00     0.000 C 
BRANCH   8   9
ATOM      9  C   UNL     1      -9.069   4.798  -8.301  1.00  0.00     0.000 C 
BRANCH   9  10
ATOM     10  C   UNL     1      -7.646   4.531  -8.826  1.00  0.00     0.006 C 
BRANCH  10  11
ATOM     11  C   UNL     1      -7.511   4.603 -10.355  1.00  0.00     0.053 C 
BRANCH  11  12
ATOM     12  C   UNL     1      -6.951   3.339 -10.936  1.00  0.00     0.041 C 
ATOM     13  O   UNL     1      -7.685   2.324 -11.068  1.00  0.00    -0.550 OA
ATOM     14  O   UNL     1      -5.632   3.295 -11.372  1.00  0.00    -0.550 OA
ENDBRANCH  11  12
ENDBRANCH  10  11
ENDBRANCH   9  10
ENDBRANCH   8   9
ENDBRANCH   7   8
ENDBRANCH   6   7
ENDBRANCH   5   6
ENDBRANCH   4   5
ENDBRANCH   3   4
ENDBRANCH   2   3
ENDBRANCH   1   2
BRANCH   1  15
ATOM     15  C   UNL     1      -9.029   8.978 -10.308  1.00  0.00     0.000 C 
BRANCH  15  16
ATOM     16  C   UNL     1      -7.992   8.166  -9.504  1.00  0.00     0.000 C 
BRANCH  16  17
ATOM     17  C   UNL     1      -6.537   8.646  -9.646  1.00  0.00     0.000 C 
BRANCH  17  18
ATOM     18  C   UNL     1      -5.514   7.567  -9.264  1.00  0.00    -0.000 C 
BRANCH  18  19
ATOM     19  C   UNL     1      -4.819   7.001 -10.511  1.00  0.00    -0.000 C 
BRANCH  19  20
ATOM     20  C   UNL     1      -3.663   6.044 -10.148  1.00  0.00    -0.000 C 
BRANCH  20  21
ATOM     21  C   UNL     1      -2.348   6.364 -10.880  1.00  0.00    -0.000 C 
BRANCH  21  22
ATOM     22  C   UNL     1      -2.363   5.921 -12.353  1.00  0.00    -0.000 C 
BRANCH  22  23
ATOM     23  C   UNL     1      -1.943   7.040 -13.322  1.00  0.00    -0.000 C 
BRANCH  23  24
ATOM     24  C   UNL     1      -2.122   8.473 -12.787  1.00  0.00    -0.000 C 
BRANCH  24  25
ATOM     25  C   UNL     1      -2.327   9.508 -13.902  1.00  0.00    -0.003 C 
ATOM     26  C   UNL     1      -2.771   8.838 -15.199  1.00  0.00     0.004 C 
ENDBRANCH  24  25
ENDBRANCH  23  24
ENDBRANCH  22  23
ENDBRANCH  21  22
ENDBRANCH  20  21
ENDBRANCH  19  20
ENDBRANCH  18  19
ENDBRANCH  17  18
ENDBRANCH  16  17
ENDBRANCH  15  16
ENDBRANCH   1  15
TORSDOF 22
ENDMDL
