MODEL 1
REMARK VINA RESULT:    -5.847      0.000      0.000
REMARK INTER + INTRA:          -6.625
REMARK INTER:                  -6.359
REMARK INTRA:                  -0.266
REMARK UNBOUND:                -0.266
REMARK SMILES C[C@H]1[C@@H](C)CC[C@@]2(C(=O)[O-])CC[C@@]3(C)C(=CC[C@@H]4[C@]5(C)CC[C@H](O)C(C)(C)[C@H]5CC[C@@]43C)[C@@H]12
REMARK SMILES IDX 7 1 6 2 11 3 33 4 5 5 12 6 15 7 2 8 3 9 13 10 16 11 1 12
REMARK SMILES IDX 4 13 14 14 31 15 17 16 18 17 30 18 32 19 19 20 29 21 28 22
REMARK SMILES IDX 21 23 20 24 25 25 22 26 23 27 26 28 27 29 8 30 9 31 10 32
REMARK SMILES IDX 24 33
REMARK H PARENT 24 34
REMARK Flexibility Score: inf
ROOT
ATOM      1  C   UNL     1      30.198  32.684  53.628  1.00  0.00     0.017 C 
ATOM      2  C   UNL     1      31.545  32.509  52.904  1.00  0.00     0.014 C 
ATOM      3  C   UNL     1      29.483  33.835  52.867  1.00  0.00     0.014 C 
ATOM      4  C   UNL     1      29.396  31.275  53.722  1.00  0.00     0.030 C 
ATOM      5  C   UNL     1      32.484  31.556  53.620  1.00  0.00     0.004 C 
ATOM      6  C   UNL     1      27.981  33.678  52.775  1.00  0.00     0.013 C 
ATOM      7  C   UNL     1      28.009  31.201  52.948  1.00  0.00    -0.063 C 
ATOM      8  C   UNL     1      30.384  29.966  53.667  1.00  0.00    -0.003 C 
ATOM      9  C   UNL     1      31.973  30.134  53.515  1.00  0.00    -0.011 C 
ATOM     10  C   UNL     1      27.555  32.351  52.037  1.00  0.00    -0.006 C 
ATOM     11  C   UNL     1      27.103  30.230  53.241  1.00  0.00    -0.027 C 
ATOM     12  C   UNL     1      29.908  28.720  52.903  1.00  0.00     0.008 C 
ATOM     13  C   UNL     1      32.757  29.385  52.376  1.00  0.00     0.008 C 
ATOM     14  C   UNL     1      28.341  32.152  50.699  1.00  0.00     0.017 C 
ATOM     15  C   UNL     1      25.937  32.355  51.838  1.00  0.00    -0.020 C 
ATOM     16  C   UNL     1      26.136  29.826  52.161  1.00  0.00     0.032 C 
ATOM     17  C   UNL     1      25.447  30.963  51.350  1.00  0.00     0.006 C 
ATOM     18  C   UNL     1      25.333  33.440  50.862  1.00  0.00     0.008 C 
ATOM     19  C   UNL     1      25.293  32.643  53.277  1.00  0.00     0.012 C 
ATOM     20  C   UNL     1      25.168  30.645  49.780  1.00  0.00    -0.025 C 
ATOM     21  C   UNL     1      25.339  33.278  49.326  1.00  0.00     0.005 C 
ATOM     22  C   UNL     1      25.556  31.848  48.812  1.00  0.00     0.003 C 
ATOM     23  C   UNL     1      25.887  29.372  49.193  1.00  0.00     0.010 C 
ATOM     24  C   UNL     1      23.621  30.283  49.721  1.00  0.00     0.012 C 
ATOM     25  C   UNL     1      25.280  31.659  47.240  1.00  0.00    -0.006 C 
ATOM     26  C   UNL     1      25.487  29.039  47.735  1.00  0.00     0.033 C 
ATOM     27  C   UNL     1      25.775  30.235  46.779  1.00  0.00     0.120 C 
ATOM     28  C   UNL     1      23.797  31.870  46.772  1.00  0.00     0.014 C 
ATOM     29  C   UNL     1      26.111  32.730  46.419  1.00  0.00     0.014 C 
ENDROOT
BRANCH   1  30
ATOM     30  C   UNL     1      30.477  33.256  55.064  1.00  0.00     0.048 C 
ATOM     31  O   UNL     1      30.910  34.428  55.183  1.00  0.00    -0.550 OA
ATOM     32  O   UNL     1      30.204  32.530  56.216  1.00  0.00    -0.550 OA
ENDBRANCH   1  30
BRANCH  27  33
ATOM     33  O   UNL     1      27.144  30.225  46.417  1.00  0.00    -0.393 OA
ATOM     34  H   UNL     1      27.444  29.310  46.203  1.00  0.00     0.210 HD
ENDBRANCH  27  33
TORSDOF 2
ENDMDL
MODEL 2
REMARK VINA RESULT:    -5.806     11.633     15.232
REMARK INTER + INTRA:          -6.581
REMARK INTER:                  -6.346
REMARK INTRA:                  -0.235
REMARK UNBOUND:                -0.266
REMARK SMILES C[C@H]1[C@@H](C)CC[C@@]2(C(=O)[O-])CC[C@@]3(C)C(=CC[C@@H]4[C@]5(C)CC[C@H](O)C(C)(C)[C@H]5CC[C@@]43C)[C@@H]12
REMARK SMILES IDX 7 1 6 2 11 3 33 4 5 5 12 6 15 7 2 8 3 9 13 10 16 11 1 12
REMARK SMILES IDX 4 13 14 14 31 15 17 16 18 17 30 18 32 19 19 20 29 21 28 22
REMARK SMILES IDX 21 23 20 24 25 25 22 26 23 27 26 28 27 29 8 30 9 31 10 32
REMARK SMILES IDX 24 33
REMARK H PARENT 24 34
REMARK Flexibility Score: inf
ROOT
ATOM      1  C   UNL     1      23.914  19.729  44.720  1.00  0.00     0.017 C 
ATOM      2  C   UNL     1      23.741  18.211  44.526  1.00  0.00     0.014 C 
ATOM      3  C   UNL     1      25.101  19.871  45.714  1.00  0.00     0.014 C 
ATOM      4  C   UNL     1      24.075  20.487  43.293  1.00  0.00     0.030 C 
ATOM      5  C   UNL     1      22.497  17.852  43.736  1.00  0.00     0.004 C 
ATOM      6  C   UNL     1      25.981  21.075  45.459  1.00  0.00     0.013 C 
ATOM      7  C   UNL     1      25.464  21.216  43.035  1.00  0.00    -0.063 C 
ATOM      8  C   UNL     1      23.384  19.670  42.048  1.00  0.00    -0.003 C 
ATOM      9  C   UNL     1      22.659  18.259  42.285  1.00  0.00    -0.011 C 
ATOM     10  C   UNL     1      26.629  21.058  44.021  1.00  0.00    -0.006 C 
ATOM     11  C   UNL     1      25.581  22.159  42.062  1.00  0.00    -0.027 C 
ATOM     12  C   UNL     1      24.093  19.678  40.684  1.00  0.00     0.008 C 
ATOM     13  C   UNL     1      23.054  16.996  41.434  1.00  0.00     0.008 C 
ATOM     14  C   UNL     1      27.266  19.669  43.687  1.00  0.00     0.017 C 
ATOM     15  C   UNL     1      27.685  22.295  43.905  1.00  0.00    -0.020 C 
ATOM     16  C   UNL     1      26.942  22.378  41.459  1.00  0.00     0.032 C 
ATOM     17  C   UNL     1      28.154  22.471  42.434  1.00  0.00     0.006 C 
ATOM     18  C   UNL     1      28.978  22.228  44.810  1.00  0.00     0.008 C 
ATOM     19  C   UNL     1      26.899  23.619  44.349  1.00  0.00     0.012 C 
ATOM     20  C   UNL     1      29.552  21.843  41.889  1.00  0.00    -0.025 C 
ATOM     21  C   UNL     1      30.213  21.377  44.441  1.00  0.00     0.005 C 
ATOM     22  C   UNL     1      30.308  20.952  42.969  1.00  0.00     0.003 C 
ATOM     23  C   UNL     1      29.453  20.955  40.592  1.00  0.00     0.010 C 
ATOM     24  C   UNL     1      30.400  23.109  41.434  1.00  0.00     0.012 C 
ATOM     25  C   UNL     1      31.724  20.317  42.553  1.00  0.00    -0.006 C 
ATOM     26  C   UNL     1      30.822  20.491  40.040  1.00  0.00     0.033 C 
ATOM     27  C   UNL     1      31.623  19.689  41.110  1.00  0.00     0.120 C 
ATOM     28  C   UNL     1      32.957  21.287  42.612  1.00  0.00     0.014 C 
ATOM     29  C   UNL     1      32.097  19.142  43.547  1.00  0.00     0.014 C 
ENDROOT
BRANCH   1  30
ATOM     30  C   UNL     1      22.663  20.275  45.498  1.00  0.00     0.048 C 
ATOM     31  O   UNL     1      22.610  20.140  46.745  1.00  0.00    -0.550 OA
ATOM     32  O   UNL     1      21.636  20.958  44.860  1.00  0.00    -0.550 OA
ENDBRANCH   1  30
BRANCH  27  33
ATOM     33  O   UNL     1      31.165  18.349  41.129  1.00  0.00    -0.393 OA
ATOM     34  H   UNL     1      31.583  17.825  40.406  1.00  0.00     0.210 HD
ENDBRANCH  27  33
TORSDOF 2
ENDMDL
MODEL 3
REMARK VINA RESULT:    -5.666     11.924     16.583
REMARK INTER + INTRA:          -6.428
REMARK INTER:                  -6.165
REMARK INTRA:                  -0.263
REMARK UNBOUND:                -0.266
REMARK SMILES C[C@H]1[C@@H](C)CC[C@@]2(C(=O)[O-])CC[C@@]3(C)C(=CC[C@@H]4[C@]5(C)CC[C@H](O)C(C)(C)[C@H]5CC[C@@]43C)[C@@H]12
REMARK SMILES IDX 7 1 6 2 11 3 33 4 5 5 12 6 15 7 2 8 3 9 13 10 16 11 1 12
REMARK SMILES IDX 4 13 14 14 31 15 17 16 18 17 30 18 32 19 19 20 29 21 28 22
REMARK SMILES IDX 21 23 20 24 25 25 22 26 23 27 26 28 27 29 8 30 9 31 10 32
REMARK SMILES IDX 24 33
REMARK H PARENT 24 34
REMARK Flexibility Score: inf
ROOT
ATOM      1  C   UNL     1      19.409  20.808  41.199  1.00  0.00     0.017 C 
ATOM      2  C   UNL     1      18.952  22.262  41.414  1.00  0.00     0.014 C 
ATOM      3  C   UNL     1      20.629  20.911  40.241  1.00  0.00     0.014 C 
ATOM      4  C   UNL     1      19.668  20.060  42.617  1.00  0.00     0.030 C 
ATOM      5  C   UNL     1      17.641  22.366  42.171  1.00  0.00     0.004 C 
ATOM      6  C   UNL     1      21.711  19.886  40.503  1.00  0.00     0.013 C 
ATOM      7  C   UNL     1      21.161  19.596  42.907  1.00  0.00    -0.063 C 
ATOM      8  C   UNL     1      18.803  20.706  43.854  1.00  0.00    -0.003 C 
ATOM      9  C   UNL     1      17.835  21.964  43.618  1.00  0.00    -0.011 C 
ATOM     10  C   UNL     1      22.304  19.990  41.961  1.00  0.00    -0.006 C 
ATOM     11  C   UNL     1      21.425  18.669  43.866  1.00  0.00    -0.027 C 
ATOM     12  C   UNL     1      19.463  20.799  45.239  1.00  0.00     0.008 C 
ATOM     13  C   UNL     1      17.964  23.258  44.503  1.00  0.00     0.008 C 
ATOM     14  C   UNL     1      22.662  21.465  42.338  1.00  0.00     0.017 C 
ATOM     15  C   UNL     1      23.567  18.968  42.089  1.00  0.00    -0.020 C 
ATOM     16  C   UNL     1      22.786  18.693  44.508  1.00  0.00     0.032 C 
ATOM     17  C   UNL     1      24.020  18.849  43.571  1.00  0.00     0.006 C 
ATOM     18  C   UNL     1      24.850  19.295  41.226  1.00  0.00     0.008 C 
ATOM     19  C   UNL     1      23.055  17.531  41.598  1.00  0.00     0.012 C 
ATOM     20  C   UNL     1      25.261  19.712  44.170  1.00  0.00    -0.025 C 
ATOM     21  C   UNL     1      25.894  20.351  41.648  1.00  0.00     0.005 C 
ATOM     22  C   UNL     1      25.868  20.753  43.130  1.00  0.00     0.003 C 
ATOM     23  C   UNL     1      24.962  20.537  45.479  1.00  0.00     0.010 C 
ATOM     24  C   UNL     1      26.317  18.616  44.630  1.00  0.00     0.012 C 
ATOM     25  C   UNL     1      27.129  21.630  43.602  1.00  0.00    -0.006 C 
ATOM     26  C   UNL     1      26.206  21.235  46.081  1.00  0.00     0.033 C 
ATOM     27  C   UNL     1      26.873  22.195  45.051  1.00  0.00     0.120 C 
ATOM     28  C   UNL     1      28.522  20.907  43.565  1.00  0.00     0.014 C 
ATOM     29  C   UNL     1      27.304  22.876  42.640  1.00  0.00     0.014 C 
ENDROOT
BRANCH   1  30
ATOM     30  C   UNL     1      18.304  20.057  40.373  1.00  0.00     0.048 C 
ATOM     31  O   UNL     1      18.165  20.321  39.154  1.00  0.00    -0.550 OA
ATOM     32  O   UNL     1      17.511  19.063  40.931  1.00  0.00    -0.550 OA
ENDBRANCH   1  30
BRANCH  27  33
ATOM     33  O   UNL     1      26.174  23.427  45.040  1.00  0.00    -0.393 OA
ATOM     34  H   UNL     1      25.360  23.373  45.594  1.00  0.00     0.210 HD
ENDBRANCH  27  33
TORSDOF 2
ENDMDL
MODEL 4
REMARK VINA RESULT:    -5.648      2.278      3.994
REMARK INTER + INTRA:          -6.409
REMARK INTER:                  -6.143
REMARK INTRA:                  -0.266
REMARK UNBOUND:                -0.266
REMARK SMILES C[C@H]1[C@@H](C)CC[C@@]2(C(=O)[O-])CC[C@@]3(C)C(=CC[C@@H]4[C@]5(C)CC[C@H](O)C(C)(C)[C@H]5CC[C@@]43C)[C@@H]12
REMARK SMILES IDX 7 1 6 2 11 3 33 4 5 5 12 6 15 7 2 8 3 9 13 10 16 11 1 12
REMARK SMILES IDX 4 13 14 14 31 15 17 16 18 17 30 18 32 19 19 20 29 21 28 22
REMARK SMILES IDX 21 23 20 24 25 25 22 26 23 27 26 28 27 29 8 30 9 31 10 32
REMARK SMILES IDX 24 33
REMARK H PARENT 24 34
REMARK Flexibility Score: inf
ROOT
ATOM      1  C   UNL     1      28.171  29.935  55.622  1.00  0.00     0.017 C 
ATOM      2  C   UNL     1      28.319  28.404  55.542  1.00  0.00     0.014 C 
ATOM      3  C   UNL     1      29.406  30.496  54.863  1.00  0.00     0.014 C 
ATOM      4  C   UNL     1      26.716  30.411  55.080  1.00  0.00     0.030 C 
ATOM      5  C   UNL     1      27.307  27.665  56.398  1.00  0.00     0.004 C 
ATOM      6  C   UNL     1      29.135  31.770  54.094  1.00  0.00     0.013 C 
ATOM      7  C   UNL     1      26.713  31.325  53.779  1.00  0.00    -0.063 C 
ATOM      8  C   UNL     1      25.566  29.246  55.211  1.00  0.00    -0.003 C 
ATOM      9  C   UNL     1      25.919  27.798  55.805  1.00  0.00    -0.011 C 
ATOM     10  C   UNL     1      28.011  31.592  53.003  1.00  0.00    -0.006 C 
ATOM     11  C   UNL     1      25.617  32.061  53.451  1.00  0.00    -0.027 C 
ATOM     12  C   UNL     1      24.522  29.118  54.091  1.00  0.00     0.008 C 
ATOM     13  C   UNL     1      25.570  26.491  55.004  1.00  0.00     0.008 C 
ATOM     14  C   UNL     1      28.242  30.311  52.135  1.00  0.00     0.017 C 
ATOM     15  C   UNL     1      27.912  32.958  52.121  1.00  0.00    -0.020 C 
ATOM     16  C   UNL     1      25.417  32.410  52.001  1.00  0.00     0.032 C 
ATOM     17  C   UNL     1      26.655  32.925  51.208  1.00  0.00     0.006 C 
ATOM     18  C   UNL     1      29.150  33.320  51.209  1.00  0.00     0.008 C 
ATOM     19  C   UNL     1      27.753  34.170  53.157  1.00  0.00     0.012 C 
ATOM     20  C   UNL     1      26.730  32.480  49.646  1.00  0.00    -0.025 C 
ATOM     21  C   UNL     1      29.394  32.665  49.833  1.00  0.00     0.005 C 
ATOM     22  C   UNL     1      28.174  31.981  49.199  1.00  0.00     0.003 C 
ATOM     23  C   UNL     1      25.728  31.349  49.199  1.00  0.00     0.010 C 
ATOM     24  C   UNL     1      26.250  33.767  48.846  1.00  0.00     0.012 C 
ATOM     25  C   UNL     1      28.375  31.558  47.661  1.00  0.00    -0.006 C 
ATOM     26  C   UNL     1      25.748  31.054  47.679  1.00  0.00     0.033 C 
ATOM     27  C   UNL     1      27.173  30.649  47.198  1.00  0.00     0.120 C 
ATOM     28  C   UNL     1      28.557  32.737  46.642  1.00  0.00     0.014 C 
ATOM     29  C   UNL     1      29.696  30.697  47.512  1.00  0.00     0.014 C 
ENDROOT
BRANCH   1  30
ATOM     30  C   UNL     1      28.374  30.376  57.116  1.00  0.00     0.048 C 
ATOM     31  O   UNL     1      29.519  30.304  57.625  1.00  0.00    -0.550 OA
ATOM     32  O   UNL     1      27.340  30.902  57.880  1.00  0.00    -0.550 OA
ENDBRANCH   1  30
BRANCH  27  33
ATOM     33  O   UNL     1      27.388  29.277  47.478  1.00  0.00    -0.393 OA
ATOM     34  H   UNL     1      27.900  28.847  46.753  1.00  0.00     0.210 HD
ENDBRANCH  27  33
TORSDOF 2
ENDMDL
MODEL 5
REMARK VINA RESULT:    -5.600      4.595      7.044
REMARK INTER + INTRA:          -6.357
REMARK INTER:                  -6.091
REMARK INTRA:                  -0.266
REMARK UNBOUND:                -0.266
REMARK SMILES C[C@H]1[C@@H](C)CC[C@@]2(C(=O)[O-])CC[C@@]3(C)C(=CC[C@@H]4[C@]5(C)CC[C@H](O)C(C)(C)[C@H]5CC[C@@]43C)[C@@H]12
REMARK SMILES IDX 7 1 6 2 11 3 33 4 5 5 12 6 15 7 2 8 3 9 13 10 16 11 1 12
REMARK SMILES IDX 4 13 14 14 31 15 17 16 18 17 30 18 32 19 19 20 29 21 28 22
REMARK SMILES IDX 21 23 20 24 25 25 22 26 23 27 26 28 27 29 8 30 9 31 10 32
REMARK SMILES IDX 24 33
REMARK H PARENT 24 34
REMARK Flexibility Score: inf
ROOT
ATOM      1  C   UNL     1      29.071  30.221  55.926  1.00  0.00     0.017 C 
ATOM      2  C   UNL     1      29.040  31.749  56.115  1.00  0.00     0.014 C 
ATOM      3  C   UNL     1      28.465  29.645  57.237  1.00  0.00     0.014 C 
ATOM      4  C   UNL     1      28.339  29.787  54.543  1.00  0.00     0.030 C 
ATOM      5  C   UNL     1      29.773  32.497  55.017  1.00  0.00     0.004 C 
ATOM      6  C   UNL     1      27.644  28.390  57.041  1.00  0.00     0.013 C 
ATOM      7  C   UNL     1      27.031  28.894  54.689  1.00  0.00    -0.063 C 
ATOM      8  C   UNL     1      28.345  30.974  53.410  1.00  0.00    -0.003 C 
ATOM      9  C   UNL     1      29.007  32.404  53.714  1.00  0.00    -0.011 C 
ATOM     10  C   UNL     1      26.422  28.611  56.069  1.00  0.00    -0.006 C 
ATOM     11  C   UNL     1      26.552  28.188  53.629  1.00  0.00    -0.027 C 
ATOM     12  C   UNL     1      27.103  31.144  52.520  1.00  0.00     0.008 C 
ATOM     13  C   UNL     1      28.192  33.732  53.496  1.00  0.00     0.008 C 
ATOM     14  C   UNL     1      25.614  29.900  56.435  1.00  0.00     0.017 C 
ATOM     15  C   UNL     1      25.508  27.262  56.056  1.00  0.00    -0.020 C 
ATOM     16  C   UNL     1      25.082  27.867  53.608  1.00  0.00     0.032 C 
ATOM     17  C   UNL     1      24.444  27.338  54.927  1.00  0.00     0.006 C 
ATOM     18  C   UNL     1      24.755  26.887  57.393  1.00  0.00     0.008 C 
ATOM     19  C   UNL     1      26.493  26.037  55.742  1.00  0.00     0.012 C 
ATOM     20  C   UNL     1      22.913  27.807  55.210  1.00  0.00    -0.025 C 
ATOM     21  C   UNL     1      23.434  27.559  57.824  1.00  0.00     0.005 C 
ATOM     22  C   UNL     1      22.662  28.280  56.709  1.00  0.00     0.003 C 
ATOM     23  C   UNL     1      22.363  28.967  54.296  1.00  0.00     0.010 C 
ATOM     24  C   UNL     1      22.034  26.543  54.810  1.00  0.00     0.012 C 
ATOM     25  C   UNL     1      21.172  28.723  57.113  1.00  0.00    -0.006 C 
ATOM     26  C   UNL     1      20.864  29.286  54.516  1.00  0.00     0.033 C 
ATOM     27  C   UNL     1      20.576  29.667  55.999  1.00  0.00     0.120 C 
ATOM     28  C   UNL     1      20.162  27.557  57.400  1.00  0.00     0.014 C 
ATOM     29  C   UNL     1      21.208  29.557  58.460  1.00  0.00     0.014 C 
ENDROOT
BRANCH   1  30
ATOM     30  C   UNL     1      30.570  29.751  55.929  1.00  0.00     0.048 C 
ATOM     31  O   UNL     1      31.227  29.807  56.996  1.00  0.00    -0.550 OA
ATOM     32  O   UNL     1      31.180  29.218  54.800  1.00  0.00    -0.550 OA
ENDBRANCH   1  30
BRANCH  27  33
ATOM     33  O   UNL     1      20.907  31.029  56.204  1.00  0.00    -0.393 OA
ATOM     34  H   UNL     1      20.900  31.523  55.351  1.00  0.00     0.210 HD
ENDBRANCH  27  33
TORSDOF 2
ENDMDL
MODEL 6
REMARK VINA RESULT:    -5.500     11.639     15.168
REMARK INTER + INTRA:          -6.248
REMARK INTER:                  -5.991
REMARK INTRA:                  -0.257
REMARK UNBOUND:                -0.266
REMARK SMILES C[C@H]1[C@@H](C)CC[C@@]2(C(=O)[O-])CC[C@@]3(C)C(=CC[C@@H]4[C@]5(C)CC[C@H](O)C(C)(C)[C@H]5CC[C@@]43C)[C@@H]12
REMARK SMILES IDX 7 1 6 2 11 3 33 4 5 5 12 6 15 7 2 8 3 9 13 10 16 11 1 12
REMARK SMILES IDX 4 13 14 14 31 15 17 16 18 17 30 18 32 19 19 20 29 21 28 22
REMARK SMILES IDX 21 23 20 24 25 25 22 26 23 27 26 28 27 29 8 30 9 31 10 32
REMARK SMILES IDX 24 33
REMARK H PARENT 24 34
REMARK Flexibility Score: inf
ROOT
ATOM      1  C   UNL     1      26.918  21.325  42.602  1.00  0.00     0.017 C 
ATOM      2  C   UNL     1      27.256  22.473  43.571  1.00  0.00     0.014 C 
ATOM      3  C   UNL     1      26.381  20.183  43.510  1.00  0.00     0.014 C 
ATOM      4  C   UNL     1      25.928  21.830  41.418  1.00  0.00     0.030 C 
ATOM      5  C   UNL     1      27.984  23.622  42.898  1.00  0.00     0.004 C 
ATOM      6  C   UNL     1      25.281  19.357  42.880  1.00  0.00     0.013 C 
ATOM      7  C   UNL     1      24.486  21.163  41.374  1.00  0.00    -0.063 C 
ATOM      8  C   UNL     1      26.048  23.440  41.121  1.00  0.00    -0.003 C 
ATOM      9  C   UNL     1      27.048  24.366  41.968  1.00  0.00    -0.011 C 
ATOM     10  C   UNL     1      24.020  20.222  42.494  1.00  0.00    -0.006 C 
ATOM     11  C   UNL     1      23.723  21.235  40.250  1.00  0.00    -0.027 C 
ATOM     12  C   UNL     1      24.767  24.218  40.779  1.00  0.00     0.008 C 
ATOM     13  C   UNL     1      26.530  25.666  42.685  1.00  0.00     0.008 C 
ATOM     14  C   UNL     1      23.579  21.161  43.665  1.00  0.00     0.017 C 
ATOM     15  C   UNL     1      22.834  19.226  41.986  1.00  0.00    -0.020 C 
ATOM     16  C   UNL     1      22.229  21.148  40.411  1.00  0.00     0.032 C 
ATOM     17  C   UNL     1      21.672  20.043  41.358  1.00  0.00     0.006 C 
ATOM     18  C   UNL     1      22.203  18.250  43.056  1.00  0.00     0.008 C 
ATOM     19  C   UNL     1      23.468  18.290  40.850  1.00  0.00     0.012 C 
ATOM     20  C   UNL     1      20.337  20.438  42.199  1.00  0.00    -0.025 C 
ATOM     21  C   UNL     1      21.136  18.705  44.076  1.00  0.00     0.005 C 
ATOM     22  C   UNL     1      20.403  20.009  43.730  1.00  0.00     0.003 C 
ATOM     23  C   UNL     1      19.943  21.964  42.197  1.00  0.00     0.010 C 
ATOM     24  C   UNL     1      19.152  19.727  41.412  1.00  0.00     0.012 C 
ATOM     25  C   UNL     1      19.118  20.311  44.646  1.00  0.00    -0.006 C 
ATOM     26  C   UNL     1      18.598  22.268  42.899  1.00  0.00     0.033 C 
ATOM     27  C   UNL     1      18.605  21.777  44.378  1.00  0.00     0.120 C 
ATOM     28  C   UNL     1      17.921  19.307  44.503  1.00  0.00     0.014 C 
ATOM     29  C   UNL     1      19.522  20.231  46.176  1.00  0.00     0.014 C 
ENDROOT
BRANCH   1  30
ATOM     30  C   UNL     1      28.260  20.772  42.001  1.00  0.00     0.048 C 
ATOM     31  O   UNL     1      28.402  20.729  40.755  1.00  0.00    -0.550 OA
ATOM     32  O   UNL     1      29.325  20.381  42.804  1.00  0.00    -0.550 OA
ENDBRANCH   1  30
BRANCH  27  33
ATOM     33  O   UNL     1      19.257  22.740  45.186  1.00  0.00    -0.393 OA
ATOM     34  H   UNL     1      20.185  22.882  44.883  1.00  0.00     0.210 HD
ENDBRANCH  27  33
TORSDOF 2
ENDMDL
MODEL 7
REMARK VINA RESULT:    -5.452      3.128      5.836
REMARK INTER + INTRA:          -6.196
REMARK INTER:                  -5.931
REMARK INTRA:                  -0.264
REMARK UNBOUND:                -0.266
REMARK SMILES C[C@H]1[C@@H](C)CC[C@@]2(C(=O)[O-])CC[C@@]3(C)C(=CC[C@@H]4[C@]5(C)CC[C@H](O)C(C)(C)[C@H]5CC[C@@]43C)[C@@H]12
REMARK SMILES IDX 7 1 6 2 11 3 33 4 5 5 12 6 15 7 2 8 3 9 13 10 16 11 1 12
REMARK SMILES IDX 4 13 14 14 31 15 17 16 18 17 30 18 32 19 19 20 29 21 28 22
REMARK SMILES IDX 21 23 20 24 25 25 22 26 23 27 26 28 27 29 8 30 9 31 10 32
REMARK SMILES IDX 24 33
REMARK H PARENT 24 34
REMARK Flexibility Score: inf
ROOT
ATOM      1  C   UNL     1      29.341  32.184  48.297  1.00  0.00     0.017 C 
ATOM      2  C   UNL     1      28.968  31.095  47.275  1.00  0.00     0.014 C 
ATOM      3  C   UNL     1      27.983  32.799  48.738  1.00  0.00     0.014 C 
ATOM      4  C   UNL     1      30.276  31.581  49.481  1.00  0.00     0.030 C 
ATOM      5  C   UNL     1      30.176  30.502  46.573  1.00  0.00     0.004 C 
ATOM      6  C   UNL     1      27.937  33.224  50.189  1.00  0.00     0.013 C 
ATOM      7  C   UNL     1      29.660  31.606  50.946  1.00  0.00    -0.063 C 
ATOM      8  C   UNL     1      31.125  30.255  49.018  1.00  0.00    -0.003 C 
ATOM      9  C   UNL     1      30.982  29.655  47.537  1.00  0.00    -0.011 C 
ATOM     10  C   UNL     1      28.202  32.026  51.180  1.00  0.00    -0.006 C 
ATOM     11  C   UNL     1      30.462  31.467  52.037  1.00  0.00    -0.027 C 
ATOM     12  C   UNL     1      31.316  29.117  50.034  1.00  0.00     0.008 C 
ATOM     13  C   UNL     1      30.631  28.138  47.311  1.00  0.00     0.008 C 
ATOM     14  C   UNL     1      27.347  30.768  50.813  1.00  0.00     0.017 C 
ATOM     15  C   UNL     1      27.965  32.543  52.707  1.00  0.00    -0.020 C 
ATOM     16  C   UNL     1      29.845  30.912  53.292  1.00  0.00     0.032 C 
ATOM     17  C   UNL     1      28.459  31.477  53.723  1.00  0.00     0.006 C 
ATOM     18  C   UNL     1      26.490  32.938  53.114  1.00  0.00     0.008 C 
ATOM     19  C   UNL     1      28.847  33.868  52.892  1.00  0.00     0.012 C 
ATOM     20  C   UNL     1      27.448  30.414  54.425  1.00  0.00    -0.025 C 
ATOM     21  C   UNL     1      25.420  31.892  53.494  1.00  0.00     0.005 C 
ATOM     22  C   UNL     1      25.956  30.506  53.881  1.00  0.00     0.003 C 
ATOM     23  C   UNL     1      27.853  28.896  54.314  1.00  0.00     0.010 C 
ATOM     24  C   UNL     1      27.556  30.735  55.979  1.00  0.00     0.012 C 
ATOM     25  C   UNL     1      24.860  29.531  54.536  1.00  0.00    -0.006 C 
ATOM     26  C   UNL     1      26.932  27.938  55.107  1.00  0.00     0.033 C 
ATOM     27  C   UNL     1      25.447  28.072  54.654  1.00  0.00     0.120 C 
ATOM     28  C   UNL     1      24.291  29.975  55.930  1.00  0.00     0.014 C 
ATOM     29  C   UNL     1      23.587  29.447  53.597  1.00  0.00     0.014 C 
ENDROOT
BRANCH   1  30
ATOM     30  C   UNL     1      30.086  33.341  47.540  1.00  0.00     0.048 C 
ATOM     31  O   UNL     1      31.249  33.655  47.893  1.00  0.00    -0.550 OA
ATOM     32  O   UNL     1      29.525  33.993  46.449  1.00  0.00    -0.550 OA
ENDBRANCH   1  30
BRANCH  27  33
ATOM     33  O   UNL     1      25.247  27.308  53.478  1.00  0.00    -0.393 OA
ATOM     34  H   UNL     1      24.361  26.875  53.488  1.00  0.00     0.210 HD
ENDBRANCH  27  33
TORSDOF 2
ENDMDL
MODEL 8
REMARK VINA RESULT:    -5.452      6.051      7.736
REMARK INTER + INTRA:          -6.195
REMARK INTER:                  -5.939
REMARK INTRA:                  -0.256
REMARK UNBOUND:                -0.266
REMARK SMILES C[C@H]1[C@@H](C)CC[C@@]2(C(=O)[O-])CC[C@@]3(C)C(=CC[C@@H]4[C@]5(C)CC[C@H](O)C(C)(C)[C@H]5CC[C@@]43C)[C@@H]12
REMARK SMILES IDX 7 1 6 2 11 3 33 4 5 5 12 6 15 7 2 8 3 9 13 10 16 11 1 12
REMARK SMILES IDX 4 13 14 14 31 15 17 16 18 17 30 18 32 19 19 20 29 21 28 22
REMARK SMILES IDX 21 23 20 24 25 25 22 26 23 27 26 28 27 29 8 30 9 31 10 32
REMARK SMILES IDX 24 33
REMARK H PARENT 24 34
REMARK Flexibility Score: inf
ROOT
ATOM      1  C   UNL     1      25.909  29.306  55.604  1.00  0.00     0.017 C 
ATOM      2  C   UNL     1      26.572  28.657  54.375  1.00  0.00     0.014 C 
ATOM      3  C   UNL     1      25.002  30.426  55.023  1.00  0.00     0.014 C 
ATOM      4  C   UNL     1      25.175  28.193  56.530  1.00  0.00     0.030 C 
ATOM      5  C   UNL     1      27.655  27.659  54.743  1.00  0.00     0.004 C 
ATOM      6  C   UNL     1      23.713  30.638  55.786  1.00  0.00     0.013 C 
ATOM      7  C   UNL     1      23.596  28.320  56.666  1.00  0.00    -0.063 C 
ATOM      8  C   UNL     1      25.821  26.692  56.369  1.00  0.00    -0.003 C 
ATOM      9  C   UNL     1      27.041  26.421  55.362  1.00  0.00    -0.011 C 
ATOM     10  C   UNL     1      22.815  29.343  55.830  1.00  0.00    -0.006 C 
ATOM     11  C   UNL     1      22.934  27.686  57.672  1.00  0.00    -0.027 C 
ATOM     12  C   UNL     1      24.875  25.481  56.393  1.00  0.00     0.008 C 
ATOM     13  C   UNL     1      26.952  25.287  54.275  1.00  0.00     0.008 C 
ATOM     14  C   UNL     1      22.667  28.691  54.415  1.00  0.00     0.017 C 
ATOM     15  C   UNL     1      21.386  29.715  56.519  1.00  0.00    -0.020 C 
ATOM     16  C   UNL     1      21.488  27.334  57.445  1.00  0.00     0.032 C 
ATOM     17  C   UNL     1      20.573  28.424  56.814  1.00  0.00     0.006 C 
ATOM     18  C   UNL     1      20.439  30.702  55.729  1.00  0.00     0.008 C 
ATOM     19  C   UNL     1      21.716  30.436  57.912  1.00  0.00     0.012 C 
ATOM     20  C   UNL     1      19.413  27.883  55.810  1.00  0.00    -0.025 C 
ATOM     21  C   UNL     1      19.546  30.243  54.555  1.00  0.00     0.005 C 
ATOM     22  C   UNL     1      19.289  28.732  54.470  1.00  0.00     0.003 C 
ATOM     23  C   UNL     1      19.538  26.379  55.356  1.00  0.00     0.010 C 
ATOM     24  C   UNL     1      18.087  27.918  56.686  1.00  0.00     0.012 C 
ATOM     25  C   UNL     1      18.144  28.312  53.424  1.00  0.00    -0.006 C 
ATOM     26  C   UNL     1      18.344  25.876  54.510  1.00  0.00     0.033 C 
ATOM     27  C   UNL     1      18.144  26.747  53.234  1.00  0.00     0.120 C 
ATOM     28  C   UNL     1      16.690  28.793  53.766  1.00  0.00     0.014 C 
ATOM     29  C   UNL     1      18.451  28.954  52.008  1.00  0.00     0.014 C 
ENDROOT
BRANCH   1  30
ATOM     30  C   UNL     1      27.016  30.062  56.423  1.00  0.00     0.048 C 
ATOM     31  O   UNL     1      27.170  29.793  57.639  1.00  0.00    -0.550 OA
ATOM     32  O   UNL     1      27.876  30.980  55.833  1.00  0.00    -0.550 OA
ENDBRANCH   1  30
BRANCH  27  33
ATOM     33  O   UNL     1      19.048  26.320  52.231  1.00  0.00    -0.393 OA
ATOM     34  H   UNL     1      18.736  25.485  51.809  1.00  0.00     0.210 HD
ENDBRANCH  27  33
TORSDOF 2
ENDMDL
MODEL 9
REMARK VINA RESULT:    -5.391      7.904      9.565
REMARK INTER + INTRA:          -6.130
REMARK INTER:                  -5.880
REMARK INTRA:                  -0.250
REMARK UNBOUND:                -0.266
REMARK SMILES C[C@H]1[C@@H](C)CC[C@@]2(C(=O)[O-])CC[C@@]3(C)C(=CC[C@@H]4[C@]5(C)CC[C@H](O)C(C)(C)[C@H]5CC[C@@]43C)[C@@H]12
REMARK SMILES IDX 7 1 6 2 11 3 33 4 5 5 12 6 15 7 2 8 3 9 13 10 16 11 1 12
REMARK SMILES IDX 4 13 14 14 31 15 17 16 18 17 30 18 32 19 19 20 29 21 28 22
REMARK SMILES IDX 21 23 20 24 25 25 22 26 23 27 26 28 27 29 8 30 9 31 10 32
REMARK SMILES IDX 24 33
REMARK H PARENT 24 34
REMARK Flexibility Score: inf
ROOT
ATOM      1  C   UNL     1      21.117  29.023  56.567  1.00  0.00     0.017 C 
ATOM      2  C   UNL     1      22.548  28.490  56.372  1.00  0.00     0.014 C 
ATOM      3  C   UNL     1      20.956  30.136  55.494  1.00  0.00     0.014 C 
ATOM      4  C   UNL     1      20.031  27.816  56.522  1.00  0.00     0.030 C 
ATOM      5  C   UNL     1      22.974  27.522  57.460  1.00  0.00     0.004 C 
ATOM      6  C   UNL     1      19.565  30.234  54.908  1.00  0.00     0.013 C 
ATOM      7  C   UNL     1      18.979  27.859  55.330  1.00  0.00    -0.063 C 
ATOM      8  C   UNL     1      20.666  26.362  56.944  1.00  0.00    -0.003 C 
ATOM      9  C   UNL     1      22.216  26.216  57.330  1.00  0.00    -0.011 C 
ATOM     10  C   UNL     1      19.106  28.898  54.207  1.00  0.00    -0.006 C 
ATOM     11  C   UNL     1      17.833  27.129  55.391  1.00  0.00    -0.027 C 
ATOM     12  C   UNL     1      20.187  25.109  56.193  1.00  0.00     0.008 C 
ATOM     13  C   UNL     1      23.130  25.156  56.612  1.00  0.00     0.008 C 
ATOM     14  C   UNL     1      20.208  28.337  53.249  1.00  0.00     0.017 C 
ATOM     15  C   UNL     1      17.678  29.156  53.465  1.00  0.00    -0.020 C 
ATOM     16  C   UNL     1      17.192  26.725  54.091  1.00  0.00     0.032 C 
ATOM     17  C   UNL     1      17.068  27.811  52.982  1.00  0.00     0.006 C 
ATOM     18  C   UNL     1      17.673  30.148  52.235  1.00  0.00     0.008 C 
ATOM     19  C   UNL     1      16.696  29.796  54.557  1.00  0.00     0.012 C 
ATOM     20  C   UNL     1      17.234  27.284  51.452  1.00  0.00    -0.025 C 
ATOM     21  C   UNL     1      18.126  29.728  50.821  1.00  0.00     0.005 C 
ATOM     22  C   UNL     1      18.166  28.215  50.560  1.00  0.00     0.003 C 
ATOM     23  C   UNL     1      17.796  25.822  51.281  1.00  0.00     0.010 C 
ATOM     24  C   UNL     1      15.744  27.199  50.902  1.00  0.00     0.012 C 
ATOM     25  C   UNL     1      18.366  27.813  49.017  1.00  0.00    -0.006 C 
ATOM     26  C   UNL     1      17.811  25.321  49.816  1.00  0.00     0.033 C 
ATOM     27  C   UNL     1      18.647  26.266  48.901  1.00  0.00     0.120 C 
ATOM     28  C   UNL     1      17.193  28.201  48.049  1.00  0.00     0.014 C 
ATOM     29  C   UNL     1      19.631  28.562  48.427  1.00  0.00     0.014 C 
ENDROOT
BRANCH   1  30
ATOM     30  C   UNL     1      21.051  29.773  57.946  1.00  0.00     0.048 C 
ATOM     31  O   UNL     1      20.341  29.302  58.867  1.00  0.00    -0.550 OA
ATOM     32  O   UNL     1      21.801  30.914  58.204  1.00  0.00    -0.550 OA
ENDBRANCH   1  30
BRANCH  27  33
ATOM     33  O   UNL     1      20.021  25.951  49.035  1.00  0.00    -0.393 OA
ATOM     34  H   UNL     1      20.180  24.993  48.860  1.00  0.00     0.210 HD
ENDBRANCH  27  33
TORSDOF 2
ENDMDL
