MODEL 1
REMARK VINA RESULT:    -4.791      0.000      0.000
REMARK INTER + INTRA:         -16.141
REMARK INTER:                 -12.073
REMARK INTRA:                  -4.068
REMARK UNBOUND:                -4.068
REMARK SMILES CCCCCCCCCCCCCCCCCCCCCCCCCCCC(=O)[O-]
REMARK SMILES IDX 15 1 16 2 17 3 18 4 19 5 20 6 21 7 22 8 23 9 24 10 25 11
REMARK SMILES IDX 26 12 27 13 28 14 29 15 30 16 14 17 13 18 12 19 11 20 10 21
REMARK SMILES IDX 9 22 8 23 7 24 6 25 5 26 4 27 3 28 2 29 1 30
REMARK H PARENT
REMARK Flexibility Score: inf
ROOT
ATOM      1  C   UNL     1      21.110  10.906  31.682  1.00  0.00     0.000 C 
ENDROOT
BRANCH   1   2
ATOM      2  C   UNL     1      22.278  11.893  31.499  1.00  0.00     0.000 C 
BRANCH   2   3
ATOM      3  C   UNL     1      23.016  12.210  32.810  1.00  0.00     0.000 C 
BRANCH   3   4
ATOM      4  C   UNL     1      22.543  11.297  33.964  1.00  0.00     0.000 C 
BRANCH   4   5
ATOM      5  C   UNL     1      22.945  11.822  35.349  1.00  0.00     0.000 C 
BRANCH   5   6
ATOM      6  C   UNL     1      24.069  10.991  35.996  1.00  0.00     0.000 C 
BRANCH   6   7
ATOM      7  C   UNL     1      25.445  11.649  35.807  1.00  0.00     0.000 C 
BRANCH   7   8
ATOM      8  C   UNL     1      26.477  10.690  35.182  1.00  0.00     0.000 C 
BRANCH   8   9
ATOM      9  C   UNL     1      27.820  11.388  34.900  1.00  0.00     0.000 C 
BRANCH   9  10
ATOM     10  C   UNL     1      27.641  12.911  34.762  1.00  0.00     0.000 C 
BRANCH  10  11
ATOM     11  C   UNL     1      27.734  13.404  33.306  1.00  0.00     0.000 C 
BRANCH  11  12
ATOM     12  C   UNL     1      28.181  12.341  32.281  1.00  0.00     0.006 C 
BRANCH  12  13
ATOM     13  C   UNL     1      27.989  12.742  30.809  1.00  0.00     0.053 C 
BRANCH  13  14
ATOM     14  C   UNL     1      26.550  12.678  30.390  1.00  0.00     0.041 C 
ATOM     15  O   UNL     1      26.069  11.606  29.934  1.00  0.00    -0.550 OA
ATOM     16  O   UNL     1      25.752  13.814  30.469  1.00  0.00    -0.550 OA
ENDBRANCH  13  14
ENDBRANCH  12  13
ENDBRANCH  11  12
ENDBRANCH  10  11
ENDBRANCH   9  10
ENDBRANCH   8   9
ENDBRANCH   7   8
ENDBRANCH   6   7
ENDBRANCH   5   6
ENDBRANCH   4   5
ENDBRANCH   3   4
ENDBRANCH   2   3
ENDBRANCH   1   2
BRANCH   1  17
ATOM     17  C   UNL     1      20.485  10.370  30.377  1.00  0.00     0.000 C 
BRANCH  17  18
ATOM     18  C   UNL     1      18.961  10.546  30.248  1.00  0.00     0.000 C 
BRANCH  18  19
ATOM     19  C   UNL     1      18.399  11.630  31.180  1.00  0.00     0.000 C 
BRANCH  19  20
ATOM     20  C   UNL     1      18.387  13.026  30.528  1.00  0.00     0.000 C 
BRANCH  20  21
ATOM     21  C   UNL     1      18.334  14.222  31.505  1.00  0.00     0.000 C 
BRANCH  21  22
ATOM     22  C   UNL     1      18.566  13.857  32.982  1.00  0.00    -0.000 C 
BRANCH  22  23
ATOM     23  C   UNL     1      20.016  14.118  33.431  1.00  0.00    -0.000 C 
BRANCH  23  24
ATOM     24  C   UNL     1      20.199  13.955  34.950  1.00  0.00    -0.000 C 
BRANCH  24  25
ATOM     25  C   UNL     1      19.064  13.176  35.652  1.00  0.00    -0.000 C 
BRANCH  25  26
ATOM     26  C   UNL     1      19.353  11.683  35.908  1.00  0.00    -0.000 C 
BRANCH  26  27
ATOM     27  C   UNL     1      18.986  10.789  34.714  1.00  0.00    -0.000 C 
BRANCH  27  28
ATOM     28  C   UNL     1      19.300   9.314  35.012  1.00  0.00    -0.000 C 
BRANCH  28  29
ATOM     29  C   UNL     1      20.013   9.122  36.358  1.00  0.00    -0.003 C 
ATOM     30  C   UNL     1      19.420   7.986  37.194  1.00  0.00     0.004 C 
ENDBRANCH  28  29
ENDBRANCH  27  28
ENDBRANCH  26  27
ENDBRANCH  25  26
ENDBRANCH  24  25
ENDBRANCH  23  24
ENDBRANCH  22  23
ENDBRANCH  21  22
ENDBRANCH  20  21
ENDBRANCH  19  20
ENDBRANCH  18  19
ENDBRANCH  17  18
ENDBRANCH   1  17
TORSDOF 26
ENDMDL
MODEL 2
REMARK VINA RESULT:    -4.781      1.700      4.574
REMARK INTER + INTRA:         -16.115
REMARK INTER:                 -11.507
REMARK INTRA:                  -4.608
REMARK UNBOUND:                -4.068
REMARK SMILES CCCCCCCCCCCCCCCCCCCCCCCCCCCC(=O)[O-]
REMARK SMILES IDX 15 1 16 2 17 3 18 4 19 5 20 6 21 7 22 8 23 9 24 10 25 11
REMARK SMILES IDX 26 12 27 13 28 14 29 15 30 16 14 17 13 18 12 19 11 20 10 21
REMARK SMILES IDX 9 22 8 23 7 24 6 25 5 26 4 27 3 28 2 29 1 30
REMARK H PARENT
REMARK Flexibility Score: inf
ROOT
ATOM      1  C   UNL     1      23.449  11.305  35.071  1.00  0.00     0.000 C 
ENDROOT
BRANCH   1   2
ATOM      2  C   UNL     1      23.339  12.225  33.841  1.00  0.00     0.000 C 
BRANCH   2   3
ATOM      3  C   UNL     1      22.447  11.648  32.729  1.00  0.00     0.000 C 
BRANCH   3   4
ATOM      4  C   UNL     1      22.411  12.573  31.492  1.00  0.00     0.000 C 
BRANCH   4   5
ATOM      5  C   UNL     1      22.813  11.858  30.195  1.00  0.00     0.000 C 
BRANCH   5   6
ATOM      6  C   UNL     1      24.335  11.875  29.956  1.00  0.00     0.000 C 
BRANCH   6   7
ATOM      7  C   UNL     1      24.936  13.268  30.206  1.00  0.00     0.000 C 
BRANCH   7   8
ATOM      8  C   UNL     1      26.306  13.202  30.909  1.00  0.00     0.000 C 
BRANCH   8   9
ATOM      9  C   UNL     1      26.955  11.812  30.782  1.00  0.00     0.000 C 
BRANCH   9  10
ATOM     10  C   UNL     1      27.623  11.383  32.101  1.00  0.00     0.000 C 
BRANCH  10  11
ATOM     11  C   UNL     1      26.636  11.288  33.280  1.00  0.00     0.000 C 
BRANCH  11  12
ATOM     12  C   UNL     1      27.287  11.114  34.667  1.00  0.00     0.006 C 
BRANCH  12  13
ATOM     13  C   UNL     1      27.871  12.401  35.275  1.00  0.00     0.053 C 
BRANCH  13  14
ATOM     14  C   UNL     1      26.956  13.575  35.095  1.00  0.00     0.041 C 
ATOM     15  O   UNL     1      25.892  13.659  35.764  1.00  0.00    -0.550 OA
ATOM     16  O   UNL     1      27.263  14.558  34.160  1.00  0.00    -0.550 OA
ENDBRANCH  13  14
ENDBRANCH  12  13
ENDBRANCH  11  12
ENDBRANCH  10  11
ENDBRANCH   9  10
ENDBRANCH   8   9
ENDBRANCH   7   8
ENDBRANCH   6   7
ENDBRANCH   5   6
ENDBRANCH   4   5
ENDBRANCH   3   4
ENDBRANCH   2   3
ENDBRANCH   1   2
BRANCH   1  17
ATOM     17  C   UNL     1      22.130  11.060  35.834  1.00  0.00     0.000 C 
BRANCH  17  18
ATOM     18  C   UNL     1      21.455   9.700  35.576  1.00  0.00     0.000 C 
BRANCH  18  19
ATOM     19  C   UNL     1      19.924   9.757  35.686  1.00  0.00     0.000 C 
BRANCH  19  20
ATOM     20  C   UNL     1      19.236   9.901  34.314  1.00  0.00     0.000 C 
BRANCH  20  21
ATOM     21  C   UNL     1      19.847   9.065  33.167  1.00  0.00     0.000 C 
BRANCH  21  22
ATOM     22  C   UNL     1      19.740   9.709  31.774  1.00  0.00    -0.000 C 
BRANCH  22  23
ATOM     23  C   UNL     1      18.546  10.675  31.662  1.00  0.00    -0.000 C 
BRANCH  23  24
ATOM     24  C   UNL     1      18.901  11.963  30.899  1.00  0.00    -0.000 C 
BRANCH  24  25
ATOM     25  C   UNL     1      17.879  13.111  31.071  1.00  0.00    -0.000 C 
BRANCH  25  26
ATOM     26  C   UNL     1      18.227  14.142  32.164  1.00  0.00    -0.000 C 
BRANCH  26  27
ATOM     27  C   UNL     1      18.455  13.500  33.541  1.00  0.00    -0.000 C 
BRANCH  27  28
ATOM     28  C   UNL     1      19.857  13.830  34.078  1.00  0.00    -0.000 C 
BRANCH  28  29
ATOM     29  C   UNL     1      19.986  13.577  35.588  1.00  0.00    -0.003 C 
ATOM     30  C   UNL     1      18.654  13.219  36.250  1.00  0.00     0.004 C 
ENDBRANCH  28  29
ENDBRANCH  27  28
ENDBRANCH  26  27
ENDBRANCH  25  26
ENDBRANCH  24  25
ENDBRANCH  23  24
ENDBRANCH  22  23
ENDBRANCH  21  22
ENDBRANCH  20  21
ENDBRANCH  19  20
ENDBRANCH  18  19
ENDBRANCH  17  18
ENDBRANCH   1  17
TORSDOF 26
ENDMDL
MODEL 3
REMARK VINA RESULT:    -4.725      1.824      4.105
REMARK INTER + INTRA:         -15.976
REMARK INTER:                 -11.676
REMARK INTRA:                  -4.300
REMARK UNBOUND:                -4.068
REMARK SMILES CCCCCCCCCCCCCCCCCCCCCCCCCCCC(=O)[O-]
REMARK SMILES IDX 15 1 16 2 17 3 18 4 19 5 20 6 21 7 22 8 23 9 24 10 25 11
REMARK SMILES IDX 26 12 27 13 28 14 29 15 30 16 14 17 13 18 12 19 11 20 10 21
REMARK SMILES IDX 9 22 8 23 7 24 6 25 5 26 4 27 3 28 2 29 1 30
REMARK H PARENT
REMARK Flexibility Score: inf
ROOT
ATOM      1  C   UNL     1      22.141  11.821  35.636  1.00  0.00     0.000 C 
ENDROOT
BRANCH   1   2
ATOM      2  C   UNL     1      22.970  11.327  34.436  1.00  0.00     0.000 C 
BRANCH   2   3
ATOM      3  C   UNL     1      22.499  11.908  33.093  1.00  0.00     0.000 C 
BRANCH   3   4
ATOM      4  C   UNL     1      23.691  12.365  32.221  1.00  0.00     0.000 C 
BRANCH   4   5
ATOM      5  C   UNL     1      23.365  12.388  30.722  1.00  0.00     0.000 C 
BRANCH   5   6
ATOM      6  C   UNL     1      24.434  13.128  29.895  1.00  0.00     0.000 C 
BRANCH   6   7
ATOM      7  C   UNL     1      25.777  12.379  29.899  1.00  0.00     0.000 C 
BRANCH   7   8
ATOM      8  C   UNL     1      26.906  13.196  30.558  1.00  0.00     0.000 C 
BRANCH   8   9
ATOM      9  C   UNL     1      28.076  12.305  31.012  1.00  0.00     0.000 C 
BRANCH   9  10
ATOM     10  C   UNL     1      28.110  12.161  32.545  1.00  0.00     0.000 C 
BRANCH  10  11
ATOM     11  C   UNL     1      26.961  11.301  33.100  1.00  0.00     0.000 C 
BRANCH  11  12
ATOM     12  C   UNL     1      26.957  11.120  34.632  1.00  0.00     0.006 C 
BRANCH  12  13
ATOM     13  C   UNL     1      27.562  12.293  35.423  1.00  0.00     0.053 C 
BRANCH  13  14
ATOM     14  C   UNL     1      26.629  13.465  35.495  1.00  0.00     0.041 C 
ATOM     15  O   UNL     1      25.440  13.307  35.879  1.00  0.00    -0.550 OA
ATOM     16  O   UNL     1      27.066  14.726  35.102  1.00  0.00    -0.550 OA
ENDBRANCH  13  14
ENDBRANCH  12  13
ENDBRANCH  11  12
ENDBRANCH  10  11
ENDBRANCH   9  10
ENDBRANCH   8   9
ENDBRANCH   7   8
ENDBRANCH   6   7
ENDBRANCH   5   6
ENDBRANCH   4   5
ENDBRANCH   3   4
ENDBRANCH   2   3
ENDBRANCH   1   2
BRANCH   1  17
ATOM     17  C   UNL     1      21.185  12.997  35.341  1.00  0.00     0.000 C 
BRANCH  17  18
ATOM     18  C   UNL     1      19.768  12.865  35.928  1.00  0.00     0.000 C 
BRANCH  18  19
ATOM     19  C   UNL     1      18.678  13.432  35.007  1.00  0.00     0.000 C 
BRANCH  19  20
ATOM     20  C   UNL     1      17.917  12.332  34.241  1.00  0.00     0.000 C 
BRANCH  20  21
ATOM     21  C   UNL     1      17.876  12.493  32.704  1.00  0.00     0.000 C 
BRANCH  21  22
ATOM     22  C   UNL     1      19.080  13.237  32.102  1.00  0.00    -0.000 C 
BRANCH  22  23
ATOM     23  C   UNL     1      19.730  12.462  30.940  1.00  0.00    -0.000 C 
BRANCH  23  24
ATOM     24  C   UNL     1      19.127  11.058  30.760  1.00  0.00    -0.000 C 
BRANCH  24  25
ATOM     25  C   UNL     1      20.007   9.908  31.301  1.00  0.00    -0.000 C 
BRANCH  25  26
ATOM     26  C   UNL     1      19.372   9.068  32.426  1.00  0.00    -0.000 C 
BRANCH  26  27
ATOM     27  C   UNL     1      20.079   9.246  33.779  1.00  0.00    -0.000 C 
BRANCH  27  28
ATOM     28  C   UNL     1      19.087   9.095  34.944  1.00  0.00    -0.000 C 
BRANCH  28  29
ATOM     29  C   UNL     1      19.782   9.090  36.314  1.00  0.00    -0.003 C 
ATOM     30  C   UNL     1      19.443   7.856  37.153  1.00  0.00     0.004 C 
ENDBRANCH  28  29
ENDBRANCH  27  28
ENDBRANCH  26  27
ENDBRANCH  25  26
ENDBRANCH  24  25
ENDBRANCH  23  24
ENDBRANCH  22  23
ENDBRANCH  21  22
ENDBRANCH  20  21
ENDBRANCH  19  20
ENDBRANCH  18  19
ENDBRANCH  17  18
ENDBRANCH   1  17
TORSDOF 26
ENDMDL
MODEL 4
REMARK VINA RESULT:    -4.542      2.046      7.231
REMARK INTER + INTRA:         -15.515
REMARK INTER:                 -11.366
REMARK INTRA:                  -4.148
REMARK UNBOUND:                -4.068
REMARK SMILES CCCCCCCCCCCCCCCCCCCCCCCCCCCC(=O)[O-]
REMARK SMILES IDX 15 1 16 2 17 3 18 4 19 5 20 6 21 7 22 8 23 9 24 10 25 11
REMARK SMILES IDX 26 12 27 13 28 14 29 15 30 16 14 17 13 18 12 19 11 20 10 21
REMARK SMILES IDX 9 22 8 23 7 24 6 25 5 26 4 27 3 28 2 29 1 30
REMARK H PARENT
REMARK Flexibility Score: inf
ROOT
ATOM      1  C   UNL     1      22.874  12.077  34.999  1.00  0.00     0.000 C 
ENDROOT
BRANCH   1   2
ATOM      2  C   UNL     1      22.693  10.813  35.860  1.00  0.00     0.000 C 
BRANCH   2   3
ATOM      3  C   UNL     1      21.653   9.835  35.291  1.00  0.00     0.000 C 
BRANCH   3   4
ATOM      4  C   UNL     1      20.315   9.917  36.059  1.00  0.00     0.000 C 
BRANCH   4   5
ATOM      5  C   UNL     1      19.316  10.895  35.425  1.00  0.00     0.000 C 
BRANCH   5   6
ATOM      6  C   UNL     1      19.324  12.276  36.107  1.00  0.00     0.000 C 
BRANCH   6   7
ATOM      7  C   UNL     1      19.017  13.406  35.111  1.00  0.00     0.000 C 
BRANCH   7   8
ATOM      8  C   UNL     1      20.281  14.184  34.694  1.00  0.00     0.000 C 
BRANCH   8   9
ATOM      9  C   UNL     1      20.258  14.568  33.204  1.00  0.00     0.000 C 
BRANCH   9  10
ATOM     10  C   UNL     1      19.039  13.959  32.486  1.00  0.00     0.000 C 
BRANCH  10  11
ATOM     11  C   UNL     1      19.374  13.394  31.094  1.00  0.00     0.000 C 
BRANCH  11  12
ATOM     12  C   UNL     1      18.683  12.059  30.745  1.00  0.00     0.006 C 
BRANCH  12  13
ATOM     13  C   UNL     1      18.758  10.986  31.844  1.00  0.00     0.053 C 
BRANCH  13  14
ATOM     14  C   UNL     1      19.694   9.872  31.483  1.00  0.00     0.041 C 
ATOM     15  O   UNL     1      20.005   9.002  32.339  1.00  0.00    -0.550 OA
ATOM     16  O   UNL     1      20.252   9.818  30.209  1.00  0.00    -0.550 OA
ENDBRANCH  13  14
ENDBRANCH  12  13
ENDBRANCH  11  12
ENDBRANCH  10  11
ENDBRANCH   9  10
ENDBRANCH   8   9
ENDBRANCH   7   8
ENDBRANCH   6   7
ENDBRANCH   5   6
ENDBRANCH   4   5
ENDBRANCH   3   4
ENDBRANCH   2   3
ENDBRANCH   1   2
BRANCH   1  17
ATOM     17  C   UNL     1      23.399  11.835  33.568  1.00  0.00     0.000 C 
BRANCH  17  18
ATOM     18  C   UNL     1      22.435  12.222  32.432  1.00  0.00     0.000 C 
BRANCH  18  19
ATOM     19  C   UNL     1      22.980  11.881  31.037  1.00  0.00     0.000 C 
BRANCH  19  20
ATOM     20  C   UNL     1      23.325  13.137  30.212  1.00  0.00     0.000 C 
BRANCH  20  21
ATOM     21  C   UNL     1      24.829  13.373  29.949  1.00  0.00     0.000 C 
BRANCH  21  22
ATOM     22  C   UNL     1      25.772  12.720  30.975  1.00  0.00    -0.000 C 
BRANCH  22  23
ATOM     23  C   UNL     1      26.648  11.618  30.351  1.00  0.00    -0.000 C 
BRANCH  23  24
ATOM     24  C   UNL     1      27.842  11.240  31.244  1.00  0.00    -0.000 C 
BRANCH  24  25
ATOM     25  C   UNL     1      27.955  12.066  32.546  1.00  0.00    -0.000 C 
BRANCH  25  26
ATOM     26  C   UNL     1      28.348  11.262  33.802  1.00  0.00    -0.000 C 
BRANCH  26  27
ATOM     27  C   UNL     1      28.013  11.995  35.110  1.00  0.00    -0.000 C 
BRANCH  27  28
ATOM     28  C   UNL     1      26.497  12.209  35.250  1.00  0.00    -0.000 C 
BRANCH  28  29
ATOM     29  C   UNL     1      26.132  13.670  35.556  1.00  0.00    -0.003 C 
ATOM     30  C   UNL     1      27.248  14.653  35.196  1.00  0.00     0.004 C 
ENDBRANCH  28  29
ENDBRANCH  27  28
ENDBRANCH  26  27
ENDBRANCH  25  26
ENDBRANCH  24  25
ENDBRANCH  23  24
ENDBRANCH  22  23
ENDBRANCH  21  22
ENDBRANCH  20  21
ENDBRANCH  19  20
ENDBRANCH  18  19
ENDBRANCH  17  18
ENDBRANCH   1  17
TORSDOF 26
ENDMDL
MODEL 5
REMARK VINA RESULT:    -4.476      1.821      4.523
REMARK INTER + INTRA:         -15.348
REMARK INTER:                 -10.912
REMARK INTRA:                  -4.436
REMARK UNBOUND:                -4.068
REMARK SMILES CCCCCCCCCCCCCCCCCCCCCCCCCCCC(=O)[O-]
REMARK SMILES IDX 15 1 16 2 17 3 18 4 19 5 20 6 21 7 22 8 23 9 24 10 25 11
REMARK SMILES IDX 26 12 27 13 28 14 29 15 30 16 14 17 13 18 12 19 11 20 10 21
REMARK SMILES IDX 9 22 8 23 7 24 6 25 5 26 4 27 3 28 2 29 1 30
REMARK H PARENT
REMARK Flexibility Score: inf
ROOT
ATOM      1  C   UNL     1      23.491  11.146  34.603  1.00  0.00     0.000 C 
ENDROOT
BRANCH   1   2
ATOM      2  C   UNL     1      23.141  12.266  33.605  1.00  0.00     0.000 C 
BRANCH   2   3
ATOM      3  C   UNL     1      22.081  11.849  32.573  1.00  0.00     0.000 C 
BRANCH   3   4
ATOM      4  C   UNL     1      22.260  12.604  31.237  1.00  0.00     0.000 C 
BRANCH   4   5
ATOM      5  C   UNL     1      22.786  11.710  30.106  1.00  0.00     0.000 C 
BRANCH   5   6
ATOM      6  C   UNL     1      24.303  11.862  29.886  1.00  0.00     0.000 C 
BRANCH   6   7
ATOM      7  C   UNL     1      24.806  13.247  30.324  1.00  0.00     0.000 C 
BRANCH   7   8
ATOM      8  C   UNL     1      26.240  13.202  30.889  1.00  0.00     0.000 C 
BRANCH   8   9
ATOM      9  C   UNL     1      26.938  11.864  30.588  1.00  0.00     0.000 C 
BRANCH   9  10
ATOM     10  C   UNL     1      27.560  11.258  31.860  1.00  0.00     0.000 C 
BRANCH  10  11
ATOM     11  C   UNL     1      26.781  11.606  33.142  1.00  0.00     0.000 C 
BRANCH  11  12
ATOM     12  C   UNL     1      27.475  11.204  34.460  1.00  0.00     0.006 C 
BRANCH  12  13
ATOM     13  C   UNL     1      27.781  12.372  35.412  1.00  0.00     0.053 C 
BRANCH  13  14
ATOM     14  C   UNL     1      26.874  13.543  35.179  1.00  0.00     0.041 C 
ATOM     15  O   UNL     1      25.742  13.588  35.730  1.00  0.00    -0.550 OA
ATOM     16  O   UNL     1      27.266  14.566  34.323  1.00  0.00    -0.550 OA
ENDBRANCH  13  14
ENDBRANCH  12  13
ENDBRANCH  11  12
ENDBRANCH  10  11
ENDBRANCH   9  10
ENDBRANCH   8   9
ENDBRANCH   7   8
ENDBRANCH   6   7
ENDBRANCH   5   6
ENDBRANCH   4   5
ENDBRANCH   3   4
ENDBRANCH   2   3
ENDBRANCH   1   2
BRANCH   1  17
ATOM     17  C   UNL     1      22.603  11.080  35.863  1.00  0.00     0.000 C 
BRANCH  17  18
ATOM     18  C   UNL     1      21.446  10.066  35.809  1.00  0.00     0.000 C 
BRANCH  18  19
ATOM     19  C   UNL     1      20.067  10.731  35.678  1.00  0.00     0.000 C 
BRANCH  19  20
ATOM     20  C   UNL     1      20.130  12.263  35.842  1.00  0.00     0.000 C 
BRANCH  20  21
ATOM     21  C   UNL     1      18.794  12.953  36.200  1.00  0.00     0.000 C 
BRANCH  21  22
ATOM     22  C   UNL     1      18.164  13.768  35.057  1.00  0.00    -0.000 C 
BRANCH  22  23
ATOM     23  C   UNL     1      19.011  13.729  33.771  1.00  0.00    -0.000 C 
BRANCH  23  24
ATOM     24  C   UNL     1      18.151  13.829  32.498  1.00  0.00    -0.000 C 
BRANCH  24  25
ATOM     25  C   UNL     1      18.957  13.828  31.179  1.00  0.00    -0.000 C 
BRANCH  25  26
ATOM     26  C   UNL     1      18.604  12.695  30.195  1.00  0.00    -0.000 C 
BRANCH  26  27
ATOM     27  C   UNL     1      18.572  11.311  30.861  1.00  0.00    -0.000 C 
BRANCH  27  28
ATOM     28  C   UNL     1      19.356  10.281  30.031  1.00  0.00    -0.000 C 
BRANCH  28  29
ATOM     29  C   UNL     1      20.012   9.198  30.901  1.00  0.00    -0.003 C 
ATOM     30  C   UNL     1      19.518   9.212  32.349  1.00  0.00     0.004 C 
ENDBRANCH  28  29
ENDBRANCH  27  28
ENDBRANCH  26  27
ENDBRANCH  25  26
ENDBRANCH  24  25
ENDBRANCH  23  24
ENDBRANCH  22  23
ENDBRANCH  21  22
ENDBRANCH  20  21
ENDBRANCH  19  20
ENDBRANCH  18  19
ENDBRANCH  17  18
ENDBRANCH   1  17
TORSDOF 26
ENDMDL
MODEL 6
REMARK VINA RESULT:    -4.448      2.574      7.703
REMARK INTER + INTRA:         -15.277
REMARK INTER:                 -10.723
REMARK INTRA:                  -4.554
REMARK UNBOUND:                -4.068
REMARK SMILES CCCCCCCCCCCCCCCCCCCCCCCCCCCC(=O)[O-]
REMARK SMILES IDX 15 1 16 2 17 3 18 4 19 5 20 6 21 7 22 8 23 9 24 10 25 11
REMARK SMILES IDX 26 12 27 13 28 14 29 15 30 16 14 17 13 18 12 19 11 20 10 21
REMARK SMILES IDX 9 22 8 23 7 24 6 25 5 26 4 27 3 28 2 29 1 30
REMARK H PARENT
REMARK Flexibility Score: inf
ROOT
ATOM      1  C   UNL     1      22.121  12.901  34.400  1.00  0.00     0.000 C 
ENDROOT
BRANCH   1   2
ATOM      2  C   UNL     1      20.878  13.808  34.360  1.00  0.00     0.000 C 
BRANCH   2   3
ATOM      3  C   UNL     1      20.339  14.035  32.938  1.00  0.00     0.000 C 
BRANCH   3   4
ATOM      4  C   UNL     1      18.798  13.928  32.889  1.00  0.00     0.000 C 
BRANCH   4   5
ATOM      5  C   UNL     1      18.281  13.278  31.598  1.00  0.00     0.000 C 
BRANCH   5   6
ATOM      6  C   UNL     1      19.416  12.903  30.627  1.00  0.00     0.000 C 
BRANCH   6   7
ATOM      7  C   UNL     1      19.250  11.477  30.078  1.00  0.00     0.000 C 
BRANCH   7   8
ATOM      8  C   UNL     1      20.314  10.506  30.626  1.00  0.00     0.000 C 
BRANCH   8   9
ATOM      9  C   UNL     1      19.684   9.238  31.230  1.00  0.00     0.000 C 
BRANCH   9  10
ATOM     10  C   UNL     1      18.264   9.515  31.758  1.00  0.00     0.000 C 
BRANCH  10  11
ATOM     11  C   UNL     1      18.190   9.583  33.295  1.00  0.00     0.000 C 
BRANCH  11  12
ATOM     12  C   UNL     1      19.248  10.486  33.963  1.00  0.00     0.006 C 
BRANCH  12  13
ATOM     13  C   UNL     1      19.276  10.422  35.499  1.00  0.00     0.053 C 
BRANCH  13  14
ATOM     14  C   UNL     1      20.118   9.287  36.001  1.00  0.00     0.041 C 
ATOM     15  O   UNL     1      21.246   9.059  35.488  1.00  0.00    -0.550 OA
ATOM     16  O   UNL     1      19.639   8.460  37.012  1.00  0.00    -0.550 OA
ENDBRANCH  13  14
ENDBRANCH  12  13
ENDBRANCH  11  12
ENDBRANCH  10  11
ENDBRANCH   9  10
ENDBRANCH   8   9
ENDBRANCH   7   8
ENDBRANCH   6   7
ENDBRANCH   5   6
ENDBRANCH   4   5
ENDBRANCH   3   4
ENDBRANCH   2   3
ENDBRANCH   1   2
BRANCH   1  17
ATOM     17  C   UNL     1      22.363  12.050  33.136  1.00  0.00     0.000 C 
BRANCH  17  18
ATOM     18  C   UNL     1      23.664  12.350  32.371  1.00  0.00     0.000 C 
BRANCH  18  19
ATOM     19  C   UNL     1      23.498  12.275  30.846  1.00  0.00     0.000 C 
BRANCH  19  20
ATOM     20  C   UNL     1      24.431  13.248  30.099  1.00  0.00     0.000 C 
BRANCH  20  21
ATOM     21  C   UNL     1      25.944  12.964  30.235  1.00  0.00     0.000 C 
BRANCH  21  22
ATOM     22  C   UNL     1      26.330  11.477  30.138  1.00  0.00    -0.000 C 
BRANCH  22  23
ATOM     23  C   UNL     1      27.599  11.145  30.945  1.00  0.00    -0.000 C 
BRANCH  23  24
ATOM     24  C   UNL     1      28.296  12.405  31.489  1.00  0.00    -0.000 C 
BRANCH  24  25
ATOM     25  C   UNL     1      28.277  12.533  33.029  1.00  0.00    -0.000 C 
BRANCH  25  26
ATOM     26  C   UNL     1      27.256  13.542  33.592  1.00  0.00    -0.000 C 
BRANCH  26  27
ATOM     27  C   UNL     1      27.102  13.450  35.118  1.00  0.00    -0.000 C 
BRANCH  27  28
ATOM     28  C   UNL     1      25.734  12.860  35.500  1.00  0.00    -0.000 C 
BRANCH  28  29
ATOM     29  C   UNL     1      25.681  11.334  35.331  1.00  0.00    -0.003 C 
ATOM     30  C   UNL     1      24.450  10.702  35.985  1.00  0.00     0.004 C 
ENDBRANCH  28  29
ENDBRANCH  27  28
ENDBRANCH  26  27
ENDBRANCH  25  26
ENDBRANCH  24  25
ENDBRANCH  23  24
ENDBRANCH  22  23
ENDBRANCH  21  22
ENDBRANCH  20  21
ENDBRANCH  19  20
ENDBRANCH  18  19
ENDBRANCH  17  18
ENDBRANCH   1  17
TORSDOF 26
ENDMDL
MODEL 7
REMARK VINA RESULT:    -4.419      2.180      6.978
REMARK INTER + INTRA:         -15.204
REMARK INTER:                 -10.427
REMARK INTRA:                  -4.776
REMARK UNBOUND:                -4.068
REMARK SMILES CCCCCCCCCCCCCCCCCCCCCCCCCCCC(=O)[O-]
REMARK SMILES IDX 15 1 16 2 17 3 18 4 19 5 20 6 21 7 22 8 23 9 24 10 25 11
REMARK SMILES IDX 26 12 27 13 28 14 29 15 30 16 14 17 13 18 12 19 11 20 10 21
REMARK SMILES IDX 9 22 8 23 7 24 6 25 5 26 4 27 3 28 2 29 1 30
REMARK H PARENT
REMARK Flexibility Score: inf
ROOT
ATOM      1  C   UNL     1      23.209  12.279  32.075  1.00  0.00     0.000 C 
ENDROOT
BRANCH   1   2
ATOM      2  C   UNL     1      21.925  11.536  32.486  1.00  0.00     0.000 C 
BRANCH   2   3
ATOM      3  C   UNL     1      21.122  11.003  31.288  1.00  0.00     0.000 C 
BRANCH   3   4
ATOM      4  C   UNL     1      20.437   9.657  31.615  1.00  0.00     0.000 C 
BRANCH   4   5
ATOM      5  C   UNL     1      18.982   9.818  32.075  1.00  0.00     0.000 C 
BRANCH   5   6
ATOM      6  C   UNL     1      18.559   8.741  33.092  1.00  0.00     0.000 C 
BRANCH   6   7
ATOM      7  C   UNL     1      18.653   9.253  34.538  1.00  0.00     0.000 C 
BRANCH   7   8
ATOM      8  C   UNL     1      20.080   9.142  35.111  1.00  0.00     0.000 C 
BRANCH   8   9
ATOM      9  C   UNL     1      20.477  10.390  35.921  1.00  0.00     0.000 C 
BRANCH   9  10
ATOM     10  C   UNL     1      19.590  11.596  35.562  1.00  0.00     0.000 C 
BRANCH  10  11
ATOM     11  C   UNL     1      20.358  12.931  35.545  1.00  0.00     0.000 C 
BRANCH  11  12
ATOM     12  C   UNL     1      19.893  13.942  34.477  1.00  0.00     0.006 C 
BRANCH  12  13
ATOM     13  C   UNL     1      18.900  13.381  33.444  1.00  0.00     0.053 C 
BRANCH  13  14
ATOM     14  C   UNL     1      18.939  14.142  32.153  1.00  0.00     0.041 C 
ATOM     15  O   UNL     1      17.875  14.585  31.645  1.00  0.00    -0.550 OA
ATOM     16  O   UNL     1      20.149  14.328  31.492  1.00  0.00    -0.550 OA
ENDBRANCH  13  14
ENDBRANCH  12  13
ENDBRANCH  11  12
ENDBRANCH  10  11
ENDBRANCH   9  10
ENDBRANCH   8   9
ENDBRANCH   7   8
ENDBRANCH   6   7
ENDBRANCH   5   6
ENDBRANCH   4   5
ENDBRANCH   3   4
ENDBRANCH   2   3
ENDBRANCH   1   2
BRANCH   1  17
ATOM     17  C   UNL     1      23.345  12.582  30.567  1.00  0.00     0.000 C 
BRANCH  17  18
ATOM     18  C   UNL     1      24.755  12.395  29.977  1.00  0.00     0.000 C 
BRANCH  18  19
ATOM     19  C   UNL     1      25.724  13.523  30.362  1.00  0.00     0.000 C 
BRANCH  19  20
ATOM     20  C   UNL     1      26.881  13.033  31.254  1.00  0.00     0.000 C 
BRANCH  20  21
ATOM     21  C   UNL     1      26.895  11.519  31.561  1.00  0.00     0.000 C 
BRANCH  21  22
ATOM     22  C   UNL     1      26.881  11.165  33.058  1.00  0.00    -0.000 C 
BRANCH  22  23
ATOM     23  C   UNL     1      28.195  11.546  33.765  1.00  0.00    -0.000 C 
BRANCH  23  24
ATOM     24  C   UNL     1      27.957  12.170  35.151  1.00  0.00    -0.000 C 
BRANCH  24  25
ATOM     25  C   UNL     1      27.652  13.686  35.127  1.00  0.00    -0.000 C 
BRANCH  25  26
ATOM     26  C   UNL     1      26.170  14.061  35.324  1.00  0.00    -0.000 C 
BRANCH  26  27
ATOM     27  C   UNL     1      25.393  13.018  36.142  1.00  0.00    -0.000 C 
BRANCH  27  28
ATOM     28  C   UNL     1      24.064  12.659  35.457  1.00  0.00    -0.000 C 
BRANCH  28  29
ATOM     29  C   UNL     1      23.752  11.156  35.522  1.00  0.00    -0.003 C 
ATOM     30  C   UNL     1      24.824  10.355  36.265  1.00  0.00     0.004 C 
ENDBRANCH  28  29
ENDBRANCH  27  28
ENDBRANCH  26  27
ENDBRANCH  25  26
ENDBRANCH  24  25
ENDBRANCH  23  24
ENDBRANCH  22  23
ENDBRANCH  21  22
ENDBRANCH  20  21
ENDBRANCH  19  20
ENDBRANCH  18  19
ENDBRANCH  17  18
ENDBRANCH   1  17
TORSDOF 26
ENDMDL
MODEL 8
REMARK VINA RESULT:    -4.333     16.900     19.021
REMARK INTER + INTRA:         -14.987
REMARK INTER:                 -10.535
REMARK INTRA:                  -4.452
REMARK UNBOUND:                -4.068
REMARK SMILES CCCCCCCCCCCCCCCCCCCCCCCCCCCC(=O)[O-]
REMARK SMILES IDX 15 1 16 2 17 3 18 4 19 5 20 6 21 7 22 8 23 9 24 10 25 11
REMARK SMILES IDX 26 12 27 13 28 14 29 15 30 16 14 17 13 18 12 19 11 20 10 21
REMARK SMILES IDX 9 22 8 23 7 24 6 25 5 26 4 27 3 28 2 29 1 30
REMARK H PARENT
REMARK Flexibility Score: inf
ROOT
ATOM      1  C   UNL     1      33.664   6.351  45.210  1.00  0.00     0.000 C 
ENDROOT
BRANCH   1   2
ATOM      2  C   UNL     1      34.006   7.838  45.419  1.00  0.00     0.000 C 
BRANCH   2   3
ATOM      3  C   UNL     1      34.379   8.563  44.115  1.00  0.00     0.000 C 
BRANCH   3   4
ATOM      4  C   UNL     1      34.420  10.096  44.309  1.00  0.00     0.000 C 
BRANCH   4   5
ATOM      5  C   UNL     1      35.100  10.520  45.618  1.00  0.00     0.000 C 
BRANCH   5   6
ATOM      6  C   UNL     1      35.544  11.994  45.604  1.00  0.00     0.000 C 
BRANCH   6   7
ATOM      7  C   UNL     1      36.953  12.171  46.193  1.00  0.00     0.000 C 
BRANCH   7   8
ATOM      8  C   UNL     1      37.007  11.851  47.700  1.00  0.00     0.000 C 
BRANCH   8   9
ATOM      9  C   UNL     1      37.234  13.113  48.551  1.00  0.00     0.000 C 
BRANCH   9  10
ATOM     10  C   UNL     1      35.931  13.916  48.723  1.00  0.00     0.000 C 
BRANCH  10  11
ATOM     11  C   UNL     1      36.032  15.358  48.195  1.00  0.00     0.000 C 
BRANCH  11  12
ATOM     12  C   UNL     1      35.236  15.641  46.904  1.00  0.00     0.006 C 
BRANCH  12  13
ATOM     13  C   UNL     1      36.093  15.794  45.636  1.00  0.00     0.053 C 
BRANCH  13  14
ATOM     14  C   UNL     1      36.670  17.172  45.507  1.00  0.00     0.041 C 
ATOM     15  O   UNL     1      37.642  17.383  44.734  1.00  0.00    -0.550 OA
ATOM     16  O   UNL     1      36.155  18.215  46.270  1.00  0.00    -0.550 OA
ENDBRANCH  13  14
ENDBRANCH  12  13
ENDBRANCH  11  12
ENDBRANCH  10  11
ENDBRANCH   9  10
ENDBRANCH   8   9
ENDBRANCH   7   8
ENDBRANCH   6   7
ENDBRANCH   5   6
ENDBRANCH   4   5
ENDBRANCH   3   4
ENDBRANCH   2   3
ENDBRANCH   1   2
BRANCH   1  17
ATOM     17  C   UNL     1      34.709   5.349  45.746  1.00  0.00     0.000 C 
BRANCH  17  18
ATOM     18  C   UNL     1      34.399   4.741  47.126  1.00  0.00     0.000 C 
BRANCH  18  19
ATOM     19  C   UNL     1      35.080   5.490  48.281  1.00  0.00     0.000 C 
BRANCH  19  20
ATOM     20  C   UNL     1      34.069   6.177  49.221  1.00  0.00     0.000 C 
BRANCH  20  21
ATOM     21  C   UNL     1      34.571   7.459  49.923  1.00  0.00     0.000 C 
BRANCH  21  22
ATOM     22  C   UNL     1      34.823   8.650  48.982  1.00  0.00    -0.000 C 
BRANCH  22  23
ATOM     23  C   UNL     1      34.347   9.986  49.584  1.00  0.00    -0.000 C 
BRANCH  23  24
ATOM     24  C   UNL     1      33.472  10.791  48.607  1.00  0.00    -0.000 C 
BRANCH  24  25
ATOM     25  C   UNL     1      32.164  10.082  48.186  1.00  0.00    -0.000 C 
BRANCH  25  26
ATOM     26  C   UNL     1      31.275   9.599  49.349  1.00  0.00    -0.000 C 
BRANCH  26  27
ATOM     27  C   UNL     1      30.549   8.281  49.040  1.00  0.00    -0.000 C 
BRANCH  27  28
ATOM     28  C   UNL     1      31.215   7.547  47.864  1.00  0.00    -0.000 C 
BRANCH  28  29
ATOM     29  C   UNL     1      30.642   6.139  47.645  1.00  0.00    -0.003 C 
ATOM     30  C   UNL     1      29.218   5.982  48.184  1.00  0.00     0.004 C 
ENDBRANCH  28  29
ENDBRANCH  27  28
ENDBRANCH  26  27
ENDBRANCH  25  26
ENDBRANCH  24  25
ENDBRANCH  23  24
ENDBRANCH  22  23
ENDBRANCH  21  22
ENDBRANCH  20  21
ENDBRANCH  19  20
ENDBRANCH  18  19
ENDBRANCH  17  18
ENDBRANCH   1  17
TORSDOF 26
ENDMDL
MODEL 9
REMARK VINA RESULT:    -4.309      2.244      4.652
REMARK INTER + INTRA:         -14.927
REMARK INTER:                 -11.172
REMARK INTRA:                  -3.755
REMARK UNBOUND:                -4.068
REMARK SMILES CCCCCCCCCCCCCCCCCCCCCCCCCCCC(=O)[O-]
REMARK SMILES IDX 15 1 16 2 17 3 18 4 19 5 20 6 21 7 22 8 23 9 24 10 25 11
REMARK SMILES IDX 26 12 27 13 28 14 29 15 30 16 14 17 13 18 12 19 11 20 10 21
REMARK SMILES IDX 9 22 8 23 7 24 6 25 5 26 4 27 3 28 2 29 1 30
REMARK H PARENT
REMARK Flexibility Score: inf
ROOT
ATOM      1  C   UNL     1      24.354  12.605  31.312  1.00  0.00     0.000 C 
ENDROOT
BRANCH   1   2
ATOM      2  C   UNL     1      25.837  12.835  30.968  1.00  0.00     0.000 C 
BRANCH   2   3
ATOM      3  C   UNL     1      26.585  11.539  30.613  1.00  0.00     0.000 C 
BRANCH   3   4
ATOM      4  C   UNL     1      28.080  11.622  30.997  1.00  0.00     0.000 C 
BRANCH   4   5
ATOM      5  C   UNL     1      28.368  12.679  32.072  1.00  0.00     0.000 C 
BRANCH   5   6
ATOM      6  C   UNL     1      28.370  12.090  33.496  1.00  0.00     0.000 C 
BRANCH   6   7
ATOM      7  C   UNL     1      27.917  13.123  34.540  1.00  0.00     0.000 C 
BRANCH   7   8
ATOM      8  C   UNL     1      26.409  13.032  34.846  1.00  0.00     0.000 C 
BRANCH   8   9
ATOM      9  C   UNL     1      25.875  11.596  34.696  1.00  0.00     0.000 C 
BRANCH   9  10
ATOM     10  C   UNL     1      24.906  11.236  35.837  1.00  0.00     0.000 C 
BRANCH  10  11
ATOM     11  C   UNL     1      23.458  11.023  35.361  1.00  0.00     0.000 C 
BRANCH  11  12
ATOM     12  C   UNL     1      22.518  12.230  35.557  1.00  0.00     0.006 C 
BRANCH  12  13
ATOM     13  C   UNL     1      22.020  12.881  34.256  1.00  0.00     0.053 C 
BRANCH  13  14
ATOM     14  C   UNL     1      20.756  13.660  34.462  1.00  0.00     0.041 C 
ATOM     15  O   UNL     1      20.256  14.321  33.512  1.00  0.00    -0.550 OA
ATOM     16  O   UNL     1      20.151  13.685  35.714  1.00  0.00    -0.550 OA
ENDBRANCH  13  14
ENDBRANCH  12  13
ENDBRANCH  11  12
ENDBRANCH  10  11
ENDBRANCH   9  10
ENDBRANCH   8   9
ENDBRANCH   7   8
ENDBRANCH   6   7
ENDBRANCH   5   6
ENDBRANCH   4   5
ENDBRANCH   3   4
ENDBRANCH   2   3
ENDBRANCH   1   2
BRANCH   1  17
ATOM     17  C   UNL     1      23.350  12.981  30.202  1.00  0.00     0.000 C 
BRANCH  17  18
ATOM     18  C   UNL     1      21.883  12.599  30.475  1.00  0.00     0.000 C 
BRANCH  18  19
ATOM     19  C   UNL     1      21.720  11.157  30.978  1.00  0.00     0.000 C 
BRANCH  19  20
ATOM     20  C   UNL     1      20.373  10.533  30.563  1.00  0.00     0.000 C 
BRANCH  20  21
ATOM     21  C   UNL     1      19.110  11.279  31.051  1.00  0.00     0.000 C 
BRANCH  21  22
ATOM     22  C   UNL     1      17.886  10.380  31.298  1.00  0.00    -0.000 C 
BRANCH  22  23
ATOM     23  C   UNL     1      18.280   8.931  31.641  1.00  0.00    -0.000 C 
BRANCH  23  24
ATOM     24  C   UNL     1      18.067   8.601  33.129  1.00  0.00    -0.000 C 
BRANCH  24  25
ATOM     25  C   UNL     1      18.821   9.532  34.106  1.00  0.00    -0.000 C 
BRANCH  25  26
ATOM     26  C   UNL     1      20.334   9.262  34.234  1.00  0.00    -0.000 C 
BRANCH  26  27
ATOM     27  C   UNL     1      20.759   8.911  35.668  1.00  0.00    -0.000 C 
BRANCH  27  28
ATOM     28  C   UNL     1      19.693   9.354  36.684  1.00  0.00    -0.000 C 
BRANCH  28  29
ATOM     29  C   UNL     1      18.940   8.168  37.306  1.00  0.00    -0.003 C 
ATOM     30  C   UNL     1      19.700   6.846  37.183  1.00  0.00     0.004 C 
ENDBRANCH  28  29
ENDBRANCH  27  28
ENDBRANCH  26  27
ENDBRANCH  25  26
ENDBRANCH  24  25
ENDBRANCH  23  24
ENDBRANCH  22  23
ENDBRANCH  21  22
ENDBRANCH  20  21
ENDBRANCH  19  20
ENDBRANCH  18  19
ENDBRANCH  17  18
ENDBRANCH   1  17
TORSDOF 26
ENDMDL
