MODEL 1
REMARK VINA RESULT:    -3.459      0.000      0.000
REMARK INTER + INTRA:          -7.246
REMARK INTER:                  -6.290
REMARK INTRA:                  -0.956
REMARK UNBOUND:                -0.956
REMARK SMILES CCCCCCCCCCCCCCCC(=O)[O-]
REMARK SMILES IDX 9 1 10 2 11 3 12 4 13 5 14 6 15 7 16 8 17 9 18 10 8 11 7 12
REMARK SMILES IDX 6 13 5 14 4 15 3 16 2 17 1 18
REMARK H PARENT
REMARK Flexibility Score: inf
ROOT
ATOM      1  C   UNL     1      -8.800   0.385  -4.968  1.00  0.00     0.000 C 
ENDROOT
BRANCH   1   2
ATOM      2  C   UNL     1      -9.392  -0.139  -6.292  1.00  0.00     0.000 C 
BRANCH   2   3
ATOM      3  C   UNL     1      -9.639   0.964  -7.343  1.00  0.00     0.000 C 
BRANCH   3   4
ATOM      4  C   UNL     1      -9.132   0.559  -8.739  1.00  0.00     0.000 C 
BRANCH   4   5
ATOM      5  C   UNL     1      -7.751   1.151  -9.062  1.00  0.00     0.000 C 
BRANCH   5   6
ATOM      6  C   UNL     1      -7.835   2.323 -10.055  1.00  0.00     0.006 C 
BRANCH   6   7
ATOM      7  C   UNL     1      -7.349   3.641  -9.438  1.00  0.00     0.053 C 
BRANCH   7   8
ATOM      8  C   UNL     1      -8.340   4.197  -8.461  1.00  0.00     0.041 C 
ATOM      9  O   UNL     1      -9.466   4.596  -8.859  1.00  0.00    -0.550 OA
ATOM     10  O   UNL     1      -8.031   4.246  -7.107  1.00  0.00    -0.550 OA
ENDBRANCH   7   8
ENDBRANCH   6   7
ENDBRANCH   5   6
ENDBRANCH   4   5
ENDBRANCH   3   4
ENDBRANCH   2   3
ENDBRANCH   1   2
BRANCH   1  11
ATOM     11  C   UNL     1      -8.886   1.909  -4.780  1.00  0.00     0.000 C 
BRANCH  11  12
ATOM     12  C   UNL     1      -8.025   2.413  -3.612  1.00  0.00    -0.000 C 
BRANCH  12  13
ATOM     13  C   UNL     1      -6.811   1.502  -3.395  1.00  0.00    -0.000 C 
BRANCH  13  14
ATOM     14  C   UNL     1      -5.790   2.160  -2.456  1.00  0.00    -0.000 C 
BRANCH  14  15
ATOM     15  C   UNL     1      -6.451   2.832  -1.242  1.00  0.00    -0.000 C 
BRANCH  15  16
ATOM     16  C   UNL     1      -5.436   3.203  -0.147  1.00  0.00    -0.000 C 
BRANCH  16  17
ATOM     17  C   UNL     1      -5.240   2.077   0.880  1.00  0.00    -0.003 C 
ATOM     18  C   UNL     1      -5.169   2.594   2.317  1.00  0.00     0.004 C 
ENDBRANCH  16  17
ENDBRANCH  15  16
ENDBRANCH  14  15
ENDBRANCH  13  14
ENDBRANCH  12  13
ENDBRANCH  11  12
ENDBRANCH   1  11
TORSDOF 14
ENDMDL
MODEL 2
REMARK VINA RESULT:    -3.398     14.867     16.689
REMARK INTER + INTRA:          -7.135
REMARK INTER:                  -5.570
REMARK INTRA:                  -1.565
REMARK UNBOUND:                -0.956
REMARK SMILES CCCCCCCCCCCCCCCC(=O)[O-]
REMARK SMILES IDX 9 1 10 2 11 3 12 4 13 5 14 6 15 7 16 8 17 9 18 10 8 11 7 12
REMARK SMILES IDX 6 13 5 14 4 15 3 16 2 17 1 18
REMARK H PARENT
REMARK Flexibility Score: inf
ROOT
ATOM      1  C   UNL     1       4.719   7.508  -3.381  1.00  0.00     0.000 C 
ENDROOT
BRANCH   1   2
ATOM      2  C   UNL     1       4.195   8.830  -3.979  1.00  0.00     0.000 C 
BRANCH   2   3
ATOM      3  C   UNL     1       4.404   8.948  -5.504  1.00  0.00     0.000 C 
BRANCH   3   4
ATOM      4  C   UNL     1       5.638   9.798  -5.856  1.00  0.00     0.000 C 
BRANCH   4   5
ATOM      5  C   UNL     1       6.874   8.941  -6.174  1.00  0.00     0.000 C 
BRANCH   5   6
ATOM      6  C   UNL     1       8.153   9.494  -5.521  1.00  0.00     0.006 C 
BRANCH   6   7
ATOM      7  C   UNL     1       9.404   9.203  -6.361  1.00  0.00     0.053 C 
BRANCH   7   8
ATOM      8  C   UNL     1       9.738   7.743  -6.373  1.00  0.00     0.041 C 
ATOM      9  O   UNL     1      10.035   7.152  -5.301  1.00  0.00    -0.550 OA
ATOM     10  O   UNL     1       9.694   7.028  -7.564  1.00  0.00    -0.550 OA
ENDBRANCH   7   8
ENDBRANCH   6   7
ENDBRANCH   5   6
ENDBRANCH   4   5
ENDBRANCH   3   4
ENDBRANCH   2   3
ENDBRANCH   1   2
BRANCH   1  11
ATOM     11  C   UNL     1       5.876   7.665  -2.381  1.00  0.00     0.000 C 
BRANCH  11  12
ATOM     12  C   UNL     1       7.194   7.068  -2.898  1.00  0.00    -0.000 C 
BRANCH  12  13
ATOM     13  C   UNL     1       8.396   7.708  -2.194  1.00  0.00    -0.000 C 
BRANCH  13  14
ATOM     14  C   UNL     1       8.018   9.067  -1.586  1.00  0.00    -0.000 C 
BRANCH  14  15
ATOM     15  C   UNL     1       8.623   9.278  -0.190  1.00  0.00    -0.000 C 
BRANCH  15  16
ATOM     16  C   UNL     1       7.550   9.477   0.895  1.00  0.00    -0.000 C 
BRANCH  16  17
ATOM     17  C   UNL     1       8.153   9.584   2.305  1.00  0.00    -0.003 C 
ATOM     18  C   UNL     1       7.214   9.057   3.390  1.00  0.00     0.004 C 
ENDBRANCH  16  17
ENDBRANCH  15  16
ENDBRANCH  14  15
ENDBRANCH  13  14
ENDBRANCH  12  13
ENDBRANCH  11  12
ENDBRANCH   1  11
TORSDOF 14
ENDMDL
MODEL 3
REMARK VINA RESULT:    -3.378      2.083      3.097
REMARK INTER + INTRA:          -7.099
REMARK INTER:                  -5.948
REMARK INTRA:                  -1.151
REMARK UNBOUND:                -0.956
REMARK SMILES CCCCCCCCCCCCCCCC(=O)[O-]
REMARK SMILES IDX 9 1 10 2 11 3 12 4 13 5 14 6 15 7 16 8 17 9 18 10 8 11 7 12
REMARK SMILES IDX 6 13 5 14 4 15 3 16 2 17 1 18
REMARK H PARENT
REMARK Flexibility Score: inf
ROOT
ATOM      1  C   UNL     1      -9.729   4.724  -4.400  1.00  0.00     0.000 C 
ENDROOT
BRANCH   1   2
ATOM      2  C   UNL     1      -9.906   4.627  -5.929  1.00  0.00     0.000 C 
BRANCH   2   3
ATOM      3  C   UNL     1      -8.839   5.404  -6.729  1.00  0.00     0.000 C 
BRANCH   3   4
ATOM      4  C   UNL     1      -8.626   4.814  -8.136  1.00  0.00     0.000 C 
BRANCH   4   5
ATOM      5  C   UNL     1      -9.046   3.339  -8.227  1.00  0.00     0.000 C 
BRANCH   5   6
ATOM      6  C   UNL     1      -8.268   2.576  -9.314  1.00  0.00     0.006 C 
BRANCH   6   7
ATOM      7  C   UNL     1      -7.274   3.481 -10.056  1.00  0.00     0.053 C 
BRANCH   7   8
ATOM      8  C   UNL     1      -5.905   2.873 -10.113  1.00  0.00     0.041 C 
ATOM      9  O   UNL     1      -4.885   3.611 -10.125  1.00  0.00    -0.550 OA
ATOM     10  O   UNL     1      -5.756   1.492 -10.125  1.00  0.00    -0.550 OA
ENDBRANCH   7   8
ENDBRANCH   6   7
ENDBRANCH   5   6
ENDBRANCH   4   5
ENDBRANCH   3   4
ENDBRANCH   2   3
ENDBRANCH   1   2
BRANCH   1  11
ATOM     11  C   UNL     1      -9.401   3.395  -3.701  1.00  0.00     0.000 C 
BRANCH  11  12
ATOM     12  C   UNL     1      -9.123   2.254  -4.692  1.00  0.00    -0.000 C 
BRANCH  12  13
ATOM     13  C   UNL     1      -7.943   1.397  -4.219  1.00  0.00    -0.000 C 
BRANCH  13  14
ATOM     14  C   UNL     1      -7.161   2.104  -3.103  1.00  0.00    -0.000 C 
BRANCH  14  15
ATOM     15  C   UNL     1      -5.703   1.628  -3.009  1.00  0.00    -0.000 C 
BRANCH  15  16
ATOM     16  C   UNL     1      -5.166   1.651  -1.567  1.00  0.00    -0.000 C 
BRANCH  16  17
ATOM     17  C   UNL     1      -5.786   2.777  -0.726  1.00  0.00    -0.003 C 
ATOM     18  C   UNL     1      -5.502   2.623   0.768  1.00  0.00     0.004 C 
ENDBRANCH  16  17
ENDBRANCH  15  16
ENDBRANCH  14  15
ENDBRANCH  13  14
ENDBRANCH  12  13
ENDBRANCH  11  12
ENDBRANCH   1  11
TORSDOF 14
ENDMDL
MODEL 4
REMARK VINA RESULT:    -3.368      1.574      2.092
REMARK INTER + INTRA:          -7.080
REMARK INTER:                  -5.950
REMARK INTRA:                  -1.130
REMARK UNBOUND:                -0.956
REMARK SMILES CCCCCCCCCCCCCCCC(=O)[O-]
REMARK SMILES IDX 9 1 10 2 11 3 12 4 13 5 14 6 15 7 16 8 17 9 18 10 8 11 7 12
REMARK SMILES IDX 6 13 5 14 4 15 3 16 2 17 1 18
REMARK H PARENT
REMARK Flexibility Score: inf
ROOT
ATOM      1  C   UNL     1      -9.030   0.256  -6.008  1.00  0.00     0.000 C 
ENDROOT
BRANCH   1   2
ATOM      2  C   UNL     1      -9.707  -0.076  -7.353  1.00  0.00     0.000 C 
BRANCH   2   3
ATOM      3  C   UNL     1      -9.074   0.645  -8.562  1.00  0.00     0.000 C 
BRANCH   3   4
ATOM      4  C   UNL     1      -9.528   2.113  -8.665  1.00  0.00     0.000 C 
BRANCH   4   5
ATOM      5  C   UNL     1      -8.394   3.104  -8.359  1.00  0.00     0.000 C 
BRANCH   5   6
ATOM      6  C   UNL     1      -8.883   4.319  -7.551  1.00  0.00     0.006 C 
BRANCH   6   7
ATOM      7  C   UNL     1      -7.875   5.476  -7.580  1.00  0.00     0.053 C 
BRANCH   7   8
ATOM      8  C   UNL     1      -8.176   6.502  -6.529  1.00  0.00     0.041 C 
ATOM      9  O   UNL     1      -7.976   7.723  -6.761  1.00  0.00    -0.550 OA
ATOM     10  O   UNL     1      -8.703   6.111  -5.304  1.00  0.00    -0.550 OA
ENDBRANCH   7   8
ENDBRANCH   6   7
ENDBRANCH   5   6
ENDBRANCH   4   5
ENDBRANCH   3   4
ENDBRANCH   2   3
ENDBRANCH   1   2
BRANCH   1  11
ATOM     11  C   UNL     1      -9.772   1.292  -5.148  1.00  0.00     0.000 C 
BRANCH  11  12
ATOM     12  C   UNL     1      -8.820   2.218  -4.377  1.00  0.00    -0.000 C 
BRANCH  12  13
ATOM     13  C   UNL     1      -7.548   1.469  -3.962  1.00  0.00    -0.000 C 
BRANCH  13  14
ATOM     14  C   UNL     1      -6.787   2.238  -2.873  1.00  0.00    -0.000 C 
BRANCH  14  15
ATOM     15  C   UNL     1      -5.378   1.675  -2.627  1.00  0.00    -0.000 C 
BRANCH  15  16
ATOM     16  C   UNL     1      -5.042   1.557  -1.130  1.00  0.00    -0.000 C 
BRANCH  16  17
ATOM     17  C   UNL     1      -5.666   2.687  -0.296  1.00  0.00    -0.003 C 
ATOM     18  C   UNL     1      -5.260   2.627   1.177  1.00  0.00     0.004 C 
ENDBRANCH  16  17
ENDBRANCH  15  16
ENDBRANCH  14  15
ENDBRANCH  13  14
ENDBRANCH  12  13
ENDBRANCH  11  12
ENDBRANCH   1  11
TORSDOF 14
ENDMDL
MODEL 5
REMARK VINA RESULT:    -3.297      1.851      3.180
REMARK INTER + INTRA:          -6.951
REMARK INTER:                  -6.002
REMARK INTRA:                  -0.949
REMARK UNBOUND:                -0.956
REMARK SMILES CCCCCCCCCCCCCCCC(=O)[O-]
REMARK SMILES IDX 9 1 10 2 11 3 12 4 13 5 14 6 15 7 16 8 17 9 18 10 8 11 7 12
REMARK SMILES IDX 6 13 5 14 4 15 3 16 2 17 1 18
REMARK H PARENT
REMARK Flexibility Score: inf
ROOT
ATOM      1  C   UNL     1      -9.836   3.418  -3.896  1.00  0.00     0.000 C 
ENDROOT
BRANCH   1   2
ATOM      2  C   UNL     1     -10.125   4.875  -4.311  1.00  0.00     0.000 C 
BRANCH   2   3
ATOM      3  C   UNL     1      -9.097   5.454  -5.307  1.00  0.00     0.000 C 
BRANCH   3   4
ATOM      4  C   UNL     1      -9.775   6.181  -6.482  1.00  0.00     0.000 C 
BRANCH   4   5
ATOM      5  C   UNL     1      -8.764   6.867  -7.415  1.00  0.00     0.000 C 
BRANCH   5   6
ATOM      6  C   UNL     1      -8.575   6.101  -8.736  1.00  0.00     0.006 C 
BRANCH   6   7
ATOM      7  C   UNL     1      -7.650   4.888  -8.574  1.00  0.00     0.053 C 
BRANCH   7   8
ATOM      8  C   UNL     1      -8.387   3.597  -8.764  1.00  0.00     0.041 C 
ATOM      9  O   UNL     1      -7.899   2.519  -8.334  1.00  0.00    -0.550 OA
ATOM     10  O   UNL     1      -9.627   3.589  -9.392  1.00  0.00    -0.550 OA
ENDBRANCH   7   8
ENDBRANCH   6   7
ENDBRANCH   5   6
ENDBRANCH   4   5
ENDBRANCH   3   4
ENDBRANCH   2   3
ENDBRANCH   1   2
BRANCH   1  11
ATOM     11  C   UNL     1      -8.947   2.632  -4.873  1.00  0.00     0.000 C 
BRANCH  11  12
ATOM     12  C   UNL     1      -8.054   1.601  -4.167  1.00  0.00    -0.000 C 
BRANCH  12  13
ATOM     13  C   UNL     1      -7.245   2.258  -3.042  1.00  0.00    -0.000 C 
BRANCH  13  14
ATOM     14  C   UNL     1      -5.820   1.688  -2.984  1.00  0.00    -0.000 C 
BRANCH  14  15
ATOM     15  C   UNL     1      -5.234   1.707  -1.563  1.00  0.00    -0.000 C 
BRANCH  15  16
ATOM     16  C   UNL     1      -6.001   2.650  -0.620  1.00  0.00    -0.000 C 
BRANCH  16  17
ATOM     17  C   UNL     1      -5.134   3.148   0.547  1.00  0.00    -0.003 C 
ATOM     18  C   UNL     1      -5.440   2.427   1.859  1.00  0.00     0.004 C 
ENDBRANCH  16  17
ENDBRANCH  15  16
ENDBRANCH  14  15
ENDBRANCH  13  14
ENDBRANCH  12  13
ENDBRANCH  11  12
ENDBRANCH   1  11
TORSDOF 14
ENDMDL
MODEL 6
REMARK VINA RESULT:    -3.245      2.404      3.438
REMARK INTER + INTRA:          -6.856
REMARK INTER:                  -5.965
REMARK INTRA:                  -0.891
REMARK UNBOUND:                -0.956
REMARK SMILES CCCCCCCCCCCCCCCC(=O)[O-]
REMARK SMILES IDX 9 1 10 2 11 3 12 4 13 5 14 6 15 7 16 8 17 9 18 10 8 11 7 12
REMARK SMILES IDX 6 13 5 14 4 15 3 16 2 17 1 18
REMARK H PARENT
REMARK Flexibility Score: inf
ROOT
ATOM      1  C   UNL     1      -9.654   2.838  -4.842  1.00  0.00     0.000 C 
ENDROOT
BRANCH   1   2
ATOM      2  C   UNL     1      -9.704   3.238  -6.331  1.00  0.00     0.000 C 
BRANCH   2   3
ATOM      3  C   UNL     1      -8.618   4.256  -6.738  1.00  0.00     0.000 C 
BRANCH   3   4
ATOM      4  C   UNL     1      -8.856   5.641  -6.109  1.00  0.00     0.000 C 
BRANCH   4   5
ATOM      5  C   UNL     1      -9.910   6.462  -6.868  1.00  0.00     0.000 C 
BRANCH   5   6
ATOM      6  C   UNL     1      -9.388   7.851  -7.276  1.00  0.00     0.006 C 
BRANCH   6   7
ATOM      7  C   UNL     1      -7.860   7.876  -7.414  1.00  0.00     0.053 C 
BRANCH   7   8
ATOM      8  C   UNL     1      -7.428   7.726  -8.842  1.00  0.00     0.041 C 
ATOM      9  O   UNL     1      -7.042   8.730  -9.496  1.00  0.00    -0.550 OA
ATOM     10  O   UNL     1      -7.424   6.472  -9.440  1.00  0.00    -0.550 OA
ENDBRANCH   7   8
ENDBRANCH   6   7
ENDBRANCH   5   6
ENDBRANCH   4   5
ENDBRANCH   3   4
ENDBRANCH   2   3
ENDBRANCH   1   2
BRANCH   1  11
ATOM     11  C   UNL     1      -8.582   1.794  -4.489  1.00  0.00     0.000 C 
BRANCH  11  12
ATOM     12  C   UNL     1      -7.678   2.238  -3.329  1.00  0.00    -0.000 C 
BRANCH  12  13
ATOM     13  C   UNL     1      -6.330   1.509  -3.377  1.00  0.00    -0.000 C 
BRANCH  13  14
ATOM     14  C   UNL     1      -5.472   1.858  -2.153  1.00  0.00    -0.000 C 
BRANCH  14  15
ATOM     15  C   UNL     1      -6.093   2.970  -1.294  1.00  0.00    -0.000 C 
BRANCH  15  16
ATOM     16  C   UNL     1      -5.265   3.275  -0.033  1.00  0.00    -0.000 C 
BRANCH  16  17
ATOM     17  C   UNL     1      -5.252   2.102   0.960  1.00  0.00    -0.003 C 
ATOM     18  C   UNL     1      -5.246   2.563   2.418  1.00  0.00     0.004 C 
ENDBRANCH  16  17
ENDBRANCH  15  16
ENDBRANCH  14  15
ENDBRANCH  13  14
ENDBRANCH  12  13
ENDBRANCH  11  12
ENDBRANCH   1  11
TORSDOF 14
ENDMDL
MODEL 7
REMARK VINA RESULT:    -3.230     14.932     18.001
REMARK INTER + INTRA:          -6.830
REMARK INTER:                  -5.266
REMARK INTRA:                  -1.564
REMARK UNBOUND:                -0.956
REMARK SMILES CCCCCCCCCCCCCCCC(=O)[O-]
REMARK SMILES IDX 9 1 10 2 11 3 12 4 13 5 14 6 15 7 16 8 17 9 18 10 8 11 7 12
REMARK SMILES IDX 6 13 5 14 4 15 3 16 2 17 1 18
REMARK H PARENT
REMARK Flexibility Score: inf
ROOT
ATOM      1  C   UNL     1       6.656   7.140  -2.960  1.00  0.00     0.000 C 
ENDROOT
BRANCH   1   2
ATOM      2  C   UNL     1       7.412   7.908  -1.857  1.00  0.00     0.000 C 
BRANCH   2   3
ATOM      3  C   UNL     1       8.948   7.837  -1.990  1.00  0.00     0.000 C 
BRANCH   3   4
ATOM      4  C   UNL     1       9.664   8.575  -0.845  1.00  0.00     0.000 C 
BRANCH   4   5
ATOM      5  C   UNL     1       8.917   9.842  -0.400  1.00  0.00     0.000 C 
BRANCH   5   6
ATOM      6  C   UNL     1       8.745   9.914   1.128  1.00  0.00     0.006 C 
BRANCH   6   7
ATOM      7  C   UNL     1       7.369   9.407   1.580  1.00  0.00     0.053 C 
BRANCH   7   8
ATOM      8  C   UNL     1       7.291   9.264   3.070  1.00  0.00     0.041 C 
ATOM      9  O   UNL     1       6.172   9.159   3.638  1.00  0.00    -0.550 OA
ATOM     10  O   UNL     1       8.455   9.218   3.827  1.00  0.00    -0.550 OA
ENDBRANCH   7   8
ENDBRANCH   6   7
ENDBRANCH   5   6
ENDBRANCH   4   5
ENDBRANCH   3   4
ENDBRANCH   2   3
ENDBRANCH   1   2
BRANCH   1  11
ATOM     11  C   UNL     1       5.126   7.287  -2.919  1.00  0.00     0.000 C 
BRANCH  11  12
ATOM     12  C   UNL     1       4.673   8.735  -2.681  1.00  0.00    -0.000 C 
BRANCH  12  13
ATOM     13  C   UNL     1       4.869   9.582  -3.944  1.00  0.00    -0.000 C 
BRANCH  13  14
ATOM     14  C   UNL     1       4.333   8.852  -5.184  1.00  0.00    -0.000 C 
BRANCH  14  15
ATOM     15  C   UNL     1       5.296   8.932  -6.378  1.00  0.00    -0.000 C 
BRANCH  15  16
ATOM     16  C   UNL     1       6.688   9.456  -5.981  1.00  0.00    -0.000 C 
BRANCH  16  17
ATOM     17  C   UNL     1       7.826   8.627  -6.595  1.00  0.00    -0.003 C 
ATOM     18  C   UNL     1       9.018   8.470  -5.651  1.00  0.00     0.004 C 
ENDBRANCH  16  17
ENDBRANCH  15  16
ENDBRANCH  14  15
ENDBRANCH  13  14
ENDBRANCH  12  13
ENDBRANCH  11  12
ENDBRANCH   1  11
TORSDOF 14
ENDMDL
MODEL 8
REMARK VINA RESULT:    -3.193     14.422     17.191
REMARK INTER + INTRA:          -6.761
REMARK INTER:                  -4.784
REMARK INTRA:                  -1.978
REMARK UNBOUND:                -0.956
REMARK SMILES CCCCCCCCCCCCCCCC(=O)[O-]
REMARK SMILES IDX 9 1 10 2 11 3 12 4 13 5 14 6 15 7 16 8 17 9 18 10 8 11 7 12
REMARK SMILES IDX 6 13 5 14 4 15 3 16 2 17 1 18
REMARK H PARENT
REMARK Flexibility Score: inf
ROOT
ATOM      1  C   UNL     1       4.955   8.635  -4.165  1.00  0.00     0.000 C 
ENDROOT
BRANCH   1   2
ATOM      2  C   UNL     1       4.816   8.743  -2.633  1.00  0.00     0.000 C 
BRANCH   2   3
ATOM      3  C   UNL     1       5.212  10.124  -2.069  1.00  0.00     0.000 C 
BRANCH   3   4
ATOM      4  C   UNL     1       6.325  10.021  -1.011  1.00  0.00     0.000 C 
BRANCH   4   5
ATOM      5  C   UNL     1       7.166   8.744  -1.161  1.00  0.00     0.000 C 
BRANCH   5   6
ATOM      6  C   UNL     1       8.439   8.976  -1.995  1.00  0.00     0.006 C 
BRANCH   6   7
ATOM      7  C   UNL     1       9.237   7.683  -2.204  1.00  0.00     0.053 C 
BRANCH   7   8
ATOM      8  C   UNL     1       8.740   6.907  -3.387  1.00  0.00     0.041 C 
ATOM      9  O   UNL     1       9.454   6.798  -4.418  1.00  0.00    -0.550 OA
ATOM     10  O   UNL     1       7.500   6.282  -3.338  1.00  0.00    -0.550 OA
ENDBRANCH   7   8
ENDBRANCH   6   7
ENDBRANCH   5   6
ENDBRANCH   4   5
ENDBRANCH   3   4
ENDBRANCH   2   3
ENDBRANCH   1   2
BRANCH   1  11
ATOM     11  C   UNL     1       5.311   9.951  -4.877  1.00  0.00     0.000 C 
BRANCH  11  12
ATOM     12  C   UNL     1       6.774  10.000  -5.341  1.00  0.00    -0.000 C 
BRANCH  12  13
ATOM     13  C   UNL     1       7.146   8.726  -6.109  1.00  0.00    -0.000 C 
BRANCH  13  14
ATOM     14  C   UNL     1       7.580   9.056  -7.545  1.00  0.00    -0.000 C 
BRANCH  14  15
ATOM     15  C   UNL     1       6.453   8.839  -8.567  1.00  0.00    -0.000 C 
BRANCH  15  16
ATOM     16  C   UNL     1       5.657  10.125  -8.852  1.00  0.00    -0.000 C 
BRANCH  16  17
ATOM     17  C   UNL     1       4.138   9.910  -8.758  1.00  0.00    -0.003 C 
ATOM     18  C   UNL     1       3.767   8.668  -7.948  1.00  0.00     0.004 C 
ENDBRANCH  16  17
ENDBRANCH  15  16
ENDBRANCH  14  15
ENDBRANCH  13  14
ENDBRANCH  12  13
ENDBRANCH  11  12
ENDBRANCH   1  11
TORSDOF 14
ENDMDL
MODEL 9
REMARK VINA RESULT:    -3.134     14.972     18.084
REMARK INTER + INTRA:          -6.655
REMARK INTER:                  -4.859
REMARK INTRA:                  -1.795
REMARK UNBOUND:                -0.956
REMARK SMILES CCCCCCCCCCCCCCCC(=O)[O-]
REMARK SMILES IDX 9 1 10 2 11 3 12 4 13 5 14 6 15 7 16 8 17 9 18 10 8 11 7 12
REMARK SMILES IDX 6 13 5 14 4 15 3 16 2 17 1 18
REMARK H PARENT
REMARK Flexibility Score: inf
ROOT
ATOM      1  C   UNL     1       8.354   7.144  -3.432  1.00  0.00     0.000 C 
ENDROOT
BRANCH   1   2
ATOM      2  C   UNL     1       8.303   7.479  -1.928  1.00  0.00     0.000 C 
BRANCH   2   3
ATOM      3  C   UNL     1       9.537   8.257  -1.422  1.00  0.00     0.000 C 
BRANCH   3   4
ATOM      4  C   UNL     1       9.145   9.447  -0.528  1.00  0.00     0.000 C 
BRANCH   4   5
ATOM      5  C   UNL     1       7.624   9.651  -0.448  1.00  0.00     0.000 C 
BRANCH   5   6
ATOM      6  C   UNL     1       7.160  10.038   0.968  1.00  0.00     0.006 C 
BRANCH   6   7
ATOM      7  C   UNL     1       8.192   9.658   2.038  1.00  0.00     0.053 C 
BRANCH   7   8
ATOM      8  C   UNL     1       7.538   9.134   3.281  1.00  0.00     0.041 C 
ATOM      9  O   UNL     1       8.214   8.968   4.330  1.00  0.00    -0.550 OA
ATOM     10  O   UNL     1       6.177   8.857   3.287  1.00  0.00    -0.550 OA
ENDBRANCH   7   8
ENDBRANCH   6   7
ENDBRANCH   5   6
ENDBRANCH   4   5
ENDBRANCH   3   4
ENDBRANCH   2   3
ENDBRANCH   1   2
BRANCH   1  11
ATOM     11  C   UNL     1       8.877   8.277  -4.330  1.00  0.00     0.000 C 
BRANCH  11  12
ATOM     12  C   UNL     1       7.878   9.435  -4.472  1.00  0.00    -0.000 C 
BRANCH  12  13
ATOM     13  C   UNL     1       7.367   9.542  -5.913  1.00  0.00    -0.000 C 
BRANCH  13  14
ATOM     14  C   UNL     1       5.855   9.805  -5.942  1.00  0.00    -0.000 C 
BRANCH  14  15
ATOM     15  C   UNL     1       5.056   8.749  -5.161  1.00  0.00    -0.000 C 
BRANCH  15  16
ATOM     16  C   UNL     1       4.368   9.333  -3.914  1.00  0.00    -0.000 C 
BRANCH  16  17
ATOM     17  C   UNL     1       4.720   8.561  -2.633  1.00  0.00    -0.003 C 
ATOM     18  C   UNL     1       4.834   7.055  -2.863  1.00  0.00     0.004 C 
ENDBRANCH  16  17
ENDBRANCH  15  16
ENDBRANCH  14  15
ENDBRANCH  13  14
ENDBRANCH  12  13
ENDBRANCH  11  12
ENDBRANCH   1  11
TORSDOF 14
ENDMDL
