MODEL 1
REMARK VINA RESULT:    -2.878      0.000      0.000
REMARK INTER + INTRA:          -5.764
REMARK INTER:                  -4.897
REMARK INTRA:                  -0.867
REMARK UNBOUND:                -0.867
REMARK SMILES CCCCCCCCCCCCCC(=O)[O-]
REMARK SMILES IDX 8 1 9 2 10 3 11 4 12 5 13 6 14 7 15 8 16 9 7 10 6 11 5 12
REMARK SMILES IDX 4 13 3 14 2 15 1 16
REMARK H PARENT
REMARK Flexibility Score: inf
ROOT
ATOM      1  C   UNL     1      75.782  89.979  77.917  1.00  0.00     0.000 C 
ENDROOT
BRANCH   1   2
ATOM      2  C   UNL     1      75.900  91.505  78.123  1.00  0.00     0.000 C 
BRANCH   2   3
ATOM      3  C   UNL     1      74.993  92.008  79.260  1.00  0.00     0.000 C 
BRANCH   3   4
ATOM      4  C   UNL     1      74.267  90.866  79.988  1.00  0.00     0.000 C 
BRANCH   4   5
ATOM      5  C   UNL     1      72.944  91.315  80.626  1.00  0.00     0.006 C 
BRANCH   5   6
ATOM      6  C   UNL     1      71.931  90.167  80.654  1.00  0.00     0.053 C 
BRANCH   6   7
ATOM      7  C   UNL     1      72.225  89.236  81.788  1.00  0.00     0.041 C 
ATOM      8  O   UNL     1      72.373  88.004  81.575  1.00  0.00    -0.550 OA
ATOM      9  O   UNL     1      72.286  89.723  83.087  1.00  0.00    -0.550 OA
ENDBRANCH   6   7
ENDBRANCH   5   6
ENDBRANCH   4   5
ENDBRANCH   3   4
ENDBRANCH   2   3
ENDBRANCH   1   2
BRANCH   1  10
ATOM     10  C   UNL     1      76.096  89.525  76.481  1.00  0.00     0.000 C 
BRANCH  10  11
ATOM     11  C   UNL     1      76.478  90.692  75.557  1.00  0.00    -0.000 C 
BRANCH  11  12
ATOM     12  C   UNL     1      77.072  90.215  74.220  1.00  0.00    -0.000 C 
BRANCH  12  13
ATOM     13  C   UNL     1      76.330  90.798  73.005  1.00  0.00    -0.000 C 
BRANCH  13  14
ATOM     14  C   UNL     1      75.600  92.111  73.331  1.00  0.00    -0.000 C 
BRANCH  14  15
ATOM     15  C   UNL     1      74.113  92.074  72.950  1.00  0.00    -0.003 C 
ATOM     16  C   UNL     1      73.573  90.647  72.984  1.00  0.00     0.004 C 
ENDBRANCH  14  15
ENDBRANCH  13  14
ENDBRANCH  12  13
ENDBRANCH  11  12
ENDBRANCH  10  11
ENDBRANCH   1  10
TORSDOF 12
ENDMDL
MODEL 2
REMARK VINA RESULT:    -2.746     19.885     21.724
REMARK INTER + INTRA:          -5.539
REMARK INTER:                  -3.687
REMARK INTRA:                  -1.852
REMARK UNBOUND:                -0.867
REMARK SMILES CCCCCCCCCCCCCC(=O)[O-]
REMARK SMILES IDX 8 1 9 2 10 3 11 4 12 5 13 6 14 7 15 8 16 9 7 10 6 11 5 12
REMARK SMILES IDX 4 13 3 14 2 15 1 16
REMARK H PARENT
REMARK Flexibility Score: inf
ROOT
ATOM      1  C   UNL     1      89.500  83.353  91.408  1.00  0.00     0.000 C 
ENDROOT
BRANCH   1   2
ATOM      2  C   UNL     1      88.962  83.197  89.969  1.00  0.00     0.000 C 
BRANCH   2   3
ATOM      3  C   UNL     1      88.453  84.531  89.393  1.00  0.00     0.000 C 
BRANCH   3   4
ATOM      4  C   UNL     1      89.116  84.888  88.054  1.00  0.00     0.000 C 
BRANCH   4   5
ATOM      5  C   UNL     1      90.635  85.082  88.177  1.00  0.00     0.006 C 
BRANCH   5   6
ATOM      6  C   UNL     1      90.991  86.567  88.283  1.00  0.00     0.053 C 
BRANCH   6   7
ATOM      7  C   UNL     1      91.588  87.057  87.002  1.00  0.00     0.041 C 
ATOM      8  O   UNL     1      92.125  86.246  86.202  1.00  0.00    -0.550 OA
ATOM      9  O   UNL     1      91.598  88.415  86.714  1.00  0.00    -0.550 OA
ENDBRANCH   6   7
ENDBRANCH   5   6
ENDBRANCH   4   5
ENDBRANCH   3   4
ENDBRANCH   2   3
ENDBRANCH   1   2
BRANCH   1  10
ATOM     10  C   UNL     1      90.931  82.822  91.592  1.00  0.00     0.000 C 
BRANCH  10  11
ATOM     11  C   UNL     1      91.876  83.861  92.218  1.00  0.00    -0.000 C 
BRANCH  11  12
ATOM     12  C   UNL     1      91.647  85.277  91.663  1.00  0.00    -0.000 C 
BRANCH  12  13
ATOM     13  C   UNL     1      91.252  86.282  92.759  1.00  0.00    -0.000 C 
BRANCH  13  14
ATOM     14  C   UNL     1      90.701  87.597  92.183  1.00  0.00    -0.000 C 
BRANCH  14  15
ATOM     15  C   UNL     1      89.331  87.423  91.512  1.00  0.00    -0.003 C 
ATOM     16  C   UNL     1      88.340  86.744  92.454  1.00  0.00     0.004 C 
ENDBRANCH  14  15
ENDBRANCH  13  14
ENDBRANCH  12  13
ENDBRANCH  11  12
ENDBRANCH  10  11
ENDBRANCH   1  10
TORSDOF 12
ENDMDL
MODEL 3
REMARK VINA RESULT:    -2.741     11.789     14.837
REMARK INTER + INTRA:          -5.531
REMARK INTER:                  -3.745
REMARK INTRA:                  -1.787
REMARK UNBOUND:                -0.867
REMARK SMILES CCCCCCCCCCCCCC(=O)[O-]
REMARK SMILES IDX 8 1 9 2 10 3 11 4 12 5 13 6 14 7 15 8 16 9 7 10 6 11 5 12
REMARK SMILES IDX 4 13 3 14 2 15 1 16
REMARK H PARENT
REMARK Flexibility Score: inf
ROOT
ATOM      1  C   UNL     1      74.126  89.990  92.888  1.00  0.00     0.000 C 
ENDROOT
BRANCH   1   2
ATOM      2  C   UNL     1      74.131  88.464  93.122  1.00  0.00     0.000 C 
BRANCH   2   3
ATOM      3  C   UNL     1      73.058  87.746  92.284  1.00  0.00     0.000 C 
BRANCH   3   4
ATOM      4  C   UNL     1      73.398  87.715  90.786  1.00  0.00     0.000 C 
BRANCH   4   5
ATOM      5  C   UNL     1      74.822  87.209  90.511  1.00  0.00     0.006 C 
BRANCH   5   6
ATOM      6  C   UNL     1      75.401  87.860  89.252  1.00  0.00     0.053 C 
BRANCH   6   7
ATOM      7  C   UNL     1      75.337  86.913  88.095  1.00  0.00     0.041 C 
ATOM      8  O   UNL     1      76.393  86.546  87.517  1.00  0.00    -0.550 OA
ATOM      9  O   UNL     1      74.105  86.476  87.623  1.00  0.00    -0.550 OA
ENDBRANCH   6   7
ENDBRANCH   5   6
ENDBRANCH   4   5
ENDBRANCH   3   4
ENDBRANCH   2   3
ENDBRANCH   1   2
BRANCH   1  10
ATOM     10  C   UNL     1      75.507  90.645  93.063  1.00  0.00     0.000 C 
BRANCH  10  11
ATOM     11  C   UNL     1      76.454  90.363  91.885  1.00  0.00    -0.000 C 
BRANCH  11  12
ATOM     12  C   UNL     1      77.818  89.820  92.342  1.00  0.00    -0.000 C 
BRANCH  12  13
ATOM     13  C   UNL     1      77.695  88.501  93.125  1.00  0.00    -0.000 C 
BRANCH  13  14
ATOM     14  C   UNL     1      78.169  87.286  92.313  1.00  0.00    -0.000 C 
BRANCH  14  15
ATOM     15  C   UNL     1      79.259  87.643  91.292  1.00  0.00    -0.003 C 
ATOM     16  C   UNL     1      78.978  86.994  89.939  1.00  0.00     0.004 C 
ENDBRANCH  14  15
ENDBRANCH  13  14
ENDBRANCH  12  13
ENDBRANCH  11  12
ENDBRANCH  10  11
ENDBRANCH   1  10
TORSDOF 12
ENDMDL
MODEL 4
REMARK VINA RESULT:    -2.731     19.622     21.430
REMARK INTER + INTRA:          -5.514
REMARK INTER:                  -3.881
REMARK INTRA:                  -1.633
REMARK UNBOUND:                -0.867
REMARK SMILES CCCCCCCCCCCCCC(=O)[O-]
REMARK SMILES IDX 8 1 9 2 10 3 11 4 12 5 13 6 14 7 15 8 16 9 7 10 6 11 5 12
REMARK SMILES IDX 4 13 3 14 2 15 1 16
REMARK H PARENT
REMARK Flexibility Score: inf
ROOT
ATOM      1  C   UNL     1      87.936  74.999  75.623  1.00  0.00     0.000 C 
ENDROOT
BRANCH   1   2
ATOM      2  C   UNL     1      88.753  75.206  76.917  1.00  0.00     0.000 C 
BRANCH   2   3
ATOM      3  C   UNL     1      90.170  75.734  76.630  1.00  0.00     0.000 C 
BRANCH   3   4
ATOM      4  C   UNL     1      90.888  76.225  77.896  1.00  0.00     0.000 C 
BRANCH   4   5
ATOM      5  C   UNL     1      91.808  75.157  78.507  1.00  0.00     0.006 C 
BRANCH   5   6
ATOM      6  C   UNL     1      91.229  74.623  79.821  1.00  0.00     0.053 C 
BRANCH   6   7
ATOM      7  C   UNL     1      90.901  73.169  79.696  1.00  0.00     0.041 C 
ATOM      8  O   UNL     1      89.744  72.807  79.357  1.00  0.00    -0.550 OA
ATOM      9  O   UNL     1      91.860  72.212  80.004  1.00  0.00    -0.550 OA
ENDBRANCH   6   7
ENDBRANCH   5   6
ENDBRANCH   4   5
ENDBRANCH   3   4
ENDBRANCH   2   3
ENDBRANCH   1   2
BRANCH   1  10
ATOM     10  C   UNL     1      88.785  74.549  74.423  1.00  0.00     0.000 C 
BRANCH  10  11
ATOM     11  C   UNL     1      88.550  75.409  73.171  1.00  0.00    -0.000 C 
BRANCH  11  12
ATOM     12  C   UNL     1      88.856  76.897  73.412  1.00  0.00    -0.000 C 
BRANCH  12  13
ATOM     13  C   UNL     1      87.622  77.793  73.207  1.00  0.00    -0.000 C 
BRANCH  13  14
ATOM     14  C   UNL     1      87.201  78.522  74.492  1.00  0.00    -0.000 C 
BRANCH  14  15
ATOM     15  C   UNL     1      88.380  78.779  75.442  1.00  0.00    -0.003 C 
ATOM     16  C   UNL     1      87.918  78.804  76.896  1.00  0.00     0.004 C 
ENDBRANCH  14  15
ENDBRANCH  13  14
ENDBRANCH  12  13
ENDBRANCH  11  12
ENDBRANCH  10  11
ENDBRANCH   1  10
TORSDOF 12
ENDMDL
MODEL 5
REMARK VINA RESULT:    -2.721      1.872      2.752
REMARK INTER + INTRA:          -5.496
REMARK INTER:                  -4.161
REMARK INTRA:                  -1.335
REMARK UNBOUND:                -0.867
REMARK SMILES CCCCCCCCCCCCCC(=O)[O-]
REMARK SMILES IDX 8 1 9 2 10 3 11 4 12 5 13 6 14 7 15 8 16 9 7 10 6 11 5 12
REMARK SMILES IDX 4 13 3 14 2 15 1 16
REMARK H PARENT
REMARK Flexibility Score: inf
ROOT
ATOM      1  C   UNL     1      76.676  89.553  76.983  1.00  0.00     0.000 C 
ENDROOT
BRANCH   1   2
ATOM      2  C   UNL     1      77.664  90.228  77.958  1.00  0.00     0.000 C 
BRANCH   2   3
ATOM      3  C   UNL     1      77.216  91.648  78.348  1.00  0.00     0.000 C 
BRANCH   3   4
ATOM      4  C   UNL     1      76.604  91.711  79.756  1.00  0.00     0.000 C 
BRANCH   4   5
ATOM      5  C   UNL     1      75.069  91.754  79.735  1.00  0.00     0.006 C 
BRANCH   5   6
ATOM      6  C   UNL     1      74.478  90.368  80.012  1.00  0.00     0.053 C 
BRANCH   6   7
ATOM      7  C   UNL     1      73.112  90.490  80.609  1.00  0.00     0.041 C 
ATOM      8  O   UNL     1      72.588  91.624  80.766  1.00  0.00    -0.550 OA
ATOM      9  O   UNL     1      72.438  89.354  81.039  1.00  0.00    -0.550 OA
ENDBRANCH   6   7
ENDBRANCH   5   6
ENDBRANCH   4   5
ENDBRANCH   3   4
ENDBRANCH   2   3
ENDBRANCH   1   2
BRANCH   1  10
ATOM     10  C   UNL     1      75.723  90.541  76.288  1.00  0.00     0.000 C 
BRANCH  10  11
ATOM     11  C   UNL     1      76.137  90.849  74.840  1.00  0.00    -0.000 C 
BRANCH  11  12
ATOM     12  C   UNL     1      74.933  90.931  73.887  1.00  0.00    -0.000 C 
BRANCH  12  13
ATOM     13  C   UNL     1      74.363  89.545  73.537  1.00  0.00    -0.000 C 
BRANCH  13  14
ATOM     14  C   UNL     1      75.403  88.628  72.875  1.00  0.00    -0.000 C 
BRANCH  14  15
ATOM     15  C   UNL     1      75.333  87.183  73.388  1.00  0.00    -0.003 C 
ATOM     16  C   UNL     1      74.829  87.135  74.828  1.00  0.00     0.004 C 
ENDBRANCH  14  15
ENDBRANCH  13  14
ENDBRANCH  12  13
ENDBRANCH  11  12
ENDBRANCH  10  11
ENDBRANCH   1  10
TORSDOF 12
ENDMDL
MODEL 6
REMARK VINA RESULT:    -2.667      3.981      5.358
REMARK INTER + INTRA:          -5.404
REMARK INTER:                  -3.349
REMARK INTRA:                  -2.055
REMARK UNBOUND:                -0.867
REMARK SMILES CCCCCCCCCCCCCC(=O)[O-]
REMARK SMILES IDX 8 1 9 2 10 3 11 4 12 5 13 6 14 7 15 8 16 9 7 10 6 11 5 12
REMARK SMILES IDX 4 13 3 14 2 15 1 16
REMARK H PARENT
REMARK Flexibility Score: inf
ROOT
ATOM      1  C   UNL     1      77.708  90.091  77.569  1.00  0.00     0.000 C 
ENDROOT
BRANCH   1   2
ATOM      2  C   UNL     1      76.860  88.802  77.505  1.00  0.00     0.000 C 
BRANCH   2   3
ATOM      3  C   UNL     1      77.639  87.627  76.887  1.00  0.00     0.000 C 
BRANCH   3   4
ATOM      4  C   UNL     1      76.828  86.874  75.822  1.00  0.00     0.000 C 
BRANCH   4   5
ATOM      5  C   UNL     1      75.360  87.322  75.767  1.00  0.00     0.006 C 
BRANCH   5   6
ATOM      6  C   UNL     1      74.605  86.589  74.654  1.00  0.00     0.053 C 
BRANCH   6   7
ATOM      7  C   UNL     1      74.269  85.194  75.079  1.00  0.00     0.041 C 
ATOM      8  O   UNL     1      73.777  84.979  76.218  1.00  0.00    -0.550 OA
ATOM      9  O   UNL     1      74.546  84.126  74.236  1.00  0.00    -0.550 OA
ENDBRANCH   6   7
ENDBRANCH   5   6
ENDBRANCH   4   5
ENDBRANCH   3   4
ENDBRANCH   2   3
ENDBRANCH   1   2
BRANCH   1  10
ATOM     10  C   UNL     1      77.119  91.258  76.759  1.00  0.00     0.000 C 
BRANCH  10  11
ATOM     11  C   UNL     1      75.626  91.071  76.443  1.00  0.00    -0.000 C 
BRANCH  11  12
ATOM     12  C   UNL     1      75.229  91.678  75.087  1.00  0.00    -0.000 C 
BRANCH  12  13
ATOM     13  C   UNL     1      74.787  90.611  74.070  1.00  0.00    -0.000 C 
BRANCH  13  14
ATOM     14  C   UNL     1      75.746  90.499  72.875  1.00  0.00    -0.000 C 
BRANCH  14  15
ATOM     15  C   UNL     1      76.605  89.227  72.920  1.00  0.00    -0.003 C 
ATOM     16  C   UNL     1      77.976  89.512  73.528  1.00  0.00     0.004 C 
ENDBRANCH  14  15
ENDBRANCH  13  14
ENDBRANCH  12  13
ENDBRANCH  11  12
ENDBRANCH  10  11
ENDBRANCH   1  10
TORSDOF 12
ENDMDL
MODEL 7
REMARK VINA RESULT:    -2.651     19.801     21.681
REMARK INTER + INTRA:          -5.378
REMARK INTER:                  -3.533
REMARK INTRA:                  -1.845
REMARK UNBOUND:                -0.867
REMARK SMILES CCCCCCCCCCCCCC(=O)[O-]
REMARK SMILES IDX 8 1 9 2 10 3 11 4 12 5 13 6 14 7 15 8 16 9 7 10 6 11 5 12
REMARK SMILES IDX 4 13 3 14 2 15 1 16
REMARK H PARENT
REMARK Flexibility Score: inf
ROOT
ATOM      1  C   UNL     1      88.350  87.580  91.948  1.00  0.00     0.000 C 
ENDROOT
BRANCH   1   2
ATOM      2  C   UNL     1      88.797  86.973  90.600  1.00  0.00     0.000 C 
BRANCH   2   3
ATOM      3  C   UNL     1      88.967  88.046  89.510  1.00  0.00     0.000 C 
BRANCH   3   4
ATOM      4  C   UNL     1      90.440  88.388  89.240  1.00  0.00     0.000 C 
BRANCH   4   5
ATOM      5  C   UNL     1      91.284  87.151  88.898  1.00  0.00     0.006 C 
BRANCH   5   6
ATOM      6  C   UNL     1      90.968  86.646  87.487  1.00  0.00     0.053 C 
BRANCH   6   7
ATOM      7  C   UNL     1      90.360  85.280  87.543  1.00  0.00     0.041 C 
ATOM      8  O   UNL     1      90.599  84.520  88.518  1.00  0.00    -0.550 OA
ATOM      9  O   UNL     1      89.571  84.828  86.494  1.00  0.00    -0.550 OA
ENDBRANCH   6   7
ENDBRANCH   5   6
ENDBRANCH   4   5
ENDBRANCH   3   4
ENDBRANCH   2   3
ENDBRANCH   1   2
BRANCH   1  10
ATOM     10  C   UNL     1      89.269  87.211  93.125  1.00  0.00     0.000 C 
BRANCH  10  11
ATOM     11  C   UNL     1      90.758  87.208  92.741  1.00  0.00    -0.000 C 
BRANCH  11  12
ATOM     12  C   UNL     1      91.456  85.884  93.093  1.00  0.00    -0.000 C 
BRANCH  12  13
ATOM     13  C   UNL     1      91.717  85.008  91.856  1.00  0.00    -0.000 C 
BRANCH  13  14
ATOM     14  C   UNL     1      91.278  83.549  92.062  1.00  0.00    -0.000 C 
BRANCH  14  15
ATOM     15  C   UNL     1      89.937  83.432  92.801  1.00  0.00    -0.003 C 
ATOM     16  C   UNL     1      88.764  83.529  91.830  1.00  0.00     0.004 C 
ENDBRANCH  14  15
ENDBRANCH  13  14
ENDBRANCH  12  13
ENDBRANCH  11  12
ENDBRANCH  10  11
ENDBRANCH   1  10
TORSDOF 12
ENDMDL
MODEL 8
REMARK VINA RESULT:    -2.645      2.451      3.666
REMARK INTER + INTRA:          -5.367
REMARK INTER:                  -3.684
REMARK INTRA:                  -1.683
REMARK UNBOUND:                -0.867
REMARK SMILES CCCCCCCCCCCCCC(=O)[O-]
REMARK SMILES IDX 8 1 9 2 10 3 11 4 12 5 13 6 14 7 15 8 16 9 7 10 6 11 5 12
REMARK SMILES IDX 4 13 3 14 2 15 1 16
REMARK H PARENT
REMARK Flexibility Score: inf
ROOT
ATOM      1  C   UNL     1      76.554  87.212  76.525  1.00  0.00     0.000 C 
ENDROOT
BRANCH   1   2
ATOM      2  C   UNL     1      77.741  88.097  76.088  1.00  0.00     0.000 C 
BRANCH   2   3
ATOM      3  C   UNL     1      77.391  89.596  76.126  1.00  0.00     0.000 C 
BRANCH   3   4
ATOM      4  C   UNL     1      76.193  89.902  77.038  1.00  0.00     0.000 C 
BRANCH   4   5
ATOM      5  C   UNL     1      76.618  90.331  78.450  1.00  0.00     0.006 C 
BRANCH   5   6
ATOM      6  C   UNL     1      75.682  89.739  79.507  1.00  0.00     0.053 C 
BRANCH   6   7
ATOM      7  C   UNL     1      74.581  90.699  79.831  1.00  0.00     0.041 C 
ATOM      8  O   UNL     1      74.745  91.935  79.652  1.00  0.00    -0.550 OA
ATOM      9  O   UNL     1      73.392  90.234  80.378  1.00  0.00    -0.550 OA
ENDBRANCH   6   7
ENDBRANCH   5   6
ENDBRANCH   4   5
ENDBRANCH   3   4
ENDBRANCH   2   3
ENDBRANCH   1   2
BRANCH   1  10
ATOM     10  C   UNL     1      76.040  86.278  75.416  1.00  0.00     0.000 C 
BRANCH  10  11
ATOM     11  C   UNL     1      74.709  86.752  74.808  1.00  0.00    -0.000 C 
BRANCH  11  12
ATOM     12  C   UNL     1      74.824  87.059  73.306  1.00  0.00    -0.000 C 
BRANCH  12  13
ATOM     13  C   UNL     1      75.311  88.493  73.033  1.00  0.00    -0.000 C 
BRANCH  13  14
ATOM     14  C   UNL     1      74.458  89.553  73.747  1.00  0.00    -0.000 C 
BRANCH  14  15
ATOM     15  C   UNL     1      74.951  90.984  73.489  1.00  0.00    -0.003 C 
ATOM     16  C   UNL     1      76.349  90.981  72.876  1.00  0.00     0.004 C 
ENDBRANCH  14  15
ENDBRANCH  13  14
ENDBRANCH  12  13
ENDBRANCH  11  12
ENDBRANCH  10  11
ENDBRANCH   1  10
TORSDOF 12
ENDMDL
MODEL 9
REMARK VINA RESULT:    -2.605      4.416      6.261
REMARK INTER + INTRA:          -5.299
REMARK INTER:                  -3.899
REMARK INTRA:                  -1.400
REMARK UNBOUND:                -0.867
REMARK SMILES CCCCCCCCCCCCCC(=O)[O-]
REMARK SMILES IDX 8 1 9 2 10 3 11 4 12 5 13 6 14 7 15 8 16 9 7 10 6 11 5 12
REMARK SMILES IDX 4 13 3 14 2 15 1 16
REMARK H PARENT
REMARK Flexibility Score: inf
ROOT
ATOM      1  C   UNL     1      74.819  91.277  72.912  1.00  0.00     0.000 C 
ENDROOT
BRANCH   1   2
ATOM      2  C   UNL     1      75.879  91.680  73.959  1.00  0.00     0.000 C 
BRANCH   2   3
ATOM      3  C   UNL     1      75.252  91.997  75.328  1.00  0.00     0.000 C 
BRANCH   3   4
ATOM      4  C   UNL     1      75.624  90.964  76.403  1.00  0.00     0.000 C 
BRANCH   4   5
ATOM      5  C   UNL     1      77.092  90.519  76.316  1.00  0.00     0.006 C 
BRANCH   5   6
ATOM      6  C   UNL     1      77.226  89.018  76.588  1.00  0.00     0.053 C 
BRANCH   6   7
ATOM      7  C   UNL     1      78.110  88.377  75.565  1.00  0.00     0.041 C 
ATOM      8  O   UNL     1      78.460  87.175  75.693  1.00  0.00    -0.550 OA
ATOM      9  O   UNL     1      78.589  89.124  74.496  1.00  0.00    -0.550 OA
ENDBRANCH   6   7
ENDBRANCH   5   6
ENDBRANCH   4   5
ENDBRANCH   3   4
ENDBRANCH   2   3
ENDBRANCH   1   2
BRANCH   1  10
ATOM     10  C   UNL     1      74.172  89.908  73.185  1.00  0.00     0.000 C 
BRANCH  10  11
ATOM     11  C   UNL     1      75.204  88.777  73.321  1.00  0.00    -0.000 C 
BRANCH  11  12
ATOM     12  C   UNL     1      74.560  87.382  73.279  1.00  0.00    -0.000 C 
BRANCH  12  13
ATOM     13  C   UNL     1      75.346  86.345  74.100  1.00  0.00    -0.000 C 
BRANCH  13  14
ATOM     14  C   UNL     1      74.505  85.105  74.446  1.00  0.00    -0.000 C 
BRANCH  14  15
ATOM     15  C   UNL     1      74.318  84.919  75.959  1.00  0.00    -0.003 C 
ATOM     16  C   UNL     1      74.720  86.179  76.721  1.00  0.00     0.004 C 
ENDBRANCH  14  15
ENDBRANCH  13  14
ENDBRANCH  12  13
ENDBRANCH  11  12
ENDBRANCH  10  11
ENDBRANCH   1  10
TORSDOF 12
ENDMDL
