MODEL 1
REMARK VINA RESULT:    -4.613      0.000      0.000
REMARK INTER + INTRA:         -11.252
REMARK INTER:                  -8.657
REMARK INTRA:                  -2.595
REMARK UNBOUND:                -2.595
REMARK SMILES CCCCCCCCC=CCCCCCCCC(=O)[O-]
REMARK SMILES IDX 10 1 9 2 11 3 12 4 13 5 14 6 15 7 16 8 17 9 18 10 19 11
REMARK SMILES IDX 20 12 8 13 7 14 6 15 5 16 4 17 3 18 2 19 1 20
REMARK H PARENT
REMARK Flexibility Score: inf
ROOT
ATOM      1  C   UNL     1     143.044 140.578 139.839  1.00  0.00    -0.031 C 
ATOM      2  C   UNL     1     143.199 139.282 140.166  1.00  0.00    -0.031 C 
ENDROOT
BRANCH   1   3
ATOM      3  C   UNL     1     142.558 141.077 138.497  1.00  0.00     0.027 C 
BRANCH   3   4
ATOM      4  C   UNL     1     143.298 142.352 138.072  1.00  0.00     0.004 C 
BRANCH   4   5
ATOM      5  C   UNL     1     142.409 143.599 138.193  1.00  0.00     0.000 C 
BRANCH   5   6
ATOM      6  C   UNL     1     140.935 143.247 137.963  1.00  0.00     0.000 C 
BRANCH   6   7
ATOM      7  C   UNL     1     140.032 143.975 138.965  1.00  0.00     0.000 C 
BRANCH   7   8
ATOM      8  C   UNL     1     139.112 142.986 139.696  1.00  0.00     0.006 C 
BRANCH   8   9
ATOM      9  C   UNL     1     139.701 142.526 141.036  1.00  0.00     0.053 C 
BRANCH   9  10
ATOM     10  C   UNL     1     138.634 142.270 142.055  1.00  0.00     0.041 C 
ATOM     11  O   UNL     1     138.272 141.092 142.311  1.00  0.00    -0.550 OA
ATOM     12  O   UNL     1     138.016 143.335 142.699  1.00  0.00    -0.550 OA
ENDBRANCH   9  10
ENDBRANCH   8   9
ENDBRANCH   7   8
ENDBRANCH   6   7
ENDBRANCH   5   6
ENDBRANCH   4   5
ENDBRANCH   3   4
ENDBRANCH   1   3
BRANCH   2  13
ATOM     13  C   UNL     1     142.846 138.123 139.270  1.00  0.00     0.027 C 
BRANCH  13  14
ATOM     14  C   UNL     1     141.961 137.106 140.008  1.00  0.00     0.004 C 
BRANCH  14  15
ATOM     15  C   UNL     1     140.470 137.241 139.651  1.00  0.00     0.000 C 
BRANCH  15  16
ATOM     16  C   UNL     1     139.737 138.406 140.340  1.00  0.00     0.000 C 
BRANCH  16  17
ATOM     17  C   UNL     1     139.078 139.373 139.341  1.00  0.00    -0.000 C 
BRANCH  17  18
ATOM     18  C   UNL     1     139.504 139.102 137.889  1.00  0.00    -0.000 C 
BRANCH  18  19
ATOM     19  C   UNL     1     138.426 139.502 136.871  1.00  0.00    -0.003 C 
ATOM     20  C   UNL     1     138.815 140.780 136.133  1.00  0.00     0.004 C 
ENDBRANCH  18  19
ENDBRANCH  17  18
ENDBRANCH  16  17
ENDBRANCH  15  16
ENDBRANCH  14  15
ENDBRANCH  13  14
ENDBRANCH   2  13
TORSDOF 15
ENDMDL
MODEL 2
REMARK VINA RESULT:    -4.577      2.215      5.686
REMARK INTER + INTRA:         -11.186
REMARK INTER:                  -8.330
REMARK INTRA:                  -2.856
REMARK UNBOUND:                -2.595
REMARK SMILES CCCCCCCCC=CCCCCCCCC(=O)[O-]
REMARK SMILES IDX 10 1 9 2 11 3 12 4 13 5 14 6 15 7 16 8 17 9 18 10 19 11
REMARK SMILES IDX 20 12 8 13 7 14 6 15 5 16 4 17 3 18 2 19 1 20
REMARK H PARENT
REMARK Flexibility Score: inf
ROOT
ATOM      1  C   UNL     1     137.907 140.346 137.603  1.00  0.00    -0.031 C 
ATOM      2  C   UNL     1     138.764 140.478 136.573  1.00  0.00    -0.031 C 
ENDROOT
BRANCH   1   3
ATOM      3  C   UNL     1     137.939 141.178 138.865  1.00  0.00     0.027 C 
BRANCH   3   4
ATOM      4  C   UNL     1     138.189 140.307 140.103  1.00  0.00     0.004 C 
BRANCH   4   5
ATOM      5  C   UNL     1     139.632 139.784 140.156  1.00  0.00     0.000 C 
BRANCH   5   6
ATOM      6  C   UNL     1     139.671 138.262 139.984  1.00  0.00     0.000 C 
BRANCH   6   7
ATOM      7  C   UNL     1     140.643 137.859 138.869  1.00  0.00     0.000 C 
BRANCH   7   8
ATOM      8  C   UNL     1     141.997 137.424 139.449  1.00  0.00     0.006 C 
BRANCH   8   9
ATOM      9  C   UNL     1     143.066 138.515 139.308  1.00  0.00     0.053 C 
BRANCH   9  10
ATOM     10  C   UNL     1     143.275 139.258 140.592  1.00  0.00     0.041 C 
ATOM     11  O   UNL     1     143.118 138.672 141.695  1.00  0.00    -0.550 OA
ATOM     12  O   UNL     1     143.612 140.606 140.570  1.00  0.00    -0.550 OA
ENDBRANCH   9  10
ENDBRANCH   8   9
ENDBRANCH   7   8
ENDBRANCH   6   7
ENDBRANCH   5   6
ENDBRANCH   4   5
ENDBRANCH   3   4
ENDBRANCH   1   3
BRANCH   2  13
ATOM     13  C   UNL     1     139.846 141.522 136.488  1.00  0.00     0.027 C 
BRANCH  13  14
ATOM     14  C   UNL     1     141.114 141.063 137.224  1.00  0.00     0.004 C 
BRANCH  14  15
ATOM     15  C   UNL     1     141.696 142.149 138.147  1.00  0.00     0.000 C 
BRANCH  15  16
ATOM     16  C   UNL     1     140.899 143.464 138.189  1.00  0.00     0.000 C 
BRANCH  16  17
ATOM     17  C   UNL     1     140.534 143.898 139.618  1.00  0.00    -0.000 C 
BRANCH  17  18
ATOM     18  C   UNL     1     139.117 144.489 139.712  1.00  0.00    -0.000 C 
BRANCH  18  19
ATOM     19  C   UNL     1     138.693 144.783 141.159  1.00  0.00    -0.003 C 
ATOM     20  C   UNL     1     138.745 143.520 142.013  1.00  0.00     0.004 C 
ENDBRANCH  18  19
ENDBRANCH  17  18
ENDBRANCH  16  17
ENDBRANCH  15  16
ENDBRANCH  14  15
ENDBRANCH  13  14
ENDBRANCH   2  13
TORSDOF 15
ENDMDL
MODEL 3
REMARK VINA RESULT:    -4.558      2.293      4.707
REMARK INTER + INTRA:         -11.150
REMARK INTER:                  -8.708
REMARK INTRA:                  -2.442
REMARK UNBOUND:                -2.595
REMARK SMILES CCCCCCCCC=CCCCCCCCC(=O)[O-]
REMARK SMILES IDX 10 1 9 2 11 3 12 4 13 5 14 6 15 7 16 8 17 9 18 10 19 11
REMARK SMILES IDX 20 12 8 13 7 14 6 15 5 16 4 17 3 18 2 19 1 20
REMARK H PARENT
REMARK Flexibility Score: inf
ROOT
ATOM      1  C   UNL     1     141.109 143.613 137.878  1.00  0.00    -0.031 C 
ATOM      2  C   UNL     1     140.029 143.939 138.612  1.00  0.00    -0.031 C 
ENDROOT
BRANCH   1   3
ATOM      3  C   UNL     1     142.522 143.533 138.411  1.00  0.00     0.027 C 
BRANCH   3   4
ATOM      4  C   UNL     1     143.154 142.166 138.120  1.00  0.00     0.004 C 
BRANCH   4   5
ATOM      5  C   UNL     1     142.351 141.017 138.747  1.00  0.00     0.000 C 
BRANCH   5   6
ATOM      6  C   UNL     1     142.248 139.829 137.785  1.00  0.00     0.000 C 
BRANCH   6   7
ATOM      7  C   UNL     1     142.718 138.533 138.457  1.00  0.00     0.000 C 
BRANCH   7   8
ATOM      8  C   UNL     1     141.674 137.418 138.293  1.00  0.00     0.006 C 
BRANCH   8   9
ATOM      9  C   UNL     1     140.445 137.637 139.186  1.00  0.00     0.053 C 
BRANCH   9  10
ATOM     10  C   UNL     1     140.403 136.665 140.324  1.00  0.00     0.041 C 
ATOM     11  O   UNL     1     139.298 136.286 140.793  1.00  0.00    -0.550 OA
ATOM     12  O   UNL     1     141.586 136.203 140.888  1.00  0.00    -0.550 OA
ENDBRANCH   9  10
ENDBRANCH   8   9
ENDBRANCH   7   8
ENDBRANCH   6   7
ENDBRANCH   5   6
ENDBRANCH   4   5
ENDBRANCH   3   4
ENDBRANCH   1   3
BRANCH   2  13
ATOM     13  C   UNL     1     140.049 144.206 140.094  1.00  0.00     0.027 C 
BRANCH  13  14
ATOM     14  C   UNL     1     139.074 143.276 140.834  1.00  0.00     0.004 C 
BRANCH  14  15
ATOM     15  C   UNL     1     139.577 141.824 140.912  1.00  0.00     0.000 C 
BRANCH  15  16
ATOM     16  C   UNL     1     138.673 140.783 140.228  1.00  0.00     0.000 C 
BRANCH  16  17
ATOM     17  C   UNL     1     138.555 141.000 138.710  1.00  0.00    -0.000 C 
BRANCH  17  18
ATOM     18  C   UNL     1     137.691 139.926 138.026  1.00  0.00    -0.000 C 
BRANCH  18  19
ATOM     19  C   UNL     1     138.141 139.633 136.587  1.00  0.00    -0.003 C 
ATOM     20  C   UNL     1     139.017 140.759 136.046  1.00  0.00     0.004 C 
ENDBRANCH  18  19
ENDBRANCH  17  18
ENDBRANCH  16  17
ENDBRANCH  15  16
ENDBRANCH  14  15
ENDBRANCH  13  14
ENDBRANCH   2  13
TORSDOF 15
ENDMDL
MODEL 4
REMARK VINA RESULT:    -4.555      1.892      3.914
REMARK INTER + INTRA:         -11.145
REMARK INTER:                  -8.468
REMARK INTRA:                  -2.677
REMARK UNBOUND:                -2.595
REMARK SMILES CCCCCCCCC=CCCCCCCCC(=O)[O-]
REMARK SMILES IDX 10 1 9 2 11 3 12 4 13 5 14 6 15 7 16 8 17 9 18 10 19 11
REMARK SMILES IDX 20 12 8 13 7 14 6 15 5 16 4 17 3 18 2 19 1 20
REMARK H PARENT
REMARK Flexibility Score: inf
ROOT
ATOM      1  C   UNL     1     139.840 141.888 141.219  1.00  0.00    -0.031 C 
ATOM      2  C   UNL     1     140.346 140.645 141.308  1.00  0.00    -0.031 C 
ENDROOT
BRANCH   1   3
ATOM      3  C   UNL     1     140.617 143.158 141.486  1.00  0.00     0.027 C 
BRANCH   3   4
ATOM      4  C   UNL     1     141.078 143.818 140.181  1.00  0.00     0.004 C 
BRANCH   4   5
ATOM      5  C   UNL     1     140.011 143.724 139.081  1.00  0.00     0.000 C 
BRANCH   5   6
ATOM      6  C   UNL     1     140.639 143.341 137.737  1.00  0.00     0.000 C 
BRANCH   6   7
ATOM      7  C   UNL     1     140.838 141.824 137.634  1.00  0.00     0.000 C 
BRANCH   7   8
ATOM      8  C   UNL     1     139.795 141.194 136.700  1.00  0.00     0.006 C 
BRANCH   8   9
ATOM      9  C   UNL     1     139.179 139.919 137.293  1.00  0.00     0.053 C 
BRANCH   9  10
ATOM     10  C   UNL     1     137.792 140.158 137.805  1.00  0.00     0.041 C 
ATOM     11  O   UNL     1     136.848 139.404 137.449  1.00  0.00    -0.550 OA
ATOM     12  O   UNL     1     137.536 141.231 138.648  1.00  0.00    -0.550 OA
ENDBRANCH   9  10
ENDBRANCH   8   9
ENDBRANCH   7   8
ENDBRANCH   6   7
ENDBRANCH   5   6
ENDBRANCH   4   5
ENDBRANCH   3   4
ENDBRANCH   1   3
BRANCH   2  13
ATOM     13  C   UNL     1     141.784 140.325 141.620  1.00  0.00     0.027 C 
BRANCH  13  14
ATOM     14  C   UNL     1     142.645 140.360 140.347  1.00  0.00     0.004 C 
BRANCH  14  15
ATOM     15  C   UNL     1     143.084 138.960 139.882  1.00  0.00     0.000 C 
BRANCH  15  16
ATOM     16  C   UNL     1     142.795 138.643 138.404  1.00  0.00     0.000 C 
BRANCH  16  17
ATOM     17  C   UNL     1     141.770 137.510 138.225  1.00  0.00    -0.000 C 
BRANCH  17  18
ATOM     18  C   UNL     1     141.407 136.827 139.554  1.00  0.00    -0.000 C 
BRANCH  18  19
ATOM     19  C   UNL     1     139.987 137.171 140.027  1.00  0.00    -0.003 C 
ATOM     20  C   UNL     1     139.410 136.051 140.889  1.00  0.00     0.004 C 
ENDBRANCH  18  19
ENDBRANCH  17  18
ENDBRANCH  16  17
ENDBRANCH  15  16
ENDBRANCH  14  15
ENDBRANCH  13  14
ENDBRANCH   2  13
TORSDOF 15
ENDMDL
MODEL 5
REMARK VINA RESULT:    -4.539      2.159      5.247
REMARK INTER + INTRA:         -11.115
REMARK INTER:                  -8.233
REMARK INTRA:                  -2.881
REMARK UNBOUND:                -2.595
REMARK SMILES CCCCCCCCC=CCCCCCCCC(=O)[O-]
REMARK SMILES IDX 10 1 9 2 11 3 12 4 13 5 14 6 15 7 16 8 17 9 18 10 19 11
REMARK SMILES IDX 20 12 8 13 7 14 6 15 5 16 4 17 3 18 2 19 1 20
REMARK H PARENT
REMARK Flexibility Score: inf
ROOT
ATOM      1  C   UNL     1     139.458 140.707 141.977  1.00  0.00    -0.031 C 
ATOM      2  C   UNL     1     138.703 141.699 141.470  1.00  0.00    -0.031 C 
ENDROOT
BRANCH   1   3
ATOM      3  C   UNL     1     140.860 140.880 142.517  1.00  0.00     0.027 C 
BRANCH   3   4
ATOM      4  C   UNL     1     141.842 139.910 141.849  1.00  0.00     0.004 C 
BRANCH   4   5
ATOM      5  C   UNL     1     141.972 140.172 140.341  1.00  0.00     0.000 C 
BRANCH   5   6
ATOM      6  C   UNL     1     142.958 139.192 139.696  1.00  0.00     0.000 C 
BRANCH   6   7
ATOM      7  C   UNL     1     142.488 138.780 138.296  1.00  0.00     0.000 C 
BRANCH   7   8
ATOM      8  C   UNL     1     141.468 137.635 138.372  1.00  0.00     0.006 C 
BRANCH   8   9
ATOM      9  C   UNL     1     141.711 136.719 139.580  1.00  0.00     0.053 C 
BRANCH   9  10
ATOM     10  C   UNL     1     140.459 136.499 140.372  1.00  0.00     0.041 C 
ATOM     11  O   UNL     1     140.229 135.376 140.893  1.00  0.00    -0.550 OA
ATOM     12  O   UNL     1     139.531 137.524 140.506  1.00  0.00    -0.550 OA
ENDBRANCH   9  10
ENDBRANCH   8   9
ENDBRANCH   7   8
ENDBRANCH   6   7
ENDBRANCH   5   6
ENDBRANCH   4   5
ENDBRANCH   3   4
ENDBRANCH   1   3
BRANCH   2  13
ATOM     13  C   UNL     1     139.108 143.148 141.426  1.00  0.00     0.027 C 
BRANCH  13  14
ATOM     14  C   UNL     1     139.126 143.672 139.980  1.00  0.00     0.004 C 
BRANCH  14  15
ATOM     15  C   UNL     1     140.535 143.666 139.360  1.00  0.00     0.000 C 
BRANCH  15  16
ATOM     16  C   UNL     1     140.576 143.428 137.840  1.00  0.00     0.000 C 
BRANCH  16  17
ATOM     17  C   UNL     1     140.828 141.956 137.472  1.00  0.00    -0.000 C 
BRANCH  17  18
ATOM     18  C   UNL     1     139.555 141.244 136.984  1.00  0.00    -0.000 C 
BRANCH  18  19
ATOM     19  C   UNL     1     138.920 140.358 138.066  1.00  0.00    -0.003 C 
ATOM     20  C   UNL     1     137.418 140.609 138.169  1.00  0.00     0.004 C 
ENDBRANCH  18  19
ENDBRANCH  17  18
ENDBRANCH  16  17
ENDBRANCH  15  16
ENDBRANCH  14  15
ENDBRANCH  13  14
ENDBRANCH   2  13
TORSDOF 15
ENDMDL
MODEL 6
REMARK VINA RESULT:    -4.507      1.220      3.541
REMARK INTER + INTRA:         -11.054
REMARK INTER:                  -7.903
REMARK INTRA:                  -3.151
REMARK UNBOUND:                -2.595
REMARK SMILES CCCCCCCCC=CCCCCCCCC(=O)[O-]
REMARK SMILES IDX 10 1 9 2 11 3 12 4 13 5 14 6 15 7 16 8 17 9 18 10 19 11
REMARK SMILES IDX 20 12 8 13 7 14 6 15 5 16 4 17 3 18 2 19 1 20
REMARK H PARENT
REMARK Flexibility Score: inf
ROOT
ATOM      1  C   UNL     1     139.141 139.505 139.528  1.00  0.00    -0.031 C 
ATOM      2  C   UNL     1     139.510 138.669 140.515  1.00  0.00    -0.031 C 
ENDROOT
BRANCH   1   3
ATOM      3  C   UNL     1     139.010 139.119 138.072  1.00  0.00     0.027 C 
BRANCH   3   4
ATOM      4  C   UNL     1     138.940 140.356 137.168  1.00  0.00     0.004 C 
BRANCH   4   5
ATOM      5  C   UNL     1     139.351 141.635 137.912  1.00  0.00     0.000 C 
BRANCH   5   6
ATOM      6  C   UNL     1     140.541 142.313 137.223  1.00  0.00     0.000 C 
BRANCH   6   7
ATOM      7  C   UNL     1     140.910 143.624 137.926  1.00  0.00     0.000 C 
BRANCH   7   8
ATOM      8  C   UNL     1     139.875 143.983 139.002  1.00  0.00     0.006 C 
BRANCH   8   9
ATOM      9  C   UNL     1     140.529 144.324 140.348  1.00  0.00     0.053 C 
BRANCH   9  10
ATOM     10  C   UNL     1     139.805 143.690 141.495  1.00  0.00     0.041 C 
ATOM     11  O   UNL     1     140.060 144.041 142.677  1.00  0.00    -0.550 OA
ATOM     12  O   UNL     1     138.872 142.687 141.261  1.00  0.00    -0.550 OA
ENDBRANCH   9  10
ENDBRANCH   8   9
ENDBRANCH   7   8
ENDBRANCH   6   7
ENDBRANCH   5   6
ENDBRANCH   4   5
ENDBRANCH   3   4
ENDBRANCH   1   3
BRANCH   2  13
ATOM     13  C   UNL     1     139.781 137.198 140.335  1.00  0.00     0.027 C 
BRANCH  13  14
ATOM     14  C   UNL     1     141.288 136.930 140.191  1.00  0.00     0.004 C 
BRANCH  14  15
ATOM     15  C   UNL     1     141.748 136.875 138.723  1.00  0.00     0.000 C 
BRANCH  15  16
ATOM     16  C   UNL     1     142.565 138.091 138.251  1.00  0.00     0.000 C 
BRANCH  16  17
ATOM     17  C   UNL     1     143.130 138.921 139.416  1.00  0.00    -0.000 C 
BRANCH  17  18
ATOM     18  C   UNL     1     142.791 140.416 139.294  1.00  0.00    -0.000 C 
BRANCH  18  19
ATOM     19  C   UNL     1     142.323 141.028 140.623  1.00  0.00    -0.003 C 
ATOM     20  C   UNL     1     142.724 140.148 141.803  1.00  0.00     0.004 C 
ENDBRANCH  18  19
ENDBRANCH  17  18
ENDBRANCH  16  17
ENDBRANCH  15  16
ENDBRANCH  14  15
ENDBRANCH  13  14
ENDBRANCH   2  13
TORSDOF 15
ENDMDL
MODEL 7
REMARK VINA RESULT:    -4.468      2.330      4.660
REMARK INTER + INTRA:         -10.980
REMARK INTER:                  -7.893
REMARK INTRA:                  -3.088
REMARK UNBOUND:                -2.595
REMARK SMILES CCCCCCCCC=CCCCCCCCC(=O)[O-]
REMARK SMILES IDX 10 1 9 2 11 3 12 4 13 5 14 6 15 7 16 8 17 9 18 10 19 11
REMARK SMILES IDX 20 12 8 13 7 14 6 15 5 16 4 17 3 18 2 19 1 20
REMARK H PARENT
REMARK Flexibility Score: inf
ROOT
ATOM      1  C   UNL     1     140.777 143.926 139.359  1.00  0.00    -0.031 C 
ATOM      2  C   UNL     1     141.431 143.499 138.263  1.00  0.00    -0.031 C 
ENDROOT
BRANCH   1   3
ATOM      3  C   UNL     1     141.255 143.729 140.780  1.00  0.00     0.027 C 
BRANCH   3   4
ATOM      4  C   UNL     1     140.182 143.053 141.644  1.00  0.00     0.004 C 
BRANCH   4   5
ATOM      5  C   UNL     1     140.576 141.621 142.032  1.00  0.00     0.000 C 
BRANCH   5   6
ATOM      6  C   UNL     1     140.011 140.605 141.033  1.00  0.00     0.000 C 
BRANCH   6   7
ATOM      7  C   UNL     1     138.558 140.935 140.674  1.00  0.00     0.000 C 
BRANCH   7   8
ATOM      8  C   UNL     1     138.390 141.106 139.157  1.00  0.00     0.006 C 
BRANCH   8   9
ATOM      9  C   UNL     1     139.273 140.136 138.362  1.00  0.00     0.053 C 
BRANCH   9  10
ATOM     10  C   UNL     1     139.025 140.238 136.888  1.00  0.00     0.041 C 
ATOM     11  O   UNL     1     139.643 141.091 136.199  1.00  0.00    -0.550 OA
ATOM     12  O   UNL     1     138.086 139.412 136.282  1.00  0.00    -0.550 OA
ENDBRANCH   9  10
ENDBRANCH   8   9
ENDBRANCH   7   8
ENDBRANCH   6   7
ENDBRANCH   5   6
ENDBRANCH   4   5
ENDBRANCH   3   4
ENDBRANCH   1   3
BRANCH   2  13
ATOM     13  C   UNL     1     142.776 142.822 138.277  1.00  0.00     0.027 C 
BRANCH  13  14
ATOM     14  C   UNL     1     142.622 141.293 138.306  1.00  0.00     0.004 C 
BRANCH  14  15
ATOM     15  C   UNL     1     143.186 140.660 139.591  1.00  0.00     0.000 C 
BRANCH  15  16
ATOM     16  C   UNL     1     143.100 139.125 139.653  1.00  0.00     0.000 C 
BRANCH  16  17
ATOM     17  C   UNL     1     142.536 138.505 138.364  1.00  0.00    -0.000 C 
BRANCH  17  18
ATOM     18  C   UNL     1     141.875 137.138 138.607  1.00  0.00    -0.000 C 
BRANCH  18  19
ATOM     19  C   UNL     1     141.508 136.912 140.081  1.00  0.00    -0.003 C 
ATOM     20  C   UNL     1     139.998 136.998 140.289  1.00  0.00     0.004 C 
ENDBRANCH  18  19
ENDBRANCH  17  18
ENDBRANCH  16  17
ENDBRANCH  15  16
ENDBRANCH  14  15
ENDBRANCH  13  14
ENDBRANCH   2  13
TORSDOF 15
ENDMDL
MODEL 8
REMARK VINA RESULT:    -4.462      2.397      5.083
REMARK INTER + INTRA:         -10.970
REMARK INTER:                  -7.723
REMARK INTRA:                  -3.247
REMARK UNBOUND:                -2.595
REMARK SMILES CCCCCCCCC=CCCCCCCCC(=O)[O-]
REMARK SMILES IDX 10 1 9 2 11 3 12 4 13 5 14 6 15 7 16 8 17 9 18 10 19 11
REMARK SMILES IDX 20 12 8 13 7 14 6 15 5 16 4 17 3 18 2 19 1 20
REMARK H PARENT
REMARK Flexibility Score: inf
ROOT
ATOM      1  C   UNL     1     140.084 143.647 139.078  1.00  0.00    -0.031 C 
ATOM      2  C   UNL     1     139.061 142.917 139.560  1.00  0.00    -0.031 C 
ENDROOT
BRANCH   1   3
ATOM      3  C   UNL     1     140.963 143.240 137.917  1.00  0.00     0.027 C 
BRANCH   3   4
ATOM      4  C   UNL     1     142.448 143.263 138.304  1.00  0.00     0.004 C 
BRANCH   4   5
ATOM      5  C   UNL     1     143.125 141.906 138.063  1.00  0.00     0.000 C 
BRANCH   5   6
ATOM      6  C   UNL     1     142.092 140.775 138.021  1.00  0.00     0.000 C 
BRANCH   6   7
ATOM      7  C   UNL     1     142.757 139.432 137.700  1.00  0.00     0.000 C 
BRANCH   7   8
ATOM      8  C   UNL     1     142.582 138.440 138.859  1.00  0.00     0.006 C 
BRANCH   8   9
ATOM      9  C   UNL     1     141.295 137.614 138.728  1.00  0.00     0.053 C 
BRANCH   9  10
ATOM     10  C   UNL     1     140.901 136.987 140.030  1.00  0.00     0.041 C 
ATOM     11  O   UNL     1     139.699 137.002 140.402  1.00  0.00    -0.550 OA
ATOM     12  O   UNL     1     141.868 136.415 140.847  1.00  0.00    -0.550 OA
ENDBRANCH   9  10
ENDBRANCH   8   9
ENDBRANCH   7   8
ENDBRANCH   6   7
ENDBRANCH   5   6
ENDBRANCH   4   5
ENDBRANCH   3   4
ENDBRANCH   1   3
BRANCH   2  13
ATOM     13  C   UNL     1     138.588 141.613 138.974  1.00  0.00     0.027 C 
BRANCH  13  14
ATOM     14  C   UNL     1     139.004 140.427 139.860  1.00  0.00     0.004 C 
BRANCH  14  15
ATOM     15  C   UNL     1     138.697 140.658 141.350  1.00  0.00     0.000 C 
BRANCH  15  16
ATOM     16  C   UNL     1     139.886 140.435 142.302  1.00  0.00     0.000 C 
BRANCH  16  17
ATOM     17  C   UNL     1     141.239 140.395 141.571  1.00  0.00    -0.000 C 
BRANCH  17  18
ATOM     18  C   UNL     1     142.010 141.720 141.684  1.00  0.00    -0.000 C 
BRANCH  18  19
ATOM     19  C   UNL     1     143.532 141.518 141.733  1.00  0.00    -0.003 C 
ATOM     20  C   UNL     1     143.885 140.036 141.830  1.00  0.00     0.004 C 
ENDBRANCH  18  19
ENDBRANCH  17  18
ENDBRANCH  16  17
ENDBRANCH  15  16
ENDBRANCH  14  15
ENDBRANCH  13  14
ENDBRANCH   2  13
TORSDOF 15
ENDMDL
MODEL 9
REMARK VINA RESULT:    -4.375      2.019      4.392
REMARK INTER + INTRA:         -10.807
REMARK INTER:                  -7.820
REMARK INTRA:                  -2.987
REMARK UNBOUND:                -2.595
REMARK SMILES CCCCCCCCC=CCCCCCCCC(=O)[O-]
REMARK SMILES IDX 10 1 9 2 11 3 12 4 13 5 14 6 15 7 16 8 17 9 18 10 19 11
REMARK SMILES IDX 20 12 8 13 7 14 6 15 5 16 4 17 3 18 2 19 1 20
REMARK H PARENT
REMARK Flexibility Score: inf
ROOT
ATOM      1  C   UNL     1     142.781 141.552 138.488  1.00  0.00    -0.031 C 
ATOM      2  C   UNL     1     142.248 142.753 138.778  1.00  0.00    -0.031 C 
ENDROOT
BRANCH   1   3
ATOM      3  C   UNL     1     142.187 140.554 137.520  1.00  0.00     0.027 C 
BRANCH   3   4
ATOM      4  C   UNL     1     142.437 139.112 137.979  1.00  0.00     0.004 C 
BRANCH   4   5
ATOM      5  C   UNL     1     141.146 138.427 138.450  1.00  0.00     0.000 C 
BRANCH   5   6
ATOM      6  C   UNL     1     141.284 137.924 139.891  1.00  0.00     0.000 C 
BRANCH   6   7
ATOM      7  C   UNL     1     142.709 138.134 140.414  1.00  0.00     0.000 C 
BRANCH   7   8
ATOM      8  C   UNL     1     142.695 138.774 141.810  1.00  0.00     0.006 C 
BRANCH   8   9
ATOM      9  C   UNL     1     141.791 140.013 141.872  1.00  0.00     0.053 C 
BRANCH   9  10
ATOM     10  C   UNL     1     142.489 141.180 142.500  1.00  0.00     0.041 C 
ATOM     11  O   UNL     1     142.010 141.726 143.528  1.00  0.00    -0.550 OA
ATOM     12  O   UNL     1     143.651 141.685 141.930  1.00  0.00    -0.550 OA
ENDBRANCH   9  10
ENDBRANCH   8   9
ENDBRANCH   7   8
ENDBRANCH   6   7
ENDBRANCH   5   6
ENDBRANCH   4   5
ENDBRANCH   3   4
ENDBRANCH   1   3
BRANCH   2  13
ATOM     13  C   UNL     1     141.013 143.320 138.130  1.00  0.00     0.027 C 
BRANCH  13  14
ATOM     14  C   UNL     1     140.042 143.875 139.185  1.00  0.00     0.004 C 
BRANCH  14  15
ATOM     15  C   UNL     1     138.797 142.991 139.376  1.00  0.00     0.000 C 
BRANCH  15  16
ATOM     16  C   UNL     1     139.021 141.723 140.218  1.00  0.00     0.000 C 
BRANCH  16  17
ATOM     17  C   UNL     1     138.456 140.456 139.553  1.00  0.00    -0.000 C 
BRANCH  17  18
ATOM     18  C   UNL     1     137.600 140.771 138.315  1.00  0.00    -0.000 C 
BRANCH  18  19
ATOM     19  C   UNL     1     137.958 139.892 137.108  1.00  0.00    -0.003 C 
ATOM     20  C   UNL     1     138.726 140.690 136.058  1.00  0.00     0.004 C 
ENDBRANCH  18  19
ENDBRANCH  17  18
ENDBRANCH  16  17
ENDBRANCH  15  16
ENDBRANCH  14  15
ENDBRANCH  13  14
ENDBRANCH   2  13
TORSDOF 15
ENDMDL
