MODEL 1
REMARK VINA RESULT:    -4.820      0.000      0.000
REMARK INTER + INTRA:          -6.049
REMARK INTER:                  -5.806
REMARK INTRA:                  -0.243
REMARK UNBOUND:                -0.243
REMARK SMILES O=c1c(O)c(-c2ccc(O)c(O)c2)oc2cc(O)cc(O)c12
REMARK SMILES IDX 5 1 3 2 2 3 1 4 22 5 20 6 19 7 17 8 16 9 15 10 14 11 6 12
REMARK SMILES IDX 7 13 8 14 9 15 13 16 11 17 10 18 12 20 4 22 21 24 18 26
REMARK H PARENT 10 19 12 21 4 23 21 25 18 27
REMARK Flexibility Score: inf
ROOT
ATOM      1  C   UNL     1      58.432  42.635 123.668  1.00  0.00     0.180 A 
ATOM      2  C   UNL     1      59.305  41.534 123.575  1.00  0.00     0.208 A 
ATOM      3  C   UNL     1      58.763  40.254 123.383  1.00  0.00     0.238 A 
ATOM      4  O   UNL     1      59.534  39.259 123.308  1.00  0.00    -0.285 OA
ATOM      5  C   UNL     1      57.367  40.098 123.267  1.00  0.00     0.111 A 
ATOM      6  C   UNL     1      56.742  38.843 123.068  1.00  0.00     0.134 A 
ATOM      7  C   UNL     1      55.345  38.772 122.954  1.00  0.00     0.093 A 
ATOM      8  C   UNL     1      54.564  39.930 123.033  1.00  0.00     0.123 A 
ATOM      9  C   UNL     1      55.176  41.169 123.230  1.00  0.00     0.094 A 
ATOM     10  C   UNL     1      56.565  41.261 123.348  1.00  0.00     0.146 A 
ATOM     11  O   UNL     1      57.121  42.452 123.540  1.00  0.00    -0.452 OA
ENDROOT
BRANCH   1  12
ATOM     12  C   UNL     1      58.925  44.014 123.890  1.00  0.00     0.025 A 
ATOM     13  C   UNL     1      59.588  44.726 122.875  1.00  0.00     0.016 A 
ATOM     14  C   UNL     1      60.066  46.017 123.114  1.00  0.00     0.051 A 
ATOM     15  C   UNL     1      59.901  46.610 124.373  1.00  0.00     0.157 A 
ATOM     16  C   UNL     1      58.780  44.605 125.156  1.00  0.00     0.062 A 
ATOM     17  C   UNL     1      59.257  45.898 125.399  1.00  0.00     0.158 A 
BRANCH  15  18
ATOM     18  O   UNL     1      60.377  47.899 124.608  1.00  0.00    -0.504 OA
ATOM     19  H   UNL     1      59.993  48.703 124.127  1.00  0.00     0.293 HD
ENDBRANCH  15  18
BRANCH  17  20
ATOM     20  O   UNL     1      59.084  46.456 126.665  1.00  0.00    -0.504 OA
ATOM     21  H   UNL     1      58.275  46.249 127.239  1.00  0.00     0.293 HD
ENDBRANCH  17  20
ENDBRANCH   1  12
BRANCH   2  22
ATOM     22  O   UNL     1      60.688  41.722 123.642  1.00  0.00    -0.502 OA
ATOM     23  H   UNL     1      61.300  41.529 122.859  1.00  0.00     0.293 HD
ENDBRANCH   2  22
BRANCH   6  24
ATOM     24  O   UNL     1      57.494  37.671 122.983  1.00  0.00    -0.507 OA
ATOM     25  H   UNL     1      57.958  37.275 123.793  1.00  0.00     0.293 HD
ENDBRANCH   6  24
BRANCH   8  26
ATOM     26  O   UNL     1      53.177  39.860 122.920  1.00  0.00    -0.508 OA
ATOM     27  H   UNL     1      52.574  40.546 123.357  1.00  0.00     0.293 HD
ENDBRANCH   8  26
TORSDOF 6
ENDMDL
MODEL 2
REMARK VINA RESULT:    -4.754      3.033      8.042
REMARK INTER + INTRA:          -5.970
REMARK INTER:                  -5.703
REMARK INTRA:                  -0.268
REMARK UNBOUND:                -0.243
REMARK SMILES O=c1c(O)c(-c2ccc(O)c(O)c2)oc2cc(O)cc(O)c12
REMARK SMILES IDX 5 1 3 2 2 3 1 4 22 5 20 6 19 7 17 8 16 9 15 10 14 11 6 12
REMARK SMILES IDX 7 13 8 14 9 15 13 16 11 17 10 18 12 20 4 22 21 24 18 26
REMARK H PARENT 10 19 12 21 4 23 21 25 18 27
REMARK Flexibility Score: inf
ROOT
ATOM      1  C   UNL     1      54.733  38.055 124.276  1.00  0.00     0.180 A 
ATOM      2  C   UNL     1      55.854  37.330 124.726  1.00  0.00     0.208 A 
ATOM      3  C   UNL     1      57.111  37.951 124.716  1.00  0.00     0.238 A 
ATOM      4  O   UNL     1      58.124  37.309 125.107  1.00  0.00    -0.285 OA
ATOM      5  C   UNL     1      57.226  39.286 124.279  1.00  0.00     0.111 A 
ATOM      6  C   UNL     1      58.457  39.987 124.243  1.00  0.00     0.134 A 
ATOM      7  C   UNL     1      58.487  41.319 123.801  1.00  0.00     0.093 A 
ATOM      8  C   UNL     1      57.311  41.962 123.399  1.00  0.00     0.123 A 
ATOM      9  C   UNL     1      56.096  41.276 123.433  1.00  0.00     0.094 A 
ATOM     10  C   UNL     1      56.045  39.948 123.867  1.00  0.00     0.146 A 
ATOM     11  O   UNL     1      54.877  39.317 123.884  1.00  0.00    -0.452 OA
ENDROOT
BRANCH   1  12
ATOM     12  C   UNL     1      53.377  37.463 124.238  1.00  0.00     0.025 A 
ATOM     13  C   UNL     1      53.022  36.506 123.270  1.00  0.00     0.016 A 
ATOM     14  C   UNL     1      51.728  35.979 123.239  1.00  0.00     0.051 A 
ATOM     15  C   UNL     1      50.767  36.409 124.163  1.00  0.00     0.157 A 
ATOM     16  C   UNL     1      52.404  37.905 125.149  1.00  0.00     0.062 A 
ATOM     17  C   UNL     1      51.107  37.379 125.121  1.00  0.00     0.158 A 
BRANCH  15  18
ATOM     18  O   UNL     1      49.478  35.880 124.130  1.00  0.00    -0.504 OA
ATOM     19  H   UNL     1      49.159  35.304 123.360  1.00  0.00     0.293 HD
ENDBRANCH  15  18
BRANCH  17  20
ATOM     20  O   UNL     1      50.172  37.833 126.050  1.00  0.00    -0.504 OA
ATOM     21  H   UNL     1      50.061  37.399 126.959  1.00  0.00     0.293 HD
ENDBRANCH  17  20
ENDBRANCH   1  12
BRANCH   2  22
ATOM     22  O   UNL     1      55.705  36.024 125.202  1.00  0.00    -0.502 OA
ATOM     23  H   UNL     1      56.020  35.217 124.678  1.00  0.00     0.293 HD
ENDBRANCH   2  22
BRANCH   6  24
ATOM     24  O   UNL     1      59.645  39.372 124.639  1.00  0.00    -0.507 OA
ATOM     25  H   UNL     1      59.691  38.378 124.834  1.00  0.00     0.293 HD
ENDBRANCH   6  24
BRANCH   8  26
ATOM     26  O   UNL     1      57.340  43.285 122.962  1.00  0.00    -0.508 OA
ATOM     27  H   UNL     1      58.040  43.937 123.295  1.00  0.00     0.293 HD
ENDBRANCH   8  26
TORSDOF 6
ENDMDL
MODEL 3
REMARK VINA RESULT:    -4.542      1.557      3.051
REMARK INTER + INTRA:          -5.714
REMARK INTER:                  -5.382
REMARK INTRA:                  -0.332
REMARK UNBOUND:                -0.243
REMARK SMILES O=c1c(O)c(-c2ccc(O)c(O)c2)oc2cc(O)cc(O)c12
REMARK SMILES IDX 5 1 3 2 2 3 1 4 22 5 20 6 19 7 17 8 16 9 15 10 14 11 6 12
REMARK SMILES IDX 7 13 8 14 9 15 13 16 11 17 10 18 12 20 4 22 21 24 18 26
REMARK H PARENT 10 19 12 21 4 23 21 25 18 27
REMARK Flexibility Score: inf
ROOT
ATOM      1  C   UNL     1      57.226  42.007 123.910  1.00  0.00     0.180 A 
ATOM      2  C   UNL     1      55.916  42.024 123.393  1.00  0.00     0.208 A 
ATOM      3  C   UNL     1      55.190  40.825 123.346  1.00  0.00     0.238 A 
ATOM      4  O   UNL     1      54.020  40.825 122.875  1.00  0.00    -0.285 OA
ATOM      5  C   UNL     1      55.773  39.637 123.833  1.00  0.00     0.111 A 
ATOM      6  C   UNL     1      55.106  38.387 123.827  1.00  0.00     0.134 A 
ATOM      7  C   UNL     1      55.753  37.252 124.338  1.00  0.00     0.093 A 
ATOM      8  C   UNL     1      57.049  37.343 124.857  1.00  0.00     0.123 A 
ATOM      9  C   UNL     1      57.709  38.572 124.866  1.00  0.00     0.094 A 
ATOM     10  C   UNL     1      57.084  39.715 124.359  1.00  0.00     0.146 A 
ATOM     11  O   UNL     1      57.738  40.871 124.375  1.00  0.00    -0.452 OA
ENDROOT
BRANCH   1  12
ATOM     12  C   UNL     1      58.062  43.227 123.975  1.00  0.00     0.025 A 
ATOM     13  C   UNL     1      58.847  43.636 122.883  1.00  0.00     0.016 A 
ATOM     14  C   UNL     1      59.647  44.778 122.976  1.00  0.00     0.051 A 
ATOM     15  C   UNL     1      59.686  45.520 124.164  1.00  0.00     0.157 A 
ATOM     16  C   UNL     1      58.119  43.963 125.171  1.00  0.00     0.062 A 
ATOM     17  C   UNL     1      58.919  45.107 125.267  1.00  0.00     0.158 A 
BRANCH  15  18
ATOM     18  O   UNL     1      60.483  46.659 124.253  1.00  0.00    -0.504 OA
ATOM     19  H   UNL     1      61.460  46.605 124.519  1.00  0.00     0.293 HD
ENDBRANCH  15  18
BRANCH  17  20
ATOM     20  O   UNL     1      58.941  45.819 126.466  1.00  0.00    -0.504 OA
ATOM     21  H   UNL     1      58.429  46.686 126.587  1.00  0.00     0.293 HD
ENDBRANCH  17  20
ENDBRANCH   1  12
BRANCH   2  22
ATOM     22  O   UNL     1      55.343  43.224 122.963  1.00  0.00    -0.502 OA
ATOM     23  H   UNL     1      55.504  43.601 122.036  1.00  0.00     0.293 HD
ENDBRANCH   2  22
BRANCH   6  24
ATOM     24  O   UNL     1      53.813  38.266 123.317  1.00  0.00    -0.507 OA
ATOM     25  H   UNL     1      53.638  38.187 122.322  1.00  0.00     0.293 HD
ENDBRANCH   6  24
BRANCH   8  26
ATOM     26  O   UNL     1      57.690  36.215 125.366  1.00  0.00    -0.508 OA
ATOM     27  H   UNL     1      58.013  36.178 126.325  1.00  0.00     0.293 HD
ENDBRANCH   8  26
TORSDOF 6
ENDMDL
MODEL 4
REMARK VINA RESULT:    -4.541      2.108      7.407
REMARK INTER + INTRA:          -5.714
REMARK INTER:                  -5.976
REMARK INTRA:                   0.263
REMARK UNBOUND:                -0.243
REMARK SMILES O=c1c(O)c(-c2ccc(O)c(O)c2)oc2cc(O)cc(O)c12
REMARK SMILES IDX 5 1 3 2 2 3 1 4 22 5 20 6 19 7 17 8 16 9 15 10 14 11 6 12
REMARK SMILES IDX 7 13 8 14 9 15 13 16 11 17 10 18 12 20 4 22 21 24 18 26
REMARK H PARENT 10 19 12 21 4 23 21 25 18 27
REMARK Flexibility Score: inf
ROOT
ATOM      1  C   UNL     1      55.701  39.240 123.710  1.00  0.00     0.180 A 
ATOM      2  C   UNL     1      56.976  38.776 123.333  1.00  0.00     0.208 A 
ATOM      3  C   UNL     1      58.073  39.643 123.442  1.00  0.00     0.238 A 
ATOM      4  O   UNL     1      59.218  39.242 123.097  1.00  0.00    -0.285 OA
ATOM      5  C   UNL     1      57.884  40.947 123.944  1.00  0.00     0.111 A 
ATOM      6  C   UNL     1      58.939  41.881 124.090  1.00  0.00     0.134 A 
ATOM      7  C   UNL     1      58.670  43.158 124.606  1.00  0.00     0.093 A 
ATOM      8  C   UNL     1      57.370  43.517 124.980  1.00  0.00     0.123 A 
ATOM      9  C   UNL     1      56.328  42.599 124.837  1.00  0.00     0.094 A 
ATOM     10  C   UNL     1      56.574  41.323 124.323  1.00  0.00     0.146 A 
ATOM     11  O   UNL     1      55.563  40.472 124.193  1.00  0.00    -0.452 OA
ENDROOT
BRANCH   1  12
ATOM     12  C   UNL     1      54.492  38.392 123.606  1.00  0.00     0.025 A 
ATOM     13  C   UNL     1      54.561  36.996 123.754  1.00  0.00     0.016 A 
ATOM     14  C   UNL     1      53.410  36.214 123.627  1.00  0.00     0.051 A 
ATOM     15  C   UNL     1      52.177  36.812 123.339  1.00  0.00     0.157 A 
ATOM     16  C   UNL     1      53.256  38.986 123.297  1.00  0.00     0.062 A 
ATOM     17  C   UNL     1      52.102  38.205 123.170  1.00  0.00     0.158 A 
BRANCH  15  18
ATOM     18  O   UNL     1      51.030  36.029 123.215  1.00  0.00    -0.504 OA
ATOM     19  H   UNL     1      51.038  35.153 122.706  1.00  0.00     0.293 HD
ENDBRANCH  15  18
BRANCH  17  20
ATOM     20  O   UNL     1      50.891  38.830 122.875  1.00  0.00    -0.504 OA
ATOM     21  H   UNL     1      50.181  38.388 122.302  1.00  0.00     0.293 HD
ENDBRANCH  17  20
ENDBRANCH   1  12
BRANCH   2  22
ATOM     22  O   UNL     1      57.144  37.462 122.886  1.00  0.00    -0.502 OA
ATOM     23  H   UNL     1      56.440  36.747 123.026  1.00  0.00     0.293 HD
ENDBRANCH   2  22
BRANCH   6  24
ATOM     24  O   UNL     1      60.245  41.552 123.728  1.00  0.00    -0.507 OA
ATOM     25  H   UNL     1      60.972  41.415 124.421  1.00  0.00     0.293 HD
ENDBRANCH   6  24
BRANCH   8  26
ATOM     26  O   UNL     1      57.103  44.784 125.493  1.00  0.00    -0.508 OA
ATOM     27  H   UNL     1      56.269  45.295 125.233  1.00  0.00     0.293 HD
ENDBRANCH   8  26
TORSDOF 6
ENDMDL
MODEL 5
REMARK VINA RESULT:    -4.469      3.852      5.487
REMARK INTER + INTRA:          -5.627
REMARK INTER:                  -5.322
REMARK INTRA:                  -0.304
REMARK UNBOUND:                -0.243
REMARK SMILES O=c1c(O)c(-c2ccc(O)c(O)c2)oc2cc(O)cc(O)c12
REMARK SMILES IDX 5 1 3 2 2 3 1 4 22 5 20 6 19 7 17 8 16 9 15 10 14 11 6 12
REMARK SMILES IDX 7 13 8 14 9 15 13 16 11 17 10 18 12 20 4 22 21 24 18 26
REMARK H PARENT 10 19 12 21 4 23 21 25 18 27
REMARK Flexibility Score: inf
ROOT
ATOM      1  C   UNL     1      55.457  38.842 124.016  1.00  0.00     0.180 A 
ATOM      2  C   UNL     1      55.142  37.472 123.919  1.00  0.00     0.208 A 
ATOM      3  C   UNL     1      53.819  37.099 123.643  1.00  0.00     0.238 A 
ATOM      4  O   UNL     1      53.523  35.875 123.564  1.00  0.00    -0.285 OA
ATOM      5  C   UNL     1      52.839  38.094 123.448  1.00  0.00     0.111 A 
ATOM      6  C   UNL     1      51.483  37.801 123.162  1.00  0.00     0.134 A 
ATOM      7  C   UNL     1      50.570  38.850 122.973  1.00  0.00     0.093 A 
ATOM      8  C   UNL     1      50.987  40.182 123.063  1.00  0.00     0.123 A 
ATOM      9  C   UNL     1      52.322  40.476 123.346  1.00  0.00     0.094 A 
ATOM     10  C   UNL     1      53.247  39.446 123.539  1.00  0.00     0.146 A 
ATOM     11  O   UNL     1      54.510  39.753 123.812  1.00  0.00    -0.452 OA
ENDROOT
BRANCH   1  12
ATOM     12  C   UNL     1      56.826  39.315 124.323  1.00  0.00     0.025 A 
ATOM     13  C   UNL     1      57.811  39.406 123.324  1.00  0.00     0.016 A 
ATOM     14  C   UNL     1      59.102  39.833 123.641  1.00  0.00     0.051 A 
ATOM     15  C   UNL     1      59.434  40.162 124.962  1.00  0.00     0.157 A 
ATOM     16  C   UNL     1      57.168  39.627 125.649  1.00  0.00     0.062 A 
ATOM     17  C   UNL     1      58.461  40.054 125.971  1.00  0.00     0.158 A 
BRANCH  15  18
ATOM     18  O   UNL     1      60.723  40.589 125.276  1.00  0.00    -0.504 OA
ATOM     19  H   UNL     1      61.384  40.856 124.556  1.00  0.00     0.293 HD
ENDBRANCH  15  18
BRANCH  17  20
ATOM     20  O   UNL     1      58.761  40.367 127.296  1.00  0.00    -0.504 OA
ATOM     21  H   UNL     1      59.697  40.617 127.593  1.00  0.00     0.293 HD
ENDBRANCH  17  20
ENDBRANCH   1  12
BRANCH   2  22
ATOM     22  O   UNL     1      56.142  36.507 124.066  1.00  0.00    -0.502 OA
ATOM     23  H   UNL     1      55.936  35.546 124.311  1.00  0.00     0.293 HD
ENDBRANCH   2  22
BRANCH   6  24
ATOM     24  O   UNL     1      51.039  36.482 123.064  1.00  0.00    -0.507 OA
ATOM     25  H   UNL     1      50.196  36.240 122.556  1.00  0.00     0.293 HD
ENDBRANCH   6  24
BRANCH   8  26
ATOM     26  O   UNL     1      50.080  41.224 122.875  1.00  0.00    -0.508 OA
ATOM     27  H   UNL     1      49.101  41.122 123.112  1.00  0.00     0.293 HD
ENDBRANCH   8  26
TORSDOF 6
ENDMDL
MODEL 6
REMARK VINA RESULT:    -4.349     15.807     17.263
REMARK INTER + INTRA:          -5.482
REMARK INTER:                  -5.181
REMARK INTRA:                  -0.301
REMARK UNBOUND:                -0.243
REMARK SMILES O=c1c(O)c(-c2ccc(O)c(O)c2)oc2cc(O)cc(O)c12
REMARK SMILES IDX 5 1 3 2 2 3 1 4 22 5 20 6 19 7 17 8 16 9 15 10 14 11 6 12
REMARK SMILES IDX 7 13 8 14 9 15 13 16 11 17 10 18 12 20 4 22 21 24 18 26
REMARK H PARENT 10 19 12 21 4 23 21 25 18 27
REMARK Flexibility Score: inf
ROOT
ATOM      1  C   UNL     1      47.140  38.796 135.373  1.00  0.00     0.180 A 
ATOM      2  C   UNL     1      47.213  40.182 135.134  1.00  0.00     0.208 A 
ATOM      3  C   UNL     1      46.129  40.820 134.512  1.00  0.00     0.238 A 
ATOM      4  O   UNL     1      46.187  42.059 134.283  1.00  0.00    -0.285 OA
ATOM      5  C   UNL     1      44.987  40.072 134.161  1.00  0.00     0.111 A 
ATOM      6  C   UNL     1      43.850  40.640 133.535  1.00  0.00     0.134 A 
ATOM      7  C   UNL     1      42.749  39.828 133.224  1.00  0.00     0.093 A 
ATOM      8  C   UNL     1      42.762  38.462 133.528  1.00  0.00     0.123 A 
ATOM      9  C   UNL     1      43.880  37.898 134.144  1.00  0.00     0.094 A 
ATOM     10  C   UNL     1      44.989  38.689 134.460  1.00  0.00     0.146 A 
ATOM     11  O   UNL     1      46.041  38.125 135.041  1.00  0.00    -0.452 OA
ENDROOT
BRANCH   1  12
ATOM     12  C   UNL     1      48.249  38.048 136.007  1.00  0.00     0.025 A 
ATOM     13  C   UNL     1      49.150  37.285 135.242  1.00  0.00     0.016 A 
ATOM     14  C   UNL     1      50.175  36.568 135.864  1.00  0.00     0.051 A 
ATOM     15  C   UNL     1      50.308  36.590 137.259  1.00  0.00     0.157 A 
ATOM     16  C   UNL     1      48.375  38.051 137.406  1.00  0.00     0.062 A 
ATOM     17  C   UNL     1      49.401  37.333 138.033  1.00  0.00     0.158 A 
BRANCH  15  18
ATOM     18  O   UNL     1      51.332  35.875 137.877  1.00  0.00    -0.504 OA
ATOM     19  H   UNL     1      51.447  35.874 138.883  1.00  0.00     0.293 HD
ENDBRANCH  15  18
BRANCH  17  20
ATOM     20  O   UNL     1      49.501  37.371 139.423  1.00  0.00    -0.504 OA
ATOM     21  H   UNL     1      48.791  36.971 140.025  1.00  0.00     0.293 HD
ENDBRANCH  17  20
ENDBRANCH   1  12
BRANCH   2  22
ATOM     22  O   UNL     1      48.335  40.910 135.538  1.00  0.00    -0.502 OA
ATOM     23  H   UNL     1      49.182  40.952 134.984  1.00  0.00     0.293 HD
ENDBRANCH   2  22
BRANCH   6  24
ATOM     24  O   UNL     1      43.808  41.999 133.221  1.00  0.00    -0.507 OA
ATOM     25  H   UNL     1      42.941  42.461 132.973  1.00  0.00     0.293 HD
ENDBRANCH   6  24
BRANCH   8  26
ATOM     26  O   UNL     1      41.668  37.656 133.220  1.00  0.00    -0.508 OA
ATOM     27  H   UNL     1      41.507  36.777 133.697  1.00  0.00     0.293 HD
ENDBRANCH   8  26
TORSDOF 6
ENDMDL
MODEL 7
REMARK VINA RESULT:    -4.324     14.982     16.592
REMARK INTER + INTRA:          -5.452
REMARK INTER:                  -5.155
REMARK INTRA:                  -0.297
REMARK UNBOUND:                -0.243
REMARK SMILES O=c1c(O)c(-c2ccc(O)c(O)c2)oc2cc(O)cc(O)c12
REMARK SMILES IDX 5 1 3 2 2 3 1 4 22 5 20 6 19 7 17 8 16 9 15 10 14 11 6 12
REMARK SMILES IDX 7 13 8 14 9 15 13 16 11 17 10 18 12 20 4 22 21 24 18 26
REMARK H PARENT 10 19 12 21 4 23 21 25 18 27
REMARK Flexibility Score: inf
ROOT
ATOM      1  C   UNL     1      48.079  37.954 135.462  1.00  0.00     0.180 A 
ATOM      2  C   UNL     1      47.630  37.050 134.479  1.00  0.00     0.208 A 
ATOM      3  C   UNL     1      46.478  37.366 133.743  1.00  0.00     0.238 A 
ATOM      4  O   UNL     1      46.061  36.559 132.868  1.00  0.00    -0.285 OA
ATOM      5  C   UNL     1      45.807  38.582 133.985  1.00  0.00     0.111 A 
ATOM      6  C   UNL     1      44.642  38.977 133.283  1.00  0.00     0.134 A 
ATOM      7  C   UNL     1      44.037  40.209 133.577  1.00  0.00     0.093 A 
ATOM      8  C   UNL     1      44.576  41.052 134.555  1.00  0.00     0.123 A 
ATOM      9  C   UNL     1      45.725  40.667 135.249  1.00  0.00     0.094 A 
ATOM     10  C   UNL     1      46.341  39.443 134.973  1.00  0.00     0.146 A 
ATOM     11  O   UNL     1      47.429  39.099 135.652  1.00  0.00    -0.452 OA
ENDROOT
BRANCH   1  12
ATOM     12  C   UNL     1      49.275  37.684 136.292  1.00  0.00     0.025 A 
ATOM     13  C   UNL     1      49.159  37.223 137.615  1.00  0.00     0.016 A 
ATOM     14  C   UNL     1      50.301  36.998 138.387  1.00  0.00     0.051 A 
ATOM     15  C   UNL     1      51.574  37.243 137.856  1.00  0.00     0.157 A 
ATOM     16  C   UNL     1      50.552  37.948 135.770  1.00  0.00     0.062 A 
ATOM     17  C   UNL     1      51.698  37.724 136.541  1.00  0.00     0.158 A 
BRANCH  15  18
ATOM     18  O   UNL     1      52.712  37.016 138.628  1.00  0.00    -0.504 OA
ATOM     19  H   UNL     1      53.298  37.779 138.947  1.00  0.00     0.293 HD
ENDBRANCH  15  18
BRANCH  17  20
ATOM     20  O   UNL     1      52.950  37.985 135.985  1.00  0.00    -0.504 OA
ATOM     21  H   UNL     1      53.615  38.609 136.426  1.00  0.00     0.293 HD
ENDBRANCH  17  20
ENDBRANCH   1  12
BRANCH   2  22
ATOM     22  O   UNL     1      48.342  35.875 134.224  1.00  0.00    -0.502 OA
ATOM     23  H   UNL     1      48.388  35.113 134.890  1.00  0.00     0.293 HD
ENDBRANCH   2  22
BRANCH   6  24
ATOM     24  O   UNL     1      44.083  38.158 132.302  1.00  0.00    -0.507 OA
ATOM     25  H   UNL     1      43.367  37.475 132.523  1.00  0.00     0.293 HD
ENDBRANCH   6  24
BRANCH   8  26
ATOM     26  O   UNL     1      43.976  42.275 134.846  1.00  0.00    -0.508 OA
ATOM     27  H   UNL     1      43.775  42.952 134.121  1.00  0.00     0.293 HD
ENDBRANCH   8  26
TORSDOF 6
ENDMDL
MODEL 8
REMARK VINA RESULT:    -4.296     14.707     17.183
REMARK INTER + INTRA:          -5.418
REMARK INTER:                  -5.130
REMARK INTRA:                  -0.288
REMARK UNBOUND:                -0.243
REMARK SMILES O=c1c(O)c(-c2ccc(O)c(O)c2)oc2cc(O)cc(O)c12
REMARK SMILES IDX 5 1 3 2 2 3 1 4 22 5 20 6 19 7 17 8 16 9 15 10 14 11 6 12
REMARK SMILES IDX 7 13 8 14 9 15 13 16 11 17 10 18 12 20 4 22 21 24 18 26
REMARK H PARENT 10 19 12 21 4 23 21 25 18 27
REMARK Flexibility Score: inf
ROOT
ATOM      1  C   UNL     1      46.677  37.935 134.497  1.00  0.00     0.180 A 
ATOM      2  C   UNL     1      47.289  37.401 133.346  1.00  0.00     0.208 A 
ATOM      3  C   UNL     1      48.592  36.892 133.446  1.00  0.00     0.238 A 
ATOM      4  O   UNL     1      49.155  36.420 132.420  1.00  0.00    -0.285 OA
ATOM      5  C   UNL     1      49.253  36.906 134.691  1.00  0.00     0.111 A 
ATOM      6  C   UNL     1      50.566  36.408 134.877  1.00  0.00     0.134 A 
ATOM      7  C   UNL     1      51.152  36.450 136.151  1.00  0.00     0.093 A 
ATOM      8  C   UNL     1      50.450  36.977 137.241  1.00  0.00     0.123 A 
ATOM      9  C   UNL     1      49.156  37.469 137.062  1.00  0.00     0.094 A 
ATOM     10  C   UNL     1      48.556  37.439 135.801  1.00  0.00     0.146 A 
ATOM     11  O   UNL     1      47.326  37.918 135.658  1.00  0.00    -0.452 OA
ENDROOT
BRANCH   1  12
ATOM     12  C   UNL     1      45.312  38.508 134.469  1.00  0.00     0.025 A 
ATOM     13  C   UNL     1      45.100  39.897 134.467  1.00  0.00     0.016 A 
ATOM     14  C   UNL     1      43.803  40.415 134.464  1.00  0.00     0.051 A 
ATOM     15  C   UNL     1      42.698  39.554 134.477  1.00  0.00     0.157 A 
ATOM     16  C   UNL     1      44.202  37.648 134.503  1.00  0.00     0.062 A 
ATOM     17  C   UNL     1      42.900  38.163 134.500  1.00  0.00     0.158 A 
BRANCH  15  18
ATOM     18  O   UNL     1      41.404  40.073 134.473  1.00  0.00    -0.504 OA
ATOM     19  H   UNL     1      40.605  39.508 134.735  1.00  0.00     0.293 HD
ENDBRANCH  15  18
BRANCH  17  20
ATOM     20  O   UNL     1      41.822  37.279 134.521  1.00  0.00    -0.504 OA
ATOM     21  H   UNL     1      41.326  37.014 133.678  1.00  0.00     0.293 HD
ENDBRANCH  17  20
ENDBRANCH   1  12
BRANCH   2  22
ATOM     22  O   UNL     1      46.593  37.353 132.135  1.00  0.00    -0.502 OA
ATOM     23  H   UNL     1      45.675  37.766 132.020  1.00  0.00     0.293 HD
ENDBRANCH   2  22
BRANCH   6  24
ATOM     24  O   UNL     1      51.290  35.875 133.810  1.00  0.00    -0.507 OA
ATOM     25  H   UNL     1      51.721  36.468 133.109  1.00  0.00     0.293 HD
ENDBRANCH   6  24
BRANCH   8  26
ATOM     26  O   UNL     1      51.032  37.018 138.507  1.00  0.00    -0.508 OA
ATOM     27  H   UNL     1      50.518  37.347 139.315  1.00  0.00     0.293 HD
ENDBRANCH   8  26
TORSDOF 6
ENDMDL
