MODEL 1
REMARK VINA RESULT:    -3.515      0.000      0.000
REMARK INTER + INTRA:         -11.912
REMARK INTER:                  -7.624
REMARK INTRA:                  -4.288
REMARK UNBOUND:                -4.288
REMARK SMILES CCCCCCCCCCCCCCCCCCCCCC(=O)[O-]
REMARK SMILES IDX 12 1 11 2 10 3 9 4 8 5 7 6 6 7 5 8 4 9 3 10 2 11 1 12 13 13
REMARK SMILES IDX 14 14 15 15 16 16 17 17 18 18 19 19 20 20 21 21 22 22 23 23
REMARK SMILES IDX 24 24
REMARK H PARENT
REMARK Flexibility Score: inf
ROOT
ATOM      1  C   UNL     1      35.456 -44.685  -1.609  1.00  0.00     0.000 C 
ENDROOT
BRANCH   1   2
ATOM      2  C   UNL     1      35.958 -45.114  -3.003  1.00  0.00     0.000 C 
BRANCH   2   3
ATOM      3  C   UNL     1      35.255 -44.428  -4.193  1.00  0.00     0.000 C 
BRANCH   3   4
ATOM      4  C   UNL     1      34.793 -45.373  -5.318  1.00  0.00    -0.000 C 
BRANCH   4   5
ATOM      5  C   UNL     1      33.268 -45.573  -5.342  1.00  0.00    -0.000 C 
BRANCH   5   6
ATOM      6  C   UNL     1      32.511 -44.515  -4.520  1.00  0.00    -0.000 C 
BRANCH   6   7
ATOM      7  C   UNL     1      31.595 -45.071  -3.414  1.00  0.00    -0.000 C 
BRANCH   7   8
ATOM      8  C   UNL     1      31.739 -46.591  -3.224  1.00  0.00    -0.000 C 
BRANCH   8   9
ATOM      9  C   UNL     1      32.668 -46.954  -2.054  1.00  0.00    -0.000 C 
BRANCH   9  10
ATOM     10  C   UNL     1      33.761 -47.961  -2.458  1.00  0.00    -0.000 C 
BRANCH  10  11
ATOM     11  C   UNL     1      33.272 -48.970  -3.509  1.00  0.00    -0.003 C 
ATOM     12  C   UNL     1      34.389 -49.441  -4.439  1.00  0.00     0.004 C 
ENDBRANCH  10  11
ENDBRANCH   9  10
ENDBRANCH   8   9
ENDBRANCH   7   8
ENDBRANCH   6   7
ENDBRANCH   5   6
ENDBRANCH   4   5
ENDBRANCH   3   4
ENDBRANCH   2   3
ENDBRANCH   1   2
BRANCH   1  13
ATOM     13  C   UNL     1      34.454 -43.516  -1.616  1.00  0.00     0.000 C 
BRANCH  13  14
ATOM     14  C   UNL     1      33.937 -43.170  -0.212  1.00  0.00     0.000 C 
BRANCH  14  15
ATOM     15  C   UNL     1      32.589 -43.855   0.059  1.00  0.00     0.000 C 
BRANCH  15  16
ATOM     16  C   UNL     1      32.559 -44.609   1.401  1.00  0.00     0.000 C 
BRANCH  16  17
ATOM     17  C   UNL     1      33.352 -45.933   1.428  1.00  0.00     0.000 C 
BRANCH  17  18
ATOM     18  C   UNL     1      34.441 -46.023   2.511  1.00  0.00     0.000 C 
BRANCH  18  19
ATOM     19  C   UNL     1      35.443 -47.159   2.257  1.00  0.00     0.000 C 
BRANCH  19  20
ATOM     20  C   UNL     1      35.377 -47.632   0.797  1.00  0.00     0.006 C 
BRANCH  20  21
ATOM     21  C   UNL     1      35.300 -49.162   0.684  1.00  0.00     0.053 C 
BRANCH  21  22
ATOM     22  C   UNL     1      34.017 -49.697   1.243  1.00  0.00     0.041 C 
ATOM     23  O   UNL     1      32.926 -49.472   0.657  1.00  0.00    -0.550 OA
ATOM     24  O   UNL     1      34.033 -50.480   2.391  1.00  0.00    -0.550 OA
ENDBRANCH  21  22
ENDBRANCH  20  21
ENDBRANCH  19  20
ENDBRANCH  18  19
ENDBRANCH  17  18
ENDBRANCH  16  17
ENDBRANCH  15  16
ENDBRANCH  14  15
ENDBRANCH  13  14
ENDBRANCH   1  13
TORSDOF 20
ENDMDL
MODEL 2
REMARK VINA RESULT:    -3.424      1.914      3.523
REMARK INTER + INTRA:         -11.715
REMARK INTER:                  -8.584
REMARK INTRA:                  -3.131
REMARK UNBOUND:                -4.288
REMARK SMILES CCCCCCCCCCCCCCCCCCCCCC(=O)[O-]
REMARK SMILES IDX 12 1 11 2 10 3 9 4 8 5 7 6 6 7 5 8 4 9 3 10 2 11 1 12 13 13
REMARK SMILES IDX 14 14 15 15 16 16 17 17 18 18 19 19 20 20 21 21 22 22 23 23
REMARK SMILES IDX 24 24
REMARK H PARENT
REMARK Flexibility Score: inf
ROOT
ATOM      1  C   UNL     1      34.124 -43.822   1.387  1.00  0.00     0.000 C 
ENDROOT
BRANCH   1   2
ATOM      2  C   UNL     1      32.727 -44.033   0.770  1.00  0.00     0.000 C 
BRANCH   2   3
ATOM      3  C   UNL     1      32.621 -43.721  -0.737  1.00  0.00     0.000 C 
BRANCH   3   4
ATOM      4  C   UNL     1      33.864 -44.079  -1.572  1.00  0.00    -0.000 C 
BRANCH   4   5
ATOM      5  C   UNL     1      33.555 -45.060  -2.716  1.00  0.00    -0.000 C 
BRANCH   5   6
ATOM      6  C   UNL     1      32.240 -45.833  -2.505  1.00  0.00    -0.000 C 
BRANCH   6   7
ATOM      7  C   UNL     1      32.201 -47.245  -3.117  1.00  0.00    -0.000 C 
BRANCH   7   8
ATOM      8  C   UNL     1      33.529 -47.648  -3.783  1.00  0.00    -0.000 C 
BRANCH   8   9
ATOM      9  C   UNL     1      34.042 -49.014  -3.298  1.00  0.00    -0.000 C 
BRANCH   9  10
ATOM     10  C   UNL     1      34.090 -50.062  -4.426  1.00  0.00    -0.000 C 
BRANCH  10  11
ATOM     11  C   UNL     1      35.475 -50.715  -4.563  1.00  0.00    -0.003 C 
ATOM     12  C   UNL     1      35.503 -52.152  -4.044  1.00  0.00     0.004 C 
ENDBRANCH  10  11
ENDBRANCH   9  10
ENDBRANCH   8   9
ENDBRANCH   7   8
ENDBRANCH   6   7
ENDBRANCH   5   6
ENDBRANCH   4   5
ENDBRANCH   3   4
ENDBRANCH   2   3
ENDBRANCH   1   2
BRANCH   1  13
ATOM     13  C   UNL     1      34.409 -44.664   2.644  1.00  0.00     0.000 C 
BRANCH  13  14
ATOM     14  C   UNL     1      34.589 -46.156   2.329  1.00  0.00     0.000 C 
BRANCH  14  15
ATOM     15  C   UNL     1      35.343 -46.349   1.005  1.00  0.00     0.000 C 
BRANCH  15  16
ATOM     16  C   UNL     1      34.623 -47.309   0.040  1.00  0.00     0.000 C 
BRANCH  16  17
ATOM     17  C   UNL     1      33.178 -47.679   0.440  1.00  0.00     0.000 C 
BRANCH  17  18
ATOM     18  C   UNL     1      32.923 -49.180   0.661  1.00  0.00     0.000 C 
BRANCH  18  19
ATOM     19  C   UNL     1      34.208 -49.966   0.959  1.00  0.00     0.000 C 
BRANCH  19  20
ATOM     20  C   UNL     1      34.214 -50.479   2.406  1.00  0.00     0.006 C 
BRANCH  20  21
ATOM     21  C   UNL     1      35.439 -49.990   3.193  1.00  0.00     0.053 C 
BRANCH  21  22
ATOM     22  C   UNL     1      36.098 -51.107   3.944  1.00  0.00     0.041 C 
ATOM     23  O   UNL     1      36.211 -52.246   3.419  1.00  0.00    -0.550 OA
ATOM     24  O   UNL     1      36.626 -50.876   5.208  1.00  0.00    -0.550 OA
ENDBRANCH  21  22
ENDBRANCH  20  21
ENDBRANCH  19  20
ENDBRANCH  18  19
ENDBRANCH  17  18
ENDBRANCH  16  17
ENDBRANCH  15  16
ENDBRANCH  14  15
ENDBRANCH  13  14
ENDBRANCH   1  13
TORSDOF 20
ENDMDL
MODEL 3
REMARK VINA RESULT:    -3.377      1.237      3.032
REMARK INTER + INTRA:         -11.614
REMARK INTER:                  -7.859
REMARK INTRA:                  -3.756
REMARK UNBOUND:                -4.288
REMARK SMILES CCCCCCCCCCCCCCCCCCCCCC(=O)[O-]
REMARK SMILES IDX 12 1 11 2 10 3 9 4 8 5 7 6 6 7 5 8 4 9 3 10 2 11 1 12 13 13
REMARK SMILES IDX 14 14 15 15 16 16 17 17 18 18 19 19 20 20 21 21 22 22 23 23
REMARK SMILES IDX 24 24
REMARK H PARENT
REMARK Flexibility Score: inf
ROOT
ATOM      1  C   UNL     1      35.511 -44.558  -1.845  1.00  0.00     0.000 C 
ENDROOT
BRANCH   1   2
ATOM      2  C   UNL     1      36.023 -45.973  -1.511  1.00  0.00     0.000 C 
BRANCH   2   3
ATOM      3  C   UNL     1      35.315 -47.122  -2.261  1.00  0.00     0.000 C 
BRANCH   3   4
ATOM      4  C   UNL     1      34.377 -47.989  -1.401  1.00  0.00    -0.000 C 
BRANCH   4   5
ATOM      5  C   UNL     1      32.895 -47.614  -1.569  1.00  0.00    -0.000 C 
BRANCH   5   6
ATOM      6  C   UNL     1      32.526 -47.258  -3.020  1.00  0.00    -0.000 C 
BRANCH   6   7
ATOM      7  C   UNL     1      31.820 -45.903  -3.207  1.00  0.00    -0.000 C 
BRANCH   7   8
ATOM      8  C   UNL     1      32.020 -45.310  -4.613  1.00  0.00    -0.000 C 
BRANCH   8   9
ATOM      9  C   UNL     1      33.442 -45.535  -5.152  1.00  0.00    -0.000 C 
BRANCH   9  10
ATOM     10  C   UNL     1      34.162 -44.216  -5.490  1.00  0.00    -0.000 C 
BRANCH  10  11
ATOM     11  C   UNL     1      33.664 -43.039  -4.637  1.00  0.00    -0.003 C 
ATOM     12  C   UNL     1      33.013 -41.938  -5.473  1.00  0.00     0.004 C 
ENDBRANCH  10  11
ENDBRANCH   9  10
ENDBRANCH   8   9
ENDBRANCH   7   8
ENDBRANCH   6   7
ENDBRANCH   5   6
ENDBRANCH   4   5
ENDBRANCH   3   4
ENDBRANCH   2   3
ENDBRANCH   1   2
BRANCH   1  13
ATOM     13  C   UNL     1      35.823 -43.491  -0.780  1.00  0.00     0.000 C 
BRANCH  13  14
ATOM     14  C   UNL     1      34.557 -42.910  -0.134  1.00  0.00     0.000 C 
BRANCH  14  15
ATOM     15  C   UNL     1      33.294 -43.535  -0.743  1.00  0.00     0.000 C 
BRANCH  15  16
ATOM     16  C   UNL     1      32.436 -44.283   0.293  1.00  0.00     0.000 C 
BRANCH  16  17
ATOM     17  C   UNL     1      33.160 -44.642   1.608  1.00  0.00     0.000 C 
BRANCH  17  18
ATOM     18  C   UNL     1      33.726 -46.071   1.676  1.00  0.00     0.000 C 
BRANCH  18  19
ATOM     19  C   UNL     1      34.901 -46.202   2.655  1.00  0.00     0.000 C 
BRANCH  19  20
ATOM     20  C   UNL     1      35.069 -47.656   3.120  1.00  0.00     0.006 C 
BRANCH  20  21
ATOM     21  C   UNL     1      35.291 -48.621   1.945  1.00  0.00     0.053 C 
BRANCH  21  22
ATOM     22  C   UNL     1      34.410 -49.829   2.045  1.00  0.00     0.041 C 
ATOM     23  O   UNL     1      33.331 -49.883   1.399  1.00  0.00    -0.550 OA
ATOM     24  O   UNL     1      34.804 -50.913   2.819  1.00  0.00    -0.550 OA
ENDBRANCH  21  22
ENDBRANCH  20  21
ENDBRANCH  19  20
ENDBRANCH  18  19
ENDBRANCH  17  18
ENDBRANCH  16  17
ENDBRANCH  15  16
ENDBRANCH  14  15
ENDBRANCH  13  14
ENDBRANCH   1  13
TORSDOF 20
ENDMDL
MODEL 4
REMARK VINA RESULT:    -3.322      2.756      6.392
REMARK INTER + INTRA:         -11.493
REMARK INTER:                  -8.565
REMARK INTRA:                  -2.929
REMARK UNBOUND:                -4.288
REMARK SMILES CCCCCCCCCCCCCCCCCCCCCC(=O)[O-]
REMARK SMILES IDX 12 1 11 2 10 3 9 4 8 5 7 6 6 7 5 8 4 9 3 10 2 11 1 12 13 13
REMARK SMILES IDX 14 14 15 15 16 16 17 17 18 18 19 19 20 20 21 21 22 22 23 23
REMARK SMILES IDX 24 24
REMARK H PARENT
REMARK Flexibility Score: inf
ROOT
ATOM      1  C   UNL     1      34.234 -50.273   2.434  1.00  0.00     0.000 C 
ENDROOT
BRANCH   1   2
ATOM      2  C   UNL     1      35.444 -49.318   2.421  1.00  0.00     0.000 C 
BRANCH   2   3
ATOM      3  C   UNL     1      35.552 -48.378   3.640  1.00  0.00     0.000 C 
BRANCH   3   4
ATOM      4  C   UNL     1      35.476 -46.874   3.320  1.00  0.00    -0.000 C 
BRANCH   4   5
ATOM      5  C   UNL     1      36.293 -46.485   2.076  1.00  0.00    -0.000 C 
BRANCH   5   6
ATOM      6  C   UNL     1      35.479 -45.669   1.055  1.00  0.00    -0.000 C 
BRANCH   6   7
ATOM      7  C   UNL     1      34.428 -44.720   1.658  1.00  0.00    -0.000 C 
BRANCH   7   8
ATOM      8  C   UNL     1      32.997 -45.031   1.185  1.00  0.00    -0.000 C 
BRANCH   8   9
ATOM      9  C   UNL     1      32.403 -43.908   0.320  1.00  0.00    -0.000 C 
BRANCH   9  10
ATOM     10  C   UNL     1      33.328 -43.507  -0.845  1.00  0.00    -0.000 C 
BRANCH  10  11
ATOM     11  C   UNL     1      32.802 -43.989  -2.206  1.00  0.00    -0.003 C 
ATOM     12  C   UNL     1      31.341 -44.433  -2.150  1.00  0.00     0.004 C 
ENDBRANCH  10  11
ENDBRANCH   9  10
ENDBRANCH   8   9
ENDBRANCH   7   8
ENDBRANCH   6   7
ENDBRANCH   5   6
ENDBRANCH   4   5
ENDBRANCH   3   4
ENDBRANCH   2   3
ENDBRANCH   1   2
BRANCH   1  13
ATOM     13  C   UNL     1      33.266 -50.105   1.249  1.00  0.00     0.000 C 
BRANCH  13  14
ATOM     14  C   UNL     1      33.270 -48.680   0.678  1.00  0.00     0.000 C 
BRANCH  14  15
ATOM     15  C   UNL     1      33.850 -48.661  -0.744  1.00  0.00     0.000 C 
BRANCH  15  16
ATOM     16  C   UNL     1      33.218 -47.576  -1.635  1.00  0.00     0.000 C 
BRANCH  16  17
ATOM     17  C   UNL     1      32.753 -48.059  -3.025  1.00  0.00     0.000 C 
BRANCH  17  18
ATOM     18  C   UNL     1      32.292 -49.526  -3.089  1.00  0.00     0.000 C 
BRANCH  18  19
ATOM     19  C   UNL     1      32.983 -50.321  -4.207  1.00  0.00     0.000 C 
BRANCH  19  20
ATOM     20  C   UNL     1      34.380 -49.752  -4.500  1.00  0.00     0.006 C 
BRANCH  20  21
ATOM     21  C   UNL     1      35.465 -50.387  -3.618  1.00  0.00     0.053 C 
BRANCH  21  22
ATOM     22  C   UNL     1      36.213 -51.462  -4.344  1.00  0.00     0.041 C 
ATOM     23  O   UNL     1      35.782 -52.645  -4.348  1.00  0.00    -0.550 OA
ATOM     24  O   UNL     1      37.367 -51.148  -5.053  1.00  0.00    -0.550 OA
ENDBRANCH  21  22
ENDBRANCH  20  21
ENDBRANCH  19  20
ENDBRANCH  18  19
ENDBRANCH  17  18
ENDBRANCH  16  17
ENDBRANCH  15  16
ENDBRANCH  14  15
ENDBRANCH  13  14
ENDBRANCH   1  13
TORSDOF 20
ENDMDL
MODEL 5
REMARK VINA RESULT:    -3.291      2.220      5.809
REMARK INTER + INTRA:         -11.426
REMARK INTER:                  -6.967
REMARK INTRA:                  -4.459
REMARK UNBOUND:                -4.288
REMARK SMILES CCCCCCCCCCCCCCCCCCCCCC(=O)[O-]
REMARK SMILES IDX 12 1 11 2 10 3 9 4 8 5 7 6 6 7 5 8 4 9 3 10 2 11 1 12 13 13
REMARK SMILES IDX 14 14 15 15 16 16 17 17 18 18 19 19 20 20 21 21 22 22 23 23
REMARK SMILES IDX 24 24
REMARK H PARENT
REMARK Flexibility Score: inf
ROOT
ATOM      1  C   UNL     1      32.182 -47.363  -3.308  1.00  0.00     0.000 C 
ENDROOT
BRANCH   1   2
ATOM      2  C   UNL     1      33.285 -46.795  -2.394  1.00  0.00     0.000 C 
BRANCH   2   3
ATOM      3  C   UNL     1      33.539 -47.591  -1.097  1.00  0.00     0.000 C 
BRANCH   3   4
ATOM      4  C   UNL     1      34.904 -47.343  -0.429  1.00  0.00    -0.000 C 
BRANCH   4   5
ATOM      5  C   UNL     1      34.780 -46.723   0.974  1.00  0.00    -0.000 C 
BRANCH   5   6
ATOM      6  C   UNL     1      33.335 -46.330   1.331  1.00  0.00    -0.000 C 
BRANCH   6   7
ATOM      7  C   UNL     1      33.097 -44.825   1.550  1.00  0.00    -0.000 C 
BRANCH   7   8
ATOM      8  C   UNL     1      32.665 -44.092   0.267  1.00  0.00    -0.000 C 
BRANCH   8   9
ATOM      9  C   UNL     1      33.717 -43.083  -0.220  1.00  0.00    -0.000 C 
BRANCH   9  10
ATOM     10  C   UNL     1      34.481 -43.578  -1.462  1.00  0.00    -0.000 C 
BRANCH  10  11
ATOM     11  C   UNL     1      35.974 -43.813  -1.179  1.00  0.00    -0.003 C 
ATOM     12  C   UNL     1      36.644 -44.687  -2.238  1.00  0.00     0.004 C 
ENDBRANCH  10  11
ENDBRANCH   9  10
ENDBRANCH   8   9
ENDBRANCH   7   8
ENDBRANCH   6   7
ENDBRANCH   5   6
ENDBRANCH   4   5
ENDBRANCH   3   4
ENDBRANCH   2   3
ENDBRANCH   1   2
BRANCH   1  13
ATOM     13  C   UNL     1      31.218 -46.312  -3.888  1.00  0.00     0.000 C 
BRANCH  13  14
ATOM     14  C   UNL     1      30.805 -45.253  -2.856  1.00  0.00     0.000 C 
BRANCH  14  15
ATOM     15  C   UNL     1      31.349 -43.870  -3.243  1.00  0.00     0.000 C 
BRANCH  15  16
ATOM     16  C   UNL     1      31.751 -43.777  -4.726  1.00  0.00     0.000 C 
BRANCH  16  17
ATOM     17  C   UNL     1      33.030 -42.961  -5.010  1.00  0.00     0.000 C 
BRANCH  17  18
ATOM     18  C   UNL     1      34.330 -43.783  -5.075  1.00  0.00     0.000 C 
BRANCH  18  19
ATOM     19  C   UNL     1      34.127 -45.175  -5.690  1.00  0.00     0.000 C 
BRANCH  19  20
ATOM     20  C   UNL     1      35.350 -46.069  -5.438  1.00  0.00     0.006 C 
BRANCH  20  21
ATOM     21  C   UNL     1      35.130 -47.509  -5.927  1.00  0.00     0.053 C 
BRANCH  21  22
ATOM     22  C   UNL     1      35.375 -48.509  -4.838  1.00  0.00     0.041 C 
ATOM     23  O   UNL     1      34.839 -49.647  -4.889  1.00  0.00    -0.550 OA
ATOM     24  O   UNL     1      36.230 -48.197  -3.789  1.00  0.00    -0.550 OA
ENDBRANCH  21  22
ENDBRANCH  20  21
ENDBRANCH  19  20
ENDBRANCH  18  19
ENDBRANCH  17  18
ENDBRANCH  16  17
ENDBRANCH  15  16
ENDBRANCH  14  15
ENDBRANCH  13  14
ENDBRANCH   1  13
TORSDOF 20
ENDMDL
MODEL 6
REMARK VINA RESULT:    -3.289      1.625      3.120
REMARK INTER + INTRA:         -11.424
REMARK INTER:                  -7.650
REMARK INTRA:                  -3.774
REMARK UNBOUND:                -4.288
REMARK SMILES CCCCCCCCCCCCCCCCCCCCCC(=O)[O-]
REMARK SMILES IDX 12 1 11 2 10 3 9 4 8 5 7 6 6 7 5 8 4 9 3 10 2 11 1 12 13 13
REMARK SMILES IDX 14 14 15 15 16 16 17 17 18 18 19 19 20 20 21 21 22 22 23 23
REMARK SMILES IDX 24 24
REMARK H PARENT
REMARK Flexibility Score: inf
ROOT
ATOM      1  C   UNL     1      33.837 -43.912  -1.877  1.00  0.00     0.000 C 
ENDROOT
BRANCH   1   2
ATOM      2  C   UNL     1      33.076 -44.656  -2.993  1.00  0.00     0.000 C 
BRANCH   2   3
ATOM      3  C   UNL     1      32.136 -45.780  -2.510  1.00  0.00     0.000 C 
BRANCH   3   4
ATOM      4  C   UNL     1      31.887 -46.911  -3.526  1.00  0.00    -0.000 C 
BRANCH   4   5
ATOM      5  C   UNL     1      32.467 -48.261  -3.072  1.00  0.00    -0.000 C 
BRANCH   5   6
ATOM      6  C   UNL     1      33.220 -48.172  -1.732  1.00  0.00    -0.000 C 
BRANCH   6   7
ATOM      7  C   UNL     1      34.754 -48.252  -1.834  1.00  0.00    -0.000 C 
BRANCH   7   8
ATOM      8  C   UNL     1      35.235 -49.012  -3.082  1.00  0.00    -0.000 C 
BRANCH   8   9
ATOM      9  C   UNL     1      36.414 -48.315  -3.780  1.00  0.00    -0.000 C 
BRANCH   9  10
ATOM     10  C   UNL     1      36.052 -46.907  -4.290  1.00  0.00    -0.000 C 
BRANCH  10  11
ATOM     11  C   UNL     1      35.001 -46.941  -5.411  1.00  0.00    -0.003 C 
ATOM     12  C   UNL     1      35.426 -47.812  -6.592  1.00  0.00     0.004 C 
ENDBRANCH  10  11
ENDBRANCH   9  10
ENDBRANCH   8   9
ENDBRANCH   7   8
ENDBRANCH   6   7
ENDBRANCH   5   6
ENDBRANCH   4   5
ENDBRANCH   3   4
ENDBRANCH   2   3
ENDBRANCH   1   2
BRANCH   1  13
ATOM     13  C   UNL     1      35.221 -44.497  -1.539  1.00  0.00     0.000 C 
BRANCH  13  14
ATOM     14  C   UNL     1      35.995 -43.642  -0.526  1.00  0.00     0.000 C 
BRANCH  14  15
ATOM     15  C   UNL     1      35.076 -42.596   0.123  1.00  0.00     0.000 C 
BRANCH  15  16
ATOM     16  C   UNL     1      35.014 -42.722   1.656  1.00  0.00     0.000 C 
BRANCH  16  17
ATOM     17  C   UNL     1      34.556 -44.099   2.183  1.00  0.00     0.000 C 
BRANCH  17  18
ATOM     18  C   UNL     1      33.193 -44.582   1.656  1.00  0.00     0.000 C 
BRANCH  18  19
ATOM     19  C   UNL     1      33.202 -46.061   1.244  1.00  0.00     0.000 C 
BRANCH  19  20
ATOM     20  C   UNL     1      34.366 -46.809   1.913  1.00  0.00     0.006 C 
BRANCH  20  21
ATOM     21  C   UNL     1      34.199 -48.334   1.837  1.00  0.00     0.053 C 
BRANCH  21  22
ATOM     22  C   UNL     1      35.050 -49.037   2.849  1.00  0.00     0.041 C 
ATOM     23  O   UNL     1      35.561 -48.396   3.805  1.00  0.00    -0.550 OA
ATOM     24  O   UNL     1      35.245 -50.410   2.760  1.00  0.00    -0.550 OA
ENDBRANCH  21  22
ENDBRANCH  20  21
ENDBRANCH  19  20
ENDBRANCH  18  19
ENDBRANCH  17  18
ENDBRANCH  16  17
ENDBRANCH  15  16
ENDBRANCH  14  15
ENDBRANCH  13  14
ENDBRANCH   1  13
TORSDOF 20
ENDMDL
MODEL 7
REMARK VINA RESULT:    -3.267      4.070      7.497
REMARK INTER + INTRA:         -11.375
REMARK INTER:                  -7.401
REMARK INTRA:                  -3.974
REMARK UNBOUND:                -4.288
REMARK SMILES CCCCCCCCCCCCCCCCCCCCCC(=O)[O-]
REMARK SMILES IDX 12 1 11 2 10 3 9 4 8 5 7 6 6 7 5 8 4 9 3 10 2 11 1 12 13 13
REMARK SMILES IDX 14 14 15 15 16 16 17 17 18 18 19 19 20 20 21 21 22 22 23 23
REMARK SMILES IDX 24 24
REMARK H PARENT
REMARK Flexibility Score: inf
ROOT
ATOM      1  C   UNL     1      34.054 -43.752  -5.285  1.00  0.00     0.000 C 
ENDROOT
BRANCH   1   2
ATOM      2  C   UNL     1      33.266 -45.077  -5.307  1.00  0.00     0.000 C 
BRANCH   2   3
ATOM      3  C   UNL     1      31.737 -44.935  -5.152  1.00  0.00     0.000 C 
BRANCH   3   4
ATOM      4  C   UNL     1      31.099 -45.832  -4.075  1.00  0.00    -0.000 C 
BRANCH   4   5
ATOM      5  C   UNL     1      30.233 -45.046  -3.077  1.00  0.00    -0.000 C 
BRANCH   5   6
ATOM      6  C   UNL     1      30.994 -43.891  -2.402  1.00  0.00    -0.000 C 
BRANCH   6   7
ATOM      7  C   UNL     1      31.969 -44.308  -1.286  1.00  0.00    -0.000 C 
BRANCH   7   8
ATOM      8  C   UNL     1      33.432 -43.948  -1.602  1.00  0.00    -0.000 C 
BRANCH   8   9
ATOM      9  C   UNL     1      34.342 -45.185  -1.670  1.00  0.00    -0.000 C 
BRANCH   9  10
ATOM     10  C   UNL     1      33.578 -46.498  -1.417  1.00  0.00    -0.000 C 
BRANCH  10  11
ATOM     11  C   UNL     1      33.860 -47.560  -2.492  1.00  0.00    -0.003 C 
ATOM     12  C   UNL     1      34.485 -48.830  -1.916  1.00  0.00     0.004 C 
ENDBRANCH  10  11
ENDBRANCH   9  10
ENDBRANCH   8   9
ENDBRANCH   7   8
ENDBRANCH   6   7
ENDBRANCH   5   6
ENDBRANCH   4   5
ENDBRANCH   3   4
ENDBRANCH   2   3
ENDBRANCH   1   2
BRANCH   1  13
ATOM     13  C   UNL     1      33.210 -42.505  -4.963  1.00  0.00     0.000 C 
BRANCH  13  14
ATOM     14  C   UNL     1      33.286 -41.437  -6.064  1.00  0.00     0.000 C 
BRANCH  14  15
ATOM     15  C   UNL     1      33.684 -42.064  -7.409  1.00  0.00     0.000 C 
BRANCH  15  16
ATOM     16  C   UNL     1      32.481 -42.295  -8.341  1.00  0.00     0.000 C 
BRANCH  16  17
ATOM     17  C   UNL     1      31.192 -41.542  -7.948  1.00  0.00     0.000 C 
BRANCH  17  18
ATOM     18  C   UNL     1      29.879 -42.246  -8.333  1.00  0.00     0.000 C 
BRANCH  18  19
ATOM     19  C   UNL     1      28.847 -42.250  -7.196  1.00  0.00     0.000 C 
BRANCH  19  20
ATOM     20  C   UNL     1      29.541 -42.223  -5.826  1.00  0.00     0.006 C 
BRANCH  20  21
ATOM     21  C   UNL     1      28.832 -41.291  -4.832  1.00  0.00     0.053 C 
BRANCH  21  22
ATOM     22  C   UNL     1      28.055 -42.061  -3.807  1.00  0.00     0.041 C 
ATOM     23  O   UNL     1      28.157 -41.775  -2.586  1.00  0.00    -0.550 OA
ATOM     24  O   UNL     1      27.185 -43.068  -4.208  1.00  0.00    -0.550 OA
ENDBRANCH  21  22
ENDBRANCH  20  21
ENDBRANCH  19  20
ENDBRANCH  18  19
ENDBRANCH  17  18
ENDBRANCH  16  17
ENDBRANCH  15  16
ENDBRANCH  14  15
ENDBRANCH  13  14
ENDBRANCH   1  13
TORSDOF 20
ENDMDL
MODEL 8
REMARK VINA RESULT:    -3.263      2.254      4.131
REMARK INTER + INTRA:         -11.367
REMARK INTER:                  -7.966
REMARK INTRA:                  -3.401
REMARK UNBOUND:                -4.288
REMARK SMILES CCCCCCCCCCCCCCCCCCCCCC(=O)[O-]
REMARK SMILES IDX 12 1 11 2 10 3 9 4 8 5 7 6 6 7 5 8 4 9 3 10 2 11 1 12 13 13
REMARK SMILES IDX 14 14 15 15 16 16 17 17 18 18 19 19 20 20 21 21 22 22 23 23
REMARK SMILES IDX 24 24
REMARK H PARENT
REMARK Flexibility Score: inf
ROOT
ATOM      1  C   UNL     1      32.878 -44.235   0.663  1.00  0.00     0.000 C 
ENDROOT
BRANCH   1   2
ATOM      2  C   UNL     1      34.078 -43.319   0.346  1.00  0.00     0.000 C 
BRANCH   2   3
ATOM      3  C   UNL     1      34.396 -43.150  -1.154  1.00  0.00     0.000 C 
BRANCH   3   4
ATOM      4  C   UNL     1      35.468 -44.105  -1.711  1.00  0.00    -0.000 C 
BRANCH   4   5
ATOM      5  C   UNL     1      36.396 -44.664  -0.620  1.00  0.00    -0.000 C 
BRANCH   5   6
ATOM      6  C   UNL     1      36.367 -46.201  -0.536  1.00  0.00    -0.000 C 
BRANCH   6   7
ATOM      7  C   UNL     1      35.469 -46.901  -1.573  1.00  0.00    -0.000 C 
BRANCH   7   8
ATOM      8  C   UNL     1      34.221 -47.547  -0.948  1.00  0.00    -0.000 C 
BRANCH   8   9
ATOM      9  C   UNL     1      33.068 -47.699  -1.954  1.00  0.00    -0.000 C 
BRANCH   9  10
ATOM     10  C   UNL     1      32.932 -46.482  -2.887  1.00  0.00    -0.000 C 
BRANCH  10  11
ATOM     11  C   UNL     1      31.769 -45.561  -2.486  1.00  0.00    -0.003 C 
ATOM     12  C   UNL     1      30.625 -45.580  -3.499  1.00  0.00     0.004 C 
ENDBRANCH  10  11
ENDBRANCH   9  10
ENDBRANCH   8   9
ENDBRANCH   7   8
ENDBRANCH   6   7
ENDBRANCH   5   6
ENDBRANCH   4   5
ENDBRANCH   3   4
ENDBRANCH   2   3
ENDBRANCH   1   2
BRANCH   1  13
ATOM     13  C   UNL     1      33.146 -45.298   1.744  1.00  0.00     0.000 C 
BRANCH  13  14
ATOM     14  C   UNL     1      34.450 -45.046   2.514  1.00  0.00     0.000 C 
BRANCH  14  15
ATOM     15  C   UNL     1      34.817 -46.258   3.382  1.00  0.00     0.000 C 
BRANCH  15  16
ATOM     16  C   UNL     1      34.705 -47.594   2.624  1.00  0.00     0.000 C 
BRANCH  16  17
ATOM     17  C   UNL     1      36.026 -48.379   2.481  1.00  0.00     0.000 C 
BRANCH  17  18
ATOM     18  C   UNL     1      37.009 -48.227   3.656  1.00  0.00     0.000 C 
BRANCH  18  19
ATOM     19  C   UNL     1      36.706 -49.185   4.816  1.00  0.00     0.000 C 
BRANCH  19  20
ATOM     20  C   UNL     1      37.651 -50.396   4.788  1.00  0.00     0.006 C 
BRANCH  20  21
ATOM     21  C   UNL     1      37.263 -51.413   3.705  1.00  0.00     0.053 C 
BRANCH  21  22
ATOM     22  C   UNL     1      36.004 -52.146   4.056  1.00  0.00     0.041 C 
ATOM     23  O   UNL     1      34.998 -52.075   3.304  1.00  0.00    -0.550 OA
ATOM     24  O   UNL     1      35.959 -52.941   5.194  1.00  0.00    -0.550 OA
ENDBRANCH  21  22
ENDBRANCH  20  21
ENDBRANCH  19  20
ENDBRANCH  18  19
ENDBRANCH  17  18
ENDBRANCH  16  17
ENDBRANCH  15  16
ENDBRANCH  14  15
ENDBRANCH  13  14
ENDBRANCH   1  13
TORSDOF 20
ENDMDL
MODEL 9
REMARK VINA RESULT:    -3.214      3.479      6.524
REMARK INTER + INTRA:         -11.260
REMARK INTER:                  -7.609
REMARK INTRA:                  -3.651
REMARK UNBOUND:                -4.288
REMARK SMILES CCCCCCCCCCCCCCCCCCCCCC(=O)[O-]
REMARK SMILES IDX 12 1 11 2 10 3 9 4 8 5 7 6 6 7 5 8 4 9 3 10 2 11 1 12 13 13
REMARK SMILES IDX 14 14 15 15 16 16 17 17 18 18 19 19 20 20 21 21 22 22 23 23
REMARK SMILES IDX 24 24
REMARK H PARENT
REMARK Flexibility Score: inf
ROOT
ATOM      1  C   UNL     1      35.786 -44.647  -2.465  1.00  0.00     0.000 C 
ENDROOT
BRANCH   1   2
ATOM      2  C   UNL     1      35.069 -43.908  -1.317  1.00  0.00     0.000 C 
BRANCH   2   3
ATOM      3  C   UNL     1      33.597 -43.534  -1.595  1.00  0.00     0.000 C 
BRANCH   3   4
ATOM      4  C   UNL     1      32.654 -43.632  -0.381  1.00  0.00    -0.000 C 
BRANCH   4   5
ATOM      5  C   UNL     1      32.868 -44.914   0.441  1.00  0.00    -0.000 C 
BRANCH   5   6
ATOM      6  C   UNL     1      32.962 -44.649   1.954  1.00  0.00    -0.000 C 
BRANCH   6   7
ATOM      7  C   UNL     1      34.388 -44.626   2.532  1.00  0.00    -0.000 C 
BRANCH   7   8
ATOM      8  C   UNL     1      35.206 -45.877   2.162  1.00  0.00    -0.000 C 
BRANCH   8   9
ATOM      9  C   UNL     1      35.166 -46.954   3.258  1.00  0.00    -0.000 C 
BRANCH   9  10
ATOM     10  C   UNL     1      34.816 -48.348   2.706  1.00  0.00    -0.000 C 
BRANCH  10  11
ATOM     11  C   UNL     1      33.979 -48.277   1.419  1.00  0.00    -0.003 C 
ATOM     12  C   UNL     1      33.312 -49.608   1.076  1.00  0.00     0.004 C 
ENDBRANCH  10  11
ENDBRANCH   9  10
ENDBRANCH   8   9
ENDBRANCH   7   8
ENDBRANCH   6   7
ENDBRANCH   5   6
ENDBRANCH   4   5
ENDBRANCH   3   4
ENDBRANCH   2   3
ENDBRANCH   1   2
BRANCH   1  13
ATOM     13  C   UNL     1      36.690 -45.810  -2.017  1.00  0.00     0.000 C 
BRANCH  13  14
ATOM     14  C   UNL     1      35.893 -47.009  -1.482  1.00  0.00     0.000 C 
BRANCH  14  15
ATOM     15  C   UNL     1      35.453 -47.930  -2.629  1.00  0.00     0.000 C 
BRANCH  15  16
ATOM     16  C   UNL     1      33.991 -48.394  -2.498  1.00  0.00     0.000 C 
BRANCH  16  17
ATOM     17  C   UNL     1      32.992 -47.300  -2.063  1.00  0.00     0.000 C 
BRANCH  17  18
ATOM     18  C   UNL     1      32.056 -46.790  -3.172  1.00  0.00     0.000 C 
BRANCH  18  19
ATOM     19  C   UNL     1      32.796 -46.002  -4.263  1.00  0.00     0.000 C 
BRANCH  19  20
ATOM     20  C   UNL     1      31.869 -44.964  -4.914  1.00  0.00     0.006 C 
BRANCH  20  21
ATOM     21  C   UNL     1      32.599 -43.652  -5.236  1.00  0.00     0.053 C 
BRANCH  21  22
ATOM     22  C   UNL     1      31.909 -42.884  -6.322  1.00  0.00     0.041 C 
ATOM     23  O   UNL     1      31.001 -42.059  -6.038  1.00  0.00    -0.550 OA
ATOM     24  O   UNL     1      32.298 -43.051  -7.645  1.00  0.00    -0.550 OA
ENDBRANCH  21  22
ENDBRANCH  20  21
ENDBRANCH  19  20
ENDBRANCH  18  19
ENDBRANCH  17  18
ENDBRANCH  16  17
ENDBRANCH  15  16
ENDBRANCH  14  15
ENDBRANCH  13  14
ENDBRANCH   1  13
TORSDOF 20
ENDMDL
