MODEL 1
REMARK VINA RESULT:    -4.190      0.000      0.000
REMARK INTER + INTRA:          -8.637
REMARK INTER:                  -7.130
REMARK INTRA:                  -1.508
REMARK UNBOUND:                -1.508
REMARK SMILES CCCCCCCCCCCCCC(=O)[O-]
REMARK SMILES IDX 8 1 9 2 10 3 11 4 12 5 13 6 14 7 15 8 16 9 7 10 6 11 5 12
REMARK SMILES IDX 4 13 3 14 2 15 1 16
REMARK H PARENT
REMARK Flexibility Score: inf
ROOT
ATOM      1  C   UNL     1     -18.918  12.708 -17.017  1.00  0.00     0.000 C 
ENDROOT
BRANCH   1   2
ATOM      2  C   UNL     1     -18.022  13.858 -17.511  1.00  0.00     0.000 C 
BRANCH   2   3
ATOM      3  C   UNL     1     -18.194  15.136 -16.661  1.00  0.00     0.000 C 
BRANCH   3   4
ATOM      4  C   UNL     1     -17.041  15.375 -15.672  1.00  0.00     0.000 C 
BRANCH   4   5
ATOM      5  C   UNL     1     -17.527  15.606 -14.231  1.00  0.00     0.006 C 
BRANCH   5   6
ATOM      6  C   UNL     1     -16.736  14.774 -13.212  1.00  0.00     0.053 C 
BRANCH   6   7
ATOM      7  C   UNL     1     -16.237  15.617 -12.080  1.00  0.00     0.041 C 
ATOM      8  O   UNL     1     -15.068  16.083 -12.103  1.00  0.00    -0.550 OA
ATOM      9  O   UNL     1     -17.052  15.858 -10.980  1.00  0.00    -0.550 OA
ENDBRANCH   6   7
ENDBRANCH   5   6
ENDBRANCH   4   5
ENDBRANCH   3   4
ENDBRANCH   2   3
ENDBRANCH   1   2
BRANCH   1  10
ATOM     10  C   UNL     1     -18.114  11.465 -16.606  1.00  0.00     0.000 C 
BRANCH  10  11
ATOM     11  C   UNL     1     -17.523  11.583 -15.193  1.00  0.00    -0.000 C 
BRANCH  11  12
ATOM     12  C   UNL     1     -16.000  11.770 -15.250  1.00  0.00    -0.000 C 
BRANCH  12  13
ATOM     13  C   UNL     1     -15.345  11.018 -16.424  1.00  0.00    -0.000 C 
BRANCH  13  14
ATOM     14  C   UNL     1     -13.820  11.189 -16.535  1.00  0.00    -0.000 C 
BRANCH  14  15
ATOM     15  C   UNL     1     -13.379  12.660 -16.507  1.00  0.00    -0.003 C 
ATOM     16  C   UNL     1     -13.940  13.425 -17.702  1.00  0.00     0.004 C 
ENDBRANCH  14  15
ENDBRANCH  13  14
ENDBRANCH  12  13
ENDBRANCH  11  12
ENDBRANCH  10  11
ENDBRANCH   1  10
TORSDOF 12
ENDMDL
MODEL 2
REMARK VINA RESULT:    -4.042     14.031     15.696
REMARK INTER + INTRA:          -8.385
REMARK INTER:                  -6.402
REMARK INTRA:                  -1.983
REMARK UNBOUND:                -1.508
REMARK SMILES CCCCCCCCCCCCCC(=O)[O-]
REMARK SMILES IDX 8 1 9 2 10 3 11 4 12 5 13 6 14 7 15 8 16 9 7 10 6 11 5 12
REMARK SMILES IDX 4 13 3 14 2 15 1 16
REMARK H PARENT
REMARK Flexibility Score: inf
ROOT
ATOM      1  C   UNL     1      -1.740  11.286 -13.359  1.00  0.00     0.000 C 
ENDROOT
BRANCH   1   2
ATOM      2  C   UNL     1      -2.343  10.353 -12.294  1.00  0.00     0.000 C 
BRANCH   2   3
ATOM      3  C   UNL     1      -3.837  10.650 -12.039  1.00  0.00     0.000 C 
BRANCH   3   4
ATOM      4  C   UNL     1      -4.358  10.077 -10.710  1.00  0.00     0.000 C 
BRANCH   4   5
ATOM      5  C   UNL     1      -3.273  10.006  -9.624  1.00  0.00     0.006 C 
BRANCH   5   6
ATOM      6  C   UNL     1      -3.047   8.573  -9.123  1.00  0.00     0.053 C 
BRANCH   6   7
ATOM      7  C   UNL     1      -1.590   8.243  -9.027  1.00  0.00     0.041 C 
ATOM      8  O   UNL     1      -0.726   9.050  -9.463  1.00  0.00    -0.550 OA
ATOM      9  O   UNL     1      -1.186   7.029  -8.486  1.00  0.00    -0.550 OA
ENDBRANCH   6   7
ENDBRANCH   5   6
ENDBRANCH   4   5
ENDBRANCH   3   4
ENDBRANCH   2   3
ENDBRANCH   1   2
BRANCH   1  10
ATOM     10  C   UNL     1      -0.471  12.001 -12.871  1.00  0.00     0.000 C 
BRANCH  10  11
ATOM     11  C   UNL     1      -0.421  12.142 -11.342  1.00  0.00    -0.000 C 
BRANCH  11  12
ATOM     12  C   UNL     1      -0.906  13.532 -10.904  1.00  0.00    -0.000 C 
BRANCH  12  13
ATOM     13  C   UNL     1      -2.348  13.523 -10.363  1.00  0.00    -0.000 C 
BRANCH  13  14
ATOM     14  C   UNL     1      -3.368  14.294 -11.219  1.00  0.00    -0.000 C 
BRANCH  14  15
ATOM     15  C   UNL     1      -2.718  15.052 -12.386  1.00  0.00    -0.003 C 
ATOM     16  C   UNL     1      -3.222  14.531 -13.729  1.00  0.00     0.004 C 
ENDBRANCH  14  15
ENDBRANCH  13  14
ENDBRANCH  12  13
ENDBRANCH  11  12
ENDBRANCH  10  11
ENDBRANCH   1  10
TORSDOF 12
ENDMDL
MODEL 3
REMARK VINA RESULT:    -4.027     12.519     14.111
REMARK INTER + INTRA:          -8.360
REMARK INTER:                  -6.315
REMARK INTRA:                  -2.045
REMARK UNBOUND:                -1.508
REMARK SMILES CCCCCCCCCCCCCC(=O)[O-]
REMARK SMILES IDX 8 1 9 2 10 3 11 4 12 5 13 6 14 7 15 8 16 9 7 10 6 11 5 12
REMARK SMILES IDX 4 13 3 14 2 15 1 16
REMARK H PARENT
REMARK Flexibility Score: inf
ROOT
ATOM      1  C   UNL     1      -3.408  12.188 -11.989  1.00  0.00     0.000 C 
ENDROOT
BRANCH   1   2
ATOM      2  C   UNL     1      -2.150  12.798 -11.346  1.00  0.00     0.000 C 
BRANCH   2   3
ATOM      3  C   UNL     1      -2.465  13.511 -10.012  1.00  0.00     0.000 C 
BRANCH   3   4
ATOM      4  C   UNL     1      -3.946  13.892  -9.856  1.00  0.00     0.000 C 
BRANCH   4   5
ATOM      5  C   UNL     1      -4.429  13.828  -8.397  1.00  0.00     0.006 C 
BRANCH   5   6
ATOM      6  C   UNL     1      -5.959  13.866  -8.291  1.00  0.00     0.053 C 
BRANCH   6   7
ATOM      7  C   UNL     1      -6.426  14.993  -7.423  1.00  0.00     0.041 C 
ATOM      8  O   UNL     1      -6.027  15.085  -6.232  1.00  0.00    -0.550 OA
ATOM      9  O   UNL     1      -7.330  15.925  -7.919  1.00  0.00    -0.550 OA
ENDBRANCH   6   7
ENDBRANCH   5   6
ENDBRANCH   4   5
ENDBRANCH   3   4
ENDBRANCH   2   3
ENDBRANCH   1   2
BRANCH   1  10
ATOM     10  C   UNL     1      -3.450  10.657 -11.873  1.00  0.00     0.000 C 
BRANCH  10  11
ATOM     11  C   UNL     1      -4.763  10.145 -11.264  1.00  0.00    -0.000 C 
BRANCH  11  12
ATOM     12  C   UNL     1      -4.765  10.320  -9.738  1.00  0.00    -0.000 C 
BRANCH  12  13
ATOM     13  C   UNL     1      -3.617   9.563  -9.045  1.00  0.00    -0.000 C 
BRANCH  13  14
ATOM     14  C   UNL     1      -2.705  10.433  -8.161  1.00  0.00    -0.000 C 
BRANCH  14  15
ATOM     15  C   UNL     1      -1.211  10.195  -8.425  1.00  0.00    -0.003 C 
ATOM     16  C   UNL     1      -1.006   9.141  -9.509  1.00  0.00     0.004 C 
ENDBRANCH  14  15
ENDBRANCH  13  14
ENDBRANCH  12  13
ENDBRANCH  11  12
ENDBRANCH  10  11
ENDBRANCH   1  10
TORSDOF 12
ENDMDL
MODEL 4
REMARK VINA RESULT:    -4.027     13.559     15.466
REMARK INTER + INTRA:          -8.359
REMARK INTER:                  -6.392
REMARK INTRA:                  -1.967
REMARK UNBOUND:                -1.508
REMARK SMILES CCCCCCCCCCCCCC(=O)[O-]
REMARK SMILES IDX 8 1 9 2 10 3 11 4 12 5 13 6 14 7 15 8 16 9 7 10 6 11 5 12
REMARK SMILES IDX 4 13 3 14 2 15 1 16
REMARK H PARENT
REMARK Flexibility Score: inf
ROOT
ATOM      1  C   UNL     1      -1.721   9.063  -9.051  1.00  0.00     0.000 C 
ENDROOT
BRANCH   1   2
ATOM      2  C   UNL     1      -3.117   9.302  -9.653  1.00  0.00     0.000 C 
BRANCH   2   3
ATOM      3  C   UNL     1      -3.665  10.705  -9.315  1.00  0.00     0.000 C 
BRANCH   3   4
ATOM      4  C   UNL     1      -3.983  11.556 -10.556  1.00  0.00     0.000 C 
BRANCH   4   5
ATOM      5  C   UNL     1      -3.845  13.065 -10.297  1.00  0.00     0.006 C 
BRANCH   5   6
ATOM      6  C   UNL     1      -3.386  13.369  -8.865  1.00  0.00     0.053 C 
BRANCH   6   7
ATOM      7  C   UNL     1      -4.502  13.920  -8.032  1.00  0.00     0.041 C 
ATOM      8  O   UNL     1      -4.284  14.303  -6.852  1.00  0.00    -0.550 OA
ATOM      9  O   UNL     1      -5.791  13.977  -8.547  1.00  0.00    -0.550 OA
ENDBRANCH   6   7
ENDBRANCH   5   6
ENDBRANCH   4   5
ENDBRANCH   3   4
ENDBRANCH   2   3
ENDBRANCH   1   2
BRANCH   1  10
ATOM     10  C   UNL     1      -1.136  10.322  -8.395  1.00  0.00     0.000 C 
BRANCH  10  11
ATOM     11  C   UNL     1       0.125  10.832  -9.108  1.00  0.00    -0.000 C 
BRANCH  11  12
ATOM     12  C   UNL     1      -0.195  12.057  -9.978  1.00  0.00    -0.000 C 
BRANCH  12  13
ATOM     13  C   UNL     1      -0.386  11.704 -11.465  1.00  0.00    -0.000 C 
BRANCH  13  14
ATOM     14  C   UNL     1      -0.422  12.911 -12.419  1.00  0.00    -0.000 C 
BRANCH  14  15
ATOM     15  C   UNL     1      -0.582  14.250 -11.685  1.00  0.00    -0.003 C 
ATOM     16  C   UNL     1      -1.563  15.163 -12.414  1.00  0.00     0.004 C 
ENDBRANCH  14  15
ENDBRANCH  13  14
ENDBRANCH  12  13
ENDBRANCH  11  12
ENDBRANCH  10  11
ENDBRANCH   1  10
TORSDOF 12
ENDMDL
MODEL 5
REMARK VINA RESULT:    -3.976      5.809      7.775
REMARK INTER + INTRA:          -8.273
REMARK INTER:                  -6.986
REMARK INTRA:                  -1.287
REMARK UNBOUND:                -1.508
REMARK SMILES CCCCCCCCCCCCCC(=O)[O-]
REMARK SMILES IDX 8 1 9 2 10 3 11 4 12 5 13 6 14 7 15 8 16 9 7 10 6 11 5 12
REMARK SMILES IDX 4 13 3 14 2 15 1 16
REMARK H PARENT
REMARK Flexibility Score: inf
ROOT
ATOM      1  C   UNL     1     -12.965  17.627 -19.756  1.00  0.00     0.000 C 
ENDROOT
BRANCH   1   2
ATOM      2  C   UNL     1     -12.916  16.101 -19.562  1.00  0.00     0.000 C 
BRANCH   2   3
ATOM      3  C   UNL     1     -14.281  15.435 -19.841  1.00  0.00     0.000 C 
BRANCH   3   4
ATOM      4  C   UNL     1     -15.090  16.133 -20.947  1.00  0.00     0.000 C 
BRANCH   4   5
ATOM      5  C   UNL     1     -16.428  16.698 -20.443  1.00  0.00     0.006 C 
BRANCH   5   6
ATOM      6  C   UNL     1     -17.132  17.555 -21.503  1.00  0.00     0.053 C 
BRANCH   6   7
ATOM      7  C   UNL     1     -18.620  17.530 -21.337  1.00  0.00     0.041 C 
ATOM      8  O   UNL     1     -19.132  17.597 -20.188  1.00  0.00    -0.550 OA
ATOM      9  O   UNL     1     -19.441  17.395 -22.449  1.00  0.00    -0.550 OA
ENDBRANCH   6   7
ENDBRANCH   5   6
ENDBRANCH   4   5
ENDBRANCH   3   4
ENDBRANCH   2   3
ENDBRANCH   1   2
BRANCH   1  10
ATOM     10  C   UNL     1     -13.015  18.392 -18.425  1.00  0.00     0.000 C 
BRANCH  10  11
ATOM     11  C   UNL     1     -14.450  18.639 -17.937  1.00  0.00    -0.000 C 
BRANCH  11  12
ATOM     12  C   UNL     1     -14.586  18.303 -16.444  1.00  0.00    -0.000 C 
BRANCH  12  13
ATOM     13  C   UNL     1     -13.674  17.144 -16.003  1.00  0.00    -0.000 C 
BRANCH  13  14
ATOM     14  C   UNL     1     -12.922  17.376 -14.680  1.00  0.00    -0.000 C 
BRANCH  14  15
ATOM     15  C   UNL     1     -13.049  18.817 -14.165  1.00  0.00    -0.003 C 
ATOM     16  C   UNL     1     -11.756  19.596 -14.386  1.00  0.00     0.004 C 
ENDBRANCH  14  15
ENDBRANCH  13  14
ENDBRANCH  12  13
ENDBRANCH  11  12
ENDBRANCH  10  11
ENDBRANCH   1  10
TORSDOF 12
ENDMDL
MODEL 6
REMARK VINA RESULT:    -3.950      5.109      6.361
REMARK INTER + INTRA:          -8.228
REMARK INTER:                  -6.510
REMARK INTRA:                  -1.718
REMARK UNBOUND:                -1.508
REMARK SMILES CCCCCCCCCCCCCC(=O)[O-]
REMARK SMILES IDX 8 1 9 2 10 3 11 4 12 5 13 6 14 7 15 8 16 9 7 10 6 11 5 12
REMARK SMILES IDX 4 13 3 14 2 15 1 16
REMARK H PARENT
REMARK Flexibility Score: inf
ROOT
ATOM      1  C   UNL     1     -18.300  16.898 -15.395  1.00  0.00     0.000 C 
ENDROOT
BRANCH   1   2
ATOM      2  C   UNL     1     -18.316  17.935 -16.532  1.00  0.00     0.000 C 
BRANCH   2   3
ATOM      3  C   UNL     1     -17.014  18.765 -16.581  1.00  0.00     0.000 C 
BRANCH   3   4
ATOM      4  C   UNL     1     -15.871  18.068 -17.338  1.00  0.00     0.000 C 
BRANCH   4   5
ATOM      5  C   UNL     1     -14.675  18.998 -17.600  1.00  0.00     0.006 C 
BRANCH   5   6
ATOM      6  C   UNL     1     -14.857  20.376 -16.949  1.00  0.00     0.053 C 
BRANCH   6   7
ATOM      7  C   UNL     1     -13.638  21.229 -17.110  1.00  0.00     0.041 C 
ATOM      8  O   UNL     1     -12.606  20.765 -17.664  1.00  0.00    -0.550 OA
ATOM      9  O   UNL     1     -13.629  22.528 -16.618  1.00  0.00    -0.550 OA
ENDBRANCH   6   7
ENDBRANCH   5   6
ENDBRANCH   4   5
ENDBRANCH   3   4
ENDBRANCH   2   3
ENDBRANCH   1   2
BRANCH   1  10
ATOM     10  C   UNL     1     -18.550  17.526 -14.015  1.00  0.00     0.000 C 
BRANCH  10  11
ATOM     11  C   UNL     1     -17.420  17.233 -13.017  1.00  0.00    -0.000 C 
BRANCH  11  12
ATOM     12  C   UNL     1     -16.285  16.446 -13.689  1.00  0.00    -0.000 C 
BRANCH  12  13
ATOM     13  C   UNL     1     -14.886  16.909 -13.242  1.00  0.00    -0.000 C 
BRANCH  13  14
ATOM     14  C   UNL     1     -14.393  18.213 -13.896  1.00  0.00    -0.000 C 
BRANCH  14  15
ATOM     15  C   UNL     1     -12.934  18.131 -14.367  1.00  0.00    -0.003 C 
ATOM     16  C   UNL     1     -12.225  19.471 -14.193  1.00  0.00     0.004 C 
ENDBRANCH  14  15
ENDBRANCH  13  14
ENDBRANCH  12  13
ENDBRANCH  11  12
ENDBRANCH  10  11
ENDBRANCH   1  10
TORSDOF 12
ENDMDL
MODEL 7
REMARK VINA RESULT:    -3.949      3.264      6.086
REMARK INTER + INTRA:          -8.227
REMARK INTER:                  -6.917
REMARK INTRA:                  -1.310
REMARK UNBOUND:                -1.508
REMARK SMILES CCCCCCCCCCCCCC(=O)[O-]
REMARK SMILES IDX 8 1 9 2 10 3 11 4 12 5 13 6 14 7 15 8 16 9 7 10 6 11 5 12
REMARK SMILES IDX 4 13 3 14 2 15 1 16
REMARK H PARENT
REMARK Flexibility Score: inf
ROOT
ATOM      1  C   UNL     1     -16.969  16.898 -13.158  1.00  0.00     0.000 C 
ENDROOT
BRANCH   1   2
ATOM      2  C   UNL     1     -16.719  15.577 -12.409  1.00  0.00     0.000 C 
BRANCH   2   3
ATOM      3  C   UNL     1     -16.754  14.357 -13.356  1.00  0.00     0.000 C 
BRANCH   3   4
ATOM      4  C   UNL     1     -16.882  14.735 -14.841  1.00  0.00     0.000 C 
BRANCH   4   5
ATOM      5  C   UNL     1     -16.489  13.588 -15.786  1.00  0.00     0.006 C 
BRANCH   5   6
ATOM      6  C   UNL     1     -17.236  12.287 -15.461  1.00  0.00     0.053 C 
BRANCH   6   7
ATOM      7  C   UNL     1     -18.061  11.818 -16.619  1.00  0.00     0.041 C 
ATOM      8  O   UNL     1     -18.723  12.643 -17.302  1.00  0.00    -0.550 OA
ATOM      9  O   UNL     1     -18.126  10.464 -16.923  1.00  0.00    -0.550 OA
ENDBRANCH   6   7
ENDBRANCH   5   6
ENDBRANCH   4   5
ENDBRANCH   3   4
ENDBRANCH   2   3
ENDBRANCH   1   2
BRANCH   1  10
ATOM     10  C   UNL     1     -18.162  17.683 -12.592  1.00  0.00     0.000 C 
BRANCH  10  11
ATOM     11  C   UNL     1     -19.385  17.655 -13.520  1.00  0.00    -0.000 C 
BRANCH  11  12
ATOM     12  C   UNL     1     -18.954  17.583 -14.992  1.00  0.00    -0.000 C 
BRANCH  12  13
ATOM     13  C   UNL     1     -20.104  17.188 -15.937  1.00  0.00    -0.000 C 
BRANCH  13  14
ATOM     14  C   UNL     1     -19.769  16.065 -16.935  1.00  0.00    -0.000 C 
BRANCH  14  15
ATOM     15  C   UNL     1     -18.463  16.317 -17.701  1.00  0.00    -0.003 C 
ATOM     16  C   UNL     1     -18.724  16.471 -19.197  1.00  0.00     0.004 C 
ENDBRANCH  14  15
ENDBRANCH  13  14
ENDBRANCH  12  13
ENDBRANCH  11  12
ENDBRANCH  10  11
ENDBRANCH   1  10
TORSDOF 12
ENDMDL
MODEL 8
REMARK VINA RESULT:    -3.926      5.133      6.968
REMARK INTER + INTRA:          -8.188
REMARK INTER:                  -6.008
REMARK INTRA:                  -2.180
REMARK UNBOUND:                -1.508
REMARK SMILES CCCCCCCCCCCCCC(=O)[O-]
REMARK SMILES IDX 8 1 9 2 10 3 11 4 12 5 13 6 14 7 15 8 16 9 7 10 6 11 5 12
REMARK SMILES IDX 4 13 3 14 2 15 1 16
REMARK H PARENT
REMARK Flexibility Score: inf
ROOT
ATOM      1  C   UNL     1     -19.638  18.331 -19.685  1.00  0.00     0.000 C 
ENDROOT
BRANCH   1   2
ATOM      2  C   UNL     1     -18.626  19.352 -20.236  1.00  0.00     0.000 C 
BRANCH   2   3
ATOM      3  C   UNL     1     -17.209  18.752 -20.368  1.00  0.00     0.000 C 
BRANCH   3   4
ATOM      4  C   UNL     1     -17.204  17.228 -20.570  1.00  0.00     0.000 C 
BRANCH   4   5
ATOM      5  C   UNL     1     -16.190  16.508 -19.665  1.00  0.00     0.006 C 
BRANCH   5   6
ATOM      6  C   UNL     1     -14.777  16.506 -20.263  1.00  0.00     0.053 C 
BRANCH   6   7
ATOM      7  C   UNL     1     -13.759  16.989 -19.278  1.00  0.00     0.041 C 
ATOM      8  O   UNL     1     -13.676  16.459 -18.138  1.00  0.00    -0.550 OA
ATOM      9  O   UNL     1     -12.923  18.050 -19.604  1.00  0.00    -0.550 OA
ENDBRANCH   6   7
ENDBRANCH   5   6
ENDBRANCH   4   5
ENDBRANCH   3   4
ENDBRANCH   2   3
ENDBRANCH   1   2
BRANCH   1  10
ATOM     10  C   UNL     1     -19.813  18.432 -18.162  1.00  0.00     0.000 C 
BRANCH  10  11
ATOM     11  C   UNL     1     -19.595  17.089 -17.450  1.00  0.00    -0.000 C 
BRANCH  11  12
ATOM     12  C   UNL     1     -18.258  17.080 -16.694  1.00  0.00    -0.000 C 
BRANCH  12  13
ATOM     13  C   UNL     1     -17.606  18.473 -16.610  1.00  0.00    -0.000 C 
BRANCH  13  14
ATOM     14  C   UNL     1     -16.074  18.465 -16.457  1.00  0.00    -0.000 C 
BRANCH  14  15
ATOM     15  C   UNL     1     -15.400  19.672 -17.126  1.00  0.00    -0.003 C 
ATOM     16  C   UNL     1     -16.421  20.752 -17.469  1.00  0.00     0.004 C 
ENDBRANCH  14  15
ENDBRANCH  13  14
ENDBRANCH  12  13
ENDBRANCH  11  12
ENDBRANCH  10  11
ENDBRANCH   1  10
TORSDOF 12
ENDMDL
MODEL 9
REMARK VINA RESULT:    -3.857     13.147     15.303
REMARK INTER + INTRA:          -8.070
REMARK INTER:                  -6.366
REMARK INTRA:                  -1.703
REMARK UNBOUND:                -1.508
REMARK SMILES CCCCCCCCCCCCCC(=O)[O-]
REMARK SMILES IDX 8 1 9 2 10 3 11 4 12 5 13 6 14 7 15 8 16 9 7 10 6 11 5 12
REMARK SMILES IDX 4 13 3 14 2 15 1 16
REMARK H PARENT
REMARK Flexibility Score: inf
ROOT
ATOM      1  C   UNL     1      -3.236  10.980 -10.365  1.00  0.00     0.000 C 
ENDROOT
BRANCH   1   2
ATOM      2  C   UNL     1      -3.832  10.888 -11.780  1.00  0.00     0.000 C 
BRANCH   2   3
ATOM      3  C   UNL     1      -2.773  10.488 -12.832  1.00  0.00     0.000 C 
BRANCH   3   4
ATOM      4  C   UNL     1      -3.161  10.873 -14.270  1.00  0.00     0.000 C 
BRANCH   4   5
ATOM      5  C   UNL     1      -2.104  10.457 -15.306  1.00  0.00     0.006 C 
BRANCH   5   6
ATOM      6  C   UNL     1      -2.728  10.127 -16.669  1.00  0.00     0.053 C 
BRANCH   6   7
ATOM      7  C   UNL     1      -3.854  11.055 -17.002  1.00  0.00     0.041 C 
ATOM      8  O   UNL     1      -3.620  12.260 -17.287  1.00  0.00    -0.550 OA
ATOM      9  O   UNL     1      -5.166  10.600 -16.963  1.00  0.00    -0.550 OA
ENDBRANCH   6   7
ENDBRANCH   5   6
ENDBRANCH   4   5
ENDBRANCH   3   4
ENDBRANCH   2   3
ENDBRANCH   1   2
BRANCH   1  10
ATOM     10  C   UNL     1      -2.007  10.078 -10.178  1.00  0.00     0.000 C 
BRANCH  10  11
ATOM     11  C   UNL     1      -0.812  10.822  -9.563  1.00  0.00    -0.000 C 
BRANCH  11  12
ATOM     12  C   UNL     1      -0.706  12.247 -10.125  1.00  0.00    -0.000 C 
BRANCH  12  13
ATOM     13  C   UNL     1       0.125  12.322 -11.420  1.00  0.00    -0.000 C 
BRANCH  13  14
ATOM     14  C   UNL     1      -0.412  13.299 -12.481  1.00  0.00    -0.000 C 
BRANCH  14  15
ATOM     15  C   UNL     1      -1.684  14.032 -12.030  1.00  0.00    -0.003 C 
ATOM     16  C   UNL     1      -2.549  14.420 -13.226  1.00  0.00     0.004 C 
ENDBRANCH  14  15
ENDBRANCH  13  14
ENDBRANCH  12  13
ENDBRANCH  11  12
ENDBRANCH  10  11
ENDBRANCH   1  10
TORSDOF 12
ENDMDL
