MODEL 1
REMARK VINA RESULT:    -4.711      0.000      0.000
REMARK INTER + INTRA:          -9.155
REMARK INTER:                  -8.015
REMARK INTRA:                  -1.140
REMARK UNBOUND:                -1.140
REMARK SMILES CCCCCCCCCCCCCC(=O)[O-]
REMARK SMILES IDX 8 1 9 2 10 3 11 4 12 5 13 6 14 7 15 8 16 9 7 10 6 11 5 12
REMARK SMILES IDX 4 13 3 14 2 15 1 16
REMARK H PARENT
REMARK Flexibility Score: inf
ROOT
ATOM      1  C   UNL     1      52.744  58.760  92.849  1.00  0.00     0.000 C 
ENDROOT
BRANCH   1   2
ATOM      2  C   UNL     1      52.901  57.858  94.084  1.00  0.00     0.000 C 
BRANCH   2   3
ATOM      3  C   UNL     1      51.614  57.766  94.922  1.00  0.00     0.000 C 
BRANCH   3   4
ATOM      4  C   UNL     1      50.399  58.415  94.230  1.00  0.00     0.000 C 
BRANCH   4   5
ATOM      5  C   UNL     1      49.428  59.156  95.169  1.00  0.00     0.006 C 
BRANCH   5   6
ATOM      6  C   UNL     1      49.637  60.676  95.163  1.00  0.00     0.053 C 
BRANCH   6   7
ATOM      7  C   UNL     1      49.901  61.163  93.772  1.00  0.00     0.041 C 
ATOM      8  O   UNL     1      48.966  61.215  92.929  1.00  0.00    -0.550 OA
ATOM      9  O   UNL     1      51.175  61.596  93.418  1.00  0.00    -0.550 OA
ENDBRANCH   6   7
ENDBRANCH   5   6
ENDBRANCH   4   5
ENDBRANCH   3   4
ENDBRANCH   2   3
ENDBRANCH   1   2
BRANCH   1  10
ATOM     10  C   UNL     1      52.747  57.971  91.527  1.00  0.00     0.000 C 
BRANCH  10  11
ATOM     11  C   UNL     1      51.646  56.898  91.484  1.00  0.00    -0.000 C 
BRANCH  11  12
ATOM     12  C   UNL     1      51.997  55.728  90.545  1.00  0.00    -0.000 C 
BRANCH  12  13
ATOM     13  C   UNL     1      52.337  54.438  91.321  1.00  0.00    -0.000 C 
BRANCH  13  14
ATOM     14  C   UNL     1      52.082  54.540  92.838  1.00  0.00    -0.000 C 
BRANCH  14  15
ATOM     15  C   UNL     1      53.308  54.241  93.719  1.00  0.00    -0.003 C 
ATOM     16  C   UNL     1      53.038  54.467  95.207  1.00  0.00     0.004 C 
ENDBRANCH  14  15
ENDBRANCH  13  14
ENDBRANCH  12  13
ENDBRANCH  11  12
ENDBRANCH  10  11
ENDBRANCH   1  10
TORSDOF 12
ENDMDL
MODEL 2
REMARK VINA RESULT:    -4.574      2.896      5.840
REMARK INTER + INTRA:          -8.922
REMARK INTER:                  -7.609
REMARK INTRA:                  -1.313
REMARK UNBOUND:                -1.140
REMARK SMILES CCCCCCCCCCCCCC(=O)[O-]
REMARK SMILES IDX 8 1 9 2 10 3 11 4 12 5 13 6 14 7 15 8 16 9 7 10 6 11 5 12
REMARK SMILES IDX 4 13 3 14 2 15 1 16
REMARK H PARENT
REMARK Flexibility Score: inf
ROOT
ATOM      1  C   UNL     1      51.046  57.792  94.050  1.00  0.00     0.000 C 
ENDROOT
BRANCH   1   2
ATOM      2  C   UNL     1      52.386  57.538  94.759  1.00  0.00     0.000 C 
BRANCH   2   3
ATOM      3  C   UNL     1      52.287  56.457  95.850  1.00  0.00     0.000 C 
BRANCH   3   4
ATOM      4  C   UNL     1      52.625  55.046  95.331  1.00  0.00     0.000 C 
BRANCH   4   5
ATOM      5  C   UNL     1      53.238  54.995  93.919  1.00  0.00     0.006 C 
BRANCH   5   6
ATOM      6  C   UNL     1      52.665  53.860  93.060  1.00  0.00     0.053 C 
BRANCH   6   7
ATOM      7  C   UNL     1      52.245  54.378  91.720  1.00  0.00     0.041 C 
ATOM      8  O   UNL     1      52.083  53.584  90.755  1.00  0.00    -0.550 OA
ATOM      9  O   UNL     1      51.993  55.735  91.547  1.00  0.00    -0.550 OA
ENDBRANCH   6   7
ENDBRANCH   5   6
ENDBRANCH   4   5
ENDBRANCH   3   4
ENDBRANCH   2   3
ENDBRANCH   1   2
BRANCH   1  10
ATOM     10  C   UNL     1      49.960  58.331  94.999  1.00  0.00     0.000 C 
BRANCH  10  11
ATOM     11  C   UNL     1      49.708  59.836  94.806  1.00  0.00    -0.000 C 
BRANCH  11  12
ATOM     12  C   UNL     1      50.096  60.325  93.398  1.00  0.00    -0.000 C 
BRANCH  12  13
ATOM     13  C   UNL     1      51.073  61.520  93.445  1.00  0.00    -0.000 C 
BRANCH  13  14
ATOM     14  C   UNL     1      52.537  61.138  93.148  1.00  0.00    -0.000 C 
BRANCH  14  15
ATOM     15  C   UNL     1      52.809  60.709  91.696  1.00  0.00    -0.003 C 
ATOM     16  C   UNL     1      53.302  59.266  91.586  1.00  0.00     0.004 C 
ENDBRANCH  14  15
ENDBRANCH  13  14
ENDBRANCH  12  13
ENDBRANCH  11  12
ENDBRANCH  10  11
ENDBRANCH   1  10
TORSDOF 12
ENDMDL
MODEL 3
REMARK VINA RESULT:    -4.541      1.725      3.306
REMARK INTER + INTRA:          -8.867
REMARK INTER:                  -7.600
REMARK INTRA:                  -1.267
REMARK UNBOUND:                -1.140
REMARK SMILES CCCCCCCCCCCCCC(=O)[O-]
REMARK SMILES IDX 8 1 9 2 10 3 11 4 12 5 13 6 14 7 15 8 16 9 7 10 6 11 5 12
REMARK SMILES IDX 4 13 3 14 2 15 1 16
REMARK H PARENT
REMARK Flexibility Score: inf
ROOT
ATOM      1  C   UNL     1      50.892  57.751  93.765  1.00  0.00     0.000 C 
ENDROOT
BRANCH   1   2
ATOM      2  C   UNL     1      50.109  58.263  94.986  1.00  0.00     0.000 C 
BRANCH   2   3
ATOM      3  C   UNL     1      49.712  59.744  94.861  1.00  0.00     0.000 C 
BRANCH   3   4
ATOM      4  C   UNL     1      49.944  60.311  93.447  1.00  0.00     0.000 C 
BRANCH   4   5
ATOM      5  C   UNL     1      50.938  61.485  93.366  1.00  0.00     0.006 C 
BRANCH   5   6
ATOM      6  C   UNL     1      52.402  61.031  93.405  1.00  0.00     0.053 C 
BRANCH   6   7
ATOM      7  C   UNL     1      52.911  60.782  92.019  1.00  0.00     0.041 C 
ATOM      8  O   UNL     1      53.229  61.749  91.277  1.00  0.00    -0.550 OA
ATOM      9  O   UNL     1      53.071  59.479  91.561  1.00  0.00    -0.550 OA
ENDBRANCH   6   7
ENDBRANCH   5   6
ENDBRANCH   4   5
ENDBRANCH   3   4
ENDBRANCH   2   3
ENDBRANCH   1   2
BRANCH   1  10
ATOM     10  C   UNL     1      52.343  57.367  94.103  1.00  0.00     0.000 C 
BRANCH  10  11
ATOM     11  C   UNL     1      52.450  56.586  95.423  1.00  0.00    -0.000 C 
BRANCH  11  12
ATOM     12  C   UNL     1      52.601  55.069  95.203  1.00  0.00    -0.000 C 
BRANCH  12  13
ATOM     13  C   UNL     1      53.117  54.733  93.787  1.00  0.00    -0.000 C 
BRANCH  13  14
ATOM     14  C   UNL     1      52.015  54.254  92.821  1.00  0.00    -0.000 C 
BRANCH  14  15
ATOM     15  C   UNL     1      52.363  54.389  91.329  1.00  0.00    -0.003 C 
ATOM     16  C   UNL     1      51.980  55.753  90.751  1.00  0.00     0.004 C 
ENDBRANCH  14  15
ENDBRANCH  13  14
ENDBRANCH  12  13
ENDBRANCH  11  12
ENDBRANCH  10  11
ENDBRANCH   1  10
TORSDOF 12
ENDMDL
MODEL 4
REMARK VINA RESULT:    -4.536      1.625      2.507
REMARK INTER + INTRA:          -8.859
REMARK INTER:                  -7.533
REMARK INTRA:                  -1.326
REMARK UNBOUND:                -1.140
REMARK SMILES CCCCCCCCCCCCCC(=O)[O-]
REMARK SMILES IDX 8 1 9 2 10 3 11 4 12 5 13 6 14 7 15 8 16 9 7 10 6 11 5 12
REMARK SMILES IDX 4 13 3 14 2 15 1 16
REMARK H PARENT
REMARK Flexibility Score: inf
ROOT
ATOM      1  C   UNL     1      52.995  58.193  92.181  1.00  0.00     0.000 C 
ENDROOT
BRANCH   1   2
ATOM      2  C   UNL     1      53.582  59.321  91.317  1.00  0.00     0.000 C 
BRANCH   2   3
ATOM      3  C   UNL     1      53.037  60.709  91.698  1.00  0.00     0.000 C 
BRANCH   3   4
ATOM      4  C   UNL     1      52.361  60.730  93.083  1.00  0.00     0.000 C 
BRANCH   4   5
ATOM      5  C   UNL     1      50.915  61.260  93.099  1.00  0.00     0.006 C 
BRANCH   5   6
ATOM      6  C   UNL     1      49.878  60.159  93.353  1.00  0.00     0.053 C 
BRANCH   6   7
ATOM      7  C   UNL     1      49.687  59.948  94.822  1.00  0.00     0.041 C 
ATOM      8  O   UNL     1      49.663  58.781  95.298  1.00  0.00    -0.550 OA
ATOM      9  O   UNL     1      49.576  61.042  95.673  1.00  0.00    -0.550 OA
ENDBRANCH   6   7
ENDBRANCH   5   6
ENDBRANCH   4   5
ENDBRANCH   3   4
ENDBRANCH   2   3
ENDBRANCH   1   2
BRANCH   1  10
ATOM     10  C   UNL     1      51.882  57.408  91.465  1.00  0.00     0.000 C 
BRANCH  10  11
ATOM     11  C   UNL     1      51.355  56.236  92.310  1.00  0.00    -0.000 C 
BRANCH  11  12
ATOM     12  C   UNL     1      51.982  54.888  91.907  1.00  0.00    -0.000 C 
BRANCH  12  13
ATOM     13  C   UNL     1      52.443  54.069  93.132  1.00  0.00    -0.000 C 
BRANCH  13  14
ATOM     14  C   UNL     1      53.334  54.861  94.109  1.00  0.00    -0.000 C 
BRANCH  14  15
ATOM     15  C   UNL     1      52.731  55.064  95.510  1.00  0.00    -0.003 C 
ATOM     16  C   UNL     1      52.362  56.522  95.792  1.00  0.00     0.004 C 
ENDBRANCH  14  15
ENDBRANCH  13  14
ENDBRANCH  12  13
ENDBRANCH  11  12
ENDBRANCH  10  11
ENDBRANCH   1  10
TORSDOF 12
ENDMDL
MODEL 5
REMARK VINA RESULT:    -4.535      1.322      2.503
REMARK INTER + INTRA:          -8.855
REMARK INTER:                  -7.470
REMARK INTRA:                  -1.386
REMARK UNBOUND:                -1.140
REMARK SMILES CCCCCCCCCCCCCC(=O)[O-]
REMARK SMILES IDX 8 1 9 2 10 3 11 4 12 5 13 6 14 7 15 8 16 9 7 10 6 11 5 12
REMARK SMILES IDX 4 13 3 14 2 15 1 16
REMARK H PARENT
REMARK Flexibility Score: inf
ROOT
ATOM      1  C   UNL     1      52.024  57.130  91.746  1.00  0.00     0.000 C 
ENDROOT
BRANCH   1   2
ATOM      2  C   UNL     1      50.620  56.919  92.337  1.00  0.00     0.000 C 
BRANCH   2   3
ATOM      3  C   UNL     1      49.941  58.238  92.745  1.00  0.00     0.000 C 
BRANCH   3   4
ATOM      4  C   UNL     1      49.717  58.355  94.265  1.00  0.00     0.000 C 
BRANCH   4   5
ATOM      5  C   UNL     1      49.700  59.793  94.817  1.00  0.00     0.006 C 
BRANCH   5   6
ATOM      6  C   UNL     1      50.295  60.815  93.840  1.00  0.00     0.053 C 
BRANCH   6   7
ATOM      7  C   UNL     1      49.236  61.754  93.355  1.00  0.00     0.041 C 
ATOM      8  O   UNL     1      49.251  62.964  93.705  1.00  0.00    -0.550 OA
ATOM      9  O   UNL     1      48.252  61.301  92.482  1.00  0.00    -0.550 OA
ENDBRANCH   6   7
ENDBRANCH   5   6
ENDBRANCH   4   5
ENDBRANCH   3   4
ENDBRANCH   2   3
ENDBRANCH   1   2
BRANCH   1  10
ATOM     10  C   UNL     1      52.543  58.566  91.937  1.00  0.00     0.000 C 
BRANCH  10  11
ATOM     11  C   UNL     1      53.183  58.779  93.319  1.00  0.00    -0.000 C 
BRANCH  11  12
ATOM     12  C   UNL     1      53.624  57.458  93.977  1.00  0.00    -0.000 C 
BRANCH  12  13
ATOM     13  C   UNL     1      52.807  57.136  95.247  1.00  0.00    -0.000 C 
BRANCH  13  14
ATOM     14  C   UNL     1      52.591  55.628  95.481  1.00  0.00    -0.000 C 
BRANCH  14  15
ATOM     15  C   UNL     1      52.978  54.729  94.294  1.00  0.00    -0.003 C 
ATOM     16  C   UNL     1      54.235  53.900  94.562  1.00  0.00     0.004 C 
ENDBRANCH  14  15
ENDBRANCH  13  14
ENDBRANCH  12  13
ENDBRANCH  11  12
ENDBRANCH  10  11
ENDBRANCH   1  10
TORSDOF 12
ENDMDL
MODEL 6
REMARK VINA RESULT:    -4.519      3.028      5.992
REMARK INTER + INTRA:          -8.828
REMARK INTER:                  -7.360
REMARK INTRA:                  -1.469
REMARK UNBOUND:                -1.140
REMARK SMILES CCCCCCCCCCCCCC(=O)[O-]
REMARK SMILES IDX 8 1 9 2 10 3 11 4 12 5 13 6 14 7 15 8 16 9 7 10 6 11 5 12
REMARK SMILES IDX 4 13 3 14 2 15 1 16
REMARK H PARENT
REMARK Flexibility Score: inf
ROOT
ATOM      1  C   UNL     1      52.015  57.640  95.217  1.00  0.00     0.000 C 
ENDROOT
BRANCH   1   2
ATOM      2  C   UNL     1      52.926  57.134  94.086  1.00  0.00     0.000 C 
BRANCH   2   3
ATOM      3  C   UNL     1      53.389  58.260  93.146  1.00  0.00     0.000 C 
BRANCH   3   4
ATOM      4  C   UNL     1      52.887  58.082  91.700  1.00  0.00     0.000 C 
BRANCH   4   5
ATOM      5  C   UNL     1      51.691  57.124  91.534  1.00  0.00     0.006 C 
BRANCH   5   6
ATOM      6  C   UNL     1      51.980  55.971  90.566  1.00  0.00     0.053 C 
BRANCH   6   7
ATOM      7  C   UNL     1      52.009  54.666  91.299  1.00  0.00     0.041 C 
ATOM      8  O   UNL     1      51.614  54.601  92.494  1.00  0.00    -0.550 OA
ATOM      9  O   UNL     1      52.435  53.513  90.649  1.00  0.00    -0.550 OA
ENDBRANCH   6   7
ENDBRANCH   5   6
ENDBRANCH   4   5
ENDBRANCH   3   4
ENDBRANCH   2   3
ENDBRANCH   1   2
BRANCH   1  10
ATOM     10  C   UNL     1      50.518  57.502  94.888  1.00  0.00     0.000 C 
BRANCH  10  11
ATOM     11  C   UNL     1      49.982  58.702  94.088  1.00  0.00    -0.000 C 
BRANCH  11  12
ATOM     12  C   UNL     1      49.582  59.884  94.992  1.00  0.00    -0.000 C 
BRANCH  12  13
ATOM     13  C   UNL     1      50.092  61.235  94.445  1.00  0.00    -0.000 C 
BRANCH  13  14
ATOM     14  C   UNL     1      50.930  61.108  93.157  1.00  0.00    -0.000 C 
BRANCH  14  15
ATOM     15  C   UNL     1      52.347  61.698  93.250  1.00  0.00    -0.003 C 
ATOM     16  C   UNL     1      53.079  61.698  91.906  1.00  0.00     0.004 C 
ENDBRANCH  14  15
ENDBRANCH  13  14
ENDBRANCH  12  13
ENDBRANCH  11  12
ENDBRANCH  10  11
ENDBRANCH   1  10
TORSDOF 12
ENDMDL
MODEL 7
REMARK VINA RESULT:    -4.513      1.427      3.046
REMARK INTER + INTRA:          -8.818
REMARK INTER:                  -7.438
REMARK INTRA:                  -1.380
REMARK UNBOUND:                -1.140
REMARK SMILES CCCCCCCCCCCCCC(=O)[O-]
REMARK SMILES IDX 8 1 9 2 10 3 11 4 12 5 13 6 14 7 15 8 16 9 7 10 6 11 5 12
REMARK SMILES IDX 4 13 3 14 2 15 1 16
REMARK H PARENT
REMARK Flexibility Score: inf
ROOT
ATOM      1  C   UNL     1      52.004  57.385  91.316  1.00  0.00     0.000 C 
ENDROOT
BRANCH   1   2
ATOM      2  C   UNL     1      53.106  58.273  91.919  1.00  0.00     0.000 C 
BRANCH   2   3
ATOM      3  C   UNL     1      53.354  59.551  91.099  1.00  0.00     0.000 C 
BRANCH   3   4
ATOM      4  C   UNL     1      53.036  60.840  91.882  1.00  0.00     0.000 C 
BRANCH   4   5
ATOM      5  C   UNL     1      52.140  60.650  93.121  1.00  0.00     0.006 C 
BRANCH   5   6
ATOM      6  C   UNL     1      51.163  61.813  93.335  1.00  0.00     0.053 C 
BRANCH   6   7
ATOM      7  C   UNL     1      49.842  61.304  93.820  1.00  0.00     0.041 C 
ATOM      8  O   UNL     1      48.877  61.179  93.019  1.00  0.00    -0.550 OA
ATOM      9  O   UNL     1      49.687  60.931  95.151  1.00  0.00    -0.550 OA
ENDBRANCH   6   7
ENDBRANCH   5   6
ENDBRANCH   4   5
ENDBRANCH   3   4
ENDBRANCH   2   3
ENDBRANCH   1   2
BRANCH   1  10
ATOM     10  C   UNL     1      51.172  56.656  92.386  1.00  0.00     0.000 C 
BRANCH  10  11
ATOM     11  C   UNL     1      50.289  57.619  93.198  1.00  0.00    -0.000 C 
BRANCH  11  12
ATOM     12  C   UNL     1      50.651  57.635  94.695  1.00  0.00    -0.000 C 
BRANCH  12  13
ATOM     13  C   UNL     1      52.158  57.399  94.933  1.00  0.00    -0.000 C 
BRANCH  13  14
ATOM     14  C   UNL     1      52.459  56.315  95.987  1.00  0.00    -0.000 C 
BRANCH  14  15
ATOM     15  C   UNL     1      52.521  54.880  95.436  1.00  0.00    -0.003 C 
ATOM     16  C   UNL     1      53.490  54.737  94.261  1.00  0.00     0.004 C 
ENDBRANCH  14  15
ENDBRANCH  13  14
ENDBRANCH  12  13
ENDBRANCH  11  12
ENDBRANCH  10  11
ENDBRANCH   1  10
TORSDOF 12
ENDMDL
MODEL 8
REMARK VINA RESULT:    -4.506      1.527      3.066
REMARK INTER + INTRA:          -8.806
REMARK INTER:                  -7.578
REMARK INTRA:                  -1.228
REMARK UNBOUND:                -1.140
REMARK SMILES CCCCCCCCCCCCCC(=O)[O-]
REMARK SMILES IDX 8 1 9 2 10 3 11 4 12 5 13 6 14 7 15 8 16 9 7 10 6 11 5 12
REMARK SMILES IDX 4 13 3 14 2 15 1 16
REMARK H PARENT
REMARK Flexibility Score: inf
ROOT
ATOM      1  C   UNL     1      53.193  58.777  93.652  1.00  0.00     0.000 C 
ENDROOT
BRANCH   1   2
ATOM      2  C   UNL     1      53.084  59.233  92.188  1.00  0.00     0.000 C 
BRANCH   2   3
ATOM      3  C   UNL     1      52.620  60.694  92.053  1.00  0.00     0.000 C 
BRANCH   3   4
ATOM      4  C   UNL     1      51.968  61.240  93.338  1.00  0.00     0.000 C 
BRANCH   4   5
ATOM      5  C   UNL     1      50.431  61.336  93.303  1.00  0.00     0.006 C 
BRANCH   5   6
ATOM      6  C   UNL     1      49.767  60.735  94.548  1.00  0.00     0.053 C 
BRANCH   6   7
ATOM      7  C   UNL     1      49.732  59.241  94.453  1.00  0.00     0.041 C 
ATOM      8  O   UNL     1      49.581  58.543  95.491  1.00  0.00    -0.550 OA
ATOM      9  O   UNL     1      49.827  58.621  93.212  1.00  0.00    -0.550 OA
ENDBRANCH   6   7
ENDBRANCH   5   6
ENDBRANCH   4   5
ENDBRANCH   3   4
ENDBRANCH   2   3
ENDBRANCH   1   2
BRANCH   1  10
ATOM     10  C   UNL     1      53.446  57.265  93.791  1.00  0.00     0.000 C 
BRANCH  10  11
ATOM     11  C   UNL     1      52.466  56.594  94.769  1.00  0.00    -0.000 C 
BRANCH  11  12
ATOM     12  C   UNL     1      52.780  55.103  94.991  1.00  0.00    -0.000 C 
BRANCH  12  13
ATOM     13  C   UNL     1      53.050  54.360  93.664  1.00  0.00    -0.000 C 
BRANCH  13  14
ATOM     14  C   UNL     1      51.872  54.412  92.672  1.00  0.00    -0.000 C 
BRANCH  14  15
ATOM     15  C   UNL     1      52.279  54.587  91.198  1.00  0.00    -0.003 C 
ATOM     16  C   UNL     1      51.925  55.969  90.645  1.00  0.00     0.004 C 
ENDBRANCH  14  15
ENDBRANCH  13  14
ENDBRANCH  12  13
ENDBRANCH  11  12
ENDBRANCH  10  11
ENDBRANCH   1  10
TORSDOF 12
ENDMDL
MODEL 9
REMARK VINA RESULT:    -4.504      0.917      3.024
REMARK INTER + INTRA:          -8.803
REMARK INTER:                  -7.247
REMARK INTRA:                  -1.556
REMARK UNBOUND:                -1.140
REMARK SMILES CCCCCCCCCCCCCC(=O)[O-]
REMARK SMILES IDX 8 1 9 2 10 3 11 4 12 5 13 6 14 7 15 8 16 9 7 10 6 11 5 12
REMARK SMILES IDX 4 13 3 14 2 15 1 16
REMARK H PARENT
REMARK Flexibility Score: inf
ROOT
ATOM      1  C   UNL     1      51.992  55.652  91.342  1.00  0.00     0.000 C 
ENDROOT
BRANCH   1   2
ATOM      2  C   UNL     1      51.308  57.022  91.489  1.00  0.00     0.000 C 
BRANCH   2   3
ATOM      3  C   UNL     1      50.241  57.039  92.598  1.00  0.00     0.000 C 
BRANCH   3   4
ATOM      4  C   UNL     1      49.840  58.464  93.025  1.00  0.00     0.000 C 
BRANCH   4   5
ATOM      5  C   UNL     1      49.903  58.737  94.539  1.00  0.00     0.006 C 
BRANCH   5   6
ATOM      6  C   UNL     1      49.560  60.188  94.899  1.00  0.00     0.053 C 
BRANCH   6   7
ATOM      7  C   UNL     1      49.860  61.098  93.749  1.00  0.00     0.041 C 
ATOM      8  O   UNL     1      51.041  61.484  93.537  1.00  0.00    -0.550 OA
ATOM      9  O   UNL     1      48.841  61.488  92.887  1.00  0.00    -0.550 OA
ENDBRANCH   6   7
ENDBRANCH   5   6
ENDBRANCH   4   5
ENDBRANCH   3   4
ENDBRANCH   2   3
ENDBRANCH   1   2
BRANCH   1  10
ATOM     10  C   UNL     1      51.630  54.678  92.478  1.00  0.00     0.000 C 
BRANCH  10  11
ATOM     11  C   UNL     1      52.861  53.935  93.025  1.00  0.00    -0.000 C 
BRANCH  11  12
ATOM     12  C   UNL     1      53.476  54.632  94.253  1.00  0.00    -0.000 C 
BRANCH  12  13
ATOM     13  C   UNL     1      52.435  55.461  95.036  1.00  0.00    -0.000 C 
BRANCH  13  14
ATOM     14  C   UNL     1      52.801  56.953  95.168  1.00  0.00    -0.000 C 
BRANCH  14  15
ATOM     15  C   UNL     1      53.708  57.496  94.051  1.00  0.00    -0.003 C 
ATOM     16  C   UNL     1      53.349  58.924  93.636  1.00  0.00     0.004 C 
ENDBRANCH  14  15
ENDBRANCH  13  14
ENDBRANCH  12  13
ENDBRANCH  11  12
ENDBRANCH  10  11
ENDBRANCH   1  10
TORSDOF 12
ENDMDL
