MODEL 1
REMARK VINA RESULT:    -5.960      0.000      0.000
REMARK INTER + INTRA:          -6.309
REMARK INTER:                  -6.309
REMARK INTRA:                   0.000
REMARK UNBOUND:                 0.000
REMARK SMILES O=c1ccc2cc(O)c(O)cc2o1
REMARK SMILES IDX 4 1 3 2 2 3 1 4 13 5 12 6 11 7 9 8 7 9 6 10 5 11 8 12 10 14
REMARK H PARENT 8 13 10 15
REMARK Flexibility Score: inf
ROOT
ATOM      1  C   UNL     1     -11.125  -4.576   4.765  1.00  0.00     0.019 A 
ATOM      2  C   UNL     1     -10.865  -3.212   4.643  1.00  0.00     0.094 A 
ATOM      3  C   UNL     1      -9.878  -2.788   3.747  1.00  0.00     0.336 A 
ATOM      4  O   UNL     1      -9.629  -1.560   3.622  1.00  0.00    -0.246 OA
ATOM      5  O   UNL     1      -9.199  -3.674   3.023  1.00  0.00    -0.423 OA
ATOM      6  C   UNL     1      -9.415  -4.984   3.110  1.00  0.00     0.142 A 
ATOM      7  C   UNL     1      -8.670  -5.869   2.325  1.00  0.00     0.098 A 
ATOM      8  C   UNL     1      -8.892  -7.249   2.409  1.00  0.00     0.161 A 
ATOM      9  C   UNL     1      -9.869  -7.750   3.289  1.00  0.00     0.158 A 
ATOM     10  C   UNL     1     -10.619  -6.867   4.079  1.00  0.00     0.062 A 
ATOM     11  C   UNL     1     -10.395  -5.485   3.993  1.00  0.00     0.022 A 
ENDROOT
BRANCH   9  12
ATOM     12  O   UNL     1     -10.091  -9.125   3.374  1.00  0.00    -0.504 OA
ATOM     13  H   UNL     1     -10.755  -9.516   4.032  1.00  0.00     0.293 HD
ENDBRANCH   9  12
BRANCH   8  14
ATOM     14  O   UNL     1      -8.133  -8.105   1.612  1.00  0.00    -0.504 OA
ATOM     15  H   UNL     1      -8.537  -8.626   0.843  1.00  0.00     0.293 HD
ENDBRANCH   8  14
TORSDOF 2
ENDMDL
MODEL 2
REMARK VINA RESULT:    -5.624      9.961     11.977
REMARK INTER + INTRA:          -5.953
REMARK INTER:                  -5.953
REMARK INTRA:                   0.000
REMARK UNBOUND:                 0.000
REMARK SMILES O=c1ccc2cc(O)c(O)cc2o1
REMARK SMILES IDX 4 1 3 2 2 3 1 4 13 5 12 6 11 7 9 8 7 9 6 10 5 11 8 12 10 14
REMARK H PARENT 8 13 10 15
REMARK Flexibility Score: inf
ROOT
ATOM      1  C   UNL     1      -2.867  -0.853  -5.981  1.00  0.00     0.019 A 
ATOM      2  C   UNL     1      -2.499  -2.121  -5.531  1.00  0.00     0.094 A 
ATOM      3  C   UNL     1      -3.265  -2.735  -4.534  1.00  0.00     0.336 A 
ATOM      4  O   UNL     1      -2.949  -3.879  -4.116  1.00  0.00    -0.246 OA
ATOM      5  O   UNL     1      -4.328  -2.118  -4.025  1.00  0.00    -0.423 OA
ATOM      6  C   UNL     1      -4.713  -0.909  -4.425  1.00  0.00     0.142 A 
ATOM      7  C   UNL     1      -5.839  -0.308  -3.853  1.00  0.00     0.098 A 
ATOM      8  C   UNL     1      -6.251   0.963  -4.268  1.00  0.00     0.161 A 
ATOM      9  C   UNL     1      -5.530   1.643  -5.267  1.00  0.00     0.158 A 
ATOM     10  C   UNL     1      -4.400   1.046  -5.844  1.00  0.00     0.062 A 
ATOM     11  C   UNL     1      -3.989  -0.228  -5.426  1.00  0.00     0.022 A 
ENDROOT
BRANCH   9  12
ATOM     12  O   UNL     1      -5.940   2.910  -5.682  1.00  0.00    -0.504 OA
ATOM     13  H   UNL     1      -5.809   3.225  -6.637  1.00  0.00     0.293 HD
ENDBRANCH   9  12
BRANCH   8  14
ATOM     14  O   UNL     1      -7.379   1.534  -3.679  1.00  0.00    -0.504 OA
ATOM     15  H   UNL     1      -8.289   1.510  -4.122  1.00  0.00     0.293 HD
ENDBRANCH   8  14
TORSDOF 2
ENDMDL
MODEL 3
REMARK VINA RESULT:    -5.510      9.680     10.685
REMARK INTER + INTRA:          -5.832
REMARK INTER:                  -5.832
REMARK INTRA:                   0.000
REMARK UNBOUND:                 0.000
REMARK SMILES O=c1ccc2cc(O)c(O)cc2o1
REMARK SMILES IDX 4 1 3 2 2 3 1 4 13 5 12 6 11 7 9 8 7 9 6 10 5 11 8 12 10 14
REMARK H PARENT 8 13 10 15
REMARK Flexibility Score: inf
ROOT
ATOM      1  C   UNL     1      -6.229  -0.893  -3.768  1.00  0.00     0.019 A 
ATOM      2  C   UNL     1      -6.449   0.478  -3.899  1.00  0.00     0.094 A 
ATOM      3  C   UNL     1      -5.478   1.263  -4.529  1.00  0.00     0.336 A 
ATOM      4  O   UNL     1      -5.658   2.502  -4.657  1.00  0.00    -0.246 OA
ATOM      5  O   UNL     1      -4.362   0.709  -4.996  1.00  0.00    -0.423 OA
ATOM      6  C   UNL     1      -4.112  -0.594  -4.891  1.00  0.00     0.142 A 
ATOM      7  C   UNL     1      -2.921  -1.122  -5.400  1.00  0.00     0.098 A 
ATOM      8  C   UNL     1      -2.651  -2.491  -5.295  1.00  0.00     0.161 A 
ATOM      9  C   UNL     1      -3.582  -3.344  -4.673  1.00  0.00     0.158 A 
ATOM     10  C   UNL     1      -4.778  -2.821  -4.161  1.00  0.00     0.062 A 
ATOM     11  C   UNL     1      -5.046  -1.448  -4.267  1.00  0.00     0.022 A 
ENDROOT
BRANCH   9  12
ATOM     12  O   UNL     1      -3.314  -4.709  -4.567  1.00  0.00    -0.504 OA
ATOM     13  H   UNL     1      -2.367  -5.060  -4.490  1.00  0.00     0.293 HD
ENDBRANCH   9  12
BRANCH   8  14
ATOM     14  O   UNL     1      -1.455  -2.986  -5.812  1.00  0.00    -0.504 OA
ATOM     15  H   UNL     1      -1.022  -3.829  -5.455  1.00  0.00     0.293 HD
ENDBRANCH   8  14
TORSDOF 2
ENDMDL
MODEL 4
REMARK VINA RESULT:    -5.411      9.945     11.269
REMARK INTER + INTRA:          -5.727
REMARK INTER:                  -5.727
REMARK INTRA:                   0.000
REMARK UNBOUND:                 0.000
REMARK SMILES O=c1ccc2cc(O)c(O)cc2o1
REMARK SMILES IDX 4 1 3 2 2 3 1 4 13 5 12 6 11 7 9 8 7 9 6 10 5 11 8 12 10 14
REMARK H PARENT 8 13 10 15
REMARK Flexibility Score: inf
ROOT
ATOM      1  C   UNL     1      -6.326   2.894  -5.822  1.00  0.00     0.019 A 
ATOM      2  C   UNL     1      -7.564   3.462  -5.524  1.00  0.00     0.094 A 
ATOM      3  C   UNL     1      -8.415   2.802  -4.631  1.00  0.00     0.336 A 
ATOM      4  O   UNL     1      -9.537   3.299  -4.349  1.00  0.00    -0.246 OA
ATOM      5  O   UNL     1      -8.048   1.650  -4.077  1.00  0.00    -0.423 OA
ATOM      6  C   UNL     1      -6.877   1.072  -4.334  1.00  0.00     0.142 A 
ATOM      7  C   UNL     1      -6.544  -0.140  -3.722  1.00  0.00     0.098 A 
ATOM      8  C   UNL     1      -5.314  -0.752  -3.987  1.00  0.00     0.161 A 
ATOM      9  C   UNL     1      -4.404  -0.147  -4.874  1.00  0.00     0.158 A 
ATOM     10  C   UNL     1      -4.733   1.069  -5.491  1.00  0.00     0.062 A 
ATOM     11  C   UNL     1      -5.966   1.681  -5.224  1.00  0.00     0.022 A 
ENDROOT
BRANCH   9  12
ATOM     12  O   UNL     1      -3.179  -0.756  -5.139  1.00  0.00    -0.504 OA
ATOM     13  H   UNL     1      -2.389  -0.656  -4.512  1.00  0.00     0.293 HD
ENDBRANCH   9  12
BRANCH   8  14
ATOM     14  O   UNL     1      -5.012  -1.961  -3.360  1.00  0.00    -0.504 OA
ATOM     15  H   UNL     1      -4.307  -2.030  -2.636  1.00  0.00     0.293 HD
ENDBRANCH   8  14
TORSDOF 2
ENDMDL
MODEL 5
REMARK VINA RESULT:    -5.366     10.807     14.210
REMARK INTER + INTRA:          -5.680
REMARK INTER:                  -5.680
REMARK INTRA:                   0.000
REMARK UNBOUND:                 0.000
REMARK SMILES O=c1ccc2cc(O)c(O)cc2o1
REMARK SMILES IDX 4 1 3 2 2 3 1 4 13 5 12 6 11 7 9 8 7 9 6 10 5 11 8 12 10 14
REMARK H PARENT 8 13 10 15
REMARK Flexibility Score: inf
ROOT
ATOM      1  C   UNL     1      -9.738   6.802   4.975  1.00  0.00     0.019 A 
ATOM      2  C   UNL     1      -9.403   5.541   4.484  1.00  0.00     0.094 A 
ATOM      3  C   UNL     1      -8.053   5.187   4.390  1.00  0.00     0.336 A 
ATOM      4  O   UNL     1      -7.730   4.053   3.950  1.00  0.00    -0.246 OA
ATOM      5  O   UNL     1      -7.104   6.043   4.762  1.00  0.00    -0.423 OA
ATOM      6  C   UNL     1      -7.380   7.256   5.235  1.00  0.00     0.142 A 
ATOM      7  C   UNL     1      -6.342   8.113   5.611  1.00  0.00     0.098 A 
ATOM      8  C   UNL     1      -6.624   9.390   6.109  1.00  0.00     0.161 A 
ATOM      9  C   UNL     1      -7.959   9.817   6.233  1.00  0.00     0.158 A 
ATOM     10  C   UNL     1      -9.005   8.961   5.858  1.00  0.00     0.062 A 
ATOM     11  C   UNL     1      -8.720   7.682   5.358  1.00  0.00     0.022 A 
ENDROOT
BRANCH   9  12
ATOM     12  O   UNL     1      -8.242  11.089   6.729  1.00  0.00    -0.504 OA
ATOM     13  H   UNL     1      -9.140  11.310   7.144  1.00  0.00     0.293 HD
ENDBRANCH   9  12
BRANCH   8  14
ATOM     14  O   UNL     1      -5.566  10.222   6.476  1.00  0.00    -0.504 OA
ATOM     15  H   UNL     1      -5.179  10.220   7.412  1.00  0.00     0.293 HD
ENDBRANCH   8  14
TORSDOF 2
ENDMDL
MODEL 6
REMARK VINA RESULT:    -5.343     10.223     11.379
REMARK INTER + INTRA:          -5.656
REMARK INTER:                  -5.656
REMARK INTRA:                   0.000
REMARK UNBOUND:                 0.000
REMARK SMILES O=c1ccc2cc(O)c(O)cc2o1
REMARK SMILES IDX 4 1 3 2 2 3 1 4 13 5 12 6 11 7 9 8 7 9 6 10 5 11 8 12 10 14
REMARK H PARENT 8 13 10 15
REMARK Flexibility Score: inf
ROOT
ATOM      1  C   UNL     1      -8.399   2.083  -4.537  1.00  0.00     0.019 A 
ATOM      2  C   UNL     1      -8.487   3.263  -5.276  1.00  0.00     0.094 A 
ATOM      3  C   UNL     1      -7.359   3.717  -5.966  1.00  0.00     0.336 A 
ATOM      4  O   UNL     1      -7.419   4.779  -6.639  1.00  0.00    -0.246 OA
ATOM      5  O   UNL     1      -6.218   3.033  -5.917  1.00  0.00    -0.423 OA
ATOM      6  C   UNL     1      -6.090   1.904  -5.223  1.00  0.00     0.142 A 
ATOM      7  C   UNL     1      -4.866   1.229  -5.207  1.00  0.00     0.098 A 
ATOM      8  C   UNL     1      -4.723   0.041  -4.482  1.00  0.00     0.161 A 
ATOM      9  C   UNL     1      -5.816  -0.479  -3.762  1.00  0.00     0.158 A 
ATOM     10  C   UNL     1      -7.045   0.195  -3.775  1.00  0.00     0.062 A 
ATOM     11  C   UNL     1      -7.187   1.386  -4.503  1.00  0.00     0.022 A 
ENDROOT
BRANCH   9  12
ATOM     12  O   UNL     1      -5.675  -1.662  -3.038  1.00  0.00    -0.504 OA
ATOM     13  H   UNL     1      -5.849  -1.698  -2.040  1.00  0.00     0.293 HD
ENDBRANCH   9  12
BRANCH   8  14
ATOM     14  O   UNL     1      -3.490  -0.610  -4.486  1.00  0.00    -0.504 OA
ATOM     15  H   UNL     1      -3.414  -1.620  -4.507  1.00  0.00     0.293 HD
ENDBRANCH   8  14
TORSDOF 2
ENDMDL
MODEL 7
REMARK VINA RESULT:    -5.267      9.948     11.701
REMARK INTER + INTRA:          -5.575
REMARK INTER:                  -5.575
REMARK INTRA:                   0.000
REMARK UNBOUND:                 0.000
REMARK SMILES O=c1ccc2cc(O)c(O)cc2o1
REMARK SMILES IDX 4 1 3 2 2 3 1 4 13 5 12 6 11 7 9 8 7 9 6 10 5 11 8 12 10 14
REMARK H PARENT 8 13 10 15
REMARK Flexibility Score: inf
ROOT
ATOM      1  C   UNL     1      -4.767  -2.448  -3.986  1.00  0.00     0.019 A 
ATOM      2  C   UNL     1      -3.621  -3.061  -4.490  1.00  0.00     0.094 A 
ATOM      3  C   UNL     1      -2.776  -2.330  -5.333  1.00  0.00     0.336 A 
ATOM      4  O   UNL     1      -1.736  -2.866  -5.797  1.00  0.00    -0.246 OA
ATOM      5  O   UNL     1      -3.064  -1.070  -5.647  1.00  0.00    -0.423 OA
ATOM      6  C   UNL     1      -4.148  -0.448  -5.189  1.00  0.00     0.142 A 
ATOM      7  C   UNL     1      -4.400   0.878  -5.554  1.00  0.00     0.098 A 
ATOM      8  C   UNL     1      -5.537   1.540  -5.076  1.00  0.00     0.161 A 
ATOM      9  C   UNL     1      -6.433   0.869  -4.223  1.00  0.00     0.158 A 
ATOM     10  C   UNL     1      -6.185  -0.461  -3.854  1.00  0.00     0.062 A 
ATOM     11  C   UNL     1      -5.046  -1.122  -4.334  1.00  0.00     0.022 A 
ENDROOT
BRANCH   9  12
ATOM     12  O   UNL     1      -7.567   1.527  -3.746  1.00  0.00    -0.504 OA
ATOM     13  H   UNL     1      -8.455   1.049  -3.645  1.00  0.00     0.293 HD
ENDBRANCH   9  12
BRANCH   8  14
ATOM     14  O   UNL     1      -5.760   2.862  -5.457  1.00  0.00    -0.504 OA
ATOM     15  H   UNL     1      -6.452   3.445  -5.001  1.00  0.00     0.293 HD
ENDBRANCH   8  14
TORSDOF 2
ENDMDL
MODEL 8
REMARK VINA RESULT:    -5.266      9.683     11.754
REMARK INTER + INTRA:          -5.574
REMARK INTER:                  -5.574
REMARK INTRA:                   0.000
REMARK UNBOUND:                 0.000
REMARK SMILES O=c1ccc2cc(O)c(O)cc2o1
REMARK SMILES IDX 4 1 3 2 2 3 1 4 13 5 12 6 11 7 9 8 7 9 6 10 5 11 8 12 10 14
REMARK H PARENT 8 13 10 15
REMARK Flexibility Score: inf
ROOT
ATOM      1  C   UNL     1      -2.101  -3.236  -5.641  1.00  0.00     0.019 A 
ATOM      2  C   UNL     1      -2.290  -4.562  -5.253  1.00  0.00     0.094 A 
ATOM      3  C   UNL     1      -3.426  -4.894  -4.508  1.00  0.00     0.336 A 
ATOM      4  O   UNL     1      -3.615  -6.086  -4.149  1.00  0.00    -0.246 OA
ATOM      5  O   UNL     1      -4.311  -3.958  -4.174  1.00  0.00    -0.423 OA
ATOM      6  C   UNL     1      -4.168  -2.682  -4.523  1.00  0.00     0.142 A 
ATOM      7  C   UNL     1      -5.130  -1.741  -4.143  1.00  0.00     0.098 A 
ATOM      8  C   UNL     1      -4.988  -0.397  -4.506  1.00  0.00     0.161 A 
ATOM      9  C   UNL     1      -3.871   0.013  -5.258  1.00  0.00     0.158 A 
ATOM     10  C   UNL     1      -2.902  -0.926  -5.641  1.00  0.00     0.062 A 
ATOM     11  C   UNL     1      -3.047  -2.273  -5.276  1.00  0.00     0.022 A 
ENDROOT
BRANCH   9  12
ATOM     12  O   UNL     1      -3.727   1.352  -5.620  1.00  0.00    -0.504 OA
ATOM     13  H   UNL     1      -3.352   1.621  -6.522  1.00  0.00     0.293 HD
ENDBRANCH   9  12
BRANCH   8  14
ATOM     14  O   UNL     1      -5.965   0.517  -4.113  1.00  0.00    -0.504 OA
ATOM     15  H   UNL     1      -6.955   0.323  -4.210  1.00  0.00     0.293 HD
ENDBRANCH   8  14
TORSDOF 2
ENDMDL
MODEL 9
REMARK VINA RESULT:    -5.179     10.062     11.999
REMARK INTER + INTRA:          -5.482
REMARK INTER:                  -5.482
REMARK INTRA:                   0.000
REMARK UNBOUND:                 0.000
REMARK SMILES O=c1ccc2cc(O)c(O)cc2o1
REMARK SMILES IDX 4 1 3 2 2 3 1 4 13 5 12 6 11 7 9 8 7 9 6 10 5 11 8 12 10 14
REMARK H PARENT 8 13 10 15
REMARK Flexibility Score: inf
ROOT
ATOM      1  C   UNL     1      -4.006  -4.141  -4.502  1.00  0.00     0.019 A 
ATOM      2  C   UNL     1      -3.129  -4.977  -5.192  1.00  0.00     0.094 A 
ATOM      3  C   UNL     1      -2.230  -4.413  -6.103  1.00  0.00     0.336 A 
ATOM      4  O   UNL     1      -1.429  -5.151  -6.734  1.00  0.00    -0.246 OA
ATOM      5  O   UNL     1      -2.214  -3.099  -6.307  1.00  0.00    -0.423 OA
ATOM      6  C   UNL     1      -3.034  -2.265  -5.672  1.00  0.00     0.142 A 
ATOM      7  C   UNL     1      -2.973  -0.892  -5.927  1.00  0.00     0.098 A 
ATOM      8  C   UNL     1      -3.831  -0.009  -5.262  1.00  0.00     0.161 A 
ATOM      9  C   UNL     1      -4.763  -0.504  -4.331  1.00  0.00     0.158 A 
ATOM     10  C   UNL     1      -4.829  -1.880  -4.071  1.00  0.00     0.062 A 
ATOM     11  C   UNL     1      -3.968  -2.763  -4.738  1.00  0.00     0.022 A 
ENDROOT
BRANCH   9  12
ATOM     12  O   UNL     1      -5.620   0.375  -3.668  1.00  0.00    -0.504 OA
ATOM     13  H   UNL     1      -5.698   1.348  -3.941  1.00  0.00     0.293 HD
ENDBRANCH   9  12
BRANCH   8  14
ATOM     14  O   UNL     1      -3.745   1.355  -5.539  1.00  0.00    -0.504 OA
ATOM     15  H   UNL     1      -2.927   1.766  -5.972  1.00  0.00     0.293 HD
ENDBRANCH   8  14
TORSDOF 2
ENDMDL
