MODEL 1
REMARK VINA RESULT:    -3.557      0.000      0.000
REMARK INTER + INTRA:         -10.746
REMARK INTER:                  -7.716
REMARK INTRA:                  -3.030
REMARK UNBOUND:                -3.030
REMARK SMILES CCCCCCCCCCCCCCCCCCCCCC(=O)[O-]
REMARK SMILES IDX 12 1 11 2 10 3 9 4 8 5 7 6 6 7 5 8 4 9 3 10 2 11 1 12 13 13
REMARK SMILES IDX 14 14 15 15 16 16 17 17 18 18 19 19 20 20 21 21 22 22 23 23
REMARK SMILES IDX 24 24
REMARK H PARENT
REMARK Flexibility Score: inf
ROOT
ATOM      1  C   UNL     1       3.257  18.722   8.107  1.00  0.00     0.000 C 
ENDROOT
BRANCH   1   2
ATOM      2  C   UNL     1       3.266  19.289   6.673  1.00  0.00     0.000 C 
BRANCH   2   3
ATOM      3  C   UNL     1       1.995  19.006   5.851  1.00  0.00     0.000 C 
BRANCH   3   4
ATOM      4  C   UNL     1       2.246  18.402   4.455  1.00  0.00    -0.000 C 
BRANCH   4   5
ATOM      5  C   UNL     1       2.978  17.045   4.452  1.00  0.00    -0.000 C 
BRANCH   5   6
ATOM      6  C   UNL     1       2.375  15.970   5.376  1.00  0.00    -0.000 C 
BRANCH   6   7
ATOM      7  C   UNL     1       3.426  15.286   6.264  1.00  0.00    -0.000 C 
BRANCH   7   8
ATOM      8  C   UNL     1       4.786  16.009   6.250  1.00  0.00    -0.000 C 
BRANCH   8   9
ATOM      9  C   UNL     1       5.969  15.165   5.744  1.00  0.00    -0.000 C 
BRANCH   9  10
ATOM     10  C   UNL     1       5.591  14.243   4.571  1.00  0.00    -0.000 C 
BRANCH  10  11
ATOM     11  C   UNL     1       5.762  14.928   3.208  1.00  0.00    -0.003 C 
ATOM     12  C   UNL     1       4.943  14.256   2.105  1.00  0.00     0.004 C 
ENDBRANCH  10  11
ENDBRANCH   9  10
ENDBRANCH   8   9
ENDBRANCH   7   8
ENDBRANCH   6   7
ENDBRANCH   5   6
ENDBRANCH   4   5
ENDBRANCH   3   4
ENDBRANCH   2   3
ENDBRANCH   1   2
BRANCH   1  13
ATOM     13  C   UNL     1       1.937  18.060   8.544  1.00  0.00     0.000 C 
BRANCH  13  14
ATOM     14  C   UNL     1       2.151  16.874   9.501  1.00  0.00     0.000 C 
BRANCH  14  15
ATOM     15  C   UNL     1       3.602  16.767   9.998  1.00  0.00     0.000 C 
BRANCH  15  16
ATOM     16  C   UNL     1       4.158  15.339   9.911  1.00  0.00     0.000 C 
BRANCH  16  17
ATOM     17  C   UNL     1       3.447  14.409  10.901  1.00  0.00     0.000 C 
BRANCH  17  18
ATOM     18  C   UNL     1       3.550  14.950  12.332  1.00  0.00     0.000 C 
BRANCH  18  19
ATOM     19  C   UNL     1       4.955  14.733  12.907  1.00  0.00     0.000 C 
BRANCH  19  20
ATOM     20  C   UNL     1       5.160  15.570  14.178  1.00  0.00     0.006 C 
BRANCH  20  21
ATOM     21  C   UNL     1       4.955  17.070  13.928  1.00  0.00     0.053 C 
BRANCH  21  22
ATOM     22  C   UNL     1       4.927  17.851  15.207  1.00  0.00     0.041 C 
ATOM     23  O   UNL     1       4.559  19.054  15.208  1.00  0.00    -0.550 OA
ATOM     24  O   UNL     1       5.323  17.251  16.395  1.00  0.00    -0.550 OA
ENDBRANCH  21  22
ENDBRANCH  20  21
ENDBRANCH  19  20
ENDBRANCH  18  19
ENDBRANCH  17  18
ENDBRANCH  16  17
ENDBRANCH  15  16
ENDBRANCH  14  15
ENDBRANCH  13  14
ENDBRANCH   1  13
TORSDOF 20
ENDMDL
MODEL 2
REMARK VINA RESULT:    -3.481      1.391      2.319
REMARK INTER + INTRA:         -10.581
REMARK INTER:                  -8.248
REMARK INTRA:                  -2.334
REMARK UNBOUND:                -3.030
REMARK SMILES CCCCCCCCCCCCCCCCCCCCCC(=O)[O-]
REMARK SMILES IDX 12 1 11 2 10 3 9 4 8 5 7 6 6 7 5 8 4 9 3 10 2 11 1 12 13 13
REMARK SMILES IDX 14 14 15 15 16 16 17 17 18 18 19 19 20 20 21 21 22 22 23 23
REMARK SMILES IDX 24 24
REMARK H PARENT
REMARK Flexibility Score: inf
ROOT
ATOM      1  C   UNL     1       3.419  18.583   8.478  1.00  0.00     0.000 C 
ENDROOT
BRANCH   1   2
ATOM      2  C   UNL     1       2.661  19.218   7.295  1.00  0.00     0.000 C 
BRANCH   2   3
ATOM      3  C   UNL     1       3.131  18.767   5.899  1.00  0.00     0.000 C 
BRANCH   3   4
ATOM      4  C   UNL     1       2.023  18.195   4.995  1.00  0.00    -0.000 C 
BRANCH   4   5
ATOM      5  C   UNL     1       2.237  18.409   3.482  1.00  0.00    -0.000 C 
BRANCH   5   6
ATOM      6  C   UNL     1       2.939  17.252   2.747  1.00  0.00    -0.000 C 
BRANCH   6   7
ATOM      7  C   UNL     1       4.436  17.151   3.082  1.00  0.00    -0.000 C 
BRANCH   7   8
ATOM      8  C   UNL     1       4.833  15.770   3.637  1.00  0.00    -0.000 C 
BRANCH   8   9
ATOM      9  C   UNL     1       3.682  14.963   4.263  1.00  0.00    -0.000 C 
BRANCH   9  10
ATOM     10  C   UNL     1       4.065  14.309   5.602  1.00  0.00    -0.000 C 
BRANCH  10  11
ATOM     11  C   UNL     1       4.044  15.306   6.769  1.00  0.00    -0.003 C 
ATOM     12  C   UNL     1       5.443  15.785   7.159  1.00  0.00     0.004 C 
ENDBRANCH  10  11
ENDBRANCH   9  10
ENDBRANCH   8   9
ENDBRANCH   7   8
ENDBRANCH   6   7
ENDBRANCH   5   6
ENDBRANCH   4   5
ENDBRANCH   3   4
ENDBRANCH   2   3
ENDBRANCH   1   2
BRANCH   1  13
ATOM     13  C   UNL     1       2.555  18.249   9.708  1.00  0.00     0.000 C 
BRANCH  13  14
ATOM     14  C   UNL     1       2.614  16.760  10.093  1.00  0.00     0.000 C 
BRANCH  14  15
ATOM     15  C   UNL     1       2.916  16.544  11.585  1.00  0.00     0.000 C 
BRANCH  15  16
ATOM     16  C   UNL     1       4.384  16.182  11.849  1.00  0.00     0.000 C 
BRANCH  16  17
ATOM     17  C   UNL     1       4.516  14.731  12.328  1.00  0.00     0.000 C 
BRANCH  17  18
ATOM     18  C   UNL     1       5.063  14.674  13.760  1.00  0.00     0.000 C 
BRANCH  18  19
ATOM     19  C   UNL     1       5.973  15.871  14.054  1.00  0.00     0.000 C 
BRANCH  19  20
ATOM     20  C   UNL     1       5.679  16.454  15.444  1.00  0.00     0.006 C 
BRANCH  20  21
ATOM     21  C   UNL     1       4.210  16.867  15.603  1.00  0.00     0.053 C 
BRANCH  21  22
ATOM     22  C   UNL     1       3.947  18.228  15.034  1.00  0.00     0.041 C 
ATOM     23  O   UNL     1       2.828  18.500  14.527  1.00  0.00    -0.550 OA
ATOM     24  O   UNL     1       4.948  19.192  15.050  1.00  0.00    -0.550 OA
ENDBRANCH  21  22
ENDBRANCH  20  21
ENDBRANCH  19  20
ENDBRANCH  18  19
ENDBRANCH  17  18
ENDBRANCH  16  17
ENDBRANCH  15  16
ENDBRANCH  14  15
ENDBRANCH  13  14
ENDBRANCH   1  13
TORSDOF 20
ENDMDL
MODEL 3
REMARK VINA RESULT:    -3.430      4.041      9.207
REMARK INTER + INTRA:         -10.471
REMARK INTER:                  -8.096
REMARK INTRA:                  -2.374
REMARK UNBOUND:                -3.030
REMARK SMILES CCCCCCCCCCCCCCCCCCCCCC(=O)[O-]
REMARK SMILES IDX 12 1 11 2 10 3 9 4 8 5 7 6 6 7 5 8 4 9 3 10 2 11 1 12 13 13
REMARK SMILES IDX 14 14 15 15 16 16 17 17 18 18 19 19 20 20 21 21 22 22 23 23
REMARK SMILES IDX 24 24
REMARK H PARENT
REMARK Flexibility Score: inf
ROOT
ATOM      1  C   UNL     1       3.733  16.327   9.304  1.00  0.00     0.000 C 
ENDROOT
BRANCH   1   2
ATOM      2  C   UNL     1       4.162  15.465  10.508  1.00  0.00     0.000 C 
BRANCH   2   3
ATOM      3  C   UNL     1       3.031  14.651  11.165  1.00  0.00     0.000 C 
BRANCH   3   4
ATOM      4  C   UNL     1       3.198  14.414  12.678  1.00  0.00    -0.000 C 
BRANCH   4   5
ATOM      5  C   UNL     1       4.610  14.695  13.233  1.00  0.00    -0.000 C 
BRANCH   5   6
ATOM      6  C   UNL     1       4.675  14.997  14.742  1.00  0.00    -0.000 C 
BRANCH   6   7
ATOM      7  C   UNL     1       5.685  16.103  15.088  1.00  0.00    -0.000 C 
BRANCH   7   8
ATOM      8  C   UNL     1       5.457  16.706  16.487  1.00  0.00    -0.000 C 
BRANCH   8   9
ATOM      9  C   UNL     1       4.809  18.102  16.497  1.00  0.00    -0.000 C 
BRANCH   9  10
ATOM     10  C   UNL     1       4.615  18.684  15.087  1.00  0.00    -0.000 C 
BRANCH  10  11
ATOM     11  C   UNL     1       3.136  18.774  14.687  1.00  0.00    -0.003 C 
ATOM     12  C   UNL     1       2.833  18.031  13.385  1.00  0.00     0.004 C 
ENDBRANCH  10  11
ENDBRANCH   9  10
ENDBRANCH   8   9
ENDBRANCH   7   8
ENDBRANCH   6   7
ENDBRANCH   5   6
ENDBRANCH   4   5
ENDBRANCH   3   4
ENDBRANCH   2   3
ENDBRANCH   1   2
BRANCH   1  13
ATOM     13  C   UNL     1       2.241  16.708   9.266  1.00  0.00     0.000 C 
BRANCH  13  14
ATOM     14  C   UNL     1       1.997  18.110   8.680  1.00  0.00     0.000 C 
BRANCH  14  15
ATOM     15  C   UNL     1       3.298  18.813   8.261  1.00  0.00     0.000 C 
BRANCH  15  16
ATOM     16  C   UNL     1       3.283  19.271   6.795  1.00  0.00     0.000 C 
BRANCH  16  17
ATOM     17  C   UNL     1       2.011  18.798   6.083  1.00  0.00     0.000 C 
BRANCH  17  18
ATOM     18  C   UNL     1       2.350  17.844   4.931  1.00  0.00     0.000 C 
BRANCH  18  19
ATOM     19  C   UNL     1       2.905  16.515   5.457  1.00  0.00     0.000 C 
BRANCH  19  20
ATOM     20  C   UNL     1       4.373  16.335   5.045  1.00  0.00     0.006 C 
BRANCH  20  21
ATOM     21  C   UNL     1       4.581  16.513   3.535  1.00  0.00     0.053 C 
BRANCH  21  22
ATOM     22  C   UNL     1       5.129  15.274   2.896  1.00  0.00     0.041 C 
ATOM     23  O   UNL     1       6.366  15.149   2.708  1.00  0.00    -0.550 OA
ATOM     24  O   UNL     1       4.266  14.263   2.491  1.00  0.00    -0.550 OA
ENDBRANCH  21  22
ENDBRANCH  20  21
ENDBRANCH  19  20
ENDBRANCH  18  19
ENDBRANCH  17  18
ENDBRANCH  16  17
ENDBRANCH  15  16
ENDBRANCH  14  15
ENDBRANCH  13  14
ENDBRANCH   1  13
TORSDOF 20
ENDMDL
MODEL 4
REMARK VINA RESULT:    -3.423      1.152      2.190
REMARK INTER + INTRA:         -10.455
REMARK INTER:                  -7.997
REMARK INTRA:                  -2.458
REMARK UNBOUND:                -3.030
REMARK SMILES CCCCCCCCCCCCCCCCCCCCCC(=O)[O-]
REMARK SMILES IDX 12 1 11 2 10 3 9 4 8 5 7 6 6 7 5 8 4 9 3 10 2 11 1 12 13 13
REMARK SMILES IDX 14 14 15 15 16 16 17 17 18 18 19 19 20 20 21 21 22 22 23 23
REMARK SMILES IDX 24 24
REMARK H PARENT
REMARK Flexibility Score: inf
ROOT
ATOM      1  C   UNL     1       3.241  18.827   7.313  1.00  0.00     0.000 C 
ENDROOT
BRANCH   1   2
ATOM      2  C   UNL     1       1.875  18.259   6.878  1.00  0.00     0.000 C 
BRANCH   2   3
ATOM      3  C   UNL     1       1.934  16.913   6.132  1.00  0.00     0.000 C 
BRANCH   3   4
ATOM      4  C   UNL     1       2.120  15.678   7.035  1.00  0.00    -0.000 C 
BRANCH   4   5
ATOM      5  C   UNL     1       3.360  14.817   6.720  1.00  0.00    -0.000 C 
BRANCH   5   6
ATOM      6  C   UNL     1       4.713  15.449   7.097  1.00  0.00    -0.000 C 
BRANCH   6   7
ATOM      7  C   UNL     1       5.794  15.232   6.027  1.00  0.00    -0.000 C 
BRANCH   7   8
ATOM      8  C   UNL     1       5.258  14.528   4.767  1.00  0.00    -0.000 C 
BRANCH   8   9
ATOM      9  C   UNL     1       5.900  14.980   3.444  1.00  0.00    -0.000 C 
BRANCH   9  10
ATOM     10  C   UNL     1       5.023  15.970   2.658  1.00  0.00    -0.000 C 
BRANCH  10  11
ATOM     11  C   UNL     1       4.306  16.972   3.573  1.00  0.00    -0.003 C 
ATOM     12  C   UNL     1       3.196  17.738   2.851  1.00  0.00     0.004 C 
ENDBRANCH  10  11
ENDBRANCH   9  10
ENDBRANCH   8   9
ENDBRANCH   7   8
ENDBRANCH   6   7
ENDBRANCH   5   6
ENDBRANCH   4   5
ENDBRANCH   3   4
ENDBRANCH   2   3
ENDBRANCH   1   2
BRANCH   1  13
ATOM     13  C   UNL     1       3.708  18.412   8.721  1.00  0.00     0.000 C 
BRANCH  13  14
ATOM     14  C   UNL     1       2.573  18.444   9.760  1.00  0.00     0.000 C 
BRANCH  14  15
ATOM     15  C   UNL     1       2.518  17.168  10.615  1.00  0.00     0.000 C 
BRANCH  15  16
ATOM     16  C   UNL     1       3.763  16.285  10.450  1.00  0.00     0.000 C 
BRANCH  16  17
ATOM     17  C   UNL     1       4.550  16.191  11.763  1.00  0.00     0.000 C 
BRANCH  17  18
ATOM     18  C   UNL     1       4.532  14.759  12.312  1.00  0.00     0.000 C 
BRANCH  18  19
ATOM     19  C   UNL     1       4.917  14.729  13.795  1.00  0.00     0.000 C 
BRANCH  19  20
ATOM     20  C   UNL     1       5.862  15.891  14.138  1.00  0.00     0.006 C 
BRANCH  20  21
ATOM     21  C   UNL     1       5.683  16.382  15.580  1.00  0.00     0.053 C 
BRANCH  21  22
ATOM     22  C   UNL     1       4.942  17.683  15.640  1.00  0.00     0.041 C 
ATOM     23  O   UNL     1       4.453  18.087  16.726  1.00  0.00    -0.550 OA
ATOM     24  O   UNL     1       4.779  18.442  14.487  1.00  0.00    -0.550 OA
ENDBRANCH  21  22
ENDBRANCH  20  21
ENDBRANCH  19  20
ENDBRANCH  18  19
ENDBRANCH  17  18
ENDBRANCH  16  17
ENDBRANCH  15  16
ENDBRANCH  14  15
ENDBRANCH  13  14
ENDBRANCH   1  13
TORSDOF 20
ENDMDL
MODEL 5
REMARK VINA RESULT:    -3.375      6.932     10.717
REMARK INTER + INTRA:         -10.352
REMARK INTER:                  -8.704
REMARK INTRA:                  -1.648
REMARK UNBOUND:                -3.030
REMARK SMILES CCCCCCCCCCCCCCCCCCCCCC(=O)[O-]
REMARK SMILES IDX 12 1 11 2 10 3 9 4 8 5 7 6 6 7 5 8 4 9 3 10 2 11 1 12 13 13
REMARK SMILES IDX 14 14 15 15 16 16 17 17 18 18 19 19 20 20 21 21 22 22 23 23
REMARK SMILES IDX 24 24
REMARK H PARENT
REMARK Flexibility Score: inf
ROOT
ATOM      1  C   UNL     1       3.175  24.076  14.292  1.00  0.00     0.000 C 
ENDROOT
BRANCH   1   2
ATOM      2  C   UNL     1       3.335  24.993  13.063  1.00  0.00     0.000 C 
BRANCH   2   3
ATOM      3  C   UNL     1       2.154  25.947  12.801  1.00  0.00     0.000 C 
BRANCH   3   4
ATOM      4  C   UNL     1       2.418  27.029  11.736  1.00  0.00    -0.000 C 
BRANCH   4   5
ATOM      5  C   UNL     1       3.146  28.288  12.249  1.00  0.00    -0.000 C 
BRANCH   5   6
ATOM      6  C   UNL     1       4.683  28.196  12.272  1.00  0.00    -0.000 C 
BRANCH   6   7
ATOM      7  C   UNL     1       5.257  28.119  13.696  1.00  0.00    -0.000 C 
BRANCH   7   8
ATOM      8  C   UNL     1       4.169  28.170  14.784  1.00  0.00    -0.000 C 
BRANCH   8   9
ATOM      9  C   UNL     1       4.641  27.784  16.197  1.00  0.00    -0.000 C 
BRANCH   9  10
ATOM     10  C   UNL     1       5.036  26.301  16.314  1.00  0.00    -0.000 C 
BRANCH  10  11
ATOM     11  C   UNL     1       6.485  26.115  16.784  1.00  0.00    -0.003 C 
ATOM     12  C   UNL     1       7.499  26.310  15.656  1.00  0.00     0.004 C 
ENDBRANCH  10  11
ENDBRANCH   9  10
ENDBRANCH   8   9
ENDBRANCH   7   8
ENDBRANCH   6   7
ENDBRANCH   5   6
ENDBRANCH   4   5
ENDBRANCH   3   4
ENDBRANCH   2   3
ENDBRANCH   1   2
BRANCH   1  13
ATOM     13  C   UNL     1       1.875  23.250  14.332  1.00  0.00     0.000 C 
BRANCH  13  14
ATOM     14  C   UNL     1       1.876  22.188  15.446  1.00  0.00     0.000 C 
BRANCH  14  15
ATOM     15  C   UNL     1       1.901  20.753  14.896  1.00  0.00     0.000 C 
BRANCH  15  16
ATOM     16  C   UNL     1       2.754  19.802  15.748  1.00  0.00     0.000 C 
BRANCH  16  17
ATOM     17  C   UNL     1       3.706  18.980  14.871  1.00  0.00     0.000 C 
BRANCH  17  18
ATOM     18  C   UNL     1       4.897  18.464  15.689  1.00  0.00     0.000 C 
BRANCH  18  19
ATOM     19  C   UNL     1       4.577  17.115  16.342  1.00  0.00     0.000 C 
BRANCH  19  20
ATOM     20  C   UNL     1       5.516  16.018  15.819  1.00  0.00     0.006 C 
BRANCH  20  21
ATOM     21  C   UNL     1       6.051  16.330  14.415  1.00  0.00     0.053 C 
BRANCH  21  22
ATOM     22  C   UNL     1       5.248  15.652  13.347  1.00  0.00     0.041 C 
ATOM     23  O   UNL     1       5.262  14.398  13.241  1.00  0.00    -0.550 OA
ATOM     24  O   UNL     1       4.498  16.410  12.457  1.00  0.00    -0.550 OA
ENDBRANCH  21  22
ENDBRANCH  20  21
ENDBRANCH  19  20
ENDBRANCH  18  19
ENDBRANCH  17  18
ENDBRANCH  16  17
ENDBRANCH  15  16
ENDBRANCH  14  15
ENDBRANCH  13  14
ENDBRANCH   1  13
TORSDOF 20
ENDMDL
MODEL 6
REMARK VINA RESULT:    -3.268      1.342      3.441
REMARK INTER + INTRA:         -10.120
REMARK INTER:                  -7.764
REMARK INTRA:                  -2.356
REMARK UNBOUND:                -3.030
REMARK SMILES CCCCCCCCCCCCCCCCCCCCCC(=O)[O-]
REMARK SMILES IDX 12 1 11 2 10 3 9 4 8 5 7 6 6 7 5 8 4 9 3 10 2 11 1 12 13 13
REMARK SMILES IDX 14 14 15 15 16 16 17 17 18 18 19 19 20 20 21 21 22 22 23 23
REMARK SMILES IDX 24 24
REMARK H PARENT
REMARK Flexibility Score: inf
ROOT
ATOM      1  C   UNL     1       4.105  17.141   9.089  1.00  0.00     0.000 C 
ENDROOT
BRANCH   1   2
ATOM      2  C   UNL     1       4.554  15.762   8.565  1.00  0.00     0.000 C 
BRANCH   2   3
ATOM      3  C   UNL     1       4.359  15.543   7.053  1.00  0.00     0.000 C 
BRANCH   3   4
ATOM      4  C   UNL     1       5.663  15.391   6.247  1.00  0.00    -0.000 C 
BRANCH   4   5
ATOM      5  C   UNL     1       5.479  14.931   4.785  1.00  0.00    -0.000 C 
BRANCH   5   6
ATOM      6  C   UNL     1       4.293  13.980   4.540  1.00  0.00    -0.000 C 
BRANCH   6   7
ATOM      7  C   UNL     1       3.447  14.379   3.321  1.00  0.00    -0.000 C 
BRANCH   7   8
ATOM      8  C   UNL     1       3.578  15.872   2.964  1.00  0.00    -0.000 C 
BRANCH   8   9
ATOM      9  C   UNL     1       2.344  16.732   3.288  1.00  0.00    -0.000 C 
BRANCH   9  10
ATOM     10  C   UNL     1       2.700  18.047   4.004  1.00  0.00    -0.000 C 
BRANCH  10  11
ATOM     11  C   UNL     1       2.359  18.011   5.500  1.00  0.00    -0.003 C 
ATOM     12  C   UNL     1       3.014  19.151   6.281  1.00  0.00     0.004 C 
ENDBRANCH  10  11
ENDBRANCH   9  10
ENDBRANCH   8   9
ENDBRANCH   7   8
ENDBRANCH   6   7
ENDBRANCH   5   6
ENDBRANCH   4   5
ENDBRANCH   3   4
ENDBRANCH   2   3
ENDBRANCH   1   2
BRANCH   1  13
ATOM     13  C   UNL     1       2.732  17.166   9.786  1.00  0.00     0.000 C 
BRANCH  13  14
ATOM     14  C   UNL     1       2.446  15.884  10.588  1.00  0.00     0.000 C 
BRANCH  14  15
ATOM     15  C   UNL     1       2.357  16.138  12.101  1.00  0.00     0.000 C 
BRANCH  15  16
ATOM     16  C   UNL     1       3.692  16.593  12.708  1.00  0.00     0.000 C 
BRANCH  16  17
ATOM     17  C   UNL     1       4.756  15.497  12.583  1.00  0.00     0.000 C 
BRANCH  17  18
ATOM     18  C   UNL     1       5.692  15.500  13.799  1.00  0.00     0.000 C 
BRANCH  18  19
ATOM     19  C   UNL     1       4.900  15.605  15.107  1.00  0.00     0.000 C 
BRANCH  19  20
ATOM     20  C   UNL     1       5.718  16.333  16.184  1.00  0.00     0.006 C 
BRANCH  20  21
ATOM     21  C   UNL     1       4.925  17.463  16.854  1.00  0.00     0.053 C 
BRANCH  21  22
ATOM     22  C   UNL     1       4.274  18.363  15.847  1.00  0.00     0.041 C 
ATOM     23  O   UNL     1       4.976  19.092  15.101  1.00  0.00    -0.550 OA
ATOM     24  O   UNL     1       2.889  18.405  15.747  1.00  0.00    -0.550 OA
ENDBRANCH  21  22
ENDBRANCH  20  21
ENDBRANCH  19  20
ENDBRANCH  18  19
ENDBRANCH  17  18
ENDBRANCH  16  17
ENDBRANCH  15  16
ENDBRANCH  14  15
ENDBRANCH  13  14
ENDBRANCH   1  13
TORSDOF 20
ENDMDL
MODEL 7
REMARK VINA RESULT:    -3.238      3.802      9.221
REMARK INTER + INTRA:         -10.054
REMARK INTER:                  -7.846
REMARK INTRA:                  -2.208
REMARK UNBOUND:                -3.030
REMARK SMILES CCCCCCCCCCCCCCCCCCCCCC(=O)[O-]
REMARK SMILES IDX 12 1 11 2 10 3 9 4 8 5 7 6 6 7 5 8 4 9 3 10 2 11 1 12 13 13
REMARK SMILES IDX 14 14 15 15 16 16 17 17 18 18 19 19 20 20 21 21 22 22 23 23
REMARK SMILES IDX 24 24
REMARK H PARENT
REMARK Flexibility Score: inf
ROOT
ATOM      1  C   UNL     1       4.575  17.015   7.943  1.00  0.00     0.000 C 
ENDROOT
BRANCH   1   2
ATOM      2  C   UNL     1       4.916  16.783   9.429  1.00  0.00     0.000 C 
BRANCH   2   3
ATOM      3  C   UNL     1       3.950  15.850  10.183  1.00  0.00     0.000 C 
BRANCH   3   4
ATOM      4  C   UNL     1       3.499  16.362  11.565  1.00  0.00    -0.000 C 
BRANCH   4   5
ATOM      5  C   UNL     1       4.569  16.283  12.673  1.00  0.00    -0.000 C 
BRANCH   5   6
ATOM      6  C   UNL     1       4.978  14.858  13.091  1.00  0.00    -0.000 C 
BRANCH   6   7
ATOM      7  C   UNL     1       4.126  14.305  14.244  1.00  0.00    -0.000 C 
BRANCH   7   8
ATOM      8  C   UNL     1       3.634  15.402  15.206  1.00  0.00    -0.000 C 
BRANCH   8   9
ATOM      9  C   UNL     1       4.521  15.631  16.443  1.00  0.00    -0.000 C 
BRANCH   9  10
ATOM     10  C   UNL     1       5.429  16.866  16.310  1.00  0.00    -0.000 C 
BRANCH  10  11
ATOM     11  C   UNL     1       4.654  18.183  16.453  1.00  0.00    -0.003 C 
ATOM     12  C   UNL     1       4.693  19.030  15.181  1.00  0.00     0.004 C 
ENDBRANCH  10  11
ENDBRANCH   9  10
ENDBRANCH   8   9
ENDBRANCH   7   8
ENDBRANCH   6   7
ENDBRANCH   5   6
ENDBRANCH   4   5
ENDBRANCH   3   4
ENDBRANCH   2   3
ENDBRANCH   1   2
BRANCH   1  13
ATOM     13  C   UNL     1       3.544  16.040   7.345  1.00  0.00     0.000 C 
BRANCH  13  14
ATOM     14  C   UNL     1       2.185  16.705   7.064  1.00  0.00     0.000 C 
BRANCH  14  15
ATOM     15  C   UNL     1       2.248  18.238   7.144  1.00  0.00     0.000 C 
BRANCH  15  16
ATOM     16  C   UNL     1       2.348  18.904   5.763  1.00  0.00     0.000 C 
BRANCH  16  17
ATOM     17  C   UNL     1       1.991  17.915   4.648  1.00  0.00     0.000 C 
BRANCH  17  18
ATOM     18  C   UNL     1       3.149  17.771   3.651  1.00  0.00     0.000 C 
BRANCH  18  19
ATOM     19  C   UNL     1       2.982  16.517   2.786  1.00  0.00     0.000 C 
BRANCH  19  20
ATOM     20  C   UNL     1       3.062  15.246   3.645  1.00  0.00     0.006 C 
BRANCH  20  21
ATOM     21  C   UNL     1       4.217  14.329   3.223  1.00  0.00     0.053 C 
BRANCH  21  22
ATOM     22  C   UNL     1       5.553  14.929   3.543  1.00  0.00     0.041 C 
ATOM     23  O   UNL     1       6.315  15.310   2.618  1.00  0.00    -0.550 OA
ATOM     24  O   UNL     1       5.960  15.051   4.866  1.00  0.00    -0.550 OA
ENDBRANCH  21  22
ENDBRANCH  20  21
ENDBRANCH  19  20
ENDBRANCH  18  19
ENDBRANCH  17  18
ENDBRANCH  16  17
ENDBRANCH  15  16
ENDBRANCH  14  15
ENDBRANCH  13  14
ENDBRANCH   1  13
TORSDOF 20
ENDMDL
MODEL 8
REMARK VINA RESULT:    -3.195      1.692      3.815
REMARK INTER + INTRA:          -9.961
REMARK INTER:                  -7.539
REMARK INTRA:                  -2.422
REMARK UNBOUND:                -3.030
REMARK SMILES CCCCCCCCCCCCCCCCCCCCCC(=O)[O-]
REMARK SMILES IDX 12 1 11 2 10 3 9 4 8 5 7 6 6 7 5 8 4 9 3 10 2 11 1 12 13 13
REMARK SMILES IDX 14 14 15 15 16 16 17 17 18 18 19 19 20 20 21 21 22 22 23 23
REMARK SMILES IDX 24 24
REMARK H PARENT
REMARK Flexibility Score: inf
ROOT
ATOM      1  C   UNL     1       4.684  17.402   9.078  1.00  0.00     0.000 C 
ENDROOT
BRANCH   1   2
ATOM      2  C   UNL     1       5.619  16.933   7.944  1.00  0.00     0.000 C 
BRANCH   2   3
ATOM      3  C   UNL     1       5.195  15.628   7.245  1.00  0.00     0.000 C 
BRANCH   3   4
ATOM      4  C   UNL     1       5.972  15.300   5.956  1.00  0.00    -0.000 C 
BRANCH   4   5
ATOM      5  C   UNL     1       5.155  14.577   4.865  1.00  0.00    -0.000 C 
BRANCH   5   6
ATOM      6  C   UNL     1       5.127  15.276   3.493  1.00  0.00    -0.000 C 
BRANCH   6   7
ATOM      7  C   UNL     1       3.730  15.279   2.851  1.00  0.00    -0.000 C 
BRANCH   7   8
ATOM      8  C   UNL     1       2.642  15.840   3.787  1.00  0.00    -0.000 C 
BRANCH   8   9
ATOM      9  C   UNL     1       1.916  17.092   3.264  1.00  0.00    -0.000 C 
BRANCH   9  10
ATOM     10  C   UNL     1       2.253  18.361   4.067  1.00  0.00    -0.000 C 
BRANCH  10  11
ATOM     11  C   UNL     1       3.124  18.063   5.295  1.00  0.00    -0.003 C 
ATOM     12  C   UNL     1       2.983  19.124   6.388  1.00  0.00     0.004 C 
ENDBRANCH  10  11
ENDBRANCH   9  10
ENDBRANCH   8   9
ENDBRANCH   7   8
ENDBRANCH   6   7
ENDBRANCH   5   6
ENDBRANCH   4   5
ENDBRANCH   3   4
ENDBRANCH   2   3
ENDBRANCH   1   2
BRANCH   1  13
ATOM     13  C   UNL     1       3.718  16.332   9.618  1.00  0.00     0.000 C 
BRANCH  13  14
ATOM     14  C   UNL     1       4.027  15.924  11.069  1.00  0.00     0.000 C 
BRANCH  14  15
ATOM     15  C   UNL     1       2.839  15.235  11.758  1.00  0.00     0.000 C 
BRANCH  15  16
ATOM     16  C   UNL     1       2.411  15.938  13.054  1.00  0.00     0.000 C 
BRANCH  16  17
ATOM     17  C   UNL     1       2.137  17.427  12.809  1.00  0.00     0.000 C 
BRANCH  17  18
ATOM     18  C   UNL     1       2.793  18.291  13.894  1.00  0.00     0.000 C 
BRANCH  18  19
ATOM     19  C   UNL     1       3.101  17.465  15.148  1.00  0.00     0.000 C 
BRANCH  19  20
ATOM     20  C   UNL     1       4.534  17.726  15.636  1.00  0.00     0.006 C 
BRANCH  20  21
ATOM     21  C   UNL     1       5.405  16.464  15.587  1.00  0.00     0.053 C 
BRANCH  21  22
ATOM     22  C   UNL     1       5.932  16.201  14.210  1.00  0.00     0.041 C 
ATOM     23  O   UNL     1       6.239  17.158  13.453  1.00  0.00    -0.550 OA
ATOM     24  O   UNL     1       6.068  14.895  13.757  1.00  0.00    -0.550 OA
ENDBRANCH  21  22
ENDBRANCH  20  21
ENDBRANCH  19  20
ENDBRANCH  18  19
ENDBRANCH  17  18
ENDBRANCH  16  17
ENDBRANCH  15  16
ENDBRANCH  14  15
ENDBRANCH  13  14
ENDBRANCH   1  13
TORSDOF 20
ENDMDL
MODEL 9
REMARK VINA RESULT:    -3.165      4.065      8.618
REMARK INTER + INTRA:          -9.896
REMARK INTER:                  -7.300
REMARK INTRA:                  -2.597
REMARK UNBOUND:                -3.030
REMARK SMILES CCCCCCCCCCCCCCCCCCCCCC(=O)[O-]
REMARK SMILES IDX 12 1 11 2 10 3 9 4 8 5 7 6 6 7 5 8 4 9 3 10 2 11 1 12 13 13
REMARK SMILES IDX 14 14 15 15 16 16 17 17 18 18 19 19 20 20 21 21 22 22 23 23
REMARK SMILES IDX 24 24
REMARK H PARENT
REMARK Flexibility Score: inf
ROOT
ATOM      1  C   UNL     1       4.467  17.580   8.822  1.00  0.00     0.000 C 
ENDROOT
BRANCH   1   2
ATOM      2  C   UNL     1       4.154  16.750  10.083  1.00  0.00     0.000 C 
BRANCH   2   3
ATOM      3  C   UNL     1       2.673  16.741  10.507  1.00  0.00     0.000 C 
BRANCH   3   4
ATOM      4  C   UNL     1       2.287  17.820  11.537  1.00  0.00    -0.000 C 
BRANCH   4   5
ATOM      5  C   UNL     1       2.346  17.369  13.011  1.00  0.00    -0.000 C 
BRANCH   5   6
ATOM      6  C   UNL     1       2.894  18.417  13.998  1.00  0.00    -0.000 C 
BRANCH   6   7
ATOM      7  C   UNL     1       4.005  17.863  14.903  1.00  0.00    -0.000 C 
BRANCH   7   8
ATOM      8  C   UNL     1       5.211  17.325  14.111  1.00  0.00    -0.000 C 
BRANCH   8   9
ATOM      9  C   UNL     1       5.552  15.846  14.367  1.00  0.00    -0.000 C 
BRANCH   9  10
ATOM     10  C   UNL     1       5.303  14.951  13.141  1.00  0.00    -0.000 C 
BRANCH  10  11
ATOM     11  C   UNL     1       4.007  14.137  13.263  1.00  0.00    -0.003 C 
ATOM     12  C   UNL     1       3.386  14.225  14.657  1.00  0.00     0.004 C 
ENDBRANCH  10  11
ENDBRANCH   9  10
ENDBRANCH   8   9
ENDBRANCH   7   8
ENDBRANCH   6   7
ENDBRANCH   5   6
ENDBRANCH   4   5
ENDBRANCH   3   4
ENDBRANCH   2   3
ENDBRANCH   1   2
BRANCH   1  13
ATOM     13  C   UNL     1       3.422  18.653   8.464  1.00  0.00     0.000 C 
BRANCH  13  14
ATOM     14  C   UNL     1       3.000  18.606   6.985  1.00  0.00     0.000 C 
BRANCH  14  15
ATOM     15  C   UNL     1       3.647  17.440   6.220  1.00  0.00     0.000 C 
BRANCH  15  16
ATOM     16  C   UNL     1       2.856  16.130   6.350  1.00  0.00     0.000 C 
BRANCH  16  17
ATOM     17  C   UNL     1       3.785  14.914   6.252  1.00  0.00     0.000 C 
BRANCH  17  18
ATOM     18  C   UNL     1       5.233  15.349   5.995  1.00  0.00     0.000 C 
BRANCH  18  19
ATOM     19  C   UNL     1       5.846  14.569   4.827  1.00  0.00     0.000 C 
BRANCH  19  20
ATOM     20  C   UNL     1       5.605  15.298   3.497  1.00  0.00     0.006 C 
BRANCH  20  21
ATOM     21  C   UNL     1       4.607  14.556   2.598  1.00  0.00     0.053 C 
BRANCH  21  22
ATOM     22  C   UNL     1       3.261  15.214   2.593  1.00  0.00     0.041 C 
ATOM     23  O   UNL     1       3.157  16.448   2.818  1.00  0.00    -0.550 OA
ATOM     24  O   UNL     1       2.119  14.458   2.357  1.00  0.00    -0.550 OA
ENDBRANCH  21  22
ENDBRANCH  20  21
ENDBRANCH  19  20
ENDBRANCH  18  19
ENDBRANCH  17  18
ENDBRANCH  16  17
ENDBRANCH  15  16
ENDBRANCH  14  15
ENDBRANCH  13  14
ENDBRANCH   1  13
TORSDOF 20
ENDMDL
