MODEL 1
REMARK VINA RESULT:    -5.753      0.000      0.000
REMARK INTER + INTRA:         -10.220
REMARK INTER:                  -8.444
REMARK INTRA:                  -1.776
REMARK UNBOUND:                -1.776
REMARK SMILES O=c1c(O[C@@H]2O[C@@H](CO)[C@H](O)[C@@H](O)[C@@H]2O)c(-c2ccc(O)c(O)c2)oc2cc(O)cc(O)c12
REMARK SMILES IDX 4 1 3 2 16 3 25 4 2 5 26 6 1 7 33 8 27 9 31 10 28 11 30 12
REMARK SMILES IDX 17 13 18 14 19 15 20 16 24 17 22 18 21 19 23 21 32 23 29 25
REMARK SMILES IDX 5 27 14 28 6 29 12 30 7 31 10 32 15 33 13 35 8 37 9 38 11 40
REMARK H PARENT 21 20 23 22 32 24 29 26 15 34 13 36 9 39 11 41
REMARK Flexibility Score: inf
ROOT
ATOM      1  O   UNL     1      -3.389  36.878   7.684  1.00  0.00    -0.454 OA
ENDROOT
BRANCH   1   2
ATOM      2  C   UNL     1      -2.117  37.236   7.211  1.00  0.00     0.214 A 
ATOM      3  C   UNL     1      -1.689  38.575   7.288  1.00  0.00     0.180 A 
ATOM      4  O   UNL     1      -0.520  38.931   6.764  1.00  0.00    -0.452 OA
ATOM      5  C   UNL     1      -1.244  36.281   6.663  1.00  0.00     0.239 A 
ATOM      6  C   UNL     1       0.314  38.070   6.191  1.00  0.00     0.146 A 
ATOM      7  O   UNL     1      -1.563  35.062   6.682  1.00  0.00    -0.285 OA
ATOM      8  C   UNL     1      -0.008  36.694   6.123  1.00  0.00     0.111 A 
ATOM      9  C   UNL     1       1.517  38.538   5.660  1.00  0.00     0.094 A 
ATOM     10  C   UNL     1       0.911  35.800   5.521  1.00  0.00     0.134 A 
ATOM     11  C   UNL     1       2.419  37.652   5.062  1.00  0.00     0.123 A 
ATOM     12  C   UNL     1       2.116  36.289   4.997  1.00  0.00     0.093 A 
BRANCH   3  13
ATOM     13  C   UNL     1      -2.522  39.620   7.917  1.00  0.00     0.025 A 
ATOM     14  C   UNL     1      -2.804  40.822   7.246  1.00  0.00     0.016 A 
ATOM     15  C   UNL     1      -3.570  41.813   7.868  1.00  0.00     0.051 A 
ATOM     16  C   UNL     1      -4.069  41.612   9.162  1.00  0.00     0.157 A 
ATOM     17  C   UNL     1      -3.047  39.411   9.200  1.00  0.00     0.062 A 
ATOM     18  C   UNL     1      -3.809  40.400   9.828  1.00  0.00     0.158 A 
BRANCH  16  19
ATOM     19  O   UNL     1      -4.826  42.605   9.785  1.00  0.00    -0.504 OA
ATOM     20  H   UNL     1      -5.630  43.024   9.332  1.00  0.00     0.293 HD
ENDBRANCH  16  19
BRANCH  18  21
ATOM     21  O   UNL     1      -4.294  40.164  11.113  1.00  0.00    -0.504 OA
ATOM     22  H   UNL     1      -4.704  39.278  11.380  1.00  0.00     0.293 HD
ENDBRANCH  18  21
ENDBRANCH   3  13
BRANCH  10  23
ATOM     23  O   UNL     1       0.632  34.434   5.437  1.00  0.00    -0.507 OA
ATOM     24  H   UNL     1      -0.230  34.041   5.795  1.00  0.00     0.293 HD
ENDBRANCH  10  23
BRANCH  11  25
ATOM     25  O   UNL     1       3.620  38.115   4.531  1.00  0.00    -0.508 OA
ATOM     26  H   UNL     1       3.991  37.747   3.662  1.00  0.00     0.293 HD
ENDBRANCH  11  25
ENDBRANCH   1   2
BRANCH   1  27
ATOM     27  C   UNL     1      -4.534  36.736   6.830  1.00  0.00     0.339 C 
ATOM     28  C   UNL     1      -5.170  35.340   6.986  1.00  0.00     0.214 C 
ATOM     29  O   UNL     1      -5.479  37.771   7.062  1.00  0.00    -0.332 OA
ATOM     30  C   UNL     1      -5.833  35.204   8.364  1.00  0.00     0.180 C 
ATOM     31  C   UNL     1      -6.009  37.722   8.380  1.00  0.00     0.179 C 
ATOM     32  C   UNL     1      -6.775  36.400   8.616  1.00  0.00     0.177 C 
BRANCH  28  33
ATOM     33  O   UNL     1      -4.191  34.340   6.836  1.00  0.00    -0.384 OA
ATOM     34  H   UNL     1      -4.244  33.765   7.642  1.00  0.00     0.211 HD
ENDBRANCH  28  33
BRANCH  30  35
ATOM     35  O   UNL     1      -6.529  33.987   8.471  1.00  0.00    -0.387 OA
ATOM     36  H   UNL     1      -7.477  34.154   8.216  1.00  0.00     0.211 HD
ENDBRANCH  30  35
BRANCH  31  37
ATOM     37  C   UNL     1      -6.928  38.932   8.580  1.00  0.00     0.191 C 
BRANCH  37  38
ATOM     38  O   UNL     1      -6.977  39.268   9.938  1.00  0.00    -0.394 OA
ATOM     39  H   UNL     1      -7.916  39.120  10.223  1.00  0.00     0.210 HD
ENDBRANCH  37  38
ENDBRANCH  31  37
BRANCH  32  40
ATOM     40  O   UNL     1      -7.313  36.348   9.916  1.00  0.00    -0.387 OA
ATOM     41  H   UNL     1      -7.966  35.601   9.942  1.00  0.00     0.211 HD
ENDBRANCH  32  40
ENDBRANCH   1  27
TORSDOF 12
ENDMDL
MODEL 2
REMARK VINA RESULT:    -5.244      2.177      8.047
REMARK INTER + INTRA:          -9.472
REMARK INTER:                  -7.368
REMARK INTRA:                  -2.104
REMARK UNBOUND:                -1.776
REMARK SMILES O=c1c(O[C@@H]2O[C@@H](CO)[C@H](O)[C@@H](O)[C@@H]2O)c(-c2ccc(O)c(O)c2)oc2cc(O)cc(O)c12
REMARK SMILES IDX 4 1 3 2 16 3 25 4 2 5 26 6 1 7 33 8 27 9 31 10 28 11 30 12
REMARK SMILES IDX 17 13 18 14 19 15 20 16 24 17 22 18 21 19 23 21 32 23 29 25
REMARK SMILES IDX 5 27 14 28 6 29 12 30 7 31 10 32 15 33 13 35 8 37 9 38 11 40
REMARK H PARENT 21 20 23 22 32 24 29 26 15 34 13 36 9 39 11 41
REMARK Flexibility Score: inf
ROOT
ATOM      1  O   UNL     1      -3.000  39.848   7.919  1.00  0.00    -0.454 OA
ENDROOT
BRANCH   1   2
ATOM      2  C   UNL     1      -4.186  39.934   8.665  1.00  0.00     0.214 A 
ATOM      3  C   UNL     1      -4.957  38.779   8.897  1.00  0.00     0.180 A 
ATOM      4  O   UNL     1      -6.122  38.873   9.529  1.00  0.00    -0.452 OA
ATOM      5  C   UNL     1      -4.627  41.156   9.201  1.00  0.00     0.239 A 
ATOM      6  C   UNL     1      -6.601  40.016  10.008  1.00  0.00     0.146 A 
ATOM      7  O   UNL     1      -3.900  42.180   9.098  1.00  0.00    -0.285 OA
ATOM      8  C   UNL     1      -5.865  41.217   9.874  1.00  0.00     0.111 A 
ATOM      9  C   UNL     1      -7.841  40.019  10.651  1.00  0.00     0.094 A 
ATOM     10  C   UNL     1      -6.397  42.415  10.410  1.00  0.00     0.134 A 
ATOM     11  C   UNL     1      -8.363  41.205  11.176  1.00  0.00     0.123 A 
ATOM     12  C   UNL     1      -7.640  42.397  11.057  1.00  0.00     0.093 A 
BRANCH   3  13
ATOM     13  C   UNL     1      -4.520  37.449   8.427  1.00  0.00     0.025 A 
ATOM     14  C   UNL     1      -5.154  36.820   7.342  1.00  0.00     0.016 A 
ATOM     15  C   UNL     1      -4.746  35.547   6.929  1.00  0.00     0.051 A 
ATOM     16  C   UNL     1      -3.699  34.892   7.589  1.00  0.00     0.157 A 
ATOM     17  C   UNL     1      -3.454  36.802   9.067  1.00  0.00     0.062 A 
ATOM     18  C   UNL     1      -3.046  35.528   8.662  1.00  0.00     0.158 A 
BRANCH  16  19
ATOM     19  O   UNL     1      -3.299  33.619   7.183  1.00  0.00    -0.504 OA
ATOM     20  H   UNL     1      -2.342  33.301   7.295  1.00  0.00     0.293 HD
ENDBRANCH  16  19
BRANCH  18  21
ATOM     21  O   UNL     1      -1.996  34.908   9.338  1.00  0.00    -0.504 OA
ATOM     22  H   UNL     1      -1.320  34.323   8.863  1.00  0.00     0.293 HD
ENDBRANCH  18  21
ENDBRANCH   3  13
BRANCH  10  23
ATOM     23  O   UNL     1      -5.700  43.620  10.301  1.00  0.00    -0.507 OA
ATOM     24  H   UNL     1      -4.826  43.689   9.792  1.00  0.00     0.293 HD
ENDBRANCH  10  23
BRANCH  11  25
ATOM     25  O   UNL     1      -9.598  41.213  11.818  1.00  0.00    -0.508 OA
ATOM     26  H   UNL     1     -10.048  42.080  12.090  1.00  0.00     0.293 HD
ENDBRANCH  11  25
ENDBRANCH   1   2
BRANCH   1  27
ATOM     27  C   UNL     1      -2.947  40.056   6.500  1.00  0.00     0.339 C 
ATOM     28  C   UNL     1      -1.861  41.088   6.133  1.00  0.00     0.214 C 
ATOM     29  O   UNL     1      -2.759  38.830   5.808  1.00  0.00    -0.332 OA
ATOM     30  C   UNL     1      -0.462  40.505   6.381  1.00  0.00     0.180 C 
ATOM     31  C   UNL     1      -1.513  38.225   6.126  1.00  0.00     0.179 C 
ATOM     32  C   UNL     1      -0.336  39.129   5.695  1.00  0.00     0.177 C 
BRANCH  28  33
ATOM     33  O   UNL     1      -2.024  42.258   6.898  1.00  0.00    -0.384 OA
ATOM     34  H   UNL     1      -2.814  42.111   7.479  1.00  0.00     0.211 HD
ENDBRANCH  28  33
BRANCH  30  35
ATOM     35  O   UNL     1       0.537  41.384   5.928  1.00  0.00    -0.387 OA
ATOM     36  H   UNL     1       0.385  41.545   4.957  1.00  0.00     0.211 HD
ENDBRANCH  30  35
BRANCH  31  37
ATOM     37  C   UNL     1      -1.443  36.862   5.429  1.00  0.00     0.191 C 
BRANCH  37  38
ATOM     38  O   UNL     1      -0.608  36.003   6.155  1.00  0.00    -0.394 OA
ATOM     39  H   UNL     1       0.217  36.521   6.345  1.00  0.00     0.210 HD
ENDBRANCH  37  38
ENDBRANCH  31  37
BRANCH  32  40
ATOM     40  O   UNL     1       0.903  38.532   5.996  1.00  0.00    -0.387 OA
ATOM     41  H   UNL     1       1.444  38.524   5.164  1.00  0.00     0.211 HD
ENDBRANCH  32  40
ENDBRANCH   1  27
TORSDOF 12
ENDMDL
MODEL 3
REMARK VINA RESULT:    -5.080      1.823      6.490
REMARK INTER + INTRA:          -9.232
REMARK INTER:                  -7.138
REMARK INTRA:                  -2.093
REMARK UNBOUND:                -1.776
REMARK SMILES O=c1c(O[C@@H]2O[C@@H](CO)[C@H](O)[C@@H](O)[C@@H]2O)c(-c2ccc(O)c(O)c2)oc2cc(O)cc(O)c12
REMARK SMILES IDX 4 1 3 2 16 3 25 4 2 5 26 6 1 7 33 8 27 9 31 10 28 11 30 12
REMARK SMILES IDX 17 13 18 14 19 15 20 16 24 17 22 18 21 19 23 21 32 23 29 25
REMARK SMILES IDX 5 27 14 28 6 29 12 30 7 31 10 32 15 33 13 35 8 37 9 38 11 40
REMARK H PARENT 21 20 23 22 32 24 29 26 15 34 13 36 9 39 11 41
REMARK Flexibility Score: inf
ROOT
ATOM      1  O   UNL     1      -4.388  38.008   8.028  1.00  0.00    -0.454 OA
ENDROOT
BRANCH   1   2
ATOM      2  C   UNL     1      -4.363  39.411   8.070  1.00  0.00     0.214 A 
ATOM      3  C   UNL     1      -3.248  40.109   7.569  1.00  0.00     0.180 A 
ATOM      4  O   UNL     1      -3.185  41.432   7.685  1.00  0.00    -0.452 OA
ATOM      5  C   UNL     1      -5.437  40.147   8.598  1.00  0.00     0.239 A 
ATOM      6  C   UNL     1      -4.155  42.163   8.223  1.00  0.00     0.146 A 
ATOM      7  O   UNL     1      -6.488  39.549   8.953  1.00  0.00    -0.285 OA
ATOM      8  C   UNL     1      -5.339  41.550   8.698  1.00  0.00     0.111 A 
ATOM      9  C   UNL     1      -3.996  43.548   8.311  1.00  0.00     0.094 A 
ATOM     10  C   UNL     1      -6.360  42.361   9.251  1.00  0.00     0.134 A 
ATOM     11  C   UNL     1      -5.006  44.343   8.861  1.00  0.00     0.123 A 
ATOM     12  C   UNL     1      -6.183  43.749   9.326  1.00  0.00     0.093 A 
BRANCH   3  13
ATOM     13  C   UNL     1      -2.115  39.407   6.933  1.00  0.00     0.025 A 
ATOM     14  C   UNL     1      -2.220  38.893   5.630  1.00  0.00     0.016 A 
ATOM     15  C   UNL     1      -1.147  38.205   5.055  1.00  0.00     0.051 A 
ATOM     16  C   UNL     1       0.044  38.029   5.770  1.00  0.00     0.157 A 
ATOM     17  C   UNL     1      -0.911  39.254   7.636  1.00  0.00     0.062 A 
ATOM     18  C   UNL     1       0.162  38.563   7.067  1.00  0.00     0.158 A 
BRANCH  16  19
ATOM     19  O   UNL     1       1.111  37.335   5.199  1.00  0.00    -0.504 OA
ATOM     20  H   UNL     1       1.677  36.691   5.741  1.00  0.00     0.293 HD
ENDBRANCH  16  19
BRANCH  18  21
ATOM     21  O   UNL     1       1.335  38.412   7.806  1.00  0.00    -0.504 OA
ATOM     22  H   UNL     1       2.166  37.984   7.417  1.00  0.00     0.293 HD
ENDBRANCH  18  21
ENDBRANCH   3  13
BRANCH  10  23
ATOM     23  O   UNL     1      -7.544  41.794   9.729  1.00  0.00    -0.507 OA
ATOM     24  H   UNL     1      -8.337  41.621   9.123  1.00  0.00     0.293 HD
ENDBRANCH  10  23
BRANCH  11  25
ATOM     25  O   UNL     1      -4.851  45.724   8.950  1.00  0.00    -0.508 OA
ATOM     26  H   UNL     1      -5.583  46.359   8.650  1.00  0.00     0.293 HD
ENDBRANCH  11  25
ENDBRANCH   1   2
BRANCH   1  27
ATOM     27  C   UNL     1      -4.059  37.182   9.154  1.00  0.00     0.339 C 
ATOM     28  C   UNL     1      -5.151  36.119   9.398  1.00  0.00     0.214 C 
ATOM     29  O   UNL     1      -2.777  36.589   8.999  1.00  0.00    -0.332 OA
ATOM     30  C   UNL     1      -5.142  35.073   8.275  1.00  0.00     0.180 C 
ATOM     31  C   UNL     1      -2.730  35.708   7.884  1.00  0.00     0.179 C 
ATOM     32  C   UNL     1      -3.712  34.528   8.073  1.00  0.00     0.177 C 
BRANCH  28  33
ATOM     33  O   UNL     1      -6.417  36.730   9.461  1.00  0.00    -0.384 OA
ATOM     34  H   UNL     1      -6.269  37.663   9.762  1.00  0.00     0.211 HD
ENDBRANCH  28  33
BRANCH  30  35
ATOM     35  O   UNL     1      -6.041  34.029   8.551  1.00  0.00    -0.387 OA
ATOM     36  H   UNL     1      -6.768  34.396   9.124  1.00  0.00     0.211 HD
ENDBRANCH  30  35
BRANCH  31  37
ATOM     37  C   UNL     1      -1.291  35.204   7.724  1.00  0.00     0.191 C 
BRANCH  37  38
ATOM     38  O   UNL     1      -1.123  34.658   6.446  1.00  0.00    -0.394 OA
ATOM     39  H   UNL     1      -0.145  34.537   6.326  1.00  0.00     0.210 HD
ENDBRANCH  37  38
ENDBRANCH  31  37
BRANCH  32  40
ATOM     40  O   UNL     1      -3.663  33.645   6.978  1.00  0.00    -0.387 OA
ATOM     41  H   UNL     1      -2.709  33.442   6.798  1.00  0.00     0.211 HD
ENDBRANCH  32  40
ENDBRANCH   1  27
TORSDOF 12
ENDMDL
MODEL 4
REMARK VINA RESULT:    -5.079      3.449      6.402
REMARK INTER + INTRA:          -9.231
REMARK INTER:                  -7.456
REMARK INTRA:                  -1.775
REMARK UNBOUND:                -1.776
REMARK SMILES O=c1c(O[C@@H]2O[C@@H](CO)[C@H](O)[C@@H](O)[C@@H]2O)c(-c2ccc(O)c(O)c2)oc2cc(O)cc(O)c12
REMARK SMILES IDX 4 1 3 2 16 3 25 4 2 5 26 6 1 7 33 8 27 9 31 10 28 11 30 12
REMARK SMILES IDX 17 13 18 14 19 15 20 16 24 17 22 18 21 19 23 21 32 23 29 25
REMARK SMILES IDX 5 27 14 28 6 29 12 30 7 31 10 32 15 33 13 35 8 37 9 38 11 40
REMARK H PARENT 21 20 23 22 32 24 29 26 15 34 13 36 9 39 11 41
REMARK Flexibility Score: inf
ROOT
ATOM      1  O   UNL     1      -3.772  37.171   9.713  1.00  0.00    -0.454 OA
ENDROOT
BRANCH   1   2
ATOM      2  C   UNL     1      -4.033  38.545   9.823  1.00  0.00     0.214 A 
ATOM      3  C   UNL     1      -4.608  39.060  11.000  1.00  0.00     0.180 A 
ATOM      4  O   UNL     1      -4.934  40.347  11.074  1.00  0.00    -0.452 OA
ATOM      5  C   UNL     1      -3.725  39.436   8.780  1.00  0.00     0.239 A 
ATOM      6  C   UNL     1      -4.707  41.213  10.093  1.00  0.00     0.146 A 
ATOM      7  O   UNL     1      -3.114  39.014   7.762  1.00  0.00    -0.285 OA
ATOM      8  C   UNL     1      -4.078  40.796   8.896  1.00  0.00     0.111 A 
ATOM      9  C   UNL     1      -5.093  42.545  10.258  1.00  0.00     0.094 A 
ATOM     10  C   UNL     1      -3.836  41.749   7.876  1.00  0.00     0.134 A 
ATOM     11  C   UNL     1      -4.855  43.481   9.246  1.00  0.00     0.123 A 
ATOM     12  C   UNL     1      -4.226  43.082   8.063  1.00  0.00     0.093 A 
BRANCH   3  13
ATOM     13  C   UNL     1      -4.892  38.197  12.166  1.00  0.00     0.025 A 
ATOM     14  C   UNL     1      -6.212  37.942  12.573  1.00  0.00     0.016 A 
ATOM     15  C   UNL     1      -6.461  37.147  13.696  1.00  0.00     0.051 A 
ATOM     16  C   UNL     1      -5.398  36.592  14.419  1.00  0.00     0.157 A 
ATOM     17  C   UNL     1      -3.831  37.618  12.875  1.00  0.00     0.062 A 
ATOM     18  C   UNL     1      -4.074  36.826  14.001  1.00  0.00     0.158 A 
BRANCH  16  19
ATOM     19  O   UNL     1      -5.647  35.807  15.545  1.00  0.00    -0.504 OA
ATOM     20  H   UNL     1      -5.754  36.216  16.466  1.00  0.00     0.293 HD
ENDBRANCH  16  19
BRANCH  18  21
ATOM     21  O   UNL     1      -2.992  36.286  14.693  1.00  0.00    -0.504 OA
ATOM     22  H   UNL     1      -3.000  35.339  15.051  1.00  0.00     0.293 HD
ENDBRANCH  18  21
ENDBRANCH   3  13
BRANCH  10  23
ATOM     23  O   UNL     1      -3.216  41.377   6.682  1.00  0.00    -0.507 OA
ATOM     24  H   UNL     1      -3.217  40.419   6.353  1.00  0.00     0.293 HD
ENDBRANCH  10  23
BRANCH  11  25
ATOM     25  O   UNL     1      -5.238  44.810   9.407  1.00  0.00    -0.508 OA
ATOM     26  H   UNL     1      -4.566  45.528   9.656  1.00  0.00     0.293 HD
ENDBRANCH  11  25
ENDBRANCH   1   2
BRANCH   1  27
ATOM     27  C   UNL     1      -4.799  36.191   9.498  1.00  0.00     0.339 C 
ATOM     28  C   UNL     1      -4.549  35.406   8.193  1.00  0.00     0.214 C 
ATOM     29  O   UNL     1      -4.921  35.322  10.616  1.00  0.00    -0.332 OA
ATOM     30  C   UNL     1      -3.322  34.496   8.341  1.00  0.00     0.180 C 
ATOM     31  C   UNL     1      -3.740  34.561  10.830  1.00  0.00     0.179 C 
ATOM     32  C   UNL     1      -3.450  33.642   9.621  1.00  0.00     0.177 C 
BRANCH  28  33
ATOM     33  O   UNL     1      -4.347  36.296   7.122  1.00  0.00    -0.384 OA
ATOM     34  H   UNL     1      -5.019  36.068   6.431  1.00  0.00     0.211 HD
ENDBRANCH  28  33
BRANCH  30  35
ATOM     35  O   UNL     1      -3.161  33.679   7.209  1.00  0.00    -0.387 OA
ATOM     36  H   UNL     1      -2.349  33.988   6.722  1.00  0.00     0.211 HD
ENDBRANCH  30  35
BRANCH  31  37
ATOM     37  C   UNL     1      -3.917  33.741  12.113  1.00  0.00     0.191 C 
BRANCH  37  38
ATOM     38  O   UNL     1      -2.706  33.697  12.814  1.00  0.00    -0.394 OA
ATOM     39  H   UNL     1      -2.220  34.528  12.573  1.00  0.00     0.210 HD
ENDBRANCH  37  38
ENDBRANCH  31  37
BRANCH  32  40
ATOM     40  O   UNL     1      -2.288  32.876   9.830  1.00  0.00    -0.387 OA
ATOM     41  H   UNL     1      -1.525  33.504   9.917  1.00  0.00     0.211 HD
ENDBRANCH  32  40
ENDBRANCH   1  27
TORSDOF 12
ENDMDL
MODEL 5
REMARK VINA RESULT:    -5.025      2.150      6.533
REMARK INTER + INTRA:          -9.151
REMARK INTER:                  -8.276
REMARK INTRA:                  -0.875
REMARK UNBOUND:                -1.776
REMARK SMILES O=c1c(O[C@@H]2O[C@@H](CO)[C@H](O)[C@@H](O)[C@@H]2O)c(-c2ccc(O)c(O)c2)oc2cc(O)cc(O)c12
REMARK SMILES IDX 4 1 3 2 16 3 25 4 2 5 26 6 1 7 33 8 27 9 31 10 28 11 30 12
REMARK SMILES IDX 17 13 18 14 19 15 20 16 24 17 22 18 21 19 23 21 32 23 29 25
REMARK SMILES IDX 5 27 14 28 6 29 12 30 7 31 10 32 15 33 13 35 8 37 9 38 11 40
REMARK H PARENT 21 20 23 22 32 24 29 26 15 34 13 36 9 39 11 41
REMARK Flexibility Score: inf
ROOT
ATOM      1  O   UNL     1      -2.808  37.968   8.279  1.00  0.00    -0.454 OA
ENDROOT
BRANCH   1   2
ATOM      2  C   UNL     1      -3.607  39.017   8.761  1.00  0.00     0.214 A 
ATOM      3  C   UNL     1      -3.183  40.351   8.612  1.00  0.00     0.180 A 
ATOM      4  O   UNL     1      -3.897  41.339   9.142  1.00  0.00    -0.452 OA
ATOM      5  C   UNL     1      -4.840  38.769   9.388  1.00  0.00     0.239 A 
ATOM      6  C   UNL     1      -5.042  41.145   9.788  1.00  0.00     0.146 A 
ATOM      7  O   UNL     1      -5.289  37.592   9.437  1.00  0.00    -0.285 OA
ATOM      8  C   UNL     1      -5.575  39.843   9.932  1.00  0.00     0.111 A 
ATOM      9  C   UNL     1      -5.719  42.245  10.319  1.00  0.00     0.094 A 
ATOM     10  C   UNL     1      -6.807  39.673  10.611  1.00  0.00     0.134 A 
ATOM     11  C   UNL     1      -6.932  42.072  10.992  1.00  0.00     0.123 A 
ATOM     12  C   UNL     1      -7.473  40.791  11.133  1.00  0.00     0.093 A 
BRANCH   3  13
ATOM     13  C   UNL     1      -1.935  40.692   7.900  1.00  0.00     0.025 A 
ATOM     14  C   UNL     1      -0.683  40.298   8.402  1.00  0.00     0.016 A 
ATOM     15  C   UNL     1       0.490  40.656   7.730  1.00  0.00     0.051 A 
ATOM     16  C   UNL     1       0.426  41.402   6.546  1.00  0.00     0.157 A 
ATOM     17  C   UNL     1      -1.996  41.415   6.700  1.00  0.00     0.062 A 
ATOM     18  C   UNL     1      -0.826  41.779   6.027  1.00  0.00     0.158 A 
BRANCH  16  19
ATOM     19  O   UNL     1       1.597  41.766   5.881  1.00  0.00    -0.504 OA
ATOM     20  H   UNL     1       1.589  42.056   4.909  1.00  0.00     0.293 HD
ENDBRANCH  16  19
BRANCH  18  21
ATOM     21  O   UNL     1      -0.927  42.517   4.848  1.00  0.00    -0.504 OA
ATOM     22  H   UNL     1      -1.655  42.346   4.166  1.00  0.00     0.293 HD
ENDBRANCH  18  21
ENDBRANCH   3  13
BRANCH  10  23
ATOM     23  O   UNL     1      -7.367  38.405  10.772  1.00  0.00    -0.507 OA
ATOM     24  H   UNL     1      -6.974  37.585  10.325  1.00  0.00     0.293 HD
ENDBRANCH  10  23
BRANCH  11  25
ATOM     25  O   UNL     1      -7.610  43.166  11.524  1.00  0.00    -0.508 OA
ATOM     26  H   UNL     1      -8.529  43.067  11.942  1.00  0.00     0.293 HD
ENDBRANCH  11  25
ENDBRANCH   1   2
BRANCH   1  27
ATOM     27  C   UNL     1      -2.651  37.677   6.883  1.00  0.00     0.339 C 
ATOM     28  C   UNL     1      -1.469  36.714   6.649  1.00  0.00     0.214 C 
ATOM     29  O   UNL     1      -3.857  37.170   6.327  1.00  0.00    -0.332 OA
ATOM     30  C   UNL     1      -1.800  35.316   7.189  1.00  0.00     0.180 C 
ATOM     31  C   UNL     1      -4.232  35.929   6.910  1.00  0.00     0.179 C 
ATOM     32  C   UNL     1      -3.163  34.847   6.638  1.00  0.00     0.177 C 
BRANCH  28  33
ATOM     33  O   UNL     1      -0.312  37.202   7.285  1.00  0.00    -0.384 OA
ATOM     34  H   UNL     1      -0.612  37.887   7.936  1.00  0.00     0.211 HD
ENDBRANCH  28  33
BRANCH  30  35
ATOM     35  O   UNL     1      -0.786  34.398   6.866  1.00  0.00    -0.387 OA
ATOM     36  H   UNL     1      -0.341  34.714   6.033  1.00  0.00     0.211 HD
ENDBRANCH  30  35
BRANCH  31  37
ATOM     37  C   UNL     1      -5.592  35.515   6.337  1.00  0.00     0.191 C 
BRANCH  37  38
ATOM     38  O   UNL     1      -5.560  35.602   4.940  1.00  0.00    -0.394 OA
ATOM     39  H   UNL     1      -6.460  35.917   4.664  1.00  0.00     0.210 HD
ENDBRANCH  37  38
ENDBRANCH  31  37
BRANCH  32  40
ATOM     40  O   UNL     1      -3.532  33.612   7.204  1.00  0.00    -0.387 OA
ATOM     41  H   UNL     1      -4.392  33.745   7.681  1.00  0.00     0.211 HD
ENDBRANCH  32  40
ENDBRANCH   1  27
TORSDOF 12
ENDMDL
MODEL 6
REMARK VINA RESULT:    -4.998      1.668      2.532
REMARK INTER + INTRA:          -9.111
REMARK INTER:                  -7.394
REMARK INTRA:                  -1.717
REMARK UNBOUND:                -1.776
REMARK SMILES O=c1c(O[C@@H]2O[C@@H](CO)[C@H](O)[C@@H](O)[C@@H]2O)c(-c2ccc(O)c(O)c2)oc2cc(O)cc(O)c12
REMARK SMILES IDX 4 1 3 2 16 3 25 4 2 5 26 6 1 7 33 8 27 9 31 10 28 11 30 12
REMARK SMILES IDX 17 13 18 14 19 15 20 16 24 17 22 18 21 19 23 21 32 23 29 25
REMARK SMILES IDX 5 27 14 28 6 29 12 30 7 31 10 32 15 33 13 35 8 37 9 38 11 40
REMARK H PARENT 21 20 23 22 32 24 29 26 15 34 13 36 9 39 11 41
REMARK Flexibility Score: inf
ROOT
ATOM      1  O   UNL     1      -1.599  37.585   7.133  1.00  0.00    -0.454 OA
ENDROOT
BRANCH   1   2
ATOM      2  C   UNL     1      -0.561  38.503   6.910  1.00  0.00     0.214 A 
ATOM      3  C   UNL     1      -0.752  39.866   7.206  1.00  0.00     0.180 A 
ATOM      4  O   UNL     1       0.199  40.749   6.916  1.00  0.00    -0.452 OA
ATOM      5  C   UNL     1       0.684  38.094   6.401  1.00  0.00     0.239 A 
ATOM      6  C   UNL     1       1.370  40.412   6.387  1.00  0.00     0.146 A 
ATOM      7  O   UNL     1       0.913  36.866   6.231  1.00  0.00    -0.285 OA
ATOM      8  C   UNL     1       1.672  39.057   6.113  1.00  0.00     0.111 A 
ATOM      9  C   UNL     1       2.305  41.411   6.109  1.00  0.00     0.094 A 
ATOM     10  C   UNL     1       2.936  38.730   5.565  1.00  0.00     0.134 A 
ATOM     11  C   UNL     1       3.550  41.084   5.564  1.00  0.00     0.123 A 
ATOM     12  C   UNL     1       3.863  39.747   5.297  1.00  0.00     0.093 A 
BRANCH   3  13
ATOM     13  C   UNL     1      -2.006  40.360   7.811  1.00  0.00     0.025 A 
ATOM     14  C   UNL     1      -2.810  41.300   7.144  1.00  0.00     0.016 A 
ATOM     15  C   UNL     1      -3.979  41.779   7.745  1.00  0.00     0.051 A 
ATOM     16  C   UNL     1      -4.361  41.319   9.012  1.00  0.00     0.157 A 
ATOM     17  C   UNL     1      -2.406  39.881   9.066  1.00  0.00     0.062 A 
ATOM     18  C   UNL     1      -3.571  40.360   9.672  1.00  0.00     0.158 A 
BRANCH  16  19
ATOM     19  O   UNL     1      -5.523  41.803   9.614  1.00  0.00    -0.504 OA
ATOM     20  H   UNL     1      -5.658  42.793   9.789  1.00  0.00     0.293 HD
ENDBRANCH  16  19
BRANCH  18  21
ATOM     21  O   UNL     1      -3.924  39.876  10.931  1.00  0.00    -0.504 OA
ATOM     22  H   UNL     1      -3.367  40.061  11.755  1.00  0.00     0.293 HD
ENDBRANCH  18  21
ENDBRANCH   3  13
BRANCH  10  23
ATOM     23  O   UNL     1       3.274  37.405   5.283  1.00  0.00    -0.507 OA
ATOM     24  H   UNL     1       4.221  37.060   5.382  1.00  0.00     0.293 HD
ENDBRANCH  10  23
BRANCH  11  25
ATOM     25  O   UNL     1       4.485  42.076   5.284  1.00  0.00    -0.508 OA
ATOM     26  H   UNL     1       4.462  42.595   4.413  1.00  0.00     0.293 HD
ENDBRANCH  11  25
ENDBRANCH   1   2
BRANCH   1  27
ATOM     27  C   UNL     1      -2.495  37.147   6.102  1.00  0.00     0.339 C 
ATOM     28  C   UNL     1      -2.533  35.607   6.020  1.00  0.00     0.214 C 
ATOM     29  O   UNL     1      -3.794  37.694   6.286  1.00  0.00    -0.332 OA
ATOM     30  C   UNL     1      -3.226  35.021   7.258  1.00  0.00     0.180 C 
ATOM     31  C   UNL     1      -4.394  37.246   7.494  1.00  0.00     0.179 C 
ATOM     32  C   UNL     1      -4.588  35.712   7.477  1.00  0.00     0.177 C 
BRANCH  28  33
ATOM     33  O   UNL     1      -1.227  35.094   5.926  1.00  0.00    -0.384 OA
ATOM     34  H   UNL     1      -0.817  35.190   6.823  1.00  0.00     0.211 HD
ENDBRANCH  28  33
BRANCH  30  35
ATOM     35  O   UNL     1      -3.385  33.630   7.135  1.00  0.00    -0.387 OA
ATOM     36  H   UNL     1      -3.585  33.264   8.039  1.00  0.00     0.211 HD
ENDBRANCH  30  35
BRANCH  31  37
ATOM     37  C   UNL     1      -5.735  37.967   7.666  1.00  0.00     0.191 C 
BRANCH  37  38
ATOM     38  O   UNL     1      -5.856  38.974   6.700  1.00  0.00    -0.394 OA
ATOM     39  H   UNL     1      -6.830  39.124   6.582  1.00  0.00     0.210 HD
ENDBRANCH  37  38
ENDBRANCH  31  37
BRANCH  32  40
ATOM     40  O   UNL     1      -5.192  35.262   8.666  1.00  0.00    -0.387 OA
ATOM     41  H   UNL     1      -6.033  34.797   8.419  1.00  0.00     0.211 HD
ENDBRANCH  32  40
ENDBRANCH   1  27
TORSDOF 12
ENDMDL
MODEL 7
REMARK VINA RESULT:    -4.957      3.899      6.842
REMARK INTER + INTRA:          -9.051
REMARK INTER:                  -7.042
REMARK INTRA:                  -2.010
REMARK UNBOUND:                -1.776
REMARK SMILES O=c1c(O[C@@H]2O[C@@H](CO)[C@H](O)[C@@H](O)[C@@H]2O)c(-c2ccc(O)c(O)c2)oc2cc(O)cc(O)c12
REMARK SMILES IDX 4 1 3 2 16 3 25 4 2 5 26 6 1 7 33 8 27 9 31 10 28 11 30 12
REMARK SMILES IDX 17 13 18 14 19 15 20 16 24 17 22 18 21 19 23 21 32 23 29 25
REMARK SMILES IDX 5 27 14 28 6 29 12 30 7 31 10 32 15 33 13 35 8 37 9 38 11 40
REMARK H PARENT 21 20 23 22 32 24 29 26 15 34 13 36 9 39 11 41
REMARK Flexibility Score: inf
ROOT
ATOM      1  O   UNL     1      -4.632  36.408  10.261  1.00  0.00    -0.454 OA
ENDROOT
BRANCH   1   2
ATOM      2  C   UNL     1      -4.719  36.808  11.604  1.00  0.00     0.214 A 
ATOM      3  C   UNL     1      -5.138  38.113  11.924  1.00  0.00     0.180 A 
ATOM      4  O   UNL     1      -5.139  38.520  13.189  1.00  0.00    -0.452 OA
ATOM      5  C   UNL     1      -4.402  35.927  12.652  1.00  0.00     0.239 A 
ATOM      6  C   UNL     1      -4.799  37.737  14.206  1.00  0.00     0.146 A 
ATOM      7  O   UNL     1      -4.128  34.724  12.394  1.00  0.00    -0.285 OA
ATOM      8  C   UNL     1      -4.422  36.391  13.984  1.00  0.00     0.111 A 
ATOM      9  C   UNL     1      -4.821  38.255  15.503  1.00  0.00     0.094 A 
ATOM     10  C   UNL     1      -4.081  35.578  15.092  1.00  0.00     0.134 A 
ATOM     11  C   UNL     1      -4.480  37.450  16.593  1.00  0.00     0.123 A 
ATOM     12  C   UNL     1      -4.114  36.116  16.386  1.00  0.00     0.093 A 
BRANCH   3  13
ATOM     13  C   UNL     1      -5.557  39.070  10.879  1.00  0.00     0.025 A 
ATOM     14  C   UNL     1      -6.780  38.917  10.204  1.00  0.00     0.016 A 
ATOM     15  C   UNL     1      -7.146  39.816   9.198  1.00  0.00     0.051 A 
ATOM     16  C   UNL     1      -6.302  40.881   8.860  1.00  0.00     0.157 A 
ATOM     17  C   UNL     1      -4.727  40.153  10.558  1.00  0.00     0.062 A 
ATOM     18  C   UNL     1      -5.087  41.052   9.549  1.00  0.00     0.158 A 
BRANCH  16  19
ATOM     19  O   UNL     1      -6.664  41.772   7.850  1.00  0.00    -0.504 OA
ATOM     20  H   UNL     1      -7.101  41.455   6.992  1.00  0.00     0.293 HD
ENDBRANCH  16  19
BRANCH  18  21
ATOM     21  O   UNL     1      -4.224  42.104   9.243  1.00  0.00    -0.504 OA
ATOM     22  H   UNL     1      -3.258  41.950   8.983  1.00  0.00     0.293 HD
ENDBRANCH  18  21
ENDBRANCH   3  13
BRANCH  10  23
ATOM     23  O   UNL     1      -3.706  34.245  14.914  1.00  0.00    -0.507 OA
ATOM     24  H   UNL     1      -2.831  33.989  14.471  1.00  0.00     0.293 HD
ENDBRANCH  10  23
BRANCH  11  25
ATOM     25  O   UNL     1      -4.502  37.962  17.888  1.00  0.00    -0.508 OA
ATOM     26  H   UNL     1      -4.324  38.944  18.071  1.00  0.00     0.293 HD
ENDBRANCH  11  25
ENDBRANCH   1   2
BRANCH   1  27
ATOM     27  C   UNL     1      -3.461  36.606   9.456  1.00  0.00     0.339 C 
ATOM     28  C   UNL     1      -2.964  35.270   8.865  1.00  0.00     0.214 C 
ATOM     29  O   UNL     1      -3.693  37.573   8.441  1.00  0.00    -0.332 OA
ATOM     30  C   UNL     1      -3.947  34.755   7.804  1.00  0.00     0.180 C 
ATOM     31  C   UNL     1      -4.690  37.151   7.521  1.00  0.00     0.179 C 
ATOM     32  C   UNL     1      -4.248  35.869   6.779  1.00  0.00     0.177 C 
BRANCH  28  33
ATOM     33  O   UNL     1      -2.827  34.310   9.884  1.00  0.00    -0.384 OA
ATOM     34  H   UNL     1      -3.526  33.624   9.726  1.00  0.00     0.211 HD
ENDBRANCH  28  33
BRANCH  30  35
ATOM     35  O   UNL     1      -3.443  33.609   7.165  1.00  0.00    -0.387 OA
ATOM     36  H   UNL     1      -3.461  32.861   7.821  1.00  0.00     0.211 HD
ENDBRANCH  30  35
BRANCH  31  37
ATOM     37  C   UNL     1      -4.956  38.293   6.534  1.00  0.00     0.191 C 
BRANCH  37  38
ATOM     38  O   UNL     1      -6.287  38.242   6.102  1.00  0.00    -0.394 OA
ATOM     39  H   UNL     1      -6.793  38.847   6.704  1.00  0.00     0.210 HD
ENDBRANCH  37  38
ENDBRANCH  31  37
BRANCH  32  40
ATOM     40  O   UNL     1      -5.226  35.450   5.857  1.00  0.00    -0.387 OA
ATOM     41  H   UNL     1      -4.797  35.405   4.963  1.00  0.00     0.211 HD
ENDBRANCH  32  40
ENDBRANCH   1  27
TORSDOF 12
ENDMDL
MODEL 8
REMARK VINA RESULT:    -4.951      4.051      6.146
REMARK INTER + INTRA:          -9.042
REMARK INTER:                  -7.017
REMARK INTRA:                  -2.024
REMARK UNBOUND:                -1.776
REMARK SMILES O=c1c(O[C@@H]2O[C@@H](CO)[C@H](O)[C@@H](O)[C@@H]2O)c(-c2ccc(O)c(O)c2)oc2cc(O)cc(O)c12
REMARK SMILES IDX 4 1 3 2 16 3 25 4 2 5 26 6 1 7 33 8 27 9 31 10 28 11 30 12
REMARK SMILES IDX 17 13 18 14 19 15 20 16 24 17 22 18 21 19 23 21 32 23 29 25
REMARK SMILES IDX 5 27 14 28 6 29 12 30 7 31 10 32 15 33 13 35 8 37 9 38 11 40
REMARK H PARENT 21 20 23 22 32 24 29 26 15 34 13 36 9 39 11 41
REMARK Flexibility Score: inf
ROOT
ATOM      1  O   UNL     1      -5.748  37.801  12.896  1.00  0.00    -0.454 OA
ENDROOT
BRANCH   1   2
ATOM      2  C   UNL     1      -4.921  37.127  11.983  1.00  0.00     0.214 A 
ATOM      3  C   UNL     1      -4.760  37.628  10.678  1.00  0.00     0.180 A 
ATOM      4  O   UNL     1      -4.047  36.946   9.787  1.00  0.00    -0.452 OA
ATOM      5  C   UNL     1      -4.234  35.955  12.343  1.00  0.00     0.239 A 
ATOM      6  C   UNL     1      -3.423  35.808  10.070  1.00  0.00     0.146 A 
ATOM      7  O   UNL     1      -4.279  35.548  13.536  1.00  0.00    -0.285 OA
ATOM      8  C   UNL     1      -3.480  35.262  11.374  1.00  0.00     0.111 A 
ATOM      9  C   UNL     1      -2.703  35.157   9.066  1.00  0.00     0.094 A 
ATOM     10  C   UNL     1      -2.789  34.056  11.647  1.00  0.00     0.134 A 
ATOM     11  C   UNL     1      -2.027  33.965   9.339  1.00  0.00     0.123 A 
ATOM     12  C   UNL     1      -2.069  33.420  10.627  1.00  0.00     0.093 A 
BRANCH   3  13
ATOM     13  C   UNL     1      -5.392  38.893  10.250  1.00  0.00     0.025 A 
ATOM     14  C   UNL     1      -6.556  38.891   9.462  1.00  0.00     0.016 A 
ATOM     15  C   UNL     1      -7.124  40.097   9.041  1.00  0.00     0.051 A 
ATOM     16  C   UNL     1      -6.542  41.318   9.407  1.00  0.00     0.157 A 
ATOM     17  C   UNL     1      -4.829  40.116  10.638  1.00  0.00     0.062 A 
ATOM     18  C   UNL     1      -5.389  41.325  10.215  1.00  0.00     0.158 A 
BRANCH  16  19
ATOM     19  O   UNL     1      -7.104  42.521   8.979  1.00  0.00    -0.504 OA
ATOM     20  H   UNL     1      -6.947  43.388   9.480  1.00  0.00     0.293 HD
ENDBRANCH  16  19
BRANCH  18  21
ATOM     21  O   UNL     1      -4.787  42.521  10.603  1.00  0.00    -0.504 OA
ATOM     22  H   UNL     1      -4.680  42.779  11.576  1.00  0.00     0.293 HD
ENDBRANCH  18  21
ENDBRANCH   3  13
BRANCH  10  23
ATOM     23  O   UNL     1      -2.819  33.486  12.922  1.00  0.00    -0.507 OA
ATOM     24  H   UNL     1      -3.246  33.958  13.710  1.00  0.00     0.293 HD
ENDBRANCH  10  23
BRANCH  11  25
ATOM     25  O   UNL     1      -1.308  33.313   8.341  1.00  0.00    -0.508 OA
ATOM     26  H   UNL     1      -0.488  33.734   7.918  1.00  0.00     0.293 HD
ENDBRANCH  11  25
ENDBRANCH   1   2
BRANCH   1  27
ATOM     27  C   UNL     1      -7.048  37.328  13.276  1.00  0.00     0.339 C 
ATOM     28  C   UNL     1      -7.231  37.384  14.807  1.00  0.00     0.214 C 
ATOM     29  O   UNL     1      -8.072  38.044  12.600  1.00  0.00    -0.332 OA
ATOM     30  C   UNL     1      -7.315  38.840  15.284  1.00  0.00     0.180 C 
ATOM     31  C   UNL     1      -8.078  39.422  12.950  1.00  0.00     0.179 C 
ATOM     32  C   UNL     1      -8.368  39.607  14.457  1.00  0.00     0.177 C 
BRANCH  28  33
ATOM     33  O   UNL     1      -6.156  36.740  15.448  1.00  0.00    -0.384 OA
ATOM     34  H   UNL     1      -6.525  36.315  16.264  1.00  0.00     0.211 HD
ENDBRANCH  28  33
BRANCH  30  35
ATOM     35  O   UNL     1      -7.612  38.905  16.656  1.00  0.00    -0.387 OA
ATOM     36  H   UNL     1      -6.840  39.332  17.117  1.00  0.00     0.211 HD
ENDBRANCH  30  35
BRANCH  31  37
ATOM     37  C   UNL     1      -9.132  40.135  12.096  1.00  0.00     0.191 C 
BRANCH  37  38
ATOM     38  O   UNL     1      -8.799  41.490  11.971  1.00  0.00    -0.394 OA
ATOM     39  H   UNL     1      -7.951  41.517  11.456  1.00  0.00     0.210 HD
ENDBRANCH  37  38
ENDBRANCH  31  37
BRANCH  32  40
ATOM     40  O   UNL     1      -8.386  40.970  14.809  1.00  0.00    -0.387 OA
ATOM     41  H   UNL     1      -7.591  41.397  14.397  1.00  0.00     0.211 HD
ENDBRANCH  32  40
ENDBRANCH   1  27
TORSDOF 12
ENDMDL
MODEL 9
REMARK VINA RESULT:    -4.923      3.037      5.469
REMARK INTER + INTRA:          -9.001
REMARK INTER:                  -6.967
REMARK INTRA:                  -2.034
REMARK UNBOUND:                -1.776
REMARK SMILES O=c1c(O[C@@H]2O[C@@H](CO)[C@H](O)[C@@H](O)[C@@H]2O)c(-c2ccc(O)c(O)c2)oc2cc(O)cc(O)c12
REMARK SMILES IDX 4 1 3 2 16 3 25 4 2 5 26 6 1 7 33 8 27 9 31 10 28 11 30 12
REMARK SMILES IDX 17 13 18 14 19 15 20 16 24 17 22 18 21 19 23 21 32 23 29 25
REMARK SMILES IDX 5 27 14 28 6 29 12 30 7 31 10 32 15 33 13 35 8 37 9 38 11 40
REMARK H PARENT 21 20 23 22 32 24 29 26 15 34 13 36 9 39 11 41
REMARK Flexibility Score: inf
ROOT
ATOM      1  O   UNL     1      -4.758  37.835   9.822  1.00  0.00    -0.454 OA
ENDROOT
BRANCH   1   2
ATOM      2  C   UNL     1      -3.848  37.068   9.078  1.00  0.00     0.214 A 
ATOM      3  C   UNL     1      -3.554  35.749   9.470  1.00  0.00     0.180 A 
ATOM      4  O   UNL     1      -2.630  35.051   8.818  1.00  0.00    -0.452 OA
ATOM      5  C   UNL     1      -3.218  37.585   7.933  1.00  0.00     0.239 A 
ATOM      6  C   UNL     1      -1.975  35.519   7.761  1.00  0.00     0.146 A 
ATOM      7  O   UNL     1      -3.545  38.724   7.503  1.00  0.00    -0.285 OA
ATOM      8  C   UNL     1      -2.248  36.813   7.260  1.00  0.00     0.111 A 
ATOM      9  C   UNL     1      -1.013  34.715   7.145  1.00  0.00     0.094 A 
ATOM     10  C   UNL     1      -1.543  37.275   6.122  1.00  0.00     0.134 A 
ATOM     11  C   UNL     1      -0.317  35.177   6.024  1.00  0.00     0.123 A 
ATOM     12  C   UNL     1      -0.585  36.451   5.515  1.00  0.00     0.093 A 
BRANCH   3  13
ATOM     13  C   UNL     1      -4.231  35.113  10.620  1.00  0.00     0.025 A 
ATOM     14  C   UNL     1      -5.525  34.581  10.494  1.00  0.00     0.016 A 
ATOM     15  C   UNL     1      -6.162  34.010  11.601  1.00  0.00     0.051 A 
ATOM     16  C   UNL     1      -5.512  33.956  12.840  1.00  0.00     0.157 A 
ATOM     17  C   UNL     1      -3.572  35.032  11.854  1.00  0.00     0.062 A 
ATOM     18  C   UNL     1      -4.206  34.467  12.964  1.00  0.00     0.158 A 
BRANCH  16  19
ATOM     19  O   UNL     1      -6.151  33.394  13.946  1.00  0.00    -0.504 OA
ATOM     20  H   UNL     1      -6.817  32.636  13.846  1.00  0.00     0.293 HD
ENDBRANCH  16  19
BRANCH  18  21
ATOM     21  O   UNL     1      -3.527  34.425  14.181  1.00  0.00    -0.504 OA
ATOM     22  H   UNL     1      -2.804  33.742  14.371  1.00  0.00     0.293 HD
ENDBRANCH  18  21
ENDBRANCH   3  13
BRANCH  10  23
ATOM     23  O   UNL     1      -1.786  38.546   5.596  1.00  0.00    -0.507 OA
ATOM     24  H   UNL     1      -1.161  39.324   5.766  1.00  0.00     0.293 HD
ENDBRANCH  10  23
BRANCH  11  25
ATOM     25  O   UNL     1       0.642  34.379   5.407  1.00  0.00    -0.508 OA
ATOM     26  H   UNL     1       1.622  34.432   5.666  1.00  0.00     0.293 HD
ENDBRANCH  11  25
ENDBRANCH   1   2
BRANCH   1  27
ATOM     27  C   UNL     1      -4.355  38.774  10.830  1.00  0.00     0.339 C 
ATOM     28  C   UNL     1      -5.002  40.154  10.590  1.00  0.00     0.214 C 
ATOM     29  O   UNL     1      -4.639  38.283  12.132  1.00  0.00    -0.332 OA
ATOM     30  C   UNL     1      -6.512  40.092  10.856  1.00  0.00     0.180 C 
ATOM     31  C   UNL     1      -6.034  38.109  12.343  1.00  0.00     0.179 C 
ATOM     32  C   UNL     1      -6.779  39.460  12.239  1.00  0.00     0.177 C 
BRANCH  28  33
ATOM     33  O   UNL     1      -4.775  40.573   9.266  1.00  0.00    -0.384 OA
ATOM     34  H   UNL     1      -3.860  40.953   9.239  1.00  0.00     0.211 HD
ENDBRANCH  28  33
BRANCH  30  35
ATOM     35  O   UNL     1      -7.093  41.369  10.769  1.00  0.00    -0.387 OA
ATOM     36  H   UNL     1      -6.425  41.980  10.353  1.00  0.00     0.211 HD
ENDBRANCH  30  35
BRANCH  31  37
ATOM     37  C   UNL     1      -6.241  37.473  13.722  1.00  0.00     0.191 C 
BRANCH  37  38
ATOM     38  O   UNL     1      -6.475  38.475  14.672  1.00  0.00    -0.394 OA
ATOM     39  H   UNL     1      -6.398  38.035  15.559  1.00  0.00     0.210 HD
ENDBRANCH  37  38
ENDBRANCH  31  37
BRANCH  32  40
ATOM     40  O   UNL     1      -8.160  39.299  12.458  1.00  0.00    -0.387 OA
ATOM     41  H   UNL     1      -8.275  38.584  13.136  1.00  0.00     0.211 HD
ENDBRANCH  32  40
ENDBRANCH   1  27
TORSDOF 12
ENDMDL
