MODEL 1
REMARK VINA RESULT:    37.435      0.000      0.000
REMARK INTER + INTRA:          43.733
REMARK INTER:                  44.000
REMARK INTRA:                  -0.267
REMARK UNBOUND:                -0.267
REMARK SMILES O=c1cc(-c2ccc(O)c(O)c2)oc2cc(O)cc(O)c12
REMARK SMILES IDX 4 1 3 2 2 3 1 4 21 5 19 6 18 7 16 8 15 9 14 10 13 11 5 12
REMARK SMILES IDX 6 13 7 14 8 15 12 16 10 17 9 18 11 20 20 22 17 24
REMARK H PARENT 9 19 11 21 20 23 17 25
REMARK Flexibility Score: inf
ROOT
ATOM      1  C   UNL     1      -2.255  -0.507   2.643  1.00  0.00     0.138 A 
ATOM      2  C   UNL     1      -3.158   0.136   3.502  1.00  0.00     0.100 A 
ATOM      3  C   UNL     1      -4.529   0.038   3.261  1.00  0.00     0.197 A 
ATOM      4  O   UNL     1      -5.316   0.574   4.083  1.00  0.00    -0.289 OA
ATOM      5  C   UNL     1      -4.995  -0.683   2.135  1.00  0.00     0.107 A 
ATOM      6  C   UNL     1      -6.369  -0.815   1.768  1.00  0.00     0.134 A 
ATOM      7  C   UNL     1      -6.719  -1.650   0.699  1.00  0.00     0.093 A 
ATOM      8  C   UNL     1      -5.742  -2.308  -0.052  1.00  0.00     0.123 A 
ATOM      9  C   UNL     1      -4.396  -2.142   0.266  1.00  0.00     0.094 A 
ATOM     10  C   UNL     1      -4.016  -1.344   1.347  1.00  0.00     0.146 A 
ATOM     11  O   UNL     1      -2.722  -1.223   1.625  1.00  0.00    -0.456 OA
ENDROOT
BRANCH   1  12
ATOM     12  C   UNL     1      -0.787  -0.435   2.853  1.00  0.00     0.021 A 
ATOM     13  C   UNL     1       0.013   0.231   1.912  1.00  0.00     0.016 A 
ATOM     14  C   UNL     1       1.395   0.318   2.089  1.00  0.00     0.051 A 
ATOM     15  C   UNL     1       2.008  -0.247   3.213  1.00  0.00     0.157 A 
ATOM     16  C   UNL     1      -0.174  -0.991   3.991  1.00  0.00     0.062 A 
ATOM     17  C   UNL     1       1.212  -0.905   4.179  1.00  0.00     0.158 A 
BRANCH  15  18
ATOM     18  O   UNL     1       3.394  -0.129   3.329  1.00  0.00    -0.504 OA
ATOM     19  H   UNL     1       4.049  -0.484   2.648  1.00  0.00     0.293 HD
ENDBRANCH  15  18
BRANCH  17  20
ATOM     20  O   UNL     1       1.750  -1.480   5.333  1.00  0.00    -0.504 OA
ATOM     21  H   UNL     1       2.579  -2.056   5.344  1.00  0.00     0.293 HD
ENDBRANCH  17  20
ENDBRANCH   1  12
BRANCH   6  22
ATOM     22  O   UNL     1      -7.415  -0.135   2.398  1.00  0.00    -0.507 OA
ATOM     23  H   UNL     1      -8.374  -0.138   2.088  1.00  0.00     0.293 HD
ENDBRANCH   6  22
BRANCH   8  24
ATOM     24  O   UNL     1      -6.099  -3.125  -1.122  1.00  0.00    -0.508 OA
ATOM     25  H   UNL     1      -5.892  -4.117  -1.124  1.00  0.00     0.293 HD
ENDBRANCH   8  24
TORSDOF 5
ENDMDL
MODEL 2
REMARK VINA RESULT:    40.421      3.747      6.507
REMARK INTER + INTRA:          47.244
REMARK INTER:                  47.531
REMARK INTRA:                  -0.287
REMARK UNBOUND:                -0.267
REMARK SMILES O=c1cc(-c2ccc(O)c(O)c2)oc2cc(O)cc(O)c12
REMARK SMILES IDX 4 1 3 2 2 3 1 4 21 5 19 6 18 7 16 8 15 9 14 10 13 11 5 12
REMARK SMILES IDX 6 13 7 14 8 15 12 16 10 17 9 18 11 20 20 22 17 24
REMARK H PARENT 9 19 11 21 20 23 17 25
REMARK Flexibility Score: inf
ROOT
ATOM      1  C   UNL     1      -5.625   1.803   2.213  1.00  0.00     0.138 A 
ATOM      2  C   UNL     1      -5.021   1.368   3.400  1.00  0.00     0.100 A 
ATOM      3  C   UNL     1      -4.532   0.064   3.489  1.00  0.00     0.197 A 
ATOM      4  O   UNL     1      -3.940  -0.278   4.545  1.00  0.00    -0.289 OA
ATOM      5  C   UNL     1      -4.679  -0.818   2.392  1.00  0.00     0.107 A 
ATOM      6  C   UNL     1      -4.256  -2.182   2.384  1.00  0.00     0.134 A 
ATOM      7  C   UNL     1      -4.348  -2.925   1.201  1.00  0.00     0.093 A 
ATOM      8  C   UNL     1      -4.903  -2.373   0.044  1.00  0.00     0.123 A 
ATOM      9  C   UNL     1      -5.367  -1.060   0.058  1.00  0.00     0.094 A 
ATOM     10  C   UNL     1      -5.259  -0.282   1.212  1.00  0.00     0.146 A 
ATOM     11  O   UNL     1      -5.701   0.972   1.178  1.00  0.00    -0.456 OA
ENDROOT
BRANCH   1  12
ATOM     12  C   UNL     1      -6.162   3.179   2.064  1.00  0.00     0.021 A 
ATOM     13  C   UNL     1      -6.135   3.799   0.805  1.00  0.00     0.016 A 
ATOM     14  C   UNL     1      -6.640   5.090   0.639  1.00  0.00     0.051 A 
ATOM     15  C   UNL     1      -7.192   5.786   1.719  1.00  0.00     0.157 A 
ATOM     16  C   UNL     1      -6.730   3.873   3.149  1.00  0.00     0.062 A 
ATOM     17  C   UNL     1      -7.242   5.168   2.990  1.00  0.00     0.158 A 
BRANCH  15  18
ATOM     18  O   UNL     1      -7.674   7.076   1.487  1.00  0.00    -0.504 OA
ATOM     19  H   UNL     1      -7.609   7.831   2.152  1.00  0.00     0.293 HD
ENDBRANCH  15  18
BRANCH  17  20
ATOM     20  O   UNL     1      -7.791   5.793   4.112  1.00  0.00    -0.504 OA
ATOM     21  H   UNL     1      -7.678   5.458   5.057  1.00  0.00     0.293 HD
ENDBRANCH  17  20
ENDBRANCH   1  12
BRANCH   6  22
ATOM     22  O   UNL     1      -3.767  -2.854   3.508  1.00  0.00    -0.507 OA
ATOM     23  H   UNL     1      -3.011  -2.531   4.090  1.00  0.00     0.293 HD
ENDBRANCH   6  22
BRANCH   8  24
ATOM     24  O   UNL     1      -5.004  -3.125  -1.125  1.00  0.00    -0.508 OA
ATOM     25  H   UNL     1      -5.016  -4.138  -1.104  1.00  0.00     0.293 HD
ENDBRANCH   8  24
TORSDOF 5
ENDMDL
