MODEL 1
REMARK VINA RESULT:     6.653      0.000      0.000
REMARK INTER + INTRA:          16.422
REMARK INTER:                  17.544
REMARK INTRA:                  -1.122
REMARK UNBOUND:                -1.122
REMARK SMILES CCCCCCCCCCCCCCCCCCCCCCCCCCCCCC(=O)[O-]
REMARK SMILES IDX 16 1 17 2 18 3 19 4 20 5 21 6 22 7 23 8 24 9 25 10 26 11
REMARK SMILES IDX 27 12 28 13 29 14 30 15 31 16 32 17 15 18 14 19 13 20 12 21
REMARK SMILES IDX 11 22 10 23 9 24 8 25 7 26 6 27 5 28 4 29 3 30 2 31 1 32
REMARK H PARENT
REMARK Flexibility Score: inf
ROOT
ATOM      1  C   UNL     1       1.409  60.152  -6.779  1.00  0.00     0.000 C 
ENDROOT
BRANCH   1   2
ATOM      2  C   UNL     1       2.758  59.818  -7.440  1.00  0.00     0.000 C 
BRANCH   2   3
ATOM      3  C   UNL     1       3.711  61.023  -7.495  1.00  0.00     0.000 C 
BRANCH   3   4
ATOM      4  C   UNL     1       3.031  62.298  -8.021  1.00  0.00     0.000 C 
BRANCH   4   5
ATOM      5  C   UNL     1       2.385  63.128  -6.901  1.00  0.00     0.000 C 
BRANCH   5   6
ATOM      6  C   UNL     1       2.551  64.644  -7.106  1.00  0.00     0.000 C 
BRANCH   6   7
ATOM      7  C   UNL     1       3.185  65.342  -5.890  1.00  0.00     0.000 C 
BRANCH   7   8
ATOM      8  C   UNL     1       2.561  66.703  -5.522  1.00  0.00     0.000 C 
BRANCH   8   9
ATOM      9  C   UNL     1       1.071  66.859  -5.885  1.00  0.00     0.000 C 
BRANCH   9  10
ATOM     10  C   UNL     1       0.637  68.292  -6.244  1.00  0.00     0.000 C 
BRANCH  10  11
ATOM     11  C   UNL     1      -0.063  69.007  -5.079  1.00  0.00     0.000 C 
BRANCH  11  12
ATOM     12  C   UNL     1      -1.062  70.053  -5.589  1.00  0.00     0.000 C 
BRANCH  12  13
ATOM     13  C   UNL     1      -2.161  69.393  -6.435  1.00  0.00     0.006 C 
BRANCH  13  14
ATOM     14  C   UNL     1      -3.481  69.252  -5.666  1.00  0.00     0.053 C 
BRANCH  14  15
ATOM     15  C   UNL     1      -4.594  70.016  -6.317  1.00  0.00     0.041 C 
ATOM     16  O   UNL     1      -5.122  70.994  -5.722  1.00  0.00    -0.550 OA
ATOM     17  O   UNL     1      -5.053  69.650  -7.578  1.00  0.00    -0.550 OA
ENDBRANCH  14  15
ENDBRANCH  13  14
ENDBRANCH  12  13
ENDBRANCH  11  12
ENDBRANCH  10  11
ENDBRANCH   9  10
ENDBRANCH   8   9
ENDBRANCH   7   8
ENDBRANCH   6   7
ENDBRANCH   5   6
ENDBRANCH   4   5
ENDBRANCH   3   4
ENDBRANCH   2   3
ENDBRANCH   1   2
BRANCH   1  18
ATOM     18  C   UNL     1       0.515  58.904  -6.666  1.00  0.00     0.000 C 
BRANCH  18  19
ATOM     19  C   UNL     1      -0.623  58.912  -7.704  1.00  0.00     0.000 C 
BRANCH  19  20
ATOM     20  C   UNL     1      -2.015  58.878  -7.055  1.00  0.00     0.000 C 
BRANCH  20  21
ATOM     21  C   UNL     1      -3.114  59.320  -8.039  1.00  0.00     0.000 C 
BRANCH  21  22
ATOM     22  C   UNL     1      -3.738  60.675  -7.670  1.00  0.00     0.000 C 
BRANCH  22  23
ATOM     23  C   UNL     1      -4.641  60.590  -6.426  1.00  0.00     0.000 C 
BRANCH  23  24
ATOM     24  C   UNL     1      -3.840  60.826  -5.139  1.00  0.00    -0.000 C 
BRANCH  24  25
ATOM     25  C   UNL     1      -3.526  59.497  -4.431  1.00  0.00    -0.000 C 
BRANCH  25  26
ATOM     26  C   UNL     1      -2.068  59.414  -3.955  1.00  0.00    -0.000 C 
BRANCH  26  27
ATOM     27  C   UNL     1      -1.516  60.771  -3.488  1.00  0.00    -0.000 C 
BRANCH  27  28
ATOM     28  C   UNL     1       0.006  60.876  -3.687  1.00  0.00    -0.000 C 
BRANCH  28  29
ATOM     29  C   UNL     1       0.787  60.181  -2.557  1.00  0.00    -0.000 C 
BRANCH  29  30
ATOM     30  C   UNL     1       0.532  60.827  -1.186  1.00  0.00    -0.000 C 
BRANCH  30  31
ATOM     31  C   UNL     1       1.697  61.726  -0.737  1.00  0.00    -0.003 C 
ATOM     32  C   UNL     1       1.499  62.218   0.693  1.00  0.00     0.004 C 
ENDBRANCH  30  31
ENDBRANCH  29  30
ENDBRANCH  28  29
ENDBRANCH  27  28
ENDBRANCH  26  27
ENDBRANCH  25  26
ENDBRANCH  24  25
ENDBRANCH  23  24
ENDBRANCH  22  23
ENDBRANCH  21  22
ENDBRANCH  20  21
ENDBRANCH  19  20
ENDBRANCH  18  19
ENDBRANCH   1  18
TORSDOF 28
ENDMDL
MODEL 2
REMARK VINA RESULT:     7.319      1.455      1.808
REMARK INTER + INTRA:          18.178
REMARK INTER:                  19.545
REMARK INTRA:                  -1.367
REMARK UNBOUND:                -1.122
REMARK SMILES CCCCCCCCCCCCCCCCCCCCCCCCCCCCCC(=O)[O-]
REMARK SMILES IDX 16 1 17 2 18 3 19 4 20 5 21 6 22 7 23 8 24 9 25 10 26 11
REMARK SMILES IDX 27 12 28 13 29 14 30 15 31 16 32 17 15 18 14 19 13 20 12 21
REMARK SMILES IDX 11 22 10 23 9 24 8 25 7 26 6 27 5 28 4 29 3 30 2 31 1 32
REMARK H PARENT
REMARK Flexibility Score: inf
ROOT
ATOM      1  C   UNL     1       1.554  60.146  -6.643  1.00  0.00     0.000 C 
ENDROOT
BRANCH   1   2
ATOM      2  C   UNL     1       2.935  59.838  -7.248  1.00  0.00     0.000 C 
BRANCH   2   3
ATOM      3  C   UNL     1       3.885  61.046  -7.215  1.00  0.00     0.000 C 
BRANCH   3   4
ATOM      4  C   UNL     1       3.322  62.268  -7.960  1.00  0.00     0.000 C 
BRANCH   4   5
ATOM      5  C   UNL     1       2.523  63.204  -7.039  1.00  0.00     0.000 C 
BRANCH   5   6
ATOM      6  C   UNL     1       2.789  64.693  -7.322  1.00  0.00     0.000 C 
BRANCH   6   7
ATOM      7  C   UNL     1       3.003  65.512  -6.036  1.00  0.00     0.000 C 
BRANCH   7   8
ATOM      8  C   UNL     1       2.276  66.872  -6.003  1.00  0.00     0.000 C 
BRANCH   8   9
ATOM      9  C   UNL     1       1.095  67.007  -6.985  1.00  0.00     0.000 C 
BRANCH   9  10
ATOM     10  C   UNL     1       0.332  68.342  -6.904  1.00  0.00     0.000 C 
BRANCH  10  11
ATOM     11  C   UNL     1      -0.801  68.314  -5.868  1.00  0.00     0.000 C 
BRANCH  11  12
ATOM     12  C   UNL     1      -2.086  68.929  -6.434  1.00  0.00     0.000 C 
BRANCH  12  13
ATOM     13  C   UNL     1      -2.593  70.065  -5.534  1.00  0.00     0.006 C 
BRANCH  13  14
ATOM     14  C   UNL     1      -1.496  70.604  -4.606  1.00  0.00     0.053 C 
BRANCH  14  15
ATOM     15  C   UNL     1      -1.544  69.964  -3.251  1.00  0.00     0.041 C 
ATOM     16  O   UNL     1      -2.603  69.409  -2.851  1.00  0.00    -0.550 OA
ATOM     17  O   UNL     1      -0.423  69.981  -2.427  1.00  0.00    -0.550 OA
ENDBRANCH  14  15
ENDBRANCH  13  14
ENDBRANCH  12  13
ENDBRANCH  11  12
ENDBRANCH  10  11
ENDBRANCH   9  10
ENDBRANCH   8   9
ENDBRANCH   7   8
ENDBRANCH   6   7
ENDBRANCH   5   6
ENDBRANCH   4   5
ENDBRANCH   3   4
ENDBRANCH   2   3
ENDBRANCH   1   2
BRANCH   1  18
ATOM     18  C   UNL     1       0.659  58.894  -6.620  1.00  0.00     0.000 C 
BRANCH  18  19
ATOM     19  C   UNL     1      -0.416  58.931  -7.722  1.00  0.00     0.000 C 
BRANCH  19  20
ATOM     20  C   UNL     1      -1.844  58.882  -7.157  1.00  0.00     0.000 C 
BRANCH  20  21
ATOM     21  C   UNL     1      -2.862  59.517  -8.123  1.00  0.00     0.000 C 
BRANCH  21  22
ATOM     22  C   UNL     1      -3.542  60.766  -7.540  1.00  0.00     0.000 C 
BRANCH  22  23
ATOM     23  C   UNL     1      -4.648  60.417  -6.527  1.00  0.00     0.000 C 
BRANCH  23  24
ATOM     24  C   UNL     1      -4.173  60.639  -5.085  1.00  0.00    -0.000 C 
BRANCH  24  25
ATOM     25  C   UNL     1      -3.887  59.300  -4.385  1.00  0.00    -0.000 C 
BRANCH  25  26
ATOM     26  C   UNL     1      -2.517  59.280  -3.691  1.00  0.00    -0.000 C 
BRANCH  26  27
ATOM     27  C   UNL     1      -1.805  60.642  -3.739  1.00  0.00    -0.000 C 
BRANCH  27  28
ATOM     28  C   UNL     1      -0.312  60.502  -4.083  1.00  0.00    -0.000 C 
BRANCH  28  29
ATOM     29  C   UNL     1       0.562  60.361  -2.824  1.00  0.00    -0.000 C 
BRANCH  29  30
ATOM     30  C   UNL     1       0.075  61.250  -1.669  1.00  0.00    -0.000 C 
BRANCH  30  31
ATOM     31  C   UNL     1       0.773  60.916  -0.339  1.00  0.00    -0.003 C 
ATOM     32  C   UNL     1       2.018  61.774  -0.136  1.00  0.00     0.004 C 
ENDBRANCH  30  31
ENDBRANCH  29  30
ENDBRANCH  28  29
ENDBRANCH  27  28
ENDBRANCH  26  27
ENDBRANCH  25  26
ENDBRANCH  24  25
ENDBRANCH  23  24
ENDBRANCH  22  23
ENDBRANCH  21  22
ENDBRANCH  20  21
ENDBRANCH  19  20
ENDBRANCH  18  19
ENDBRANCH   1  18
TORSDOF 28
ENDMDL
MODEL 3
REMARK VINA RESULT:     8.575      3.219      8.718
REMARK INTER + INTRA:          21.490
REMARK INTER:                  20.160
REMARK INTRA:                   1.330
REMARK UNBOUND:                -1.122
REMARK SMILES CCCCCCCCCCCCCCCCCCCCCCCCCCCCCC(=O)[O-]
REMARK SMILES IDX 16 1 17 2 18 3 19 4 20 5 21 6 22 7 23 8 24 9 25 10 26 11
REMARK SMILES IDX 27 12 28 13 29 14 30 15 31 16 32 17 15 18 14 19 13 20 12 21
REMARK SMILES IDX 11 22 10 23 9 24 8 25 7 26 6 27 5 28 4 29 3 30 2 31 1 32
REMARK H PARENT
REMARK Flexibility Score: inf
ROOT
ATOM      1  C   UNL     1       1.355  58.949  -7.332  1.00  0.00     0.000 C 
ENDROOT
BRANCH   1   2
ATOM      2  C   UNL     1       0.022  58.946  -8.100  1.00  0.00     0.000 C 
BRANCH   2   3
ATOM      3  C   UNL     1      -1.203  58.996  -7.173  1.00  0.00     0.000 C 
BRANCH   3   4
ATOM      4  C   UNL     1      -2.533  58.875  -7.935  1.00  0.00     0.000 C 
BRANCH   4   5
ATOM      5  C   UNL     1      -3.453  60.086  -7.713  1.00  0.00     0.000 C 
BRANCH   5   6
ATOM      6  C   UNL     1      -3.182  60.807  -6.381  1.00  0.00     0.000 C 
BRANCH   6   7
ATOM      7  C   UNL     1      -2.865  59.834  -5.232  1.00  0.00     0.000 C 
BRANCH   7   8
ATOM      8  C   UNL     1      -4.096  59.315  -4.461  1.00  0.00     0.000 C 
BRANCH   8   9
ATOM      9  C   UNL     1      -3.884  59.119  -2.946  1.00  0.00     0.000 C 
BRANCH   9  10
ATOM     10  C   UNL     1      -2.413  59.097  -2.493  1.00  0.00     0.000 C 
BRANCH  10  11
ATOM     11  C   UNL     1      -1.469  59.747  -3.516  1.00  0.00     0.000 C 
BRANCH  11  12
ATOM     12  C   UNL     1      -0.443  60.654  -2.826  1.00  0.00     0.000 C 
BRANCH  12  13
ATOM     13  C   UNL     1      -0.324  60.310  -1.333  1.00  0.00     0.006 C 
BRANCH  13  14
ATOM     14  C   UNL     1       1.114  60.448  -0.818  1.00  0.00     0.053 C 
BRANCH  14  15
ATOM     15  C   UNL     1       1.368  61.800  -0.221  1.00  0.00     0.041 C 
ATOM     16  O   UNL     1       1.886  61.898   0.924  1.00  0.00    -0.550 OA
ATOM     17  O   UNL     1       1.031  62.952  -0.924  1.00  0.00    -0.550 OA
ENDBRANCH  14  15
ENDBRANCH  13  14
ENDBRANCH  12  13
ENDBRANCH  11  12
ENDBRANCH  10  11
ENDBRANCH   9  10
ENDBRANCH   8   9
ENDBRANCH   7   8
ENDBRANCH   6   7
ENDBRANCH   5   6
ENDBRANCH   4   5
ENDBRANCH   3   4
ENDBRANCH   2   3
ENDBRANCH   1   2
BRANCH   1  18
ATOM     18  C   UNL     1       1.138  59.216  -5.832  1.00  0.00     0.000 C 
BRANCH  18  19
ATOM     19  C   UNL     1       1.537  60.650  -5.437  1.00  0.00     0.000 C 
BRANCH  19  20
ATOM     20  C   UNL     1       1.670  61.582  -6.651  1.00  0.00     0.000 C 
BRANCH  20  21
ATOM     21  C   UNL     1       2.611  62.767  -6.360  1.00  0.00     0.000 C 
BRANCH  21  22
ATOM     22  C   UNL     1       2.542  63.864  -7.434  1.00  0.00     0.000 C 
BRANCH  22  23
ATOM     23  C   UNL     1       2.809  65.268  -6.861  1.00  0.00     0.000 C 
BRANCH  23  24
ATOM     24  C   UNL     1       3.192  65.201  -5.378  1.00  0.00    -0.000 C 
BRANCH  24  25
ATOM     25  C   UNL     1       3.891  66.495  -4.927  1.00  0.00    -0.000 C 
BRANCH  25  26
ATOM     26  C   UNL     1       3.138  67.757  -5.373  1.00  0.00    -0.000 C 
BRANCH  26  27
ATOM     27  C   UNL     1       1.628  67.519  -5.546  1.00  0.00    -0.000 C 
BRANCH  27  28
ATOM     28  C   UNL     1       0.884  68.803  -5.954  1.00  0.00    -0.000 C 
BRANCH  28  29
ATOM     29  C   UNL     1      -0.594  68.775  -5.529  1.00  0.00    -0.000 C 
BRANCH  29  30
ATOM     30  C   UNL     1      -1.195  70.184  -5.403  1.00  0.00    -0.000 C 
BRANCH  30  31
ATOM     31  C   UNL     1      -2.719  70.192  -5.620  1.00  0.00    -0.003 C 
ATOM     32  C   UNL     1      -3.242  68.793  -5.929  1.00  0.00     0.004 C 
ENDBRANCH  30  31
ENDBRANCH  29  30
ENDBRANCH  28  29
ENDBRANCH  27  28
ENDBRANCH  26  27
ENDBRANCH  25  26
ENDBRANCH  24  25
ENDBRANCH  23  24
ENDBRANCH  22  23
ENDBRANCH  21  22
ENDBRANCH  20  21
ENDBRANCH  19  20
ENDBRANCH  18  19
ENDBRANCH   1  18
TORSDOF 28
ENDMDL
MODEL 4
REMARK VINA RESULT:     8.668      3.533      8.888
REMARK INTER + INTRA:          21.735
REMARK INTER:                  22.434
REMARK INTRA:                  -0.700
REMARK UNBOUND:                -1.122
REMARK SMILES CCCCCCCCCCCCCCCCCCCCCCCCCCCCCC(=O)[O-]
REMARK SMILES IDX 16 1 17 2 18 3 19 4 20 5 21 6 22 7 23 8 24 9 25 10 26 11
REMARK SMILES IDX 27 12 28 13 29 14 30 15 31 16 32 17 15 18 14 19 13 20 12 21
REMARK SMILES IDX 11 22 10 23 9 24 8 25 7 26 6 27 5 28 4 29 3 30 2 31 1 32
REMARK H PARENT
REMARK Flexibility Score: inf
ROOT
ATOM      1  C   UNL     1      -0.382  59.306  -6.493  1.00  0.00     0.000 C 
ENDROOT
BRANCH   1   2
ATOM      2  C   UNL     1      -0.869  58.913  -7.899  1.00  0.00     0.000 C 
BRANCH   2   3
ATOM      3  C   UNL     1      -2.390  59.053  -8.066  1.00  0.00     0.000 C 
BRANCH   3   4
ATOM      4  C   UNL     1      -3.014  60.030  -7.056  1.00  0.00     0.000 C 
BRANCH   4   5
ATOM      5  C   UNL     1      -4.130  59.384  -6.221  1.00  0.00     0.000 C 
BRANCH   5   6
ATOM      6  C   UNL     1      -4.567  60.254  -5.029  1.00  0.00     0.000 C 
BRANCH   6   7
ATOM      7  C   UNL     1      -4.139  59.664  -3.674  1.00  0.00     0.000 C 
BRANCH   7   8
ATOM      8  C   UNL     1      -2.669  59.201  -3.602  1.00  0.00     0.000 C 
BRANCH   8   9
ATOM      9  C   UNL     1      -1.630  60.335  -3.495  1.00  0.00     0.000 C 
BRANCH   9  10
ATOM     10  C   UNL     1      -0.257  59.908  -2.944  1.00  0.00     0.000 C 
BRANCH  10  11
ATOM     11  C   UNL     1       0.701  61.094  -2.762  1.00  0.00     0.000 C 
BRANCH  11  12
ATOM     12  C   UNL     1       1.497  60.969  -1.457  1.00  0.00     0.000 C 
BRANCH  12  13
ATOM     13  C   UNL     1       0.554  60.838  -0.251  1.00  0.00     0.006 C 
BRANCH  13  14
ATOM     14  C   UNL     1       0.121  59.386  -0.007  1.00  0.00     0.053 C 
BRANCH  14  15
ATOM     15  C   UNL     1      -1.362  59.268   0.181  1.00  0.00     0.041 C 
ATOM     16  O   UNL     1      -1.880  59.520   1.302  1.00  0.00    -0.550 OA
ATOM     17  O   UNL     1      -2.174  58.875  -0.879  1.00  0.00    -0.550 OA
ENDBRANCH  14  15
ENDBRANCH  13  14
ENDBRANCH  12  13
ENDBRANCH  11  12
ENDBRANCH  10  11
ENDBRANCH   9  10
ENDBRANCH   8   9
ENDBRANCH   7   8
ENDBRANCH   6   7
ENDBRANCH   5   6
ENDBRANCH   4   5
ENDBRANCH   3   4
ENDBRANCH   2   3
ENDBRANCH   1   2
BRANCH   1  18
ATOM     18  C   UNL     1       1.115  59.000  -6.311  1.00  0.00     0.000 C 
BRANCH  18  19
ATOM     19  C   UNL     1       1.974  59.637  -7.419  1.00  0.00     0.000 C 
BRANCH  19  20
ATOM     20  C   UNL     1       3.363  60.063  -6.919  1.00  0.00     0.000 C 
BRANCH  20  21
ATOM     21  C   UNL     1       3.487  61.596  -6.820  1.00  0.00     0.000 C 
BRANCH  21  22
ATOM     22  C   UNL     1       2.141  62.290  -6.560  1.00  0.00     0.000 C 
BRANCH  22  23
ATOM     23  C   UNL     1       2.308  63.759  -6.128  1.00  0.00     0.000 C 
BRANCH  23  24
ATOM     24  C   UNL     1       1.979  64.718  -7.279  1.00  0.00    -0.000 C 
BRANCH  24  25
ATOM     25  C   UNL     1       2.021  66.182  -6.808  1.00  0.00    -0.000 C 
BRANCH  25  26
ATOM     26  C   UNL     1       0.730  66.945  -7.141  1.00  0.00    -0.000 C 
BRANCH  26  27
ATOM     27  C   UNL     1       0.003  67.459  -5.887  1.00  0.00    -0.000 C 
BRANCH  27  28
ATOM     28  C   UNL     1      -0.370  68.947  -6.005  1.00  0.00    -0.000 C 
BRANCH  28  29
ATOM     29  C   UNL     1      -1.814  69.220  -5.549  1.00  0.00    -0.000 C 
BRANCH  29  30
ATOM     30  C   UNL     1      -2.270  70.653  -5.870  1.00  0.00    -0.000 C 
BRANCH  30  31
ATOM     31  C   UNL     1      -3.798  70.763  -6.007  1.00  0.00    -0.003 C 
ATOM     32  C   UNL     1      -4.449  69.386  -6.085  1.00  0.00     0.004 C 
ENDBRANCH  30  31
ENDBRANCH  29  30
ENDBRANCH  28  29
ENDBRANCH  27  28
ENDBRANCH  26  27
ENDBRANCH  25  26
ENDBRANCH  24  25
ENDBRANCH  23  24
ENDBRANCH  22  23
ENDBRANCH  21  22
ENDBRANCH  20  21
ENDBRANCH  19  20
ENDBRANCH  18  19
ENDBRANCH   1  18
TORSDOF 28
ENDMDL
MODEL 5
REMARK VINA RESULT:     9.427      2.804      9.229
REMARK INTER + INTRA:          23.736
REMARK INTER:                  23.987
REMARK INTRA:                  -0.250
REMARK UNBOUND:                -1.122
REMARK SMILES CCCCCCCCCCCCCCCCCCCCCCCCCCCCCC(=O)[O-]
REMARK SMILES IDX 16 1 17 2 18 3 19 4 20 5 21 6 22 7 23 8 24 9 25 10 26 11
REMARK SMILES IDX 27 12 28 13 29 14 30 15 31 16 32 17 15 18 14 19 13 20 12 21
REMARK SMILES IDX 11 22 10 23 9 24 8 25 7 26 6 27 5 28 4 29 3 30 2 31 1 32
REMARK H PARENT
REMARK Flexibility Score: inf
ROOT
ATOM      1  C   UNL     1       2.599  64.692  -6.250  1.00  0.00     0.000 C 
ENDROOT
BRANCH   1   2
ATOM      2  C   UNL     1       3.030  64.284  -7.670  1.00  0.00     0.000 C 
BRANCH   2   3
ATOM      3  C   UNL     1       2.610  62.851  -8.034  1.00  0.00     0.000 C 
BRANCH   3   4
ATOM      4  C   UNL     1       3.582  61.789  -7.491  1.00  0.00     0.000 C 
BRANCH   4   5
ATOM      5  C   UNL     1       3.028  61.055  -6.260  1.00  0.00     0.000 C 
BRANCH   5   6
ATOM      6  C   UNL     1       3.194  59.528  -6.348  1.00  0.00     0.000 C 
BRANCH   6   7
ATOM      7  C   UNL     1       2.187  58.876  -7.312  1.00  0.00     0.000 C 
BRANCH   7   8
ATOM      8  C   UNL     1       0.704  59.116  -6.965  1.00  0.00     0.000 C 
BRANCH   8   9
ATOM      9  C   UNL     1       0.389  59.196  -5.458  1.00  0.00     0.000 C 
BRANCH   9  10
ATOM     10  C   UNL     1      -0.643  60.269  -5.066  1.00  0.00     0.000 C 
BRANCH  10  11
ATOM     11  C   UNL     1      -1.195  60.069  -3.647  1.00  0.00     0.000 C 
BRANCH  11  12
ATOM     12  C   UNL     1      -2.449  59.187  -3.659  1.00  0.00     0.000 C 
BRANCH  12  13
ATOM     13  C   UNL     1      -2.886  58.876  -5.099  1.00  0.00     0.006 C 
BRANCH  13  14
ATOM     14  C   UNL     1      -4.317  59.348  -5.387  1.00  0.00     0.053 C 
BRANCH  14  15
ATOM     15  C   UNL     1      -4.347  60.472  -6.380  1.00  0.00     0.041 C 
ATOM     16  O   UNL     1      -4.565  61.651  -5.992  1.00  0.00    -0.550 OA
ATOM     17  O   UNL     1      -4.140  60.219  -7.732  1.00  0.00    -0.550 OA
ENDBRANCH  14  15
ENDBRANCH  13  14
ENDBRANCH  12  13
ENDBRANCH  11  12
ENDBRANCH  10  11
ENDBRANCH   9  10
ENDBRANCH   8   9
ENDBRANCH   7   8
ENDBRANCH   6   7
ENDBRANCH   5   6
ENDBRANCH   4   5
ENDBRANCH   3   4
ENDBRANCH   2   3
ENDBRANCH   1   2
BRANCH   1  18
ATOM     18  C   UNL     1       3.583  65.702  -5.634  1.00  0.00     0.000 C 
BRANCH  18  19
ATOM     19  C   UNL     1       2.873  66.988  -5.168  1.00  0.00     0.000 C 
BRANCH  19  20
ATOM     20  C   UNL     1       1.356  66.943  -5.403  1.00  0.00     0.000 C 
BRANCH  20  21
ATOM     21  C   UNL     1       0.795  68.331  -5.770  1.00  0.00     0.000 C 
BRANCH  21  22
ATOM     22  C   UNL     1      -0.128  68.297  -6.998  1.00  0.00     0.000 C 
BRANCH  22  23
ATOM     23  C   UNL     1      -1.373  69.186  -6.826  1.00  0.00     0.000 C 
BRANCH  23  24
ATOM     24  C   UNL     1      -1.212  70.147  -5.641  1.00  0.00    -0.000 C 
BRANCH  24  25
ATOM     25  C   UNL     1      -1.352  69.403  -4.302  1.00  0.00    -0.000 C 
BRANCH  25  26
ATOM     26  C   UNL     1      -2.808  69.031  -3.985  1.00  0.00    -0.000 C 
BRANCH  26  27
ATOM     27  C   UNL     1      -3.823  69.954  -4.679  1.00  0.00    -0.000 C 
BRANCH  27  28
ATOM     28  C   UNL     1      -4.223  69.430  -6.069  1.00  0.00    -0.000 C 
BRANCH  28  29
ATOM     29  C   UNL     1      -4.946  70.501  -6.905  1.00  0.00    -0.000 C 
BRANCH  29  30
ATOM     30  C   UNL     1      -5.121  71.823  -6.140  1.00  0.00    -0.000 C 
BRANCH  30  31
ATOM     31  C   UNL     1      -4.083  72.880  -6.554  1.00  0.00    -0.003 C 
ATOM     32  C   UNL     1      -4.752  74.203  -6.913  1.00  0.00     0.004 C 
ENDBRANCH  30  31
ENDBRANCH  29  30
ENDBRANCH  28  29
ENDBRANCH  27  28
ENDBRANCH  26  27
ENDBRANCH  25  26
ENDBRANCH  24  25
ENDBRANCH  23  24
ENDBRANCH  22  23
ENDBRANCH  21  22
ENDBRANCH  20  21
ENDBRANCH  19  20
ENDBRANCH  18  19
ENDBRANCH   1  18
TORSDOF 28
ENDMDL
