MODEL 1
REMARK VINA RESULT:    -6.950      0.000      0.000
REMARK INTER + INTRA:          -8.440
REMARK INTER:                  -8.169
REMARK INTRA:                  -0.270
REMARK UNBOUND:                -0.270
REMARK SMILES O=c1cc(-c2ccc(O)c(O)c2)oc2cc(O)cc(O)c12
REMARK SMILES IDX 4 1 3 2 2 3 1 4 21 5 19 6 18 7 16 8 15 9 14 10 13 11 5 12
REMARK SMILES IDX 6 13 7 14 8 15 12 16 10 17 9 18 11 20 20 22 17 24
REMARK H PARENT 9 19 11 21 20 23 17 25
REMARK Flexibility Score: inf
ROOT
ATOM      1  C   UNL     1     -11.335  -8.013  -6.050  1.00  0.00     0.138 A 
ATOM      2  C   UNL     1     -11.923  -7.169  -5.099  1.00  0.00     0.100 A 
ATOM      3  C   UNL     1     -12.093  -5.814  -5.389  1.00  0.00     0.197 A 
ATOM      4  O   UNL     1     -12.680  -5.094  -4.542  1.00  0.00    -0.289 OA
ATOM      5  C   UNL     1     -11.642  -5.299  -6.628  1.00  0.00     0.107 A 
ATOM      6  C   UNL     1     -11.725  -3.928  -7.017  1.00  0.00     0.134 A 
ATOM      7  C   UNL     1     -11.352  -3.555  -8.314  1.00  0.00     0.093 A 
ATOM      8  C   UNL     1     -10.843  -4.493  -9.216  1.00  0.00     0.123 A 
ATOM      9  C   UNL     1     -10.707  -5.824  -8.827  1.00  0.00     0.094 A 
ATOM     10  C   UNL     1     -11.103  -6.233  -7.552  1.00  0.00     0.146 A 
ATOM     11  O   UNL     1     -10.970  -7.515  -7.227  1.00  0.00    -0.456 OA
ENDROOT
BRANCH   1  12
ATOM     12  C   UNL     1     -11.130  -9.462  -5.792  1.00  0.00     0.021 A 
ATOM     13  C   UNL     1     -12.193 -10.383  -5.865  1.00  0.00     0.016 A 
ATOM     14  C   UNL     1     -11.974 -11.739  -5.607  1.00  0.00     0.051 A 
ATOM     15  C   UNL     1     -10.694 -12.196  -5.266  1.00  0.00     0.157 A 
ATOM     16  C   UNL     1      -9.852  -9.927  -5.435  1.00  0.00     0.062 A 
ATOM     17  C   UNL     1      -9.633 -11.288  -5.177  1.00  0.00     0.158 A 
BRANCH  15  18
ATOM     18  O   UNL     1     -10.473 -13.548  -5.009  1.00  0.00    -0.504 OA
ATOM     19  H   UNL     1     -10.808 -14.269  -5.638  1.00  0.00     0.293 HD
ENDBRANCH  15  18
BRANCH  17  20
ATOM     20  O   UNL     1      -8.361 -11.745  -4.834  1.00  0.00    -0.504 OA
ATOM     21  H   UNL     1      -7.835 -11.329  -4.076  1.00  0.00     0.293 HD
ENDBRANCH  17  20
ENDBRANCH   1  12
BRANCH   6  22
ATOM     22  O   UNL     1     -12.139  -2.899  -6.167  1.00  0.00    -0.507 OA
ATOM     23  H   UNL     1     -12.078  -2.923  -5.160  1.00  0.00     0.293 HD
ENDBRANCH   6  22
BRANCH   8  24
ATOM     24  O   UNL     1     -10.461  -4.109 -10.500  1.00  0.00    -0.508 OA
ATOM     25  H   UNL     1     -10.456  -3.137 -10.783  1.00  0.00     0.293 HD
ENDBRANCH   8  24
TORSDOF 5
ENDMDL
MODEL 2
REMARK VINA RESULT:    -6.041      1.445      7.202
REMARK INTER + INTRA:          -7.371
REMARK INTER:                  -7.107
REMARK INTRA:                  -0.264
REMARK UNBOUND:                -0.270
REMARK SMILES O=c1cc(-c2ccc(O)c(O)c2)oc2cc(O)cc(O)c12
REMARK SMILES IDX 4 1 3 2 2 3 1 4 21 5 19 6 18 7 16 8 15 9 14 10 13 11 5 12
REMARK SMILES IDX 6 13 7 14 8 15 12 16 10 17 9 18 11 20 20 22 17 24
REMARK H PARENT 9 19 11 21 20 23 17 25
REMARK Flexibility Score: inf
ROOT
ATOM      1  C   UNL     1     -11.077  -8.198  -5.895  1.00  0.00     0.138 A 
ATOM      2  C   UNL     1      -9.781  -8.557  -5.504  1.00  0.00     0.100 A 
ATOM      3  C   UNL     1      -9.514  -9.873  -5.123  1.00  0.00     0.197 A 
ATOM      4  O   UNL     1      -8.328 -10.180  -4.838  1.00  0.00    -0.289 OA
ATOM      5  C   UNL     1     -10.561 -10.825  -5.105  1.00  0.00     0.107 A 
ATOM      6  C   UNL     1     -10.415 -12.185  -4.695  1.00  0.00     0.134 A 
ATOM      7  C   UNL     1     -11.496 -13.065  -4.829  1.00  0.00     0.093 A 
ATOM      8  C   UNL     1     -12.734 -12.620  -5.301  1.00  0.00     0.123 A 
ATOM      9  C   UNL     1     -12.901 -11.283  -5.652  1.00  0.00     0.094 A 
ATOM     10  C   UNL     1     -11.832 -10.388  -5.562  1.00  0.00     0.146 A 
ATOM     11  O   UNL     1     -12.031  -9.124  -5.920  1.00  0.00    -0.456 OA
ENDROOT
BRANCH   1  12
ATOM     12  C   UNL     1     -11.416  -6.812  -6.309  1.00  0.00     0.021 A 
ATOM     13  C   UNL     1     -12.390  -6.054  -5.628  1.00  0.00     0.016 A 
ATOM     14  C   UNL     1     -12.696  -4.756  -6.046  1.00  0.00     0.051 A 
ATOM     15  C   UNL     1     -12.043  -4.197  -7.151  1.00  0.00     0.157 A 
ATOM     16  C   UNL     1     -10.776  -6.247  -7.426  1.00  0.00     0.062 A 
ATOM     17  C   UNL     1     -11.084  -4.944  -7.844  1.00  0.00     0.158 A 
BRANCH  15  18
ATOM     18  O   UNL     1     -12.346  -2.902  -7.569  1.00  0.00    -0.504 OA
ATOM     19  H   UNL     1     -11.668  -2.331  -8.061  1.00  0.00     0.293 HD
ENDBRANCH  15  18
BRANCH  17  20
ATOM     20  O   UNL     1     -10.438  -4.386  -8.946  1.00  0.00    -0.504 OA
ATOM     21  H   UNL     1      -9.502  -4.668  -9.211  1.00  0.00     0.293 HD
ENDBRANCH  17  20
ENDBRANCH   1  12
BRANCH   6  22
ATOM     22  O   UNL     1      -9.249 -12.711  -4.132  1.00  0.00    -0.507 OA
ATOM     23  H   UNL     1      -8.515 -12.163  -3.710  1.00  0.00     0.293 HD
ENDBRANCH   6  22
BRANCH   8  24
ATOM     24  O   UNL     1     -13.808 -13.501  -5.417  1.00  0.00    -0.508 OA
ATOM     25  H   UNL     1     -13.682 -14.450  -5.747  1.00  0.00     0.293 HD
ENDBRANCH   8  24
TORSDOF 5
ENDMDL
MODEL 3
REMARK VINA RESULT:    -5.665      1.790      6.997
REMARK INTER + INTRA:          -6.929
REMARK INTER:                  -6.614
REMARK INTRA:                  -0.315
REMARK UNBOUND:                -0.270
REMARK SMILES O=c1cc(-c2ccc(O)c(O)c2)oc2cc(O)cc(O)c12
REMARK SMILES IDX 4 1 3 2 2 3 1 4 21 5 19 6 18 7 16 8 15 9 14 10 13 11 5 12
REMARK SMILES IDX 6 13 7 14 8 15 12 16 10 17 9 18 11 20 20 22 17 24
REMARK H PARENT 9 19 11 21 20 23 17 25
REMARK Flexibility Score: inf
ROOT
ATOM      1  C   UNL     1     -12.065  -8.608  -5.491  1.00  0.00     0.138 A 
ATOM      2  C   UNL     1     -13.165  -9.275  -4.936  1.00  0.00     0.100 A 
ATOM      3  C   UNL     1     -13.151 -10.668  -4.840  1.00  0.00     0.197 A 
ATOM      4  O   UNL     1     -14.125 -11.234  -4.281  1.00  0.00    -0.289 OA
ATOM      5  C   UNL     1     -12.041 -11.395  -5.333  1.00  0.00     0.107 A 
ATOM      6  C   UNL     1     -11.936 -12.818  -5.327  1.00  0.00     0.134 A 
ATOM      7  C   UNL     1     -10.740 -13.423  -5.735  1.00  0.00     0.093 A 
ATOM      8  C   UNL     1      -9.670 -12.658  -6.206  1.00  0.00     0.123 A 
ATOM      9  C   UNL     1      -9.784 -11.272  -6.268  1.00  0.00     0.094 A 
ATOM     10  C   UNL     1     -10.951 -10.637  -5.835  1.00  0.00     0.146 A 
ATOM     11  O   UNL     1     -11.012  -9.311  -5.897  1.00  0.00    -0.456 OA
ENDROOT
BRANCH   1  12
ATOM     12  C   UNL     1     -12.027  -7.128  -5.617  1.00  0.00     0.021 A 
ATOM     13  C   UNL     1     -12.976  -6.307  -4.975  1.00  0.00     0.016 A 
ATOM     14  C   UNL     1     -12.923  -4.918  -5.120  1.00  0.00     0.051 A 
ATOM     15  C   UNL     1     -11.930  -4.327  -5.911  1.00  0.00     0.157 A 
ATOM     16  C   UNL     1     -11.043  -6.526  -6.421  1.00  0.00     0.062 A 
ATOM     17  C   UNL     1     -10.990  -5.132  -6.564  1.00  0.00     0.158 A 
BRANCH  15  18
ATOM     18  O   UNL     1     -11.875  -2.941  -6.056  1.00  0.00    -0.504 OA
ATOM     19  H   UNL     1     -11.328  -2.507  -6.790  1.00  0.00     0.293 HD
ENDBRANCH  15  18
BRANCH  17  20
ATOM     20  O   UNL     1     -10.005  -4.541  -7.354  1.00  0.00    -0.504 OA
ATOM     21  H   UNL     1     -10.231  -3.834  -8.042  1.00  0.00     0.293 HD
ENDBRANCH  17  20
ENDBRANCH   1  12
BRANCH   6  22
ATOM     22  O   UNL     1     -12.974 -13.678  -4.956  1.00  0.00    -0.507 OA
ATOM     23  H   UNL     1     -12.981 -14.674  -5.113  1.00  0.00     0.293 HD
ENDBRANCH   6  22
BRANCH   8  24
ATOM     24  O   UNL     1      -8.489 -13.270  -6.624  1.00  0.00    -0.508 OA
ATOM     25  H   UNL     1      -8.443 -14.266  -6.802  1.00  0.00     0.293 HD
ENDBRANCH   8  24
TORSDOF 5
ENDMDL
MODEL 4
REMARK VINA RESULT:    -5.604      5.910      7.752
REMARK INTER + INTRA:          -6.858
REMARK INTER:                  -6.577
REMARK INTRA:                  -0.281
REMARK UNBOUND:                -0.270
REMARK SMILES O=c1cc(-c2ccc(O)c(O)c2)oc2cc(O)cc(O)c12
REMARK SMILES IDX 4 1 3 2 2 3 1 4 21 5 19 6 18 7 16 8 15 9 14 10 13 11 5 12
REMARK SMILES IDX 6 13 7 14 8 15 12 16 10 17 9 18 11 20 20 22 17 24
REMARK H PARENT 9 19 11 21 20 23 17 25
REMARK Flexibility Score: inf
ROOT
ATOM      1  C   UNL     1      -9.336 -12.153  -6.039  1.00  0.00     0.138 A 
ATOM      2  C   UNL     1     -10.125 -12.558  -7.124  1.00  0.00     0.100 A 
ATOM      3  C   UNL     1     -11.430 -13.000  -6.901  1.00  0.00     0.197 A 
ATOM      4  O   UNL     1     -12.135 -13.298  -7.899  1.00  0.00    -0.289 OA
ATOM      5  C   UNL     1     -11.934 -13.066  -5.580  1.00  0.00     0.107 A 
ATOM      6  C   UNL     1     -13.234 -13.539  -5.229  1.00  0.00     0.134 A 
ATOM      7  C   UNL     1     -13.665 -13.449  -3.899  1.00  0.00     0.093 A 
ATOM      8  C   UNL     1     -12.821 -12.959  -2.900  1.00  0.00     0.123 A 
ATOM      9  C   UNL     1     -11.531 -12.546  -3.223  1.00  0.00     0.094 A 
ATOM     10  C   UNL     1     -11.084 -12.591  -4.546  1.00  0.00     0.146 A 
ATOM     11  O   UNL     1      -9.851 -12.173  -4.814  1.00  0.00    -0.456 OA
ENDROOT
BRANCH   1  12
ATOM     12  C   UNL     1      -7.941 -11.674  -6.219  1.00  0.00     0.021 A 
ATOM     13  C   UNL     1      -7.424 -10.603  -5.465  1.00  0.00     0.016 A 
ATOM     14  C   UNL     1      -6.111 -10.166  -5.663  1.00  0.00     0.051 A 
ATOM     15  C   UNL     1      -5.297 -10.785  -6.621  1.00  0.00     0.157 A 
ATOM     16  C   UNL     1      -7.121 -12.280  -7.188  1.00  0.00     0.062 A 
ATOM     17  C   UNL     1      -5.804 -11.842  -7.386  1.00  0.00     0.158 A 
BRANCH  15  18
ATOM     18  O   UNL     1      -3.987 -10.352  -6.819  1.00  0.00    -0.504 OA
ATOM     19  H   UNL     1      -3.784  -9.468  -7.271  1.00  0.00     0.293 HD
ENDBRANCH  15  18
BRANCH  17  20
ATOM     20  O   UNL     1      -4.993 -12.454  -8.340  1.00  0.00    -0.504 OA
ATOM     21  H   UNL     1      -4.000 -12.263  -8.394  1.00  0.00     0.293 HD
ENDBRANCH  17  20
ENDBRANCH   1  12
BRANCH   6  22
ATOM     22  O   UNL     1     -14.123 -14.125  -6.134  1.00  0.00    -0.507 OA
ATOM     23  H   UNL     1     -14.372 -15.102  -6.147  1.00  0.00     0.293 HD
ENDBRANCH   6  22
BRANCH   8  24
ATOM     24  O   UNL     1     -13.255 -12.887  -1.577  1.00  0.00    -0.508 OA
ATOM     25  H   UNL     1     -13.115 -12.054  -1.017  1.00  0.00     0.293 HD
ENDBRANCH   8  24
TORSDOF 5
ENDMDL
MODEL 5
REMARK VINA RESULT:    -5.529      1.632      7.109
REMARK INTER + INTRA:          -6.769
REMARK INTER:                  -6.507
REMARK INTRA:                  -0.263
REMARK UNBOUND:                -0.270
REMARK SMILES O=c1cc(-c2ccc(O)c(O)c2)oc2cc(O)cc(O)c12
REMARK SMILES IDX 4 1 3 2 2 3 1 4 21 5 19 6 18 7 16 8 15 9 14 10 13 11 5 12
REMARK SMILES IDX 6 13 7 14 8 15 12 16 10 17 9 18 11 20 20 22 17 24
REMARK H PARENT 9 19 11 21 20 23 17 25
REMARK Flexibility Score: inf
ROOT
ATOM      1  C   UNL     1     -11.151  -8.772  -6.135  1.00  0.00     0.138 A 
ATOM      2  C   UNL     1     -10.073  -9.358  -5.458  1.00  0.00     0.100 A 
ATOM      3  C   UNL     1      -9.906 -10.744  -5.495  1.00  0.00     0.197 A 
ATOM      4  O   UNL     1      -8.895 -11.235  -4.931  1.00  0.00    -0.289 OA
ATOM      5  C   UNL     1     -10.844 -11.546  -6.188  1.00  0.00     0.107 A 
ATOM      6  C   UNL     1     -10.798 -12.971  -6.259  1.00  0.00     0.134 A 
ATOM      7  C   UNL     1     -11.714 -13.651  -7.072  1.00  0.00     0.093 A 
ATOM      8  C   UNL     1     -12.711 -12.962  -7.767  1.00  0.00     0.123 A 
ATOM      9  C   UNL     1     -12.797 -11.576  -7.661  1.00  0.00     0.094 A 
ATOM     10  C   UNL     1     -11.877 -10.866  -6.886  1.00  0.00     0.146 A 
ATOM     11  O   UNL     1     -11.986  -9.543  -6.824  1.00  0.00    -0.456 OA
ENDROOT
BRANCH   1  12
ATOM     12  C   UNL     1     -11.375  -7.303  -6.128  1.00  0.00     0.021 A 
ATOM     13  C   UNL     1     -10.878  -6.475  -7.153  1.00  0.00     0.016 A 
ATOM     14  C   UNL     1     -11.095  -5.094  -7.116  1.00  0.00     0.051 A 
ATOM     15  C   UNL     1     -11.804  -4.519  -6.054  1.00  0.00     0.157 A 
ATOM     16  C   UNL     1     -12.074  -6.715  -5.059  1.00  0.00     0.062 A 
ATOM     17  C   UNL     1     -12.292  -5.330  -5.023  1.00  0.00     0.158 A 
BRANCH  15  18
ATOM     18  O   UNL     1     -12.023  -3.143  -6.015  1.00  0.00    -0.504 OA
ATOM     19  H   UNL     1     -12.516  -2.663  -6.760  1.00  0.00     0.293 HD
ENDBRANCH  15  18
BRANCH  17  20
ATOM     20  O   UNL     1     -12.994  -4.754  -3.965  1.00  0.00    -0.504 OA
ATOM     21  H   UNL     1     -13.803  -5.205  -3.558  1.00  0.00     0.293 HD
ENDBRANCH  17  20
ENDBRANCH   1  12
BRANCH   6  22
ATOM     22  O   UNL     1      -9.897 -13.761  -5.538  1.00  0.00    -0.507 OA
ATOM     23  H   UNL     1      -9.999 -14.752  -5.379  1.00  0.00     0.293 HD
ENDBRANCH   6  22
BRANCH   8  24
ATOM     24  O   UNL     1     -13.627 -13.649  -8.561  1.00  0.00    -0.508 OA
ATOM     25  H   UNL     1     -13.823 -14.632  -8.415  1.00  0.00     0.293 HD
ENDBRANCH   8  24
TORSDOF 5
ENDMDL
MODEL 6
REMARK VINA RESULT:    -5.375      1.675      7.068
REMARK INTER + INTRA:          -6.588
REMARK INTER:                  -6.317
REMARK INTRA:                  -0.271
REMARK UNBOUND:                -0.270
REMARK SMILES O=c1cc(-c2ccc(O)c(O)c2)oc2cc(O)cc(O)c12
REMARK SMILES IDX 4 1 3 2 2 3 1 4 21 5 19 6 18 7 16 8 15 9 14 10 13 11 5 12
REMARK SMILES IDX 6 13 7 14 8 15 12 16 10 17 9 18 11 20 20 22 17 24
REMARK H PARENT 9 19 11 21 20 23 17 25
REMARK Flexibility Score: inf
ROOT
ATOM      1  C   UNL     1     -10.611  -7.674  -5.722  1.00  0.00     0.138 A 
ATOM      2  C   UNL     1     -11.586  -8.670  -5.859  1.00  0.00     0.100 A 
ATOM      3  C   UNL     1     -11.210 -10.014  -5.821  1.00  0.00     0.197 A 
ATOM      4  O   UNL     1     -12.115 -10.886  -5.883  1.00  0.00    -0.289 OA
ATOM      5  C   UNL     1      -9.845 -10.358  -5.675  1.00  0.00     0.107 A 
ATOM      6  C   UNL     1      -9.340 -11.693  -5.664  1.00  0.00     0.134 A 
ATOM      7  C   UNL     1      -7.983 -11.915  -5.398  1.00  0.00     0.093 A 
ATOM      8  C   UNL     1      -7.103 -10.848  -5.202  1.00  0.00     0.123 A 
ATOM      9  C   UNL     1      -7.576  -9.540  -5.265  1.00  0.00     0.094 A 
ATOM     10  C   UNL     1      -8.930  -9.287  -5.495  1.00  0.00     0.146 A 
ATOM     11  O   UNL     1      -9.343  -8.024  -5.533  1.00  0.00    -0.456 OA
ENDROOT
BRANCH   1  12
ATOM     12  C   UNL     1     -10.956  -6.229  -5.757  1.00  0.00     0.021 A 
ATOM     13  C   UNL     1     -11.547  -5.584  -4.653  1.00  0.00     0.016 A 
ATOM     14  C   UNL     1     -11.871  -4.226  -4.716  1.00  0.00     0.051 A 
ATOM     15  C   UNL     1     -11.618  -3.493  -5.882  1.00  0.00     0.157 A 
ATOM     16  C   UNL     1     -10.719  -5.488  -6.928  1.00  0.00     0.062 A 
ATOM     17  C   UNL     1     -11.043  -4.125  -6.991  1.00  0.00     0.158 A 
BRANCH  15  18
ATOM     18  O   UNL     1     -11.939  -2.138  -5.948  1.00  0.00    -0.504 OA
ATOM     19  H   UNL     1     -11.833  -1.609  -6.806  1.00  0.00     0.293 HD
ENDBRANCH  15  18
BRANCH  17  20
ATOM     20  O   UNL     1     -10.796  -3.394  -8.151  1.00  0.00    -0.504 OA
ATOM     21  H   UNL     1     -10.580  -2.406  -8.120  1.00  0.00     0.293 HD
ENDBRANCH  17  20
ENDBRANCH   1  12
BRANCH   6  22
ATOM     22  O   UNL     1     -10.116 -12.824  -5.932  1.00  0.00    -0.507 OA
ATOM     23  H   UNL     1     -10.042 -13.391  -6.763  1.00  0.00     0.293 HD
ENDBRANCH   6  22
BRANCH   8  24
ATOM     24  O   UNL     1      -5.751 -11.079  -4.952  1.00  0.00    -0.508 OA
ATOM     25  H   UNL     1      -5.242 -10.548  -4.256  1.00  0.00     0.293 HD
ENDBRANCH   8  24
TORSDOF 5
ENDMDL
MODEL 7
REMARK VINA RESULT:    -5.310      7.931     12.110
REMARK INTER + INTRA:          -6.512
REMARK INTER:                  -6.221
REMARK INTRA:                  -0.291
REMARK UNBOUND:                -0.270
REMARK SMILES O=c1cc(-c2ccc(O)c(O)c2)oc2cc(O)cc(O)c12
REMARK SMILES IDX 4 1 3 2 2 3 1 4 21 5 19 6 18 7 16 8 15 9 14 10 13 11 5 12
REMARK SMILES IDX 6 13 7 14 8 15 12 16 10 17 9 18 11 20 20 22 17 24
REMARK H PARENT 9 19 11 21 20 23 17 25
REMARK Flexibility Score: inf
ROOT
ATOM      1  C   UNL     1      -2.571 -13.459  -6.371  1.00  0.00     0.138 A 
ATOM      2  C   UNL     1      -1.206 -13.465  -6.691  1.00  0.00     0.100 A 
ATOM      3  C   UNL     1      -0.259 -13.574  -5.671  1.00  0.00     0.197 A 
ATOM      4  O   UNL     1       0.955 -13.641  -5.994  1.00  0.00    -0.289 OA
ATOM      5  C   UNL     1      -0.683 -13.646  -4.323  1.00  0.00     0.107 A 
ATOM      6  C   UNL     1       0.194 -13.718  -3.199  1.00  0.00     0.134 A 
ATOM      7  C   UNL     1      -0.341 -13.902  -1.917  1.00  0.00     0.093 A 
ATOM      8  C   UNL     1      -1.723 -13.956  -1.714  1.00  0.00     0.123 A 
ATOM      9  C   UNL     1      -2.587 -13.832  -2.799  1.00  0.00     0.094 A 
ATOM     10  C   UNL     1      -2.083 -13.682  -4.093  1.00  0.00     0.146 A 
ATOM     11  O   UNL     1      -2.943 -13.581  -5.101  1.00  0.00    -0.456 OA
ENDROOT
BRANCH   1  12
ATOM     12  C   UNL     1      -3.620 -13.344  -7.416  1.00  0.00     0.021 A 
ATOM     13  C   UNL     1      -3.570 -14.104  -8.601  1.00  0.00     0.016 A 
ATOM     14  C   UNL     1      -4.565 -13.969  -9.572  1.00  0.00     0.051 A 
ATOM     15  C   UNL     1      -5.621 -13.068  -9.382  1.00  0.00     0.157 A 
ATOM     16  C   UNL     1      -4.676 -12.432  -7.240  1.00  0.00     0.062 A 
ATOM     17  C   UNL     1      -5.675 -12.297  -8.215  1.00  0.00     0.158 A 
BRANCH  15  18
ATOM     18  O   UNL     1      -6.616 -12.932 -10.348  1.00  0.00    -0.504 OA
ATOM     19  H   UNL     1      -7.587 -12.793 -10.094  1.00  0.00     0.293 HD
ENDBRANCH  15  18
BRANCH  17  20
ATOM     20  O   UNL     1      -6.725 -11.399  -8.029  1.00  0.00    -0.504 OA
ATOM     21  H   UNL     1      -7.163 -11.275  -7.125  1.00  0.00     0.293 HD
ENDBRANCH  17  20
ENDBRANCH   1  12
BRANCH   6  22
ATOM     22  O   UNL     1       1.584 -13.590  -3.282  1.00  0.00    -0.507 OA
ATOM     23  H   UNL     1       2.241 -14.341  -3.133  1.00  0.00     0.293 HD
ENDBRANCH   6  22
BRANCH   8  24
ATOM     24  O   UNL     1      -2.246 -14.125  -0.433  1.00  0.00    -0.508 OA
ATOM     25  H   UNL     1      -2.279 -13.361   0.231  1.00  0.00     0.293 HD
ENDBRANCH   8  24
TORSDOF 5
ENDMDL
MODEL 8
REMARK VINA RESULT:    -5.120      5.892      7.128
REMARK INTER + INTRA:          -6.289
REMARK INTER:                  -5.991
REMARK INTRA:                  -0.298
REMARK UNBOUND:                -0.270
REMARK SMILES O=c1cc(-c2ccc(O)c(O)c2)oc2cc(O)cc(O)c12
REMARK SMILES IDX 4 1 3 2 2 3 1 4 21 5 19 6 18 7 16 8 15 9 14 10 13 11 5 12
REMARK SMILES IDX 6 13 7 14 8 15 12 16 10 17 9 18 11 20 20 22 17 24
REMARK H PARENT 9 19 11 21 20 23 17 25
REMARK Flexibility Score: inf
ROOT
ATOM      1  C   UNL     1      -9.338 -12.034  -5.929  1.00  0.00     0.138 A 
ATOM      2  C   UNL     1      -9.864 -12.248  -4.648  1.00  0.00     0.100 A 
ATOM      3  C   UNL     1     -11.187 -12.671  -4.506  1.00  0.00     0.197 A 
ATOM      4  O   UNL     1     -11.611 -12.916  -3.348  1.00  0.00    -0.289 OA
ATOM      5  C   UNL     1     -11.994 -12.848  -5.655  1.00  0.00     0.107 A 
ATOM      6  C   UNL     1     -13.368 -13.236  -5.631  1.00  0.00     0.134 A 
ATOM      7  C   UNL     1     -14.033 -13.493  -6.836  1.00  0.00     0.093 A 
ATOM      8  C   UNL     1     -13.392 -13.318  -8.065  1.00  0.00     0.123 A 
ATOM      9  C   UNL     1     -12.069 -12.887  -8.101  1.00  0.00     0.094 A 
ATOM     10  C   UNL     1     -11.367 -12.656  -6.915  1.00  0.00     0.146 A 
ATOM     11  O   UNL     1     -10.101 -12.260  -6.993  1.00  0.00    -0.456 OA
ENDROOT
BRANCH   1  12
ATOM     12  C   UNL     1      -7.937 -11.584  -6.136  1.00  0.00     0.021 A 
ATOM     13  C   UNL     1      -7.351 -10.595  -5.322  1.00  0.00     0.016 A 
ATOM     14  C   UNL     1      -6.034 -10.183  -5.546  1.00  0.00     0.051 A 
ATOM     15  C   UNL     1      -5.286 -10.743  -6.589  1.00  0.00     0.157 A 
ATOM     16  C   UNL     1      -7.183 -12.131  -7.189  1.00  0.00     0.062 A 
ATOM     17  C   UNL     1      -5.861 -11.717  -7.413  1.00  0.00     0.158 A 
BRANCH  15  18
ATOM     18  O   UNL     1      -3.972 -10.335  -6.814  1.00  0.00    -0.504 OA
ATOM     19  H   UNL     1      -3.743  -9.365  -6.996  1.00  0.00     0.293 HD
ENDBRANCH  15  18
BRANCH  17  20
ATOM     20  O   UNL     1      -5.116 -12.271  -8.452  1.00  0.00    -0.504 OA
ATOM     21  H   UNL     1      -5.561 -12.699  -9.254  1.00  0.00     0.293 HD
ENDBRANCH  17  20
ENDBRANCH   1  12
BRANCH   6  22
ATOM     22  O   UNL     1     -14.125 -13.358  -4.462  1.00  0.00    -0.507 OA
ATOM     23  H   UNL     1     -14.544 -12.587  -3.964  1.00  0.00     0.293 HD
ENDBRANCH   6  22
BRANCH   8  24
ATOM     24  O   UNL     1     -14.068 -13.562  -9.259  1.00  0.00    -0.508 OA
ATOM     25  H   UNL     1     -14.968 -14.027  -9.274  1.00  0.00     0.293 HD
ENDBRANCH   8  24
TORSDOF 5
ENDMDL
MODEL 9
REMARK VINA RESULT:    -5.071      3.968      6.267
REMARK INTER + INTRA:          -6.230
REMARK INTER:                  -5.944
REMARK INTRA:                  -0.286
REMARK UNBOUND:                -0.270
REMARK SMILES O=c1cc(-c2ccc(O)c(O)c2)oc2cc(O)cc(O)c12
REMARK SMILES IDX 4 1 3 2 2 3 1 4 21 5 19 6 18 7 16 8 15 9 14 10 13 11 5 12
REMARK SMILES IDX 6 13 7 14 8 15 12 16 10 17 9 18 11 20 20 22 17 24
REMARK H PARENT 9 19 11 21 20 23 17 25
REMARK Flexibility Score: inf
ROOT
ATOM      1  C   UNL     1      -9.808 -11.985  -5.788  1.00  0.00     0.138 A 
ATOM      2  C   UNL     1     -10.357 -13.058  -5.074  1.00  0.00     0.100 A 
ATOM      3  C   UNL     1     -11.585 -12.903  -4.429  1.00  0.00     0.197 A 
ATOM      4  O   UNL     1     -12.082 -13.902  -3.849  1.00  0.00    -0.289 OA
ATOM      5  C   UNL     1     -12.249 -11.653  -4.473  1.00  0.00     0.107 A 
ATOM      6  C   UNL     1     -13.484 -11.366  -3.818  1.00  0.00     0.134 A 
ATOM      7  C   UNL     1     -14.105 -10.129  -4.029  1.00  0.00     0.093 A 
ATOM      8  C   UNL     1     -13.506  -9.147  -4.823  1.00  0.00     0.123 A 
ATOM      9  C   UNL     1     -12.274  -9.398  -5.421  1.00  0.00     0.094 A 
ATOM     10  C   UNL     1     -11.646 -10.635  -5.258  1.00  0.00     0.146 A 
ATOM     11  O   UNL     1     -10.478 -10.839  -5.859  1.00  0.00    -0.456 OA
ENDROOT
BRANCH   1  12
ATOM     12  C   UNL     1      -8.505 -12.096  -6.492  1.00  0.00     0.021 A 
ATOM     13  C   UNL     1      -8.229 -13.161  -7.372  1.00  0.00     0.016 A 
ATOM     14  C   UNL     1      -6.990 -13.246  -8.014  1.00  0.00     0.051 A 
ATOM     15  C   UNL     1      -6.006 -12.277  -7.783  1.00  0.00     0.157 A 
ATOM     16  C   UNL     1      -7.506 -11.135  -6.256  1.00  0.00     0.062 A 
ATOM     17  C   UNL     1      -6.263 -11.221  -6.901  1.00  0.00     0.158 A 
BRANCH  15  18
ATOM     18  O   UNL     1      -4.770 -12.360  -8.422  1.00  0.00    -0.504 OA
ATOM     19  H   UNL     1      -4.534 -13.143  -9.020  1.00  0.00     0.293 HD
ENDBRANCH  15  18
BRANCH  17  20
ATOM     20  O   UNL     1      -5.281 -10.260  -6.670  1.00  0.00    -0.504 OA
ATOM     21  H   UNL     1      -5.392  -9.549  -5.958  1.00  0.00     0.293 HD
ENDBRANCH  17  20
ENDBRANCH   1  12
BRANCH   6  22
ATOM     22  O   UNL     1     -14.125 -12.244  -2.939  1.00  0.00    -0.507 OA
ATOM     23  H   UNL     1     -14.003 -12.247  -1.938  1.00  0.00     0.293 HD
ENDBRANCH   6  22
BRANCH   8  24
ATOM     24  O   UNL     1     -14.125  -7.913  -5.014  1.00  0.00    -0.508 OA
ATOM     25  H   UNL     1     -14.820  -7.776  -5.737  1.00  0.00     0.293 HD
ENDBRANCH   8  24
TORSDOF 5
ENDMDL
