MODEL 1
REMARK VINA RESULT:    -6.898      0.000      0.000
REMARK INTER + INTRA:          -8.373
REMARK INTER:                  -8.108
REMARK INTRA:                  -0.265
REMARK UNBOUND:                -0.265
REMARK SMILES O=c1c(O)c(-c2ccc(O)cc2)oc2cc(O)cc(O)c12
REMARK SMILES IDX 5 1 3 2 2 3 1 4 21 5 19 6 18 7 16 8 15 9 14 10 13 11 6 12
REMARK SMILES IDX 7 13 8 14 9 15 12 16 11 17 10 18 4 20 20 22 17 24
REMARK H PARENT 10 19 4 21 20 23 17 25
REMARK Flexibility Score: inf
ROOT
ATOM      1  C   UNL     1      -7.995 -20.110  -6.379  1.00  0.00     0.180 A 
ATOM      2  C   UNL     1      -8.222 -19.016  -7.236  1.00  0.00     0.208 A 
ATOM      3  C   UNL     1      -9.535 -18.553  -7.412  1.00  0.00     0.238 A 
ATOM      4  O   UNL     1      -9.752 -17.581  -8.186  1.00  0.00    -0.285 OA
ATOM      5  C   UNL     1     -10.593 -19.175  -6.718  1.00  0.00     0.111 A 
ATOM      6  C   UNL     1     -11.943 -18.768  -6.838  1.00  0.00     0.134 A 
ATOM      7  C   UNL     1     -12.938 -19.432  -6.105  1.00  0.00     0.093 A 
ATOM      8  C   UNL     1     -12.608 -20.495  -5.256  1.00  0.00     0.123 A 
ATOM      9  C   UNL     1     -11.278 -20.901  -5.136  1.00  0.00     0.094 A 
ATOM     10  C   UNL     1     -10.272 -20.252  -5.858  1.00  0.00     0.146 A 
ATOM     11  O   UNL     1      -9.016 -20.662  -5.729  1.00  0.00    -0.452 OA
ENDROOT
BRANCH   1  12
ATOM     12  C   UNL     1      -6.643 -20.667  -6.156  1.00  0.00     0.021 A 
ATOM     13  C   UNL     1      -6.217 -21.843  -6.804  1.00  0.00     0.016 A 
ATOM     14  C   UNL     1      -4.943 -22.362  -6.558  1.00  0.00     0.047 A 
ATOM     15  C   UNL     1      -4.084 -21.725  -5.653  1.00  0.00     0.115 A 
ATOM     16  C   UNL     1      -5.782 -20.047  -5.235  1.00  0.00     0.016 A 
ATOM     17  C   UNL     1      -4.508 -20.569  -4.992  1.00  0.00     0.047 A 
BRANCH  15  18
ATOM     18  O   UNL     1      -2.812 -22.234  -5.402  1.00  0.00    -0.508 OA
ATOM     19  H   UNL     1      -2.541 -22.552  -4.478  1.00  0.00     0.293 HD
ENDBRANCH  15  18
ENDBRANCH   1  12
BRANCH   2  20
ATOM     20  O   UNL     1      -7.151 -18.385  -7.874  1.00  0.00    -0.502 OA
ATOM     21  H   UNL     1      -6.980 -18.479  -8.868  1.00  0.00     0.293 HD
ENDBRANCH   2  20
BRANCH   6  22
ATOM     22  O   UNL     1     -12.304 -17.710  -7.674  1.00  0.00    -0.507 OA
ATOM     23  H   UNL     1     -12.998 -17.820  -8.403  1.00  0.00     0.293 HD
ENDBRANCH   6  22
BRANCH   8  24
ATOM     24  O   UNL     1     -13.595 -21.155  -4.528  1.00  0.00    -0.508 OA
ATOM     25  H   UNL     1     -13.700 -21.016  -3.529  1.00  0.00     0.293 HD
ENDBRANCH   8  24
TORSDOF 5
ENDMDL
MODEL 2
REMARK VINA RESULT:    -6.788     13.050     16.108
REMARK INTER + INTRA:          -8.243
REMARK INTER:                  -7.951
REMARK INTRA:                  -0.293
REMARK UNBOUND:                -0.265
REMARK SMILES O=c1c(O)c(-c2ccc(O)cc2)oc2cc(O)cc(O)c12
REMARK SMILES IDX 5 1 3 2 2 3 1 4 21 5 19 6 18 7 16 8 15 9 14 10 13 11 6 12
REMARK SMILES IDX 7 13 8 14 9 15 12 16 11 17 10 18 4 20 20 22 17 24
REMARK H PARENT 10 19 4 21 20 23 17 25
REMARK Flexibility Score: inf
ROOT
ATOM      1  C   UNL     1     -13.793 -10.097 -16.333  1.00  0.00     0.180 A 
ATOM      2  C   UNL     1     -13.342  -8.947 -17.010  1.00  0.00     0.208 A 
ATOM      3  C   UNL     1     -11.990  -8.864 -17.378  1.00  0.00     0.238 A 
ATOM      4  O   UNL     1     -11.572  -7.834 -17.975  1.00  0.00    -0.285 OA
ATOM      5  C   UNL     1     -11.120  -9.933 -17.083  1.00  0.00     0.111 A 
ATOM      6  C   UNL     1      -9.746  -9.930 -17.423  1.00  0.00     0.134 A 
ATOM      7  C   UNL     1      -8.947 -11.038 -17.104  1.00  0.00     0.093 A 
ATOM      8  C   UNL     1      -9.496 -12.148 -16.452  1.00  0.00     0.123 A 
ATOM      9  C   UNL     1     -10.850 -12.155 -16.115  1.00  0.00     0.094 A 
ATOM     10  C   UNL     1     -11.663 -11.061 -16.423  1.00  0.00     0.146 A 
ATOM     11  O   UNL     1     -12.947 -11.093 -16.085  1.00  0.00    -0.452 OA
ENDROOT
BRANCH   1  12
ATOM     12  C   UNL     1     -15.198 -10.251 -15.895  1.00  0.00     0.021 A 
ATOM     13  C   UNL     1     -15.652  -9.707 -14.679  1.00  0.00     0.016 A 
ATOM     14  C   UNL     1     -16.978  -9.887 -14.276  1.00  0.00     0.047 A 
ATOM     15  C   UNL     1     -17.864 -10.623 -15.073  1.00  0.00     0.115 A 
ATOM     16  C   UNL     1     -16.088 -11.006 -16.678  1.00  0.00     0.016 A 
ATOM     17  C   UNL     1     -17.414 -11.183 -16.272  1.00  0.00     0.047 A 
BRANCH  15  18
ATOM     18  O   UNL     1     -19.188 -10.807 -14.681  1.00  0.00    -0.508 OA
ATOM     19  H   UNL     1     -19.671 -11.684 -14.842  1.00  0.00     0.293 HD
ENDBRANCH  15  18
ENDBRANCH   1  12
BRANCH   2  20
ATOM     20  O   UNL     1     -14.235  -7.923 -17.334  1.00  0.00    -0.502 OA
ATOM     21  H   UNL     1     -14.099  -7.318 -18.135  1.00  0.00     0.293 HD
ENDBRANCH   2  20
BRANCH   6  22
ATOM     22  O   UNL     1      -9.169  -8.839 -18.076  1.00  0.00    -0.507 OA
ATOM     23  H   UNL     1      -9.720  -8.202 -18.639  1.00  0.00     0.293 HD
ENDBRANCH   6  22
BRANCH   8  24
ATOM     24  O   UNL     1      -8.704 -13.248 -16.135  1.00  0.00    -0.508 OA
ATOM     25  H   UNL     1      -7.777 -13.366 -16.529  1.00  0.00     0.293 HD
ENDBRANCH   8  24
TORSDOF 5
ENDMDL
MODEL 3
REMARK VINA RESULT:    -6.601     14.588     15.565
REMARK INTER + INTRA:          -8.024
REMARK INTER:                  -7.819
REMARK INTRA:                  -0.205
REMARK UNBOUND:                -0.265
REMARK SMILES O=c1c(O)c(-c2ccc(O)cc2)oc2cc(O)cc(O)c12
REMARK SMILES IDX 5 1 3 2 2 3 1 4 21 5 19 6 18 7 16 8 15 9 14 10 13 11 6 12
REMARK SMILES IDX 7 13 8 14 9 15 12 16 11 17 10 18 4 20 20 22 17 24
REMARK H PARENT 10 19 4 21 20 23 17 25
REMARK Flexibility Score: inf
ROOT
ATOM      1  C   UNL     1     -13.306  -9.690 -16.347  1.00  0.00     0.180 A 
ATOM      2  C   UNL     1     -13.615  -9.408 -15.002  1.00  0.00     0.208 A 
ATOM      3  C   UNL     1     -14.885  -9.752 -14.513  1.00  0.00     0.238 A 
ATOM      4  O   UNL     1     -15.177  -9.495 -13.313  1.00  0.00    -0.285 OA
ATOM      5  C   UNL     1     -15.813 -10.385 -15.365  1.00  0.00     0.111 A 
ATOM      6  C   UNL     1     -17.111 -10.767 -14.949  1.00  0.00     0.134 A 
ATOM      7  C   UNL     1     -17.973 -11.403 -15.855  1.00  0.00     0.093 A 
ATOM      8  C   UNL     1     -17.561 -11.664 -17.167  1.00  0.00     0.123 A 
ATOM      9  C   UNL     1     -16.283 -11.288 -17.581  1.00  0.00     0.094 A 
ATOM     10  C   UNL     1     -15.409 -10.653 -16.694  1.00  0.00     0.146 A 
ATOM     11  O   UNL     1     -14.200 -10.302 -17.117  1.00  0.00    -0.452 OA
ENDROOT
BRANCH   1  12
ATOM     12  C   UNL     1     -11.996  -9.340 -16.942  1.00  0.00     0.021 A 
ATOM     13  C   UNL     1     -10.825 -10.045 -16.605  1.00  0.00     0.016 A 
ATOM     14  C   UNL     1      -9.596  -9.681 -17.162  1.00  0.00     0.047 A 
ATOM     15  C   UNL     1      -9.518  -8.601 -18.050  1.00  0.00     0.115 A 
ATOM     16  C   UNL     1     -11.904  -8.246 -17.818  1.00  0.00     0.016 A 
ATOM     17  C   UNL     1     -10.673  -7.885 -18.374  1.00  0.00     0.047 A 
BRANCH  15  18
ATOM     18  O   UNL     1      -8.298  -8.230 -18.613  1.00  0.00    -0.508 OA
ATOM     19  H   UNL     1      -7.740  -8.886 -19.147  1.00  0.00     0.293 HD
ENDBRANCH  15  18
ENDBRANCH   1  12
BRANCH   2  20
ATOM     20  O   UNL     1     -12.661  -8.824 -14.165  1.00  0.00    -0.502 OA
ATOM     21  H   UNL     1     -12.111  -8.021 -14.447  1.00  0.00     0.293 HD
ENDBRANCH   2  20
BRANCH   6  22
ATOM     22  O   UNL     1     -17.549 -10.523 -13.646  1.00  0.00    -0.507 OA
ATOM     23  H   UNL     1     -18.448 -10.852 -13.316  1.00  0.00     0.293 HD
ENDBRANCH   6  22
BRANCH   8  24
ATOM     24  O   UNL     1     -18.417 -12.295 -18.066  1.00  0.00    -0.508 OA
ATOM     25  H   UNL     1     -19.080 -11.771 -18.625  1.00  0.00     0.293 HD
ENDBRANCH   8  24
TORSDOF 5
ENDMDL
MODEL 4
REMARK VINA RESULT:    -6.509      2.832      6.964
REMARK INTER + INTRA:          -7.916
REMARK INTER:                  -7.644
REMARK INTRA:                  -0.273
REMARK UNBOUND:                -0.265
REMARK SMILES O=c1c(O)c(-c2ccc(O)cc2)oc2cc(O)cc(O)c12
REMARK SMILES IDX 5 1 3 2 2 3 1 4 21 5 19 6 18 7 16 8 15 9 14 10 13 11 6 12
REMARK SMILES IDX 7 13 8 14 9 15 12 16 11 17 10 18 4 20 20 22 17 24
REMARK H PARENT 10 19 4 21 20 23 17 25
REMARK Flexibility Score: inf
ROOT
ATOM      1  C   UNL     1      -8.088 -19.242  -7.667  1.00  0.00     0.180 A 
ATOM      2  C   UNL     1      -7.688 -20.118  -8.695  1.00  0.00     0.208 A 
ATOM      3  C   UNL     1      -6.383 -20.017  -9.201  1.00  0.00     0.238 A 
ATOM      4  O   UNL     1      -6.017 -20.788 -10.130  1.00  0.00    -0.285 OA
ATOM      5  C   UNL     1      -5.497 -19.062  -8.661  1.00  0.00     0.111 A 
ATOM      6  C   UNL     1      -4.165 -18.899  -9.112  1.00  0.00     0.134 A 
ATOM      7  C   UNL     1      -3.342 -17.932  -8.516  1.00  0.00     0.093 A 
ATOM      8  C   UNL     1      -3.826 -17.126  -7.479  1.00  0.00     0.123 A 
ATOM      9  C   UNL     1      -5.139 -17.283  -7.032  1.00  0.00     0.094 A 
ATOM     10  C   UNL     1      -5.975 -18.241  -7.613  1.00  0.00     0.146 A 
ATOM     11  O   UNL     1      -7.221 -18.364  -7.172  1.00  0.00    -0.452 OA
ENDROOT
BRANCH   1  12
ATOM     12  C   UNL     1      -9.453 -19.273  -7.095  1.00  0.00     0.021 A 
ATOM     13  C   UNL     1      -9.811 -20.204  -6.100  1.00  0.00     0.016 A 
ATOM     14  C   UNL     1     -11.114 -20.229  -5.593  1.00  0.00     0.047 A 
ATOM     15  C   UNL     1     -12.077 -19.337  -6.081  1.00  0.00     0.115 A 
ATOM     16  C   UNL     1     -10.432 -18.397  -7.592  1.00  0.00     0.016 A 
ATOM     17  C   UNL     1     -11.733 -18.424  -7.082  1.00  0.00     0.047 A 
BRANCH  15  18
ATOM     18  O   UNL     1     -13.378 -19.353  -5.581  1.00  0.00    -0.508 OA
ATOM     19  H   UNL     1     -13.727 -18.606  -4.991  1.00  0.00     0.293 HD
ENDBRANCH  15  18
ENDBRANCH   1  12
BRANCH   2  20
ATOM     20  O   UNL     1      -8.569 -21.088  -9.179  1.00  0.00    -0.502 OA
ATOM     21  H   UNL     1      -9.331 -21.456  -8.622  1.00  0.00     0.293 HD
ENDBRANCH   2  20
BRANCH   6  22
ATOM     22  O   UNL     1      -3.653 -19.689 -10.143  1.00  0.00    -0.507 OA
ATOM     23  H   UNL     1      -2.990 -19.324 -10.816  1.00  0.00     0.293 HD
ENDBRANCH   6  22
BRANCH   8  24
ATOM     24  O   UNL     1      -3.009 -16.167  -6.887  1.00  0.00    -0.508 OA
ATOM     25  H   UNL     1      -2.951 -16.068  -5.879  1.00  0.00     0.293 HD
ENDBRANCH   8  24
TORSDOF 5
ENDMDL
MODEL 5
REMARK VINA RESULT:    -6.456      5.332      6.675
REMARK INTER + INTRA:          -7.854
REMARK INTER:                  -7.612
REMARK INTRA:                  -0.242
REMARK UNBOUND:                -0.265
REMARK SMILES O=c1c(O)c(-c2ccc(O)cc2)oc2cc(O)cc(O)c12
REMARK SMILES IDX 5 1 3 2 2 3 1 4 21 5 19 6 18 7 16 8 15 9 14 10 13 11 6 12
REMARK SMILES IDX 7 13 8 14 9 15 12 16 11 17 10 18 4 20 20 22 17 24
REMARK H PARENT 10 19 4 21 20 23 17 25
REMARK Flexibility Score: inf
ROOT
ATOM      1  C   UNL     1     -11.687 -22.115 -10.237  1.00  0.00     0.180 A 
ATOM      2  C   UNL     1     -10.482 -21.524  -9.809  1.00  0.00     0.208 A 
ATOM      3  C   UNL     1     -10.509 -20.646  -8.714  1.00  0.00     0.238 A 
ATOM      4  O   UNL     1      -9.438 -20.103  -8.329  1.00  0.00    -0.285 OA
ATOM      5  C   UNL     1     -11.729 -20.390  -8.056  1.00  0.00     0.111 A 
ATOM      6  C   UNL     1     -11.841 -19.521  -6.943  1.00  0.00     0.134 A 
ATOM      7  C   UNL     1     -13.091 -19.326  -6.336  1.00  0.00     0.093 A 
ATOM      8  C   UNL     1     -14.229 -19.982  -6.820  1.00  0.00     0.123 A 
ATOM      9  C   UNL     1     -14.123 -20.838  -7.917  1.00  0.00     0.094 A 
ATOM     10  C   UNL     1     -12.887 -21.045  -8.536  1.00  0.00     0.146 A 
ATOM     11  O   UNL     1     -12.817 -21.861  -9.582  1.00  0.00    -0.452 OA
ENDROOT
BRANCH   1  12
ATOM     12  C   UNL     1     -11.744 -23.035 -11.394  1.00  0.00     0.021 A 
ATOM     13  C   UNL     1     -11.641 -22.560 -12.716  1.00  0.00     0.016 A 
ATOM     14  C   UNL     1     -11.722 -23.447 -13.793  1.00  0.00     0.047 A 
ATOM     15  C   UNL     1     -11.920 -24.815 -13.567  1.00  0.00     0.115 A 
ATOM     16  C   UNL     1     -11.964 -24.406 -11.178  1.00  0.00     0.016 A 
ATOM     17  C   UNL     1     -12.043 -25.290 -12.258  1.00  0.00     0.047 A 
BRANCH  15  18
ATOM     18  O   UNL     1     -12.001 -25.708 -14.634  1.00  0.00    -0.508 OA
ATOM     19  H   UNL     1     -11.927 -25.392 -15.594  1.00  0.00     0.293 HD
ENDBRANCH  15  18
ENDBRANCH   1  12
BRANCH   2  20
ATOM     20  O   UNL     1      -9.279 -21.833 -10.448  1.00  0.00    -0.502 OA
ATOM     21  H   UNL     1      -8.463 -22.154  -9.941  1.00  0.00     0.293 HD
ENDBRANCH   2  20
BRANCH   6  22
ATOM     22  O   UNL     1     -10.725 -18.855  -6.436  1.00  0.00    -0.507 OA
ATOM     23  H   UNL     1     -10.752 -18.367  -5.549  1.00  0.00     0.293 HD
ENDBRANCH   6  22
BRANCH   8  24
ATOM     24  O   UNL     1     -15.469 -19.788  -6.218  1.00  0.00    -0.508 OA
ATOM     25  H   UNL     1     -15.617 -19.058  -5.530  1.00  0.00     0.293 HD
ENDBRANCH   8  24
TORSDOF 5
ENDMDL
MODEL 6
REMARK VINA RESULT:    -6.177     12.077     15.408
REMARK INTER + INTRA:          -7.526
REMARK INTER:                  -7.416
REMARK INTRA:                  -0.110
REMARK UNBOUND:                -0.265
REMARK SMILES O=c1c(O)c(-c2ccc(O)cc2)oc2cc(O)cc(O)c12
REMARK SMILES IDX 5 1 3 2 2 3 1 4 21 5 19 6 18 7 16 8 15 9 14 10 13 11 6 12
REMARK SMILES IDX 7 13 8 14 9 15 12 16 11 17 10 18 4 20 20 22 17 24
REMARK H PARENT 10 19 4 21 20 23 17 25
REMARK Flexibility Score: inf
ROOT
ATOM      1  C   UNL     1     -12.435 -10.266 -16.122  1.00  0.00     0.180 A 
ATOM      2  C   UNL     1     -11.932  -9.628 -17.273  1.00  0.00     0.208 A 
ATOM      3  C   UNL     1     -10.749 -10.111 -17.854  1.00  0.00     0.238 A 
ATOM      4  O   UNL     1     -10.283  -9.540 -18.878  1.00  0.00    -0.285 OA
ATOM      5  C   UNL     1     -10.101 -11.228 -17.289  1.00  0.00     0.111 A 
ATOM      6  C   UNL     1      -8.906 -11.778 -17.815  1.00  0.00     0.134 A 
ATOM      7  C   UNL     1      -8.327 -12.898 -17.201  1.00  0.00     0.093 A 
ATOM      8  C   UNL     1      -8.919 -13.479 -16.073  1.00  0.00     0.123 A 
ATOM      9  C   UNL     1     -10.096 -12.939 -15.551  1.00  0.00     0.094 A 
ATOM     10  C   UNL     1     -10.688 -11.823 -16.148  1.00  0.00     0.146 A 
ATOM     11  O   UNL     1     -11.804 -11.327 -15.627  1.00  0.00    -0.452 OA
ENDROOT
BRANCH   1  12
ATOM     12  C   UNL     1     -13.666  -9.805 -15.442  1.00  0.00     0.021 A 
ATOM     13  C   UNL     1     -13.769  -8.505 -14.913  1.00  0.00     0.016 A 
ATOM     14  C   UNL     1     -14.934  -8.101 -14.253  1.00  0.00     0.047 A 
ATOM     15  C   UNL     1     -16.003  -8.994 -14.101  1.00  0.00     0.115 A 
ATOM     16  C   UNL     1     -14.735 -10.700 -15.266  1.00  0.00     0.016 A 
ATOM     17  C   UNL     1     -15.899 -10.292 -14.607  1.00  0.00     0.047 A 
BRANCH  15  18
ATOM     18  O   UNL     1     -17.168  -8.601 -13.446  1.00  0.00    -0.508 OA
ATOM     19  H   UNL     1     -17.144  -8.209 -12.512  1.00  0.00     0.293 HD
ENDBRANCH  15  18
ENDBRANCH   1  12
BRANCH   2  20
ATOM     20  O   UNL     1     -12.620  -8.553 -17.842  1.00  0.00    -0.502 OA
ATOM     21  H   UNL     1     -12.842  -8.512 -18.829  1.00  0.00     0.293 HD
ENDBRANCH   2  20
BRANCH   6  22
ATOM     22  O   UNL     1      -8.294 -11.223 -18.940  1.00  0.00    -0.507 OA
ATOM     23  H   UNL     1      -8.397 -10.244 -19.175  1.00  0.00     0.293 HD
ENDBRANCH   6  22
BRANCH   8  24
ATOM     24  O   UNL     1      -8.345 -14.592 -15.464  1.00  0.00    -0.508 OA
ATOM     25  H   UNL     1      -8.804 -15.074 -14.700  1.00  0.00     0.293 HD
ENDBRANCH   8  24
TORSDOF 5
ENDMDL
MODEL 7
REMARK VINA RESULT:    -6.111      2.401      2.851
REMARK INTER + INTRA:          -7.448
REMARK INTER:                  -7.180
REMARK INTRA:                  -0.268
REMARK UNBOUND:                -0.265
REMARK SMILES O=c1c(O)c(-c2ccc(O)cc2)oc2cc(O)cc(O)c12
REMARK SMILES IDX 5 1 3 2 2 3 1 4 21 5 19 6 18 7 16 8 15 9 14 10 13 11 6 12
REMARK SMILES IDX 7 13 8 14 9 15 12 16 11 17 10 18 4 20 20 22 17 24
REMARK H PARENT 10 19 4 21 20 23 17 25
REMARK Flexibility Score: inf
ROOT
ATOM      1  C   UNL     1      -9.242 -20.003  -7.367  1.00  0.00     0.180 A 
ATOM      2  C   UNL     1      -9.458 -20.632  -8.609  1.00  0.00     0.208 A 
ATOM      3  C   UNL     1     -10.769 -20.973  -8.976  1.00  0.00     0.238 A 
ATOM      4  O   UNL     1     -10.973 -21.547 -10.081  1.00  0.00    -0.285 OA
ATOM      5  C   UNL     1     -11.838 -20.665  -8.111  1.00  0.00     0.111 A 
ATOM      6  C   UNL     1     -13.188 -20.972  -8.409  1.00  0.00     0.134 A 
ATOM      7  C   UNL     1     -14.198 -20.623  -7.499  1.00  0.00     0.093 A 
ATOM      8  C   UNL     1     -13.883 -19.973  -6.300  1.00  0.00     0.123 A 
ATOM      9  C   UNL     1     -12.554 -19.670  -6.003  1.00  0.00     0.094 A 
ATOM     10  C   UNL     1     -11.533 -20.010  -6.895  1.00  0.00     0.146 A 
ATOM     11  O   UNL     1     -10.277 -19.714  -6.584  1.00  0.00    -0.452 OA
ENDROOT
BRANCH   1  12
ATOM     12  C   UNL     1      -7.888 -19.629  -6.900  1.00  0.00     0.021 A 
ATOM     13  C   UNL     1      -7.258 -18.450  -7.343  1.00  0.00     0.016 A 
ATOM     14  C   UNL     1      -5.969 -18.132  -6.906  1.00  0.00     0.047 A 
ATOM     15  C   UNL     1      -5.287 -18.991  -6.035  1.00  0.00     0.115 A 
ATOM     16  C   UNL     1      -7.189 -20.495  -6.043  1.00  0.00     0.016 A 
ATOM     17  C   UNL     1      -5.900 -20.172  -5.607  1.00  0.00     0.047 A 
BRANCH  15  18
ATOM     18  O   UNL     1      -4.003 -18.682  -5.592  1.00  0.00    -0.508 OA
ATOM     19  H   UNL     1      -3.728 -18.821  -4.627  1.00  0.00     0.293 HD
ENDBRANCH  15  18
ENDBRANCH   1  12
BRANCH   2  20
ATOM     20  O   UNL     1      -8.386 -20.882  -9.469  1.00  0.00    -0.502 OA
ATOM     21  H   UNL     1      -8.183 -21.807  -9.828  1.00  0.00     0.293 HD
ENDBRANCH   2  20
BRANCH   6  22
ATOM     22  O   UNL     1     -13.534 -21.617  -9.597  1.00  0.00    -0.507 OA
ATOM     23  H   UNL     1     -14.415 -21.439 -10.064  1.00  0.00     0.293 HD
ENDBRANCH   6  22
BRANCH   8  24
ATOM     24  O   UNL     1     -14.885 -19.627  -5.397  1.00  0.00    -0.508 OA
ATOM     25  H   UNL     1     -15.763 -19.227  -5.708  1.00  0.00     0.293 HD
ENDBRANCH   8  24
TORSDOF 5
ENDMDL
MODEL 8
REMARK VINA RESULT:    -6.046     14.305     15.661
REMARK INTER + INTRA:          -7.372
REMARK INTER:                  -7.184
REMARK INTRA:                  -0.187
REMARK UNBOUND:                -0.265
REMARK SMILES O=c1c(O)c(-c2ccc(O)cc2)oc2cc(O)cc(O)c12
REMARK SMILES IDX 5 1 3 2 2 3 1 4 21 5 19 6 18 7 16 8 15 9 14 10 13 11 6 12
REMARK SMILES IDX 7 13 8 14 9 15 12 16 11 17 10 18 4 20 20 22 17 24
REMARK H PARENT 10 19 4 21 20 23 17 25
REMARK Flexibility Score: inf
ROOT
ATOM      1  C   UNL     1     -13.191  -9.522 -16.856  1.00  0.00     0.180 A 
ATOM      2  C   UNL     1     -14.097 -10.122 -17.753  1.00  0.00     0.208 A 
ATOM      3  C   UNL     1     -15.295 -10.654 -17.251  1.00  0.00     0.238 A 
ATOM      4  O   UNL     1     -16.109 -11.203 -18.043  1.00  0.00    -0.285 OA
ATOM      5  C   UNL     1     -15.576 -10.562 -15.873  1.00  0.00     0.111 A 
ATOM      6  C   UNL     1     -16.762 -11.069 -15.289  1.00  0.00     0.134 A 
ATOM      7  C   UNL     1     -16.973 -10.929 -13.909  1.00  0.00     0.093 A 
ATOM      8  C   UNL     1     -16.022 -10.292 -13.104  1.00  0.00     0.123 A 
ATOM      9  C   UNL     1     -14.852  -9.791 -13.676  1.00  0.00     0.094 A 
ATOM     10  C   UNL     1     -14.622  -9.921 -15.048  1.00  0.00     0.146 A 
ATOM     11  O   UNL     1     -13.497  -9.439 -15.564  1.00  0.00    -0.452 OA
ENDROOT
BRANCH   1  12
ATOM     12  C   UNL     1     -11.899  -8.955 -17.304  1.00  0.00     0.021 A 
ATOM     13  C   UNL     1     -11.842  -7.782 -18.079  1.00  0.00     0.016 A 
ATOM     14  C   UNL     1     -10.611  -7.280 -18.511  1.00  0.00     0.047 A 
ATOM     15  C   UNL     1      -9.424  -7.950 -18.187  1.00  0.00     0.115 A 
ATOM     16  C   UNL     1     -10.706  -9.632 -17.002  1.00  0.00     0.016 A 
ATOM     17  C   UNL     1      -9.476  -9.126 -17.434  1.00  0.00     0.047 A 
BRANCH  15  18
ATOM     18  O   UNL     1      -8.191  -7.458 -18.611  1.00  0.00    -0.508 OA
ATOM     19  H   UNL     1      -8.125  -6.736 -19.320  1.00  0.00     0.293 HD
ENDBRANCH  15  18
ENDBRANCH   1  12
BRANCH   2  20
ATOM     20  O   UNL     1     -13.817 -10.156 -19.121  1.00  0.00    -0.502 OA
ATOM     21  H   UNL     1     -14.493  -9.874 -19.820  1.00  0.00     0.293 HD
ENDBRANCH   2  20
BRANCH   6  22
ATOM     22  O   UNL     1     -17.730 -11.707 -16.066  1.00  0.00    -0.507 OA
ATOM     23  H   UNL     1     -18.053 -12.643 -15.853  1.00  0.00     0.293 HD
ENDBRANCH   6  22
BRANCH   8  24
ATOM     24  O   UNL     1     -16.231 -10.152 -11.734  1.00  0.00    -0.508 OA
ATOM     25  H   UNL     1     -16.944 -10.686 -11.249  1.00  0.00     0.293 HD
ENDBRANCH   8  24
TORSDOF 5
ENDMDL
MODEL 9
REMARK VINA RESULT:    -6.035     11.892     13.971
REMARK INTER + INTRA:          -7.359
REMARK INTER:                  -7.089
REMARK INTRA:                  -0.270
REMARK UNBOUND:                -0.265
REMARK SMILES O=c1c(O)c(-c2ccc(O)cc2)oc2cc(O)cc(O)c12
REMARK SMILES IDX 5 1 3 2 2 3 1 4 21 5 19 6 18 7 16 8 15 9 14 10 13 11 6 12
REMARK SMILES IDX 7 13 8 14 9 15 12 16 11 17 10 18 4 20 20 22 17 24
REMARK H PARENT 10 19 4 21 20 23 17 25
REMARK Flexibility Score: inf
ROOT
ATOM      1  C   UNL     1     -11.324 -11.550 -16.471  1.00  0.00     0.180 A 
ATOM      2  C   UNL     1     -10.927 -10.480 -17.295  1.00  0.00     0.208 A 
ATOM      3  C   UNL     1     -11.660  -9.283 -17.252  1.00  0.00     0.238 A 
ATOM      4  O   UNL     1     -11.320  -8.321 -17.994  1.00  0.00    -0.285 OA
ATOM      5  C   UNL     1     -12.761  -9.171 -16.379  1.00  0.00     0.111 A 
ATOM      6  C   UNL     1     -13.549  -8.000 -16.274  1.00  0.00     0.134 A 
ATOM      7  C   UNL     1     -14.623  -7.963 -15.372  1.00  0.00     0.093 A 
ATOM      8  C   UNL     1     -14.923  -9.074 -14.575  1.00  0.00     0.123 A 
ATOM      9  C   UNL     1     -14.149 -10.230 -14.677  1.00  0.00     0.094 A 
ATOM     10  C   UNL     1     -13.075 -10.287 -15.569  1.00  0.00     0.146 A 
ATOM     11  O   UNL     1     -12.359 -11.403 -15.648  1.00  0.00    -0.452 OA
ENDROOT
BRANCH   1  12
ATOM     12  C   UNL     1     -10.614 -12.849 -16.472  1.00  0.00     0.021 A 
ATOM     13  C   UNL     1     -10.824 -13.800 -17.489  1.00  0.00     0.016 A 
ATOM     14  C   UNL     1     -10.160 -15.029 -17.455  1.00  0.00     0.047 A 
ATOM     15  C   UNL     1      -9.290 -15.331 -16.400  1.00  0.00     0.115 A 
ATOM     16  C   UNL     1      -9.755 -13.169 -15.408  1.00  0.00     0.016 A 
ATOM     17  C   UNL     1      -9.092 -14.399 -15.377  1.00  0.00     0.047 A 
BRANCH  15  18
ATOM     18  O   UNL     1      -8.621 -16.553 -16.357  1.00  0.00    -0.508 OA
ATOM     19  H   UNL     1      -7.831 -16.745 -16.962  1.00  0.00     0.293 HD
ENDBRANCH  15  18
ENDBRANCH   1  12
BRANCH   2  20
ATOM     20  O   UNL     1      -9.802 -10.600 -18.115  1.00  0.00    -0.502 OA
ATOM     21  H   UNL     1      -9.788 -11.201 -18.931  1.00  0.00     0.293 HD
ENDBRANCH   2  20
BRANCH   6  22
ATOM     22  O   UNL     1     -13.274  -6.875 -17.053  1.00  0.00    -0.507 OA
ATOM     23  H   UNL     1     -13.373  -5.936 -16.688  1.00  0.00     0.293 HD
ENDBRANCH   6  22
BRANCH   8  24
ATOM     24  O   UNL     1     -15.989  -9.037 -13.680  1.00  0.00    -0.508 OA
ATOM     25  H   UNL     1     -16.626  -8.249 -13.645  1.00  0.00     0.293 HD
ENDBRANCH   8  24
TORSDOF 5
ENDMDL
