MODEL 1
REMARK VINA RESULT:    -6.166      0.000      0.000
REMARK INTER + INTRA:         -10.224
REMARK INTER:                  -8.509
REMARK INTRA:                  -1.715
REMARK UNBOUND:                -1.715
REMARK SMILES CC[C@@H](CC[C@@H](C)[C@@H]1CC[C@@H]2[C@H]3CC=C4C[C@H](O)CC[C@]4(C)[C@H]3CC[C@]21C)C(C)C
REMARK SMILES IDX 5 1 4 2 3 3 2 4 1 5 28 6 29 7 30 8 6 9 7 10 8 11 9 12 26 13
REMARK SMILES IDX 10 14 11 15 25 16 27 17 12 18 24 19 23 20 13 21 21 22 14 23
REMARK SMILES IDX 15 24 20 25 22 26 16 27 19 28 17 29 18 30
REMARK H PARENT 18 31
REMARK Flexibility Score: inf
ROOT
ATOM      1  C   UNL     1       7.292   5.871  18.453  1.00  0.00     0.004 C 
ENDROOT
BRANCH   1   2
ATOM      2  C   UNL     1       7.548   7.162  19.260  1.00  0.00     0.004 C 
BRANCH   2   3
ATOM      3  C   UNL     1       6.385   7.553  20.215  1.00  0.00    -0.009 C 
BRANCH   3   4
ATOM      4  C   UNL     1       6.866   8.632  21.236  1.00  0.00     0.000 C 
ATOM      5  C   UNL     1       6.908  10.040  20.632  1.00  0.00     0.004 C 
ENDBRANCH   3   4
BRANCH   3   6
ATOM      6  C   UNL     1       5.725   6.317  20.918  1.00  0.00    -0.014 C 
ATOM      7  C   UNL     1       4.290   6.618  21.395  1.00  0.00     0.007 C 
ATOM      8  C   UNL     1       6.548   5.834  22.125  1.00  0.00     0.007 C 
ENDBRANCH   3   6
ENDBRANCH   2   3
ENDBRANCH   1   2
BRANCH   1   9
ATOM      9  C   UNL     1       6.439   6.073  17.174  1.00  0.00    -0.011 C 
ATOM     10  C   UNL     1       7.152   5.500  15.931  1.00  0.00     0.008 C 
BRANCH   9  11
ATOM     11  C   UNL     1       4.945   5.621  17.369  1.00  0.00    -0.002 C 
ATOM     12  C   UNL     1       4.495   4.287  16.716  1.00  0.00     0.005 C 
ATOM     13  C   UNL     1       3.863   6.640  16.921  1.00  0.00    -0.026 C 
ATOM     14  C   UNL     1       2.981   4.419  16.467  1.00  0.00     0.005 C 
ATOM     15  C   UNL     1       2.603   5.769  17.070  1.00  0.00    -0.001 C 
ATOM     16  C   UNL     1       3.738   7.895  17.837  1.00  0.00     0.007 C 
ATOM     17  C   UNL     1       4.105   7.087  15.440  1.00  0.00     0.012 C 
ATOM     18  C   UNL     1       1.326   6.468  16.548  1.00  0.00     0.000 C 
ATOM     19  C   UNL     1       2.272   8.270  18.186  1.00  0.00     0.005 C 
ATOM     20  C   UNL     1       1.255   7.967  17.040  1.00  0.00     0.003 C 
ATOM     21  C   UNL     1       0.078   5.674  16.945  1.00  0.00     0.031 C 
ATOM     22  C   UNL     1      -0.213   8.527  17.325  1.00  0.00    -0.008 C 
ATOM     23  C   UNL     1      -1.143   6.376  16.446  1.00  0.00    -0.027 C 
ATOM     24  C   UNL     1      -1.278   7.711  16.571  1.00  0.00    -0.065 C 
ATOM     25  C   UNL     1      -0.263  10.022  16.863  1.00  0.00     0.014 C 
ATOM     26  C   UNL     1      -0.577   8.463  18.834  1.00  0.00     0.016 C 
ATOM     27  C   UNL     1      -2.630   8.321  16.248  1.00  0.00     0.063 C 
ATOM     28  C   UNL     1      -1.680  10.595  16.747  1.00  0.00     0.033 C 
ATOM     29  C   UNL     1      -2.522   9.772  15.770  1.00  0.00     0.118 C 
BRANCH  29  30
ATOM     30  O   UNL     1      -1.952   9.819  14.485  1.00  0.00    -0.393 OA
ATOM     31  H   UNL     1      -2.697   9.724  13.838  1.00  0.00     0.210 HD
ENDBRANCH  29  30
ENDBRANCH   9  11
ENDBRANCH   1   9
TORSDOF 7
ENDMDL
MODEL 2
REMARK VINA RESULT:    -5.839      2.316      4.751
REMARK INTER + INTRA:          -9.773
REMARK INTER:                  -8.526
REMARK INTRA:                  -1.247
REMARK UNBOUND:                -1.715
REMARK SMILES CC[C@@H](CC[C@@H](C)[C@@H]1CC[C@@H]2[C@H]3CC=C4C[C@H](O)CC[C@]4(C)[C@H]3CC[C@]21C)C(C)C
REMARK SMILES IDX 5 1 4 2 3 3 2 4 1 5 28 6 29 7 30 8 6 9 7 10 8 11 9 12 26 13
REMARK SMILES IDX 10 14 11 15 25 16 27 17 12 18 24 19 23 20 13 21 21 22 14 23
REMARK SMILES IDX 15 24 20 25 22 26 16 27 19 28 17 29 18 30
REMARK H PARENT 18 31
REMARK Flexibility Score: inf
ROOT
ATOM      1  C   UNL     1       6.960   4.422  17.574  1.00  0.00     0.004 C 
ENDROOT
BRANCH   1   2
ATOM      2  C   UNL     1       6.123   3.261  18.155  1.00  0.00     0.004 C 
BRANCH   2   3
ATOM      3  C   UNL     1       5.699   2.198  17.103  1.00  0.00    -0.009 C 
BRANCH   3   4
ATOM      4  C   UNL     1       4.308   2.566  16.495  1.00  0.00     0.000 C 
ATOM      5  C   UNL     1       4.425   3.274  15.141  1.00  0.00     0.004 C 
ENDBRANCH   3   4
BRANCH   3   6
ATOM      6  C   UNL     1       5.739   0.732  17.658  1.00  0.00    -0.014 C 
ATOM      7  C   UNL     1       6.650  -0.183  16.816  1.00  0.00     0.007 C 
ATOM      8  C   UNL     1       4.337   0.102  17.720  1.00  0.00     0.007 C 
ENDBRANCH   3   6
ENDBRANCH   2   3
ENDBRANCH   1   2
BRANCH   1   9
ATOM      9  C   UNL     1       7.146   5.623  18.537  1.00  0.00    -0.011 C 
ATOM     10  C   UNL     1       8.624   5.787  18.947  1.00  0.00     0.008 C 
BRANCH   9  11
ATOM     11  C   UNL     1       6.435   6.927  18.016  1.00  0.00    -0.002 C 
ATOM     12  C   UNL     1       7.087   8.295  18.351  1.00  0.00     0.005 C 
ATOM     13  C   UNL     1       4.952   7.106  18.437  1.00  0.00    -0.026 C 
ATOM     14  C   UNL     1       5.943   9.326  18.355  1.00  0.00     0.005 C 
ATOM     15  C   UNL     1       4.707   8.539  17.931  1.00  0.00    -0.001 C 
ATOM     16  C   UNL     1       3.960   6.131  17.734  1.00  0.00     0.007 C 
ATOM     17  C   UNL     1       4.800   6.990  19.990  1.00  0.00     0.012 C 
ATOM     18  C   UNL     1       3.319   9.089  18.336  1.00  0.00     0.000 C 
ATOM     19  C   UNL     1       2.673   6.823  17.207  1.00  0.00     0.005 C 
ATOM     20  C   UNL     1       2.188   8.012  18.096  1.00  0.00     0.003 C 
ATOM     21  C   UNL     1       3.026  10.402  17.604  1.00  0.00     0.031 C 
ATOM     22  C   UNL     1       0.767   8.596  17.660  1.00  0.00    -0.008 C 
ATOM     23  C   UNL     1       1.674  10.904  17.997  1.00  0.00    -0.027 C 
ATOM     24  C   UNL     1       0.618  10.071  18.075  1.00  0.00    -0.065 C 
ATOM     25  C   UNL     1      -0.345   7.736  18.350  1.00  0.00     0.014 C 
ATOM     26  C   UNL     1       0.558   8.534  16.123  1.00  0.00     0.016 C 
ATOM     27  C   UNL     1      -0.758  10.684  18.259  1.00  0.00     0.063 C 
ATOM     28  C   UNL     1      -1.740   8.370  18.316  1.00  0.00     0.033 C 
ATOM     29  C   UNL     1      -1.729   9.747  18.983  1.00  0.00     0.118 C 
BRANCH  29  30
ATOM     30  O   UNL     1      -1.365   9.622  20.336  1.00  0.00    -0.393 OA
ATOM     31  H   UNL     1      -1.726   8.754  20.651  1.00  0.00     0.210 HD
ENDBRANCH  29  30
ENDBRANCH   9  11
ENDBRANCH   1   9
TORSDOF 7
ENDMDL
MODEL 3
REMARK VINA RESULT:    -5.580      1.369      2.265
REMARK INTER + INTRA:          -9.416
REMARK INTER:                  -7.523
REMARK INTRA:                  -1.893
REMARK UNBOUND:                -1.715
REMARK SMILES CC[C@@H](CC[C@@H](C)[C@@H]1CC[C@@H]2[C@H]3CC=C4C[C@H](O)CC[C@]4(C)[C@H]3CC[C@]21C)C(C)C
REMARK SMILES IDX 5 1 4 2 3 3 2 4 1 5 28 6 29 7 30 8 6 9 7 10 8 11 9 12 26 13
REMARK SMILES IDX 10 14 11 15 25 16 27 17 12 18 24 19 23 20 13 21 21 22 14 23
REMARK SMILES IDX 15 24 20 25 22 26 16 27 19 28 17 29 18 30
REMARK H PARENT 18 31
REMARK Flexibility Score: inf
ROOT
ATOM      1  C   UNL     1       7.179   5.348  20.117  1.00  0.00     0.004 C 
ENDROOT
BRANCH   1   2
ATOM      2  C   UNL     1       8.077   6.602  20.179  1.00  0.00     0.004 C 
BRANCH   2   3
ATOM      3  C   UNL     1       7.785   7.645  19.063  1.00  0.00    -0.009 C 
BRANCH   3   4
ATOM      4  C   UNL     1       9.000   7.745  18.087  1.00  0.00     0.000 C 
ATOM      5  C   UNL     1       8.875   6.799  16.888  1.00  0.00     0.004 C 
ENDBRANCH   3   4
BRANCH   3   6
ATOM      6  C   UNL     1       7.353   9.044  19.625  1.00  0.00    -0.014 C 
ATOM      7  C   UNL     1       6.679   8.932  21.007  1.00  0.00     0.007 C 
ATOM      8  C   UNL     1       6.391   9.774  18.671  1.00  0.00     0.007 C 
ENDBRANCH   3   6
ENDBRANCH   2   3
ENDBRANCH   1   2
BRANCH   1   9
ATOM      9  C   UNL     1       6.904   4.826  18.683  1.00  0.00    -0.011 C 
ATOM     10  C   UNL     1       7.813   3.628  18.341  1.00  0.00     0.008 C 
BRANCH   9  11
ATOM     11  C   UNL     1       5.370   4.618  18.402  1.00  0.00    -0.002 C 
ATOM     12  C   UNL     1       4.958   3.527  17.379  1.00  0.00     0.005 C 
ATOM     13  C   UNL     1       4.587   5.877  17.942  1.00  0.00    -0.026 C 
ATOM     14  C   UNL     1       3.599   3.967  16.804  1.00  0.00     0.005 C 
ATOM     15  C   UNL     1       3.238   5.230  17.581  1.00  0.00    -0.001 C 
ATOM     16  C   UNL     1       4.369   6.945  19.056  1.00  0.00     0.007 C 
ATOM     17  C   UNL     1       5.280   6.537  16.704  1.00  0.00     0.012 C 
ATOM     18  C   UNL     1       2.249   6.227  16.932  1.00  0.00     0.000 C 
ATOM     19  C   UNL     1       2.921   7.503  19.111  1.00  0.00     0.005 C 
ATOM     20  C   UNL     1       2.230   7.600  17.713  1.00  0.00     0.003 C 
ATOM     21  C   UNL     1       0.853   5.608  16.826  1.00  0.00     0.031 C 
ATOM     22  C   UNL     1       0.820   8.349  17.749  1.00  0.00    -0.008 C 
ATOM     23  C   UNL     1      -0.088   6.594  16.212  1.00  0.00    -0.027 C 
ATOM     24  C   UNL     1      -0.087   7.886  16.595  1.00  0.00    -0.065 C 
ATOM     25  C   UNL     1       1.083   9.888  17.633  1.00  0.00     0.014 C 
ATOM     26  C   UNL     1       0.049   8.076  19.070  1.00  0.00     0.016 C 
ATOM     27  C   UNL     1      -1.213   8.774  16.096  1.00  0.00     0.063 C 
ATOM     28  C   UNL     1      -0.166  10.714  17.306  1.00  0.00     0.033 C 
ATOM     29  C   UNL     1      -0.801  10.246  15.995  1.00  0.00     0.118 C 
BRANCH  29  30
ATOM     30  O   UNL     1       0.103  10.425  14.932  1.00  0.00    -0.393 OA
ATOM     31  H   UNL     1       0.831  11.007  15.271  1.00  0.00     0.210 HD
ENDBRANCH  29  30
ENDBRANCH   9  11
ENDBRANCH   1   9
TORSDOF 7
ENDMDL
MODEL 4
REMARK VINA RESULT:    -5.310      2.109      4.711
REMARK INTER + INTRA:          -9.043
REMARK INTER:                  -7.913
REMARK INTRA:                  -1.130
REMARK UNBOUND:                -1.715
REMARK SMILES CC[C@@H](CC[C@@H](C)[C@@H]1CC[C@@H]2[C@H]3CC=C4C[C@H](O)CC[C@]4(C)[C@H]3CC[C@]21C)C(C)C
REMARK SMILES IDX 5 1 4 2 3 3 2 4 1 5 28 6 29 7 30 8 6 9 7 10 8 11 9 12 26 13
REMARK SMILES IDX 10 14 11 15 25 16 27 17 12 18 24 19 23 20 13 21 21 22 14 23
REMARK SMILES IDX 15 24 20 25 22 26 16 27 19 28 17 29 18 30
REMARK H PARENT 18 31
REMARK Flexibility Score: inf
ROOT
ATOM      1  C   UNL     1       6.284   4.516  19.004  1.00  0.00     0.004 C 
ENDROOT
BRANCH   1   2
ATOM      2  C   UNL     1       6.462   3.598  17.775  1.00  0.00     0.004 C 
BRANCH   2   3
ATOM      3  C   UNL     1       5.141   3.303  17.009  1.00  0.00    -0.009 C 
BRANCH   3   4
ATOM      4  C   UNL     1       4.766   1.793  17.144  1.00  0.00     0.000 C 
ATOM      5  C   UNL     1       5.963   0.864  16.923  1.00  0.00     0.004 C 
ENDBRANCH   3   4
BRANCH   3   6
ATOM      6  C   UNL     1       5.175   3.780  15.516  1.00  0.00    -0.014 C 
ATOM      7  C   UNL     1       5.971   5.088  15.341  1.00  0.00     0.007 C 
ATOM      8  C   UNL     1       3.761   3.990  14.947  1.00  0.00     0.007 C 
ENDBRANCH   3   6
ENDBRANCH   2   3
ENDBRANCH   1   2
BRANCH   1   9
ATOM      9  C   UNL     1       7.187   5.777  18.998  1.00  0.00    -0.011 C 
ATOM     10  C   UNL     1       8.601   5.448  18.478  1.00  0.00     0.008 C 
BRANCH   9  11
ATOM     11  C   UNL     1       6.486   7.015  18.326  1.00  0.00    -0.002 C 
ATOM     12  C   UNL     1       7.153   8.406  18.488  1.00  0.00     0.005 C 
ATOM     13  C   UNL     1       5.007   7.260  18.729  1.00  0.00    -0.026 C 
ATOM     14  C   UNL     1       6.019   9.443  18.372  1.00  0.00     0.005 C 
ATOM     15  C   UNL     1       4.773   8.622  18.053  1.00  0.00    -0.001 C 
ATOM     16  C   UNL     1       4.001   6.217  18.156  1.00  0.00     0.007 C 
ATOM     17  C   UNL     1       4.864   7.335  20.285  1.00  0.00     0.012 C 
ATOM     18  C   UNL     1       3.393   9.232  18.395  1.00  0.00     0.000 C 
ATOM     19  C   UNL     1       2.717   6.852  17.555  1.00  0.00     0.005 C 
ATOM     20  C   UNL     1       2.250   8.146  18.295  1.00  0.00     0.003 C 
ATOM     21  C   UNL     1       3.108  10.449  17.510  1.00  0.00     0.031 C 
ATOM     22  C   UNL     1       0.831   8.688  17.799  1.00  0.00    -0.008 C 
ATOM     23  C   UNL     1       1.764  11.010  17.846  1.00  0.00    -0.027 C 
ATOM     24  C   UNL     1       0.700  10.204  18.031  1.00  0.00    -0.065 C 
ATOM     25  C   UNL     1      -0.284   7.930  18.594  1.00  0.00     0.014 C 
ATOM     26  C   UNL     1       0.612   8.441  16.281  1.00  0.00     0.016 C 
ATOM     27  C   UNL     1      -0.669  10.849  18.146  1.00  0.00     0.063 C 
ATOM     28  C   UNL     1      -1.673   8.570  18.490  1.00  0.00     0.033 C 
ATOM     29  C   UNL     1      -1.644  10.018  18.984  1.00  0.00     0.118 C 
BRANCH  29  30
ATOM     30  O   UNL     1      -1.273  10.056  20.340  1.00  0.00    -0.393 OA
ATOM     31  H   UNL     1      -1.692   9.268  20.774  1.00  0.00     0.210 HD
ENDBRANCH  29  30
ENDBRANCH   9  11
ENDBRANCH   1   9
TORSDOF 7
ENDMDL
MODEL 5
REMARK VINA RESULT:    -4.799      1.935      3.390
REMARK INTER + INTRA:          -8.337
REMARK INTER:                  -7.639
REMARK INTRA:                  -0.698
REMARK UNBOUND:                -1.715
REMARK SMILES CC[C@@H](CC[C@@H](C)[C@@H]1CC[C@@H]2[C@H]3CC=C4C[C@H](O)CC[C@]4(C)[C@H]3CC[C@]21C)C(C)C
REMARK SMILES IDX 5 1 4 2 3 3 2 4 1 5 28 6 29 7 30 8 6 9 7 10 8 11 9 12 26 13
REMARK SMILES IDX 10 14 11 15 25 16 27 17 12 18 24 19 23 20 13 21 21 22 14 23
REMARK SMILES IDX 15 24 20 25 22 26 16 27 19 28 17 29 18 30
REMARK H PARENT 18 31
REMARK Flexibility Score: inf
ROOT
ATOM      1  C   UNL     1       5.338   3.771  17.923  1.00  0.00     0.004 C 
ENDROOT
BRANCH   1   2
ATOM      2  C   UNL     1       6.722   3.625  18.592  1.00  0.00     0.004 C 
BRANCH   2   3
ATOM      3  C   UNL     1       7.419   4.979  18.907  1.00  0.00    -0.009 C 
BRANCH   3   4
ATOM      4  C   UNL     1       8.878   4.977  18.351  1.00  0.00     0.000 C 
ATOM      5  C   UNL     1       9.238   6.279  17.629  1.00  0.00     0.004 C 
ENDBRANCH   3   4
BRANCH   3   6
ATOM      6  C   UNL     1       7.357   5.366  20.425  1.00  0.00    -0.014 C 
ATOM      7  C   UNL     1       6.651   4.288  21.271  1.00  0.00     0.007 C 
ATOM      8  C   UNL     1       6.639   6.709  20.648  1.00  0.00     0.007 C 
ENDBRANCH   3   6
ENDBRANCH   2   3
ENDBRANCH   1   2
BRANCH   1   9
ATOM      9  C   UNL     1       5.378   4.366  16.492  1.00  0.00    -0.011 C 
ATOM     10  C   UNL     1       4.752   3.399  15.466  1.00  0.00     0.008 C 
BRANCH   9  11
ATOM     11  C   UNL     1       4.848   5.847  16.441  1.00  0.00    -0.002 C 
ATOM     12  C   UNL     1       5.802   6.979  16.907  1.00  0.00     0.005 C 
ATOM     13  C   UNL     1       3.533   6.124  17.216  1.00  0.00    -0.026 C 
ATOM     14  C   UNL     1       4.900   8.128  17.394  1.00  0.00     0.005 C 
ATOM     15  C   UNL     1       3.478   7.658  17.102  1.00  0.00    -0.001 C 
ATOM     16  C   UNL     1       2.257   5.510  16.564  1.00  0.00     0.007 C 
ATOM     17  C   UNL     1       3.654   5.642  18.700  1.00  0.00     0.012 C 
ATOM     18  C   UNL     1       2.323   8.280  17.921  1.00  0.00     0.000 C 
ATOM     19  C   UNL     1       1.053   6.488  16.506  1.00  0.00     0.005 C 
ATOM     20  C   UNL     1       0.981   7.471  17.717  1.00  0.00     0.003 C 
ATOM     21  C   UNL     1       2.157   9.763  17.577  1.00  0.00     0.031 C 
ATOM     22  C   UNL     1      -0.357   8.343  17.754  1.00  0.00    -0.008 C 
ATOM     23  C   UNL     1       1.025  10.338  18.366  1.00  0.00    -0.027 C 
ATOM     24  C   UNL     1      -0.139   9.671  18.500  1.00  0.00    -0.065 C 
ATOM     25  C   UNL     1      -1.465   7.504  18.475  1.00  0.00     0.014 C 
ATOM     26  C   UNL     1      -0.857   8.701  16.327  1.00  0.00     0.016 C 
ATOM     27  C   UNL     1      -1.311  10.408  19.120  1.00  0.00     0.063 C 
ATOM     28  C   UNL     1      -2.693   8.319  18.897  1.00  0.00     0.033 C 
ATOM     29  C   UNL     1      -2.292   9.467  19.826  1.00  0.00     0.118 C 
BRANCH  29  30
ATOM     30  O   UNL     1      -1.713   8.954  21.001  1.00  0.00    -0.393 OA
ATOM     31  H   UNL     1      -2.284   9.253  21.755  1.00  0.00     0.210 HD
ENDBRANCH  29  30
ENDBRANCH   9  11
ENDBRANCH   1   9
TORSDOF 7
ENDMDL
MODEL 6
REMARK VINA RESULT:    -4.696      2.854      8.403
REMARK INTER + INTRA:          -8.195
REMARK INTER:                  -6.995
REMARK INTRA:                  -1.200
REMARK UNBOUND:                -1.715
REMARK SMILES CC[C@@H](CC[C@@H](C)[C@@H]1CC[C@@H]2[C@H]3CC=C4C[C@H](O)CC[C@]4(C)[C@H]3CC[C@]21C)C(C)C
REMARK SMILES IDX 5 1 4 2 3 3 2 4 1 5 28 6 29 7 30 8 6 9 7 10 8 11 9 12 26 13
REMARK SMILES IDX 10 14 11 15 25 16 27 17 12 18 24 19 23 20 13 21 21 22 14 23
REMARK SMILES IDX 15 24 20 25 22 26 16 27 19 28 17 29 18 30
REMARK H PARENT 18 31
REMARK Flexibility Score: inf
ROOT
ATOM      1  C   UNL     1      -0.142  10.608  16.671  1.00  0.00     0.004 C 
ENDROOT
BRANCH   1   2
ATOM      2  C   UNL     1      -0.194  10.101  15.213  1.00  0.00     0.004 C 
BRANCH   2   3
ATOM      3  C   UNL     1      -1.545  10.378  14.494  1.00  0.00    -0.009 C 
BRANCH   3   4
ATOM      4  C   UNL     1      -2.424   9.087  14.483  1.00  0.00     0.000 C 
ATOM      5  C   UNL     1      -3.059   8.792  15.845  1.00  0.00     0.004 C 
ENDBRANCH   3   4
BRANCH   3   6
ATOM      6  C   UNL     1      -1.366  10.992  13.063  1.00  0.00    -0.014 C 
ATOM      7  C   UNL     1      -2.083  10.161  11.980  1.00  0.00     0.007 C 
ATOM      8  C   UNL     1       0.117  11.124  12.675  1.00  0.00     0.007 C 
ENDBRANCH   3   6
ENDBRANCH   2   3
ENDBRANCH   1   2
BRANCH   1   9
ATOM      9  C   UNL     1       0.216   9.520  17.715  1.00  0.00    -0.011 C 
ATOM     10  C   UNL     1      -0.997   9.181  18.606  1.00  0.00     0.008 C 
BRANCH   9  11
ATOM     11  C   UNL     1       0.952   8.287  17.071  1.00  0.00    -0.002 C 
ATOM     12  C   UNL     1       0.133   6.991  16.834  1.00  0.00     0.005 C 
ATOM     13  C   UNL     1       2.225   7.795  17.811  1.00  0.00    -0.026 C 
ATOM     14  C   UNL     1       1.144   5.830  16.867  1.00  0.00     0.005 C 
ATOM     15  C   UNL     1       2.505   6.504  17.021  1.00  0.00    -0.001 C 
ATOM     16  C   UNL     1       3.450   8.751  17.693  1.00  0.00     0.007 C 
ATOM     17  C   UNL     1       1.915   7.513  19.319  1.00  0.00     0.012 C 
ATOM     18  C   UNL     1       3.665   5.674  17.620  1.00  0.00     0.000 C 
ATOM     19  C   UNL     1       4.782   8.022  17.366  1.00  0.00     0.005 C 
ATOM     20  C   UNL     1       4.891   6.597  17.994  1.00  0.00     0.003 C 
ATOM     21  C   UNL     1       4.067   4.545  16.666  1.00  0.00     0.031 C 
ATOM     22  C   UNL     1       6.331   5.929  17.817  1.00  0.00    -0.008 C 
ATOM     23  C   UNL     1       5.199   3.768  17.257  1.00  0.00    -0.027 C 
ATOM     24  C   UNL     1       6.242   4.393  17.840  1.00  0.00    -0.065 C 
ATOM     25  C   UNL     1       7.246   6.425  18.987  1.00  0.00     0.014 C 
ATOM     26  C   UNL     1       6.994   6.325  16.469  1.00  0.00     0.016 C 
ATOM     27  C   UNL     1       7.451   3.556  18.214  1.00  0.00     0.063 C 
ATOM     28  C   UNL     1       8.537   5.618  19.158  1.00  0.00     0.033 C 
ATOM     29  C   UNL     1       8.227   4.139  19.398  1.00  0.00     0.118 C 
BRANCH  29  30
ATOM     30  O   UNL     1       7.486   3.990  20.585  1.00  0.00    -0.393 OA
ATOM     31  H   UNL     1       8.109   3.634  21.269  1.00  0.00     0.210 HD
ENDBRANCH  29  30
ENDBRANCH   9  11
ENDBRANCH   1   9
TORSDOF 7
ENDMDL
MODEL 7
REMARK VINA RESULT:    -4.567      2.809      7.542
REMARK INTER + INTRA:          -8.017
REMARK INTER:                  -7.174
REMARK INTRA:                  -0.844
REMARK UNBOUND:                -1.715
REMARK SMILES CC[C@@H](CC[C@@H](C)[C@@H]1CC[C@@H]2[C@H]3CC=C4C[C@H](O)CC[C@]4(C)[C@H]3CC[C@]21C)C(C)C
REMARK SMILES IDX 5 1 4 2 3 3 2 4 1 5 28 6 29 7 30 8 6 9 7 10 8 11 9 12 26 13
REMARK SMILES IDX 10 14 11 15 25 16 27 17 12 18 24 19 23 20 13 21 21 22 14 23
REMARK SMILES IDX 15 24 20 25 22 26 16 27 19 28 17 29 18 30
REMARK H PARENT 18 31
REMARK Flexibility Score: inf
ROOT
ATOM      1  C   UNL     1      -1.698   9.424  17.736  1.00  0.00     0.004 C 
ENDROOT
BRANCH   1   2
ATOM      2  C   UNL     1      -1.907   9.406  19.266  1.00  0.00     0.004 C 
BRANCH   2   3
ATOM      3  C   UNL     1      -1.908   7.981  19.888  1.00  0.00    -0.009 C 
BRANCH   3   4
ATOM      4  C   UNL     1      -3.011   7.101  19.219  1.00  0.00     0.000 C 
ATOM      5  C   UNL     1      -2.551   5.660  18.976  1.00  0.00     0.004 C 
ENDBRANCH   3   4
BRANCH   3   6
ATOM      6  C   UNL     1      -2.018   7.992  21.452  1.00  0.00    -0.014 C 
ATOM      7  C   UNL     1      -1.971   9.421  22.029  1.00  0.00     0.007 C 
ATOM      8  C   UNL     1      -0.903   7.163  22.113  1.00  0.00     0.007 C 
ENDBRANCH   3   6
ENDBRANCH   2   3
ENDBRANCH   1   2
BRANCH   1   9
ATOM      9  C   UNL     1      -0.246   9.741  17.292  1.00  0.00    -0.011 C 
ATOM     10  C   UNL     1       0.505  10.544  18.374  1.00  0.00     0.008 C 
BRANCH   9  11
ATOM     11  C   UNL     1       0.505   8.473  16.742  1.00  0.00    -0.002 C 
ATOM     12  C   UNL     1      -0.326   7.188  16.485  1.00  0.00     0.005 C 
ATOM     13  C   UNL     1       1.708   7.976  17.588  1.00  0.00    -0.026 C 
ATOM     14  C   UNL     1       0.652   6.007  16.627  1.00  0.00     0.005 C 
ATOM     15  C   UNL     1       2.014   6.655  16.861  1.00  0.00    -0.001 C 
ATOM     16  C   UNL     1       2.962   8.901  17.533  1.00  0.00     0.007 C 
ATOM     17  C   UNL     1       1.281   7.750  19.077  1.00  0.00     0.012 C 
ATOM     18  C   UNL     1       3.107   5.820  17.569  1.00  0.00     0.000 C 
ATOM     19  C   UNL     1       4.296   8.133  17.327  1.00  0.00     0.005 C 
ATOM     20  C   UNL     1       4.324   6.727  18.005  1.00  0.00     0.003 C 
ATOM     21  C   UNL     1       3.550   4.652  16.682  1.00  0.00     0.031 C 
ATOM     22  C   UNL     1       5.757   6.022  17.954  1.00  0.00    -0.008 C 
ATOM     23  C   UNL     1       4.616   3.870  17.378  1.00  0.00    -0.027 C 
ATOM     24  C   UNL     1       5.628   4.490  18.017  1.00  0.00    -0.065 C 
ATOM     25  C   UNL     1       6.595   6.535  19.173  1.00  0.00     0.014 C 
ATOM     26  C   UNL     1       6.525   6.360  16.648  1.00  0.00     0.016 C 
ATOM     27  C   UNL     1       6.787   3.640  18.505  1.00  0.00     0.063 C 
ATOM     28  C   UNL     1       7.850   5.706  19.464  1.00  0.00     0.033 C 
ATOM     29  C   UNL     1       7.487   4.243  19.726  1.00  0.00     0.118 C 
BRANCH  29  30
ATOM     30  O   UNL     1       6.658   4.148  20.858  1.00  0.00    -0.393 OA
ATOM     31  H   UNL     1       7.252   4.184  21.651  1.00  0.00     0.210 HD
ENDBRANCH  29  30
ENDBRANCH   9  11
ENDBRANCH   1   9
TORSDOF 7
ENDMDL
MODEL 8
REMARK VINA RESULT:    -4.354      2.631      7.801
REMARK INTER + INTRA:          -7.724
REMARK INTER:                  -5.576
REMARK INTRA:                  -2.148
REMARK UNBOUND:                -1.715
REMARK SMILES CC[C@@H](CC[C@@H](C)[C@@H]1CC[C@@H]2[C@H]3CC=C4C[C@H](O)CC[C@]4(C)[C@H]3CC[C@]21C)C(C)C
REMARK SMILES IDX 5 1 4 2 3 3 2 4 1 5 28 6 29 7 30 8 6 9 7 10 8 11 9 12 26 13
REMARK SMILES IDX 10 14 11 15 25 16 27 17 12 18 24 19 23 20 13 21 21 22 14 23
REMARK SMILES IDX 15 24 20 25 22 26 16 27 19 28 17 29 18 30
REMARK H PARENT 18 31
REMARK Flexibility Score: inf
ROOT
ATOM      1  C   UNL     1      -1.832   7.385  16.348  1.00  0.00     0.004 C 
ENDROOT
BRANCH   1   2
ATOM      2  C   UNL     1      -2.950   8.178  17.060  1.00  0.00     0.004 C 
BRANCH   2   3
ATOM      3  C   UNL     1      -2.885   8.110  18.612  1.00  0.00    -0.009 C 
BRANCH   3   4
ATOM      4  C   UNL     1      -2.505   9.507  19.198  1.00  0.00     0.000 C 
ATOM      5  C   UNL     1      -2.779  10.653  18.218  1.00  0.00     0.004 C 
ENDBRANCH   3   4
BRANCH   3   6
ATOM      6  C   UNL     1      -1.952   6.966  19.140  1.00  0.00    -0.014 C 
ATOM      7  C   UNL     1      -2.749   5.713  19.558  1.00  0.00     0.007 C 
ATOM      8  C   UNL     1      -1.101   7.424  20.337  1.00  0.00     0.007 C 
ENDBRANCH   3   6
ENDBRANCH   2   3
ENDBRANCH   1   2
BRANCH   1   9
ATOM      9  C   UNL     1      -0.623   8.246  15.899  1.00  0.00    -0.011 C 
ATOM     10  C   UNL     1      -1.088   9.565  15.248  1.00  0.00     0.008 C 
BRANCH   9  11
ATOM     11  C   UNL     1       0.465   8.391  17.026  1.00  0.00    -0.002 C 
ATOM     12  C   UNL     1       0.875   9.822  17.464  1.00  0.00     0.005 C 
ATOM     13  C   UNL     1       1.819   7.680  16.758  1.00  0.00    -0.026 C 
ATOM     14  C   UNL     1       2.315   9.712  18.000  1.00  0.00     0.005 C 
ATOM     15  C   UNL     1       2.639   8.222  17.942  1.00  0.00    -0.001 C 
ATOM     16  C   UNL     1       1.758   6.124  16.839  1.00  0.00     0.007 C 
ATOM     17  C   UNL     1       2.409   8.117  15.376  1.00  0.00     0.012 C 
ATOM     18  C   UNL     1       4.127   7.803  17.883  1.00  0.00     0.000 C 
ATOM     19  C   UNL     1       2.926   5.495  17.647  1.00  0.00     0.005 C 
ATOM     20  C   UNL     1       4.273   6.273  17.516  1.00  0.00     0.003 C 
ATOM     21  C   UNL     1       4.836   8.149  19.196  1.00  0.00     0.031 C 
ATOM     22  C   UNL     1       5.512   5.522  18.190  1.00  0.00    -0.008 C 
ATOM     23  C   UNL     1       6.265   7.719  19.122  1.00  0.00    -0.027 C 
ATOM     24  C   UNL     1       6.606   6.518  18.613  1.00  0.00    -0.065 C 
ATOM     25  C   UNL     1       6.092   4.509  17.147  1.00  0.00     0.014 C 
ATOM     26  C   UNL     1       5.094   4.737  19.463  1.00  0.00     0.016 C 
ATOM     27  C   UNL     1       8.043   6.060  18.776  1.00  0.00     0.063 C 
ATOM     28  C   UNL     1       7.479   3.965  17.506  1.00  0.00     0.033 C 
ATOM     29  C   UNL     1       8.487   5.106  17.664  1.00  0.00     0.118 C 
BRANCH  29  30
ATOM     30  O   UNL     1       8.618   5.803  16.449  1.00  0.00    -0.393 OA
ATOM     31  H   UNL     1       8.831   5.129  15.754  1.00  0.00     0.210 HD
ENDBRANCH  29  30
ENDBRANCH   9  11
ENDBRANCH   1   9
TORSDOF 7
ENDMDL
MODEL 9
REMARK VINA RESULT:    -4.152      1.548      2.425
REMARK INTER + INTRA:          -7.445
REMARK INTER:                  -6.279
REMARK INTRA:                  -1.165
REMARK UNBOUND:                -1.715
REMARK SMILES CC[C@@H](CC[C@@H](C)[C@@H]1CC[C@@H]2[C@H]3CC=C4C[C@H](O)CC[C@]4(C)[C@H]3CC[C@]21C)C(C)C
REMARK SMILES IDX 5 1 4 2 3 3 2 4 1 5 28 6 29 7 30 8 6 9 7 10 8 11 9 12 26 13
REMARK SMILES IDX 10 14 11 15 25 16 27 17 12 18 24 19 23 20 13 21 21 22 14 23
REMARK SMILES IDX 15 24 20 25 22 26 16 27 19 28 17 29 18 30
REMARK H PARENT 18 31
REMARK Flexibility Score: inf
ROOT
ATOM      1  C   UNL     1       6.729   7.190  17.479  1.00  0.00     0.004 C 
ENDROOT
BRANCH   1   2
ATOM      2  C   UNL     1       6.532   6.485  18.839  1.00  0.00     0.004 C 
BRANCH   2   3
ATOM      3  C   UNL     1       6.750   4.947  18.793  1.00  0.00    -0.009 C 
BRANCH   3   4
ATOM      4  C   UNL     1       5.703   4.226  19.700  1.00  0.00     0.000 C 
ATOM      5  C   UNL     1       4.992   3.074  18.983  1.00  0.00     0.004 C 
ENDBRANCH   3   4
BRANCH   3   6
ATOM      6  C   UNL     1       8.222   4.523  19.125  1.00  0.00    -0.014 C 
ATOM      7  C   UNL     1       9.236   5.638  18.800  1.00  0.00     0.007 C 
ATOM      8  C   UNL     1       8.638   3.249  18.368  1.00  0.00     0.007 C 
ENDBRANCH   3   6
ENDBRANCH   2   3
ENDBRANCH   1   2
BRANCH   1   9
ATOM      9  C   UNL     1       6.015   6.498  16.290  1.00  0.00    -0.011 C 
ATOM     10  C   UNL     1       6.942   5.477  15.599  1.00  0.00     0.008 C 
BRANCH   9  11
ATOM     11  C   UNL     1       4.585   5.967  16.674  1.00  0.00    -0.002 C 
ATOM     12  C   UNL     1       4.056   4.704  15.944  1.00  0.00     0.005 C 
ATOM     13  C   UNL     1       3.423   6.988  16.543  1.00  0.00    -0.026 C 
ATOM     14  C   UNL     1       2.520   4.803  15.969  1.00  0.00     0.005 C 
ATOM     15  C   UNL     1       2.224   6.055  16.791  1.00  0.00    -0.001 C 
ATOM     16  C   UNL     1       3.432   8.117  17.618  1.00  0.00     0.007 C 
ATOM     17  C   UNL     1       3.400   7.619  15.111  1.00  0.00     0.012 C 
ATOM     18  C   UNL     1       0.863   6.759  16.581  1.00  0.00     0.000 C 
ATOM     19  C   UNL     1       2.040   8.388  18.250  1.00  0.00     0.005 C 
ATOM     20  C   UNL     1       0.848   8.185  17.261  1.00  0.00     0.003 C 
ATOM     21  C   UNL     1      -0.283   5.874  17.078  1.00  0.00     0.031 C 
ATOM     22  C   UNL     1      -0.560   8.646  17.856  1.00  0.00    -0.008 C 
ATOM     23  C   UNL     1      -1.585   6.581  16.882  1.00  0.00    -0.027 C 
ATOM     24  C   UNL     1      -1.722   7.885  17.194  1.00  0.00    -0.065 C 
ATOM     25  C   UNL     1      -0.718  10.183  17.599  1.00  0.00     0.014 C 
ATOM     26  C   UNL     1      -0.660   8.387  19.384  1.00  0.00     0.016 C 
ATOM     27  C   UNL     1      -3.121   8.475  17.180  1.00  0.00     0.063 C 
ATOM     28  C   UNL     1      -2.144  10.708  17.794  1.00  0.00     0.033 C 
ATOM     29  C   UNL     1      -3.124   9.975  16.876  1.00  0.00     0.118 C 
BRANCH  29  30
ATOM     30  O   UNL     1      -2.782  10.200  15.530  1.00  0.00    -0.393 OA
ATOM     31  H   UNL     1      -2.563  11.163  15.447  1.00  0.00     0.210 HD
ENDBRANCH  29  30
ENDBRANCH   9  11
ENDBRANCH   1   9
TORSDOF 7
ENDMDL
