MODEL 1
REMARK VINA RESULT:    -5.722      0.000      0.000
REMARK INTER + INTRA:          -7.428
REMARK INTER:                  -7.060
REMARK INTRA:                  -0.368
REMARK UNBOUND:                -0.368
REMARK SMILES Oc1cc(O)c2cc(O)c(-c3cc(O)c(O)c(O)c3)[o+]c2c1
REMARK SMILES IDX 10 1 20 2 21 3 22 4 2 5 3 6 4 7 6 8 7 9 8 10 11 11 12 12
REMARK SMILES IDX 13 13 19 14 15 15 17 16 14 17 16 19 18 21 9 23 1 25 5 27
REMARK H PARENT 14 18 16 20 18 22 9 24 1 26 5 28
REMARK Flexibility Score: inf
ROOT
ATOM      1  C   UNL     1     -14.012  -3.005 -18.511  1.00  0.00     0.402 A 
ATOM      2  O   UNL     1     -13.135  -2.008 -18.606  1.00  0.00    -0.202 OA
ATOM      3  C   UNL     1     -11.982  -2.110 -19.260  1.00  0.00     0.368 A 
ATOM      4  C   UNL     1     -11.125  -1.007 -19.302  1.00  0.00     0.162 A 
ATOM      5  C   UNL     1      -9.907  -1.085 -19.978  1.00  0.00     0.128 A 
ATOM      6  C   UNL     1      -9.542  -2.275 -20.618  1.00  0.00     0.093 A 
ATOM      7  C   UNL     1     -10.382  -3.394 -20.590  1.00  0.00     0.136 A 
ATOM      8  C   UNL     1     -11.623  -3.317 -19.905  1.00  0.00     0.125 A 
ATOM      9  C   UNL     1     -12.535  -4.383 -19.837  1.00  0.00     0.078 A 
ATOM     10  C   UNL     1     -13.741  -4.231 -19.147  1.00  0.00     0.223 A 
ENDROOT
BRANCH   1  11
ATOM     11  C   UNL     1     -15.257  -2.771 -17.745  1.00  0.00     0.091 A 
ATOM     12  C   UNL     1     -15.292  -2.905 -16.346  1.00  0.00     0.068 A 
ATOM     13  C   UNL     1     -16.475  -2.659 -15.637  1.00  0.00     0.162 A 
ATOM     14  C   UNL     1     -16.414  -2.353 -18.420  1.00  0.00     0.068 A 
ATOM     15  C   UNL     1     -17.635  -2.262 -16.323  1.00  0.00     0.200 A 
ATOM     16  C   UNL     1     -17.598  -2.107 -17.720  1.00  0.00     0.162 A 
BRANCH  13  17
ATOM     17  O   UNL     1     -16.500  -2.801 -14.250  1.00  0.00    -0.504 OA
ATOM     18  H   UNL     1     -17.366  -2.950 -13.745  1.00  0.00     0.293 HD
ENDBRANCH  13  17
BRANCH  15  19
ATOM     19  O   UNL     1     -18.822  -2.017 -15.633  1.00  0.00    -0.502 OA
ATOM     20  H   UNL     1     -19.723  -2.327 -15.980  1.00  0.00     0.293 HD
ENDBRANCH  15  19
BRANCH  16  21
ATOM     21  O   UNL     1     -18.731  -1.706 -18.430  1.00  0.00    -0.504 OA
ATOM     22  H   UNL     1     -18.669  -1.138 -19.267  1.00  0.00     0.293 HD
ENDBRANCH  16  21
ENDBRANCH   1  11
BRANCH  10  23
ATOM     23  O   UNL     1     -14.669  -5.272 -19.120  1.00  0.00    -0.500 OA
ATOM     24  H   UNL     1     -15.593  -5.171 -19.522  1.00  0.00     0.294 HD
ENDBRANCH  10  23
BRANCH   5  25
ATOM     25  O   UNL     1      -9.066   0.025 -20.009  1.00  0.00    -0.507 OA
ATOM     26  H   UNL     1      -9.405   0.952 -19.781  1.00  0.00     0.293 HD
ENDBRANCH   5  25
BRANCH   7  27
ATOM     27  O   UNL     1      -9.943  -4.546 -21.250  1.00  0.00    -0.507 OA
ATOM     28  H   UNL     1     -10.400  -5.445 -21.194  1.00  0.00     0.293 HD
ENDBRANCH   7  27
TORSDOF 7
ENDMDL
MODEL 2
REMARK VINA RESULT:    -5.711      1.423      3.397
REMARK INTER + INTRA:          -7.414
REMARK INTER:                  -7.054
REMARK INTRA:                  -0.360
REMARK UNBOUND:                -0.368
REMARK SMILES Oc1cc(O)c2cc(O)c(-c3cc(O)c(O)c(O)c3)[o+]c2c1
REMARK SMILES IDX 10 1 20 2 21 3 22 4 2 5 3 6 4 7 6 8 7 9 8 10 11 11 12 12
REMARK SMILES IDX 13 13 19 14 15 15 17 16 14 17 16 19 18 21 9 23 1 25 5 27
REMARK H PARENT 14 18 16 20 18 22 9 24 1 26 5 28
REMARK Flexibility Score: inf
ROOT
ATOM      1  C   UNL     1     -14.155  -3.221 -18.212  1.00  0.00     0.402 A 
ATOM      2  O   UNL     1     -13.688  -4.467 -18.215  1.00  0.00    -0.202 OA
ATOM      3  C   UNL     1     -12.548  -4.817 -18.802  1.00  0.00     0.368 A 
ATOM      4  C   UNL     1     -12.142  -6.154 -18.753  1.00  0.00     0.162 A 
ATOM      5  C   UNL     1     -10.951  -6.552 -19.362  1.00  0.00     0.128 A 
ATOM      6  C   UNL     1     -10.159  -5.608 -20.026  1.00  0.00     0.093 A 
ATOM      7  C   UNL     1     -10.545  -4.264 -20.090  1.00  0.00     0.136 A 
ATOM      8  C   UNL     1     -11.754  -3.855 -19.469  1.00  0.00     0.125 A 
ATOM      9  C   UNL     1     -12.212  -2.527 -19.470  1.00  0.00     0.078 A 
ATOM     10  C   UNL     1     -13.411  -2.199 -18.833  1.00  0.00     0.223 A 
ENDROOT
BRANCH   1  11
ATOM     11  C   UNL     1     -15.443  -2.958 -17.533  1.00  0.00     0.091 A 
ATOM     12  C   UNL     1     -16.634  -2.790 -18.261  1.00  0.00     0.068 A 
ATOM     13  C   UNL     1     -17.849  -2.563 -17.599  1.00  0.00     0.162 A 
ATOM     14  C   UNL     1     -15.492  -2.930 -16.131  1.00  0.00     0.068 A 
ATOM     15  C   UNL     1     -17.883  -2.514 -16.195  1.00  0.00     0.200 A 
ATOM     16  C   UNL     1     -16.698  -2.703 -15.462  1.00  0.00     0.162 A 
BRANCH  13  17
ATOM     17  O   UNL     1     -19.022  -2.392 -18.332  1.00  0.00    -0.504 OA
ATOM     18  H   UNL     1     -19.643  -3.168 -18.531  1.00  0.00     0.293 HD
ENDBRANCH  13  17
BRANCH  15  19
ATOM     19  O   UNL     1     -19.082  -2.286 -15.520  1.00  0.00    -0.502 OA
ATOM     20  H   UNL     1     -19.109  -1.939 -14.568  1.00  0.00     0.293 HD
ENDBRANCH  15  19
BRANCH  16  21
ATOM     21  O   UNL     1     -16.701  -2.669 -14.067  1.00  0.00    -0.504 OA
ATOM     22  H   UNL     1     -17.514  -2.934 -13.524  1.00  0.00     0.293 HD
ENDBRANCH  16  21
ENDBRANCH   1  11
BRANCH  10  23
ATOM     23  O   UNL     1     -13.842  -0.872 -18.790  1.00  0.00    -0.500 OA
ATOM     24  H   UNL     1     -13.723  -0.249 -19.580  1.00  0.00     0.294 HD
ENDBRANCH  10  23
BRANCH   5  25
ATOM     25  O   UNL     1     -10.563  -7.888 -19.302  1.00  0.00    -0.507 OA
ATOM     26  H   UNL     1     -10.037  -8.321 -20.053  1.00  0.00     0.293 HD
ENDBRANCH   5  25
BRANCH   7  27
ATOM     27  O   UNL     1      -9.702  -3.384 -20.775  1.00  0.00    -0.507 OA
ATOM     28  H   UNL     1      -8.840  -3.655 -21.228  1.00  0.00     0.293 HD
ENDBRANCH   7  27
TORSDOF 7
ENDMDL
MODEL 3
REMARK VINA RESULT:    -5.632      0.166      1.801
REMARK INTER + INTRA:          -7.317
REMARK INTER:                  -6.942
REMARK INTRA:                  -0.375
REMARK UNBOUND:                -0.368
REMARK SMILES Oc1cc(O)c2cc(O)c(-c3cc(O)c(O)c(O)c3)[o+]c2c1
REMARK SMILES IDX 10 1 20 2 21 3 22 4 2 5 3 6 4 7 6 8 7 9 8 10 11 11 12 12
REMARK SMILES IDX 13 13 19 14 15 15 17 16 14 17 16 19 18 21 9 23 1 25 5 27
REMARK H PARENT 14 18 16 20 18 22 9 24 1 26 5 28
REMARK Flexibility Score: inf
ROOT
ATOM      1  C   UNL     1     -14.111  -2.985 -18.514  1.00  0.00     0.402 A 
ATOM      2  O   UNL     1     -13.250  -1.987 -18.700  1.00  0.00    -0.202 OA
ATOM      3  C   UNL     1     -12.102  -2.127 -19.356  1.00  0.00     0.368 A 
ATOM      4  C   UNL     1     -11.262  -1.019 -19.497  1.00  0.00     0.162 A 
ATOM      5  C   UNL     1     -10.049  -1.136 -20.177  1.00  0.00     0.128 A 
ATOM      6  C   UNL     1      -9.671  -2.369 -20.720  1.00  0.00     0.093 A 
ATOM      7  C   UNL     1     -10.495  -3.494 -20.591  1.00  0.00     0.136 A 
ATOM      8  C   UNL     1     -11.730  -3.378 -19.902  1.00  0.00     0.125 A 
ATOM      9  C   UNL     1     -12.625  -4.447 -19.737  1.00  0.00     0.078 A 
ATOM     10  C   UNL     1     -13.827  -4.256 -19.049  1.00  0.00     0.223 A 
ENDROOT
BRANCH   1  11
ATOM     11  C   UNL     1     -15.352  -2.707 -17.758  1.00  0.00     0.091 A 
ATOM     12  C   UNL     1     -16.545  -2.354 -18.413  1.00  0.00     0.068 A 
ATOM     13  C   UNL     1     -17.716  -2.115 -17.680  1.00  0.00     0.162 A 
ATOM     14  C   UNL     1     -15.357  -2.850 -16.362  1.00  0.00     0.068 A 
ATOM     15  C   UNL     1     -17.706  -2.239 -16.281  1.00  0.00     0.200 A 
ATOM     16  C   UNL     1     -16.520  -2.612 -15.624  1.00  0.00     0.162 A 
BRANCH  13  17
ATOM     17  O   UNL     1     -18.892  -1.761 -18.341  1.00  0.00    -0.504 OA
ATOM     18  H   UNL     1     -19.698  -2.376 -18.361  1.00  0.00     0.293 HD
ENDBRANCH  13  17
BRANCH  15  19
ATOM     19  O   UNL     1     -18.861  -2.001 -15.536  1.00  0.00    -0.502 OA
ATOM     20  H   UNL     1     -19.512  -2.740 -15.297  1.00  0.00     0.293 HD
ENDBRANCH  15  19
BRANCH  16  21
ATOM     21  O   UNL     1     -16.479  -2.751 -14.236  1.00  0.00    -0.504 OA
ATOM     22  H   UNL     1     -15.830  -2.227 -13.661  1.00  0.00     0.293 HD
ENDBRANCH  16  21
ENDBRANCH   1  11
BRANCH  10  23
ATOM     23  O   UNL     1     -14.740  -5.305 -18.927  1.00  0.00    -0.500 OA
ATOM     24  H   UNL     1     -14.897  -5.963 -19.681  1.00  0.00     0.294 HD
ENDBRANCH  10  23
BRANCH   5  25
ATOM     25  O   UNL     1      -9.225  -0.020 -20.308  1.00  0.00    -0.507 OA
ATOM     26  H   UNL     1      -8.241  -0.112 -20.533  1.00  0.00     0.293 HD
ENDBRANCH   5  25
BRANCH   7  27
ATOM     27  O   UNL     1     -10.045  -4.690 -21.158  1.00  0.00    -0.507 OA
ATOM     28  H   UNL     1      -9.575  -4.758 -22.050  1.00  0.00     0.293 HD
ENDBRANCH   7  27
TORSDOF 7
ENDMDL
MODEL 4
REMARK VINA RESULT:    -5.577      3.463      5.328
REMARK INTER + INTRA:          -7.248
REMARK INTER:                  -6.961
REMARK INTRA:                  -0.288
REMARK UNBOUND:                -0.368
REMARK SMILES Oc1cc(O)c2cc(O)c(-c3cc(O)c(O)c(O)c3)[o+]c2c1
REMARK SMILES IDX 10 1 20 2 21 3 22 4 2 5 3 6 4 7 6 8 7 9 8 10 11 11 12 12
REMARK SMILES IDX 13 13 19 14 15 15 17 16 14 17 16 19 18 21 9 23 1 25 5 27
REMARK H PARENT 14 18 16 20 18 22 9 24 1 26 5 28
REMARK Flexibility Score: inf
ROOT
ATOM      1  C   UNL     1     -16.746  -1.542 -16.863  1.00  0.00     0.402 A 
ATOM      2  O   UNL     1     -15.497  -2.000 -16.822  1.00  0.00    -0.202 OA
ATOM      3  C   UNL     1     -15.186  -3.285 -16.966  1.00  0.00     0.368 A 
ATOM      4  C   UNL     1     -13.844  -3.669 -16.905  1.00  0.00     0.162 A 
ATOM      5  C   UNL     1     -13.487  -5.011 -17.049  1.00  0.00     0.128 A 
ATOM      6  C   UNL     1     -14.479  -5.976 -17.255  1.00  0.00     0.093 A 
ATOM      7  C   UNL     1     -15.831  -5.617 -17.318  1.00  0.00     0.136 A 
ATOM      8  C   UNL     1     -16.197  -4.253 -17.175  1.00  0.00     0.125 A 
ATOM      9  C   UNL     1     -17.524  -3.799 -17.239  1.00  0.00     0.078 A 
ATOM     10  C   UNL     1     -17.807  -2.438 -17.093  1.00  0.00     0.223 A 
ENDROOT
BRANCH   1  11
ATOM     11  C   UNL     1     -16.965  -0.090 -16.679  1.00  0.00     0.091 A 
ATOM     12  C   UNL     1     -17.614   0.415 -15.539  1.00  0.00     0.068 A 
ATOM     13  C   UNL     1     -17.793   1.795 -15.372  1.00  0.00     0.162 A 
ATOM     14  C   UNL     1     -16.466   0.810 -17.633  1.00  0.00     0.068 A 
ATOM     15  C   UNL     1     -17.310   2.687 -16.345  1.00  0.00     0.200 A 
ATOM     16  C   UNL     1     -16.642   2.188 -17.477  1.00  0.00     0.162 A 
BRANCH  13  17
ATOM     17  O   UNL     1     -18.444   2.282 -14.240  1.00  0.00    -0.504 OA
ATOM     18  H   UNL     1     -17.952   2.430 -13.366  1.00  0.00     0.293 HD
ENDBRANCH  13  17
BRANCH  15  19
ATOM     19  O   UNL     1     -17.483   4.063 -16.198  1.00  0.00    -0.502 OA
ATOM     20  H   UNL     1     -18.256   4.458 -15.675  1.00  0.00     0.293 HD
ENDBRANCH  15  19
BRANCH  16  21
ATOM     21  O   UNL     1     -16.143   3.048 -18.456  1.00  0.00    -0.504 OA
ATOM     22  H   UNL     1     -16.596   3.924 -18.685  1.00  0.00     0.293 HD
ENDBRANCH  16  21
ENDBRANCH   1  11
BRANCH  10  23
ATOM     23  O   UNL     1     -19.120  -1.979 -17.206  1.00  0.00    -0.500 OA
ATOM     24  H   UNL     1     -19.528  -1.359 -16.516  1.00  0.00     0.294 HD
ENDBRANCH  10  23
BRANCH   5  25
ATOM     25  O   UNL     1     -12.145  -5.375 -16.986  1.00  0.00    -0.507 OA
ATOM     26  H   UNL     1     -11.657  -5.743 -17.794  1.00  0.00     0.293 HD
ENDBRANCH   5  25
BRANCH   7  27
ATOM     27  O   UNL     1     -16.761  -6.640 -17.522  1.00  0.00    -0.507 OA
ATOM     28  H   UNL     1     -16.541  -7.626 -17.492  1.00  0.00     0.293 HD
ENDBRANCH   7  27
TORSDOF 7
ENDMDL
MODEL 5
REMARK VINA RESULT:    -5.539      1.516      7.100
REMARK INTER + INTRA:          -7.202
REMARK INTER:                  -7.039
REMARK INTRA:                  -0.163
REMARK UNBOUND:                -0.368
REMARK SMILES Oc1cc(O)c2cc(O)c(-c3cc(O)c(O)c(O)c3)[o+]c2c1
REMARK SMILES IDX 10 1 20 2 21 3 22 4 2 5 3 6 4 7 6 8 7 9 8 10 11 11 12 12
REMARK SMILES IDX 13 13 19 14 15 15 17 16 14 17 16 19 18 21 9 23 1 25 5 27
REMARK H PARENT 14 18 16 20 18 22 9 24 1 26 5 28
REMARK Flexibility Score: inf
ROOT
ATOM      1  C   UNL     1     -12.513  -2.734 -18.678  1.00  0.00     0.402 A 
ATOM      2  O   UNL     1     -13.566  -1.922 -18.633  1.00  0.00    -0.202 OA
ATOM      3  C   UNL     1     -14.714  -2.247 -18.046  1.00  0.00     0.368 A 
ATOM      4  C   UNL     1     -15.765  -1.327 -18.054  1.00  0.00     0.162 A 
ATOM      5  C   UNL     1     -16.983  -1.642 -17.449  1.00  0.00     0.128 A 
ATOM      6  C   UNL     1     -17.152  -2.887 -16.832  1.00  0.00     0.093 A 
ATOM      7  C   UNL     1     -16.114  -3.827 -16.812  1.00  0.00     0.136 A 
ATOM      8  C   UNL     1     -14.874  -3.508 -17.424  1.00  0.00     0.125 A 
ATOM      9  C   UNL     1     -13.774  -4.382 -17.441  1.00  0.00     0.078 A 
ATOM     10  C   UNL     1     -12.582  -3.996 -18.060  1.00  0.00     0.223 A 
ENDROOT
BRANCH   1  11
ATOM     11  C   UNL     1     -11.293  -2.259 -19.370  1.00  0.00     0.091 A 
ATOM     12  C   UNL     1     -10.713  -2.996 -20.418  1.00  0.00     0.068 A 
ATOM     13  C   UNL     1      -9.570  -2.520 -21.076  1.00  0.00     0.162 A 
ATOM     14  C   UNL     1     -10.734  -1.023 -19.014  1.00  0.00     0.068 A 
ATOM     15  C   UNL     1      -9.004  -1.291 -20.696  1.00  0.00     0.200 A 
ATOM     16  C   UNL     1      -9.593  -0.542 -19.664  1.00  0.00     0.162 A 
BRANCH  13  17
ATOM     17  O   UNL     1      -9.000  -3.262 -22.109  1.00  0.00    -0.504 OA
ATOM     18  H   UNL     1      -9.516  -3.483 -22.953  1.00  0.00     0.293 HD
ENDBRANCH  13  17
BRANCH  15  19
ATOM     19  O   UNL     1      -7.864  -0.804 -21.337  1.00  0.00    -0.502 OA
ATOM     20  H   UNL     1      -7.618  -1.076 -22.282  1.00  0.00     0.293 HD
ENDBRANCH  15  19
BRANCH  16  21
ATOM     21  O   UNL     1      -9.060   0.686 -19.270  1.00  0.00    -0.504 OA
ATOM     22  H   UNL     1      -8.204   1.054 -19.667  1.00  0.00     0.293 HD
ENDBRANCH  16  21
ENDBRANCH   1  11
BRANCH  10  23
ATOM     23  O   UNL     1     -11.473  -4.843 -18.034  1.00  0.00    -0.500 OA
ATOM     24  H   UNL     1     -10.636  -4.640 -18.568  1.00  0.00     0.294 HD
ENDBRANCH  10  23
BRANCH   5  25
ATOM     25  O   UNL     1     -18.019  -0.712 -17.465  1.00  0.00    -0.507 OA
ATOM     26  H   UNL     1     -18.871  -0.859 -16.937  1.00  0.00     0.293 HD
ENDBRANCH   5  25
BRANCH   7  27
ATOM     27  O   UNL     1     -16.363  -5.048 -16.180  1.00  0.00    -0.507 OA
ATOM     28  H   UNL     1     -16.066  -5.277 -15.242  1.00  0.00     0.293 HD
ENDBRANCH   7  27
TORSDOF 7
ENDMDL
MODEL 6
REMARK VINA RESULT:    -5.525      1.518      7.056
REMARK INTER + INTRA:          -7.184
REMARK INTER:                  -7.101
REMARK INTRA:                  -0.083
REMARK UNBOUND:                -0.368
REMARK SMILES Oc1cc(O)c2cc(O)c(-c3cc(O)c(O)c(O)c3)[o+]c2c1
REMARK SMILES IDX 10 1 20 2 21 3 22 4 2 5 3 6 4 7 6 8 7 9 8 10 11 11 12 12
REMARK SMILES IDX 13 13 19 14 15 15 17 16 14 17 16 19 18 21 9 23 1 25 5 27
REMARK H PARENT 14 18 16 20 18 22 9 24 1 26 5 28
REMARK Flexibility Score: inf
ROOT
ATOM      1  C   UNL     1     -12.441  -2.641 -18.771  1.00  0.00     0.402 A 
ATOM      2  O   UNL     1     -13.524  -1.870 -18.713  1.00  0.00    -0.202 OA
ATOM      3  C   UNL     1     -14.655  -2.244 -18.123  1.00  0.00     0.368 A 
ATOM      4  C   UNL     1     -15.741  -1.363 -18.117  1.00  0.00     0.162 A 
ATOM      5  C   UNL     1     -16.942  -1.729 -17.508  1.00  0.00     0.128 A 
ATOM      6  C   UNL     1     -17.061  -2.985 -16.902  1.00  0.00     0.093 A 
ATOM      7  C   UNL     1     -15.989  -3.885 -16.897  1.00  0.00     0.136 A 
ATOM      8  C   UNL     1     -14.765  -3.515 -17.512  1.00  0.00     0.125 A 
ATOM      9  C   UNL     1     -13.634  -4.347 -17.543  1.00  0.00     0.078 A 
ATOM     10  C   UNL     1     -12.460  -3.911 -18.164  1.00  0.00     0.223 A 
ENDROOT
BRANCH   1  11
ATOM     11  C   UNL     1     -11.244  -2.116 -19.466  1.00  0.00     0.091 A 
ATOM     12  C   UNL     1     -10.675  -0.880 -19.111  1.00  0.00     0.068 A 
ATOM     13  C   UNL     1      -9.529  -0.409 -19.766  1.00  0.00     0.162 A 
ATOM     14  C   UNL     1     -10.628  -2.890 -20.461  1.00  0.00     0.068 A 
ATOM     15  C   UNL     1      -8.932  -1.181 -20.777  1.00  0.00     0.200 A 
ATOM     16  C   UNL     1      -9.486  -2.427 -21.120  1.00  0.00     0.162 A 
BRANCH  13  17
ATOM     17  O   UNL     1      -8.978   0.820 -19.410  1.00  0.00    -0.504 OA
ATOM     18  H   UNL     1      -9.179   1.255 -18.516  1.00  0.00     0.293 HD
ENDBRANCH  13  17
BRANCH  15  19
ATOM     19  O   UNL     1      -7.794  -0.726 -21.442  1.00  0.00    -0.502 OA
ATOM     20  H   UNL     1      -6.964  -0.421 -20.946  1.00  0.00     0.293 HD
ENDBRANCH  15  19
BRANCH  16  21
ATOM     21  O   UNL     1      -8.912  -3.221 -22.114  1.00  0.00    -0.504 OA
ATOM     22  H   UNL     1      -9.440  -3.547 -22.915  1.00  0.00     0.293 HD
ENDBRANCH  16  21
ENDBRANCH   1  11
BRANCH  10  23
ATOM     23  O   UNL     1     -11.320  -4.716 -18.152  1.00  0.00    -0.500 OA
ATOM     24  H   UNL     1     -10.610  -4.621 -17.436  1.00  0.00     0.294 HD
ENDBRANCH  10  23
BRANCH   5  25
ATOM     25  O   UNL     1     -18.012  -0.838 -17.511  1.00  0.00    -0.507 OA
ATOM     26  H   UNL     1     -18.625  -0.744 -16.709  1.00  0.00     0.293 HD
ENDBRANCH   5  25
BRANCH   7  27
ATOM     27  O   UNL     1     -16.189  -5.121 -16.274  1.00  0.00    -0.507 OA
ATOM     28  H   UNL     1     -15.820  -5.998 -16.614  1.00  0.00     0.293 HD
ENDBRANCH   7  27
TORSDOF 7
ENDMDL
MODEL 7
REMARK VINA RESULT:    -5.448      2.664      4.061
REMARK INTER + INTRA:          -7.089
REMARK INTER:                  -6.711
REMARK INTRA:                  -0.378
REMARK UNBOUND:                -0.368
REMARK SMILES Oc1cc(O)c2cc(O)c(-c3cc(O)c(O)c(O)c3)[o+]c2c1
REMARK SMILES IDX 10 1 20 2 21 3 22 4 2 5 3 6 4 7 6 8 7 9 8 10 11 11 12 12
REMARK SMILES IDX 13 13 19 14 15 15 17 16 14 17 16 19 18 21 9 23 1 25 5 27
REMARK H PARENT 14 18 16 20 18 22 9 24 1 26 5 28
REMARK Flexibility Score: inf
ROOT
ATOM      1  C   UNL     1     -14.004  -3.983 -17.594  1.00  0.00     0.402 A 
ATOM      2  O   UNL     1     -14.398  -5.048 -18.289  1.00  0.00    -0.202 OA
ATOM      3  C   UNL     1     -13.558  -5.972 -18.746  1.00  0.00     0.368 A 
ATOM      4  C   UNL     1     -14.068  -7.054 -19.469  1.00  0.00     0.162 A 
ATOM      5  C   UNL     1     -13.211  -8.038 -19.963  1.00  0.00     0.128 A 
ATOM      6  C   UNL     1     -11.834  -7.940 -19.735  1.00  0.00     0.093 A 
ATOM      7  C   UNL     1     -11.298  -6.866 -19.015  1.00  0.00     0.136 A 
ATOM      8  C   UNL     1     -12.168  -5.865 -18.508  1.00  0.00     0.125 A 
ATOM      9  C   UNL     1     -11.722  -4.760 -17.763  1.00  0.00     0.078 A 
ATOM     10  C   UNL     1     -12.639  -3.816 -17.293  1.00  0.00     0.223 A 
ENDROOT
BRANCH   1  11
ATOM     11  C   UNL     1     -15.034  -3.018 -17.149  1.00  0.00     0.091 A 
ATOM     12  C   UNL     1     -15.642  -3.127 -15.886  1.00  0.00     0.068 A 
ATOM     13  C   UNL     1     -16.600  -2.191 -15.473  1.00  0.00     0.162 A 
ATOM     14  C   UNL     1     -15.373  -1.938 -17.978  1.00  0.00     0.068 A 
ATOM     15  C   UNL     1     -16.950  -1.126 -16.321  1.00  0.00     0.200 A 
ATOM     16  C   UNL     1     -16.329  -1.001 -17.575  1.00  0.00     0.162 A 
BRANCH  13  17
ATOM     17  O   UNL     1     -17.201  -2.313 -14.221  1.00  0.00    -0.504 OA
ATOM     18  H   UNL     1     -16.653  -2.360 -13.370  1.00  0.00     0.293 HD
ENDBRANCH  13  17
BRANCH  15  19
ATOM     19  O   UNL     1     -17.905  -0.187 -15.928  1.00  0.00    -0.502 OA
ATOM     20  H   UNL     1     -17.721   0.809 -15.941  1.00  0.00     0.293 HD
ENDBRANCH  15  19
BRANCH  16  21
ATOM     21  O   UNL     1     -16.649   0.050 -18.436  1.00  0.00    -0.504 OA
ATOM     22  H   UNL     1     -15.977   0.433 -19.091  1.00  0.00     0.293 HD
ENDBRANCH  16  21
ENDBRANCH   1  11
BRANCH  10  23
ATOM     23  O   UNL     1     -12.203  -2.745 -16.511  1.00  0.00    -0.500 OA
ATOM     24  H   UNL     1     -11.220  -2.589 -16.323  1.00  0.00     0.294 HD
ENDBRANCH  10  23
BRANCH   5  25
ATOM     25  O   UNL     1     -13.737  -9.109 -20.681  1.00  0.00    -0.507 OA
ATOM     26  H   UNL     1     -13.967  -9.026 -21.665  1.00  0.00     0.293 HD
ENDBRANCH   5  25
BRANCH   7  27
ATOM     27  O   UNL     1      -9.913  -6.839 -18.833  1.00  0.00    -0.507 OA
ATOM     28  H   UNL     1      -9.296  -6.155 -19.247  1.00  0.00     0.293 HD
ENDBRANCH   7  27
TORSDOF 7
ENDMDL
MODEL 8
REMARK VINA RESULT:    -5.338      2.023      6.964
REMARK INTER + INTRA:          -6.954
REMARK INTER:                  -6.591
REMARK INTRA:                  -0.363
REMARK UNBOUND:                -0.368
REMARK SMILES Oc1cc(O)c2cc(O)c(-c3cc(O)c(O)c(O)c3)[o+]c2c1
REMARK SMILES IDX 10 1 20 2 21 3 22 4 2 5 3 6 4 7 6 8 7 9 8 10 11 11 12 12
REMARK SMILES IDX 13 13 19 14 15 15 17 16 14 17 16 19 18 21 9 23 1 25 5 27
REMARK H PARENT 14 18 16 20 18 22 9 24 1 26 5 28
REMARK Flexibility Score: inf
ROOT
ATOM      1  C   UNL     1     -14.683  -3.306 -17.670  1.00  0.00     0.402 A 
ATOM      2  O   UNL     1     -15.384  -2.578 -16.804  1.00  0.00    -0.202 OA
ATOM      3  C   UNL     1     -16.571  -2.947 -16.333  1.00  0.00     0.368 A 
ATOM      4  C   UNL     1     -17.232  -2.113 -15.427  1.00  0.00     0.162 A 
ATOM      5  C   UNL     1     -18.480  -2.473 -14.918  1.00  0.00     0.128 A 
ATOM      6  C   UNL     1     -19.075  -3.676 -15.317  1.00  0.00     0.093 A 
ATOM      7  C   UNL     1     -18.434  -4.528 -16.224  1.00  0.00     0.136 A 
ATOM      8  C   UNL     1     -17.162  -4.166 -16.742  1.00  0.00     0.125 A 
ATOM      9  C   UNL     1     -16.440  -4.965 -17.643  1.00  0.00     0.078 A 
ATOM     10  C   UNL     1     -15.190  -4.544 -18.107  1.00  0.00     0.223 A 
ENDROOT
BRANCH   1  11
ATOM     11  C   UNL     1     -13.377  -2.781 -18.129  1.00  0.00     0.091 A 
ATOM     12  C   UNL     1     -12.172  -3.198 -17.538  1.00  0.00     0.068 A 
ATOM     13  C   UNL     1     -10.944  -2.707 -18.000  1.00  0.00     0.162 A 
ATOM     14  C   UNL     1     -13.333  -1.892 -19.213  1.00  0.00     0.068 A 
ATOM     15  C   UNL     1     -10.911  -1.798 -19.072  1.00  0.00     0.200 A 
ATOM     16  C   UNL     1     -12.112  -1.395 -19.680  1.00  0.00     0.162 A 
BRANCH  13  17
ATOM     17  O   UNL     1      -9.756  -3.123 -17.402  1.00  0.00    -0.504 OA
ATOM     18  H   UNL     1      -9.535  -2.892 -16.439  1.00  0.00     0.293 HD
ENDBRANCH  13  17
BRANCH  15  19
ATOM     19  O   UNL     1      -9.698  -1.296 -19.542  1.00  0.00    -0.502 OA
ATOM     20  H   UNL     1      -9.649  -0.618 -20.294  1.00  0.00     0.293 HD
ENDBRANCH  15  19
BRANCH  16  21
ATOM     21  O   UNL     1     -12.113  -0.501 -20.752  1.00  0.00    -0.504 OA
ATOM     22  H   UNL     1     -11.316   0.089 -20.961  1.00  0.00     0.293 HD
ENDBRANCH  16  21
ENDBRANCH   1  11
BRANCH  10  23
ATOM     23  O   UNL     1     -14.450  -5.359 -18.964  1.00  0.00    -0.500 OA
ATOM     24  H   UNL     1     -14.898  -5.960 -19.646  1.00  0.00     0.294 HD
ENDBRANCH  10  23
BRANCH   5  25
ATOM     25  O   UNL     1     -19.123  -1.629 -14.016  1.00  0.00    -0.507 OA
ATOM     26  H   UNL     1     -18.604  -1.085 -13.336  1.00  0.00     0.293 HD
ENDBRANCH   5  25
BRANCH   7  27
ATOM     27  O   UNL     1     -19.094  -5.709 -16.576  1.00  0.00    -0.507 OA
ATOM     28  H   UNL     1     -18.632  -6.550 -16.890  1.00  0.00     0.293 HD
ENDBRANCH   7  27
TORSDOF 7
ENDMDL
MODEL 9
REMARK VINA RESULT:    -5.242      2.095      7.637
REMARK INTER + INTRA:          -6.835
REMARK INTER:                  -6.559
REMARK INTRA:                  -0.276
REMARK UNBOUND:                -0.368
REMARK SMILES Oc1cc(O)c2cc(O)c(-c3cc(O)c(O)c(O)c3)[o+]c2c1
REMARK SMILES IDX 10 1 20 2 21 3 22 4 2 5 3 6 4 7 6 8 7 9 8 10 11 11 12 12
REMARK SMILES IDX 13 13 19 14 15 15 17 16 14 17 16 19 18 21 9 23 1 25 5 27
REMARK H PARENT 14 18 16 20 18 22 9 24 1 26 5 28
REMARK Flexibility Score: inf
ROOT
ATOM      1  C   UNL     1     -14.769  -3.512 -18.134  1.00  0.00     0.402 A 
ATOM      2  O   UNL     1     -15.454  -4.586 -17.747  1.00  0.00    -0.202 OA
ATOM      3  C   UNL     1     -16.627  -4.517 -17.124  1.00  0.00     0.368 A 
ATOM      4  C   UNL     1     -17.269  -5.702 -16.755  1.00  0.00     0.162 A 
ATOM      5  C   UNL     1     -18.499  -5.662 -16.097  1.00  0.00     0.128 A 
ATOM      6  C   UNL     1     -19.093  -4.428 -15.806  1.00  0.00     0.093 A 
ATOM      7  C   UNL     1     -18.469  -3.227 -16.165  1.00  0.00     0.136 A 
ATOM      8  C   UNL     1     -17.219  -3.265 -16.836  1.00  0.00     0.125 A 
ATOM      9  C   UNL     1     -16.528  -2.113 -17.246  1.00  0.00     0.078 A 
ATOM     10  C   UNL     1     -15.301  -2.229 -17.907  1.00  0.00     0.223 A 
ENDROOT
BRANCH   1  11
ATOM     11  C   UNL     1     -13.468  -3.718 -18.809  1.00  0.00     0.091 A 
ATOM     12  C   UNL     1     -13.394  -4.241 -20.112  1.00  0.00     0.068 A 
ATOM     13  C   UNL     1     -12.154  -4.409 -20.744  1.00  0.00     0.162 A 
ATOM     14  C   UNL     1     -12.284  -3.334 -18.161  1.00  0.00     0.068 A 
ATOM     15  C   UNL     1     -10.972  -4.042 -20.077  1.00  0.00     0.200 A 
ATOM     16  C   UNL     1     -11.043  -3.500 -18.782  1.00  0.00     0.162 A 
BRANCH  13  17
ATOM     17  O   UNL     1     -12.093  -4.933 -22.034  1.00  0.00    -0.504 OA
ATOM     18  H   UNL     1     -11.576  -5.780 -22.240  1.00  0.00     0.293 HD
ENDBRANCH  13  17
BRANCH  15  19
ATOM     19  O   UNL     1      -9.730  -4.207 -20.689  1.00  0.00    -0.502 OA
ATOM     20  H   UNL     1      -9.167  -5.039 -20.555  1.00  0.00     0.293 HD
ENDBRANCH  15  19
BRANCH  16  21
ATOM     21  O   UNL     1      -9.889  -3.119 -18.097  1.00  0.00    -0.504 OA
ATOM     22  H   UNL     1      -9.742  -3.346 -17.120  1.00  0.00     0.293 HD
ENDBRANCH  16  21
ENDBRANCH   1  11
BRANCH  10  23
ATOM     23  O   UNL     1     -14.638  -1.088 -18.359  1.00  0.00    -0.500 OA
ATOM     24  H   UNL     1     -14.896  -0.631 -19.226  1.00  0.00     0.294 HD
ENDBRANCH  10  23
BRANCH   5  25
ATOM     25  O   UNL     1     -19.125  -6.853 -15.738  1.00  0.00    -0.507 OA
ATOM     26  H   UNL     1     -19.937  -7.196 -16.237  1.00  0.00     0.293 HD
ENDBRANCH   5  25
BRANCH   7  27
ATOM     27  O   UNL     1     -19.124  -2.037 -15.835  1.00  0.00    -0.507 OA
ATOM     28  H   UNL     1     -18.976  -1.155 -16.304  1.00  0.00     0.293 HD
ENDBRANCH   7  27
TORSDOF 7
ENDMDL
