MODEL 1
REMARK VINA RESULT:    -5.995      0.000      0.000
REMARK INTER + INTRA:         -15.330
REMARK INTER:                 -13.005
REMARK INTRA:                  -2.325
REMARK UNBOUND:                -2.325
REMARK SMILES CCCCCCCCCCCCCCCCCCCCCC(=O)[O-]
REMARK SMILES IDX 12 1 11 2 10 3 9 4 8 5 7 6 6 7 5 8 4 9 3 10 2 11 1 12 13 13
REMARK SMILES IDX 14 14 15 15 16 16 17 17 18 18 19 19 20 20 21 21 22 22 23 23
REMARK SMILES IDX 24 24
REMARK H PARENT
REMARK Flexibility Score: inf
ROOT
ATOM      1  C   UNL     1     -26.822 -31.443  22.357  1.00  0.00     0.000 C 
ENDROOT
BRANCH   1   2
ATOM      2  C   UNL     1     -27.715 -32.700  22.284  1.00  0.00     0.000 C 
BRANCH   2   3
ATOM      3  C   UNL     1     -29.217 -32.388  22.168  1.00  0.00     0.000 C 
BRANCH   3   4
ATOM      4  C   UNL     1     -29.535 -30.898  22.376  1.00  0.00    -0.000 C 
BRANCH   4   5
ATOM      5  C   UNL     1     -30.752 -30.677  23.288  1.00  0.00    -0.000 C 
BRANCH   5   6
ATOM      6  C   UNL     1     -30.427 -29.790  24.500  1.00  0.00    -0.000 C 
BRANCH   6   7
ATOM      7  C   UNL     1     -29.506 -30.526  25.486  1.00  0.00    -0.000 C 
BRANCH   7   8
ATOM      8  C   UNL     1     -28.086 -29.933  25.532  1.00  0.00    -0.000 C 
BRANCH   8   9
ATOM      9  C   UNL     1     -27.011 -30.862  26.131  1.00  0.00    -0.000 C 
BRANCH   9  10
ATOM     10  C   UNL     1     -27.278 -32.371  25.957  1.00  0.00    -0.000 C 
BRANCH  10  11
ATOM     11  C   UNL     1     -26.359 -33.288  26.782  1.00  0.00    -0.003 C 
ATOM     12  C   UNL     1     -24.917 -33.297  26.276  1.00  0.00     0.004 C 
ENDBRANCH  10  11
ENDBRANCH   9  10
ENDBRANCH   8   9
ENDBRANCH   7   8
ENDBRANCH   6   7
ENDBRANCH   5   6
ENDBRANCH   4   5
ENDBRANCH   3   4
ENDBRANCH   2   3
ENDBRANCH   1   2
BRANCH   1  13
ATOM     13  C   UNL     1     -25.325 -31.790  22.293  1.00  0.00     0.000 C 
BRANCH  13  14
ATOM     14  C   UNL     1     -24.528 -31.216  23.480  1.00  0.00     0.000 C 
BRANCH  14  15
ATOM     15  C   UNL     1     -23.464 -30.177  23.081  1.00  0.00     0.000 C 
BRANCH  15  16
ATOM     16  C   UNL     1     -22.114 -30.427  23.773  1.00  0.00     0.000 C 
BRANCH  16  17
ATOM     17  C   UNL     1     -21.421 -31.711  23.288  1.00  0.00     0.000 C 
BRANCH  17  18
ATOM     18  C   UNL     1     -19.883 -31.671  23.411  1.00  0.00     0.000 C 
BRANCH  18  19
ATOM     19  C   UNL     1     -19.408 -30.616  24.427  1.00  0.00     0.000 C 
BRANCH  19  20
ATOM     20  C   UNL     1     -18.177 -29.830  23.937  1.00  0.00     0.006 C 
BRANCH  20  21
ATOM     21  C   UNL     1     -17.000 -30.714  23.497  1.00  0.00     0.053 C 
BRANCH  21  22
ATOM     22  C   UNL     1     -16.491 -30.342  22.139  1.00  0.00     0.041 C 
ATOM     23  O   UNL     1     -15.875 -29.257  21.969  1.00  0.00    -0.550 OA
ATOM     24  O   UNL     1     -16.678 -31.203  21.064  1.00  0.00    -0.550 OA
ENDBRANCH  21  22
ENDBRANCH  20  21
ENDBRANCH  19  20
ENDBRANCH  18  19
ENDBRANCH  17  18
ENDBRANCH  16  17
ENDBRANCH  15  16
ENDBRANCH  14  15
ENDBRANCH  13  14
ENDBRANCH   1  13
TORSDOF 20
ENDMDL
MODEL 2
REMARK VINA RESULT:    -5.878      3.086      9.237
REMARK INTER + INTRA:         -15.075
REMARK INTER:                 -12.949
REMARK INTRA:                  -2.127
REMARK UNBOUND:                -2.325
REMARK SMILES CCCCCCCCCCCCCCCCCCCCCC(=O)[O-]
REMARK SMILES IDX 12 1 11 2 10 3 9 4 8 5 7 6 6 7 5 8 4 9 3 10 2 11 1 12 13 13
REMARK SMILES IDX 14 14 15 15 16 16 17 17 18 18 19 19 20 20 21 21 22 22 23 23
REMARK SMILES IDX 24 24
REMARK H PARENT
REMARK Flexibility Score: inf
ROOT
ATOM      1  C   UNL     1     -24.037 -31.682  23.828  1.00  0.00     0.000 C 
ENDROOT
BRANCH   1   2
ATOM      2  C   UNL     1     -22.538 -31.350  23.980  1.00  0.00     0.000 C 
BRANCH   2   3
ATOM      3  C   UNL     1     -21.624 -32.169  23.052  1.00  0.00     0.000 C 
BRANCH   3   4
ATOM      4  C   UNL     1     -20.131 -31.880  23.278  1.00  0.00    -0.000 C 
BRANCH   4   5
ATOM      5  C   UNL     1     -19.897 -30.614  24.119  1.00  0.00    -0.000 C 
BRANCH   5   6
ATOM      6  C   UNL     1     -18.417 -30.200  24.161  1.00  0.00    -0.000 C 
BRANCH   6   7
ATOM      7  C   UNL     1     -17.536 -31.245  23.460  1.00  0.00    -0.000 C 
BRANCH   7   8
ATOM      8  C   UNL     1     -16.244 -30.643  22.879  1.00  0.00    -0.000 C 
BRANCH   8   9
ATOM      9  C   UNL     1     -16.456 -29.585  21.778  1.00  0.00    -0.000 C 
BRANCH   9  10
ATOM     10  C   UNL     1     -16.516 -30.138  20.340  1.00  0.00    -0.000 C 
BRANCH  10  11
ATOM     11  C   UNL     1     -16.541 -29.066  19.236  1.00  0.00    -0.003 C 
ATOM     12  C   UNL     1     -16.966 -27.691  19.752  1.00  0.00     0.004 C 
ENDBRANCH  10  11
ENDBRANCH   9  10
ENDBRANCH   8   9
ENDBRANCH   7   8
ENDBRANCH   6   7
ENDBRANCH   5   6
ENDBRANCH   4   5
ENDBRANCH   3   4
ENDBRANCH   2   3
ENDBRANCH   1   2
BRANCH   1  13
ATOM     13  C   UNL     1     -24.798 -31.549  25.159  1.00  0.00     0.000 C 
BRANCH  13  14
ATOM     14  C   UNL     1     -25.333 -32.897  25.677  1.00  0.00     0.000 C 
BRANCH  14  15
ATOM     15  C   UNL     1     -26.783 -32.845  26.192  1.00  0.00     0.000 C 
BRANCH  15  16
ATOM     16  C   UNL     1     -27.788 -32.510  25.078  1.00  0.00     0.000 C 
BRANCH  16  17
ATOM     17  C   UNL     1     -27.717 -33.487  23.893  1.00  0.00     0.000 C 
BRANCH  17  18
ATOM     18  C   UNL     1     -27.525 -32.794  22.527  1.00  0.00     0.000 C 
BRANCH  18  19
ATOM     19  C   UNL     1     -28.008 -31.332  22.544  1.00  0.00     0.000 C 
BRANCH  19  20
ATOM     20  C   UNL     1     -26.879 -30.330  22.237  1.00  0.00     0.006 C 
BRANCH  20  21
ATOM     21  C   UNL     1     -26.799 -29.152  23.221  1.00  0.00     0.053 C 
BRANCH  21  22
ATOM     22  C   UNL     1     -25.614 -28.275  22.958  1.00  0.00     0.041 C 
ATOM     23  O   UNL     1     -25.551 -27.596  21.900  1.00  0.00    -0.550 OA
ATOM     24  O   UNL     1     -24.588 -28.192  23.891  1.00  0.00    -0.550 OA
ENDBRANCH  21  22
ENDBRANCH  20  21
ENDBRANCH  19  20
ENDBRANCH  18  19
ENDBRANCH  17  18
ENDBRANCH  16  17
ENDBRANCH  15  16
ENDBRANCH  14  15
ENDBRANCH  13  14
ENDBRANCH   1  13
TORSDOF 20
ENDMDL
MODEL 3
REMARK VINA RESULT:    -5.876      1.492      3.556
REMARK INTER + INTRA:         -15.071
REMARK INTER:                 -11.536
REMARK INTRA:                  -3.534
REMARK UNBOUND:                -2.325
REMARK SMILES CCCCCCCCCCCCCCCCCCCCCC(=O)[O-]
REMARK SMILES IDX 12 1 11 2 10 3 9 4 8 5 7 6 6 7 5 8 4 9 3 10 2 11 1 12 13 13
REMARK SMILES IDX 14 14 15 15 16 16 17 17 18 18 19 19 20 20 21 21 22 22 23 23
REMARK SMILES IDX 24 24
REMARK H PARENT
REMARK Flexibility Score: inf
ROOT
ATOM      1  C   UNL     1     -25.275 -29.169  22.998  1.00  0.00     0.000 C 
ENDROOT
BRANCH   1   2
ATOM      2  C   UNL     1     -26.570 -28.381  23.285  1.00  0.00     0.000 C 
BRANCH   2   3
ATOM      3  C   UNL     1     -27.161 -28.646  24.681  1.00  0.00     0.000 C 
BRANCH   3   4
ATOM      4  C   UNL     1     -26.386 -29.719  25.463  1.00  0.00    -0.000 C 
BRANCH   4   5
ATOM      5  C   UNL     1     -27.281 -30.892  25.896  1.00  0.00    -0.000 C 
BRANCH   5   6
ATOM      6  C   UNL     1     -26.480 -32.175  26.167  1.00  0.00    -0.000 C 
BRANCH   6   7
ATOM      7  C   UNL     1     -26.261 -32.969  24.870  1.00  0.00    -0.000 C 
BRANCH   7   8
ATOM      8  C   UNL     1     -27.579 -33.344  24.170  1.00  0.00    -0.000 C 
BRANCH   8   9
ATOM      9  C   UNL     1     -27.652 -32.972  22.675  1.00  0.00    -0.000 C 
BRANCH   9  10
ATOM     10  C   UNL     1     -29.005 -32.397  22.209  1.00  0.00    -0.000 C 
BRANCH  10  11
ATOM     11  C   UNL     1     -29.168 -30.881  22.418  1.00  0.00    -0.003 C 
ATOM     12  C   UNL     1     -30.187 -30.537  23.504  1.00  0.00     0.004 C 
ENDBRANCH  10  11
ENDBRANCH   9  10
ENDBRANCH   8   9
ENDBRANCH   7   8
ENDBRANCH   6   7
ENDBRANCH   5   6
ENDBRANCH   4   5
ENDBRANCH   3   4
ENDBRANCH   2   3
ENDBRANCH   1   2
BRANCH   1  13
ATOM     13  C   UNL     1     -25.440 -30.148  21.823  1.00  0.00     0.000 C 
BRANCH  13  14
ATOM     14  C   UNL     1     -24.541 -31.392  21.952  1.00  0.00     0.000 C 
BRANCH  14  15
ATOM     15  C   UNL     1     -23.138 -31.101  22.515  1.00  0.00     0.000 C 
BRANCH  15  16
ATOM     16  C   UNL     1     -22.949 -31.660  23.934  1.00  0.00     0.000 C 
BRANCH  16  17
ATOM     17  C   UNL     1     -22.350 -30.632  24.908  1.00  0.00     0.000 C 
BRANCH  17  18
ATOM     18  C   UNL     1     -21.837 -29.349  24.220  1.00  0.00     0.000 C 
BRANCH  18  19
ATOM     19  C   UNL     1     -20.465 -28.908  24.762  1.00  0.00     0.000 C 
BRANCH  19  20
ATOM     20  C   UNL     1     -19.470 -30.077  24.887  1.00  0.00     0.006 C 
BRANCH  20  21
ATOM     21  C   UNL     1     -19.006 -30.656  23.541  1.00  0.00     0.053 C 
BRANCH  21  22
ATOM     22  C   UNL     1     -17.575 -30.328  23.249  1.00  0.00     0.041 C 
ATOM     23  O   UNL     1     -17.282 -29.294  22.594  1.00  0.00    -0.550 OA
ATOM     24  O   UNL     1     -16.561 -31.155  23.720  1.00  0.00    -0.550 OA
ENDBRANCH  21  22
ENDBRANCH  20  21
ENDBRANCH  19  20
ENDBRANCH  18  19
ENDBRANCH  17  18
ENDBRANCH  16  17
ENDBRANCH  15  16
ENDBRANCH  14  15
ENDBRANCH  13  14
ENDBRANCH   1  13
TORSDOF 20
ENDMDL
MODEL 4
REMARK VINA RESULT:    -5.836      4.635      8.704
REMARK INTER + INTRA:         -14.984
REMARK INTER:                 -12.471
REMARK INTRA:                  -2.513
REMARK UNBOUND:                -2.325
REMARK SMILES CCCCCCCCCCCCCCCCCCCCCC(=O)[O-]
REMARK SMILES IDX 12 1 11 2 10 3 9 4 8 5 7 6 6 7 5 8 4 9 3 10 2 11 1 12 13 13
REMARK SMILES IDX 14 14 15 15 16 16 17 17 18 18 19 19 20 20 21 21 22 22 23 23
REMARK SMILES IDX 24 24
REMARK H PARENT
REMARK Flexibility Score: inf
ROOT
ATOM      1  C   UNL     1     -27.813 -32.417  24.953  1.00  0.00     0.000 C 
ENDROOT
BRANCH   1   2
ATOM      2  C   UNL     1     -27.133 -32.992  26.214  1.00  0.00     0.000 C 
BRANCH   2   3
ATOM      3  C   UNL     1     -25.598 -33.048  26.119  1.00  0.00     0.000 C 
BRANCH   3   4
ATOM      4  C   UNL     1     -25.021 -32.001  25.152  1.00  0.00    -0.000 C 
BRANCH   4   5
ATOM      5  C   UNL     1     -23.484 -32.033  25.099  1.00  0.00    -0.000 C 
BRANCH   5   6
ATOM      6  C   UNL     1     -22.912 -31.085  24.034  1.00  0.00    -0.000 C 
BRANCH   6   7
ATOM      7  C   UNL     1     -21.999 -31.844  23.058  1.00  0.00    -0.000 C 
BRANCH   7   8
ATOM      8  C   UNL     1     -20.510 -31.740  23.431  1.00  0.00    -0.000 C 
BRANCH   8   9
ATOM      9  C   UNL     1     -20.056 -30.351  23.924  1.00  0.00    -0.000 C 
BRANCH   9  10
ATOM     10  C   UNL     1     -18.585 -30.265  24.378  1.00  0.00    -0.000 C 
BRANCH  10  11
ATOM     11  C   UNL     1     -17.585 -29.914  23.263  1.00  0.00    -0.003 C 
ATOM     12  C   UNL     1     -16.593 -31.041  22.978  1.00  0.00     0.004 C 
ENDBRANCH  10  11
ENDBRANCH   9  10
ENDBRANCH   8   9
ENDBRANCH   7   8
ENDBRANCH   6   7
ENDBRANCH   5   6
ENDBRANCH   4   5
ENDBRANCH   3   4
ENDBRANCH   2   3
ENDBRANCH   1   2
BRANCH   1  13
ATOM     13  C   UNL     1     -28.156 -33.514  23.929  1.00  0.00     0.000 C 
BRANCH  13  14
ATOM     14  C   UNL     1     -27.517 -33.262  22.550  1.00  0.00     0.000 C 
BRANCH  14  15
ATOM     15  C   UNL     1     -27.523 -31.787  22.112  1.00  0.00     0.000 C 
BRANCH  15  16
ATOM     16  C   UNL     1     -26.111 -31.262  21.804  1.00  0.00     0.000 C 
BRANCH  16  17
ATOM     17  C   UNL     1     -25.884 -29.825  22.304  1.00  0.00     0.000 C 
BRANCH  17  18
ATOM     18  C   UNL     1     -27.123 -29.200  22.979  1.00  0.00     0.000 C 
BRANCH  18  19
ATOM     19  C   UNL     1     -26.871 -28.868  24.462  1.00  0.00     0.000 C 
BRANCH  19  20
ATOM     20  C   UNL     1     -28.106 -28.259  25.153  1.00  0.00     0.006 C 
BRANCH  20  21
ATOM     21  C   UNL     1     -29.117 -29.298  25.662  1.00  0.00     0.053 C 
BRANCH  21  22
ATOM     22  C   UNL     1     -30.528 -28.803  25.573  1.00  0.00     0.041 C 
ATOM     23  O   UNL     1     -31.233 -29.075  24.567  1.00  0.00    -0.550 OA
ATOM     24  O   UNL     1     -31.070 -28.057  26.613  1.00  0.00    -0.550 OA
ENDBRANCH  21  22
ENDBRANCH  20  21
ENDBRANCH  19  20
ENDBRANCH  18  19
ENDBRANCH  17  18
ENDBRANCH  16  17
ENDBRANCH  15  16
ENDBRANCH  14  15
ENDBRANCH  13  14
ENDBRANCH   1  13
TORSDOF 20
ENDMDL
MODEL 5
REMARK VINA RESULT:    -5.822      3.256      8.481
REMARK INTER + INTRA:         -14.955
REMARK INTER:                 -12.462
REMARK INTRA:                  -2.493
REMARK UNBOUND:                -2.325
REMARK SMILES CCCCCCCCCCCCCCCCCCCCCC(=O)[O-]
REMARK SMILES IDX 12 1 11 2 10 3 9 4 8 5 7 6 6 7 5 8 4 9 3 10 2 11 1 12 13 13
REMARK SMILES IDX 14 14 15 15 16 16 17 17 18 18 19 19 20 20 21 21 22 22 23 23
REMARK SMILES IDX 24 24
REMARK H PARENT
REMARK Flexibility Score: inf
ROOT
ATOM      1  C   UNL     1     -24.494 -33.005  25.881  1.00  0.00     0.000 C 
ENDROOT
BRANCH   1   2
ATOM      2  C   UNL     1     -24.141 -31.698  25.139  1.00  0.00     0.000 C 
BRANCH   2   3
ATOM      3  C   UNL     1     -23.412 -31.922  23.803  1.00  0.00     0.000 C 
BRANCH   3   4
ATOM      4  C   UNL     1     -22.152 -31.053  23.658  1.00  0.00    -0.000 C 
BRANCH   4   5
ATOM      5  C   UNL     1     -21.845 -30.244  24.930  1.00  0.00    -0.000 C 
BRANCH   5   6
ATOM      6  C   UNL     1     -20.360 -29.868  25.045  1.00  0.00    -0.000 C 
BRANCH   6   7
ATOM      7  C   UNL     1     -19.518 -30.640  24.017  1.00  0.00    -0.000 C 
BRANCH   7   8
ATOM      8  C   UNL     1     -18.116 -30.036  23.820  1.00  0.00    -0.000 C 
BRANCH   8   9
ATOM      9  C   UNL     1     -17.033 -31.036  23.369  1.00  0.00    -0.000 C 
BRANCH   9  10
ATOM     10  C   UNL     1     -15.967 -30.462  22.415  1.00  0.00    -0.000 C 
BRANCH  10  11
ATOM     11  C   UNL     1     -16.490 -29.409  21.421  1.00  0.00    -0.003 C 
ATOM     12  C   UNL     1     -16.320 -29.833  19.962  1.00  0.00     0.004 C 
ENDBRANCH  10  11
ENDBRANCH   9  10
ENDBRANCH   8   9
ENDBRANCH   7   8
ENDBRANCH   6   7
ENDBRANCH   5   6
ENDBRANCH   4   5
ENDBRANCH   3   4
ENDBRANCH   2   3
ENDBRANCH   1   2
BRANCH   1  13
ATOM     13  C   UNL     1     -25.908 -32.964  26.487  1.00  0.00     0.000 C 
BRANCH  13  14
ATOM     14  C   UNL     1     -26.891 -32.125  25.650  1.00  0.00     0.000 C 
BRANCH  14  15
ATOM     15  C   UNL     1     -27.822 -32.957  24.749  1.00  0.00     0.000 C 
BRANCH  15  16
ATOM     16  C   UNL     1     -27.999 -32.333  23.355  1.00  0.00     0.000 C 
BRANCH  16  17
ATOM     17  C   UNL     1     -26.700 -32.330  22.531  1.00  0.00     0.000 C 
BRANCH  17  18
ATOM     18  C   UNL     1     -26.352 -30.954  21.926  1.00  0.00     0.000 C 
BRANCH  18  19
ATOM     19  C   UNL     1     -27.012 -29.796  22.696  1.00  0.00     0.000 C 
BRANCH  19  20
ATOM     20  C   UNL     1     -25.984 -28.824  23.306  1.00  0.00     0.006 C 
BRANCH  20  21
ATOM     21  C   UNL     1     -25.991 -28.783  24.842  1.00  0.00     0.053 C 
BRANCH  21  22
ATOM     22  C   UNL     1     -25.223 -27.615  25.379  1.00  0.00     0.041 C 
ATOM     23  O   UNL     1     -24.123 -27.795  25.964  1.00  0.00    -0.550 OA
ATOM     24  O   UNL     1     -25.713 -26.325  25.216  1.00  0.00    -0.550 OA
ENDBRANCH  21  22
ENDBRANCH  20  21
ENDBRANCH  19  20
ENDBRANCH  18  19
ENDBRANCH  17  18
ENDBRANCH  16  17
ENDBRANCH  15  16
ENDBRANCH  14  15
ENDBRANCH  13  14
ENDBRANCH   1  13
TORSDOF 20
ENDMDL
MODEL 6
REMARK VINA RESULT:    -5.752      3.045      6.525
REMARK INTER + INTRA:         -14.803
REMARK INTER:                 -11.820
REMARK INTRA:                  -2.983
REMARK UNBOUND:                -2.325
REMARK SMILES CCCCCCCCCCCCCCCCCCCCCC(=O)[O-]
REMARK SMILES IDX 12 1 11 2 10 3 9 4 8 5 7 6 6 7 5 8 4 9 3 10 2 11 1 12 13 13
REMARK SMILES IDX 14 14 15 15 16 16 17 17 18 18 19 19 20 20 21 21 22 22 23 23
REMARK SMILES IDX 24 24
REMARK H PARENT
REMARK Flexibility Score: inf
ROOT
ATOM      1  C   UNL     1     -29.103 -30.977  22.453  1.00  0.00     0.000 C 
ENDROOT
BRANCH   1   2
ATOM      2  C   UNL     1     -28.700 -32.445  22.195  1.00  0.00     0.000 C 
BRANCH   2   3
ATOM      3  C   UNL     1     -27.383 -32.855  22.876  1.00  0.00     0.000 C 
BRANCH   3   4
ATOM      4  C   UNL     1     -27.570 -33.245  24.352  1.00  0.00    -0.000 C 
BRANCH   4   5
ATOM      5  C   UNL     1     -26.922 -32.236  25.314  1.00  0.00    -0.000 C 
BRANCH   5   6
ATOM      6  C   UNL     1     -25.968 -32.906  26.316  1.00  0.00    -0.000 C 
BRANCH   6   7
ATOM      7  C   UNL     1     -24.525 -32.900  25.787  1.00  0.00    -0.000 C 
BRANCH   7   8
ATOM      8  C   UNL     1     -24.190 -31.632  24.982  1.00  0.00    -0.000 C 
BRANCH   8   9
ATOM      9  C   UNL     1     -22.971 -31.758  24.046  1.00  0.00    -0.000 C 
BRANCH   9  10
ATOM     10  C   UNL     1     -21.778 -30.847  24.400  1.00  0.00    -0.000 C 
BRANCH  10  11
ATOM     11  C   UNL     1     -20.482 -31.152  23.628  1.00  0.00    -0.003 C 
ATOM     12  C   UNL     1     -19.316 -30.256  24.046  1.00  0.00     0.004 C 
ENDBRANCH  10  11
ENDBRANCH   9  10
ENDBRANCH   8   9
ENDBRANCH   7   8
ENDBRANCH   6   7
ENDBRANCH   5   6
ENDBRANCH   4   5
ENDBRANCH   3   4
ENDBRANCH   2   3
ENDBRANCH   1   2
BRANCH   1  13
ATOM     13  C   UNL     1     -30.578 -30.846  22.872  1.00  0.00     0.000 C 
BRANCH  13  14
ATOM     14  C   UNL     1     -30.746 -30.257  24.285  1.00  0.00     0.000 C 
BRANCH  14  15
ATOM     15  C   UNL     1     -29.420 -29.903  24.983  1.00  0.00     0.000 C 
BRANCH  15  16
ATOM     16  C   UNL     1     -29.398 -28.455  25.499  1.00  0.00     0.000 C 
BRANCH  16  17
ATOM     17  C   UNL     1     -28.100 -27.712  25.141  1.00  0.00     0.000 C 
BRANCH  17  18
ATOM     18  C   UNL     1     -26.928 -28.648  24.776  1.00  0.00     0.000 C 
BRANCH  18  19
ATOM     19  C   UNL     1     -26.249 -28.241  23.455  1.00  0.00     0.000 C 
BRANCH  19  20
ATOM     20  C   UNL     1     -25.822 -29.455  22.608  1.00  0.00     0.006 C 
BRANCH  20  21
ATOM     21  C   UNL     1     -26.008 -29.261  21.094  1.00  0.00     0.053 C 
BRANCH  21  22
ATOM     22  C   UNL     1     -25.130 -28.176  20.553  1.00  0.00     0.041 C 
ATOM     23  O   UNL     1     -23.879 -28.253  20.671  1.00  0.00    -0.550 OA
ATOM     24  O   UNL     1     -25.693 -27.087  19.897  1.00  0.00    -0.550 OA
ENDBRANCH  21  22
ENDBRANCH  20  21
ENDBRANCH  19  20
ENDBRANCH  18  19
ENDBRANCH  17  18
ENDBRANCH  16  17
ENDBRANCH  15  16
ENDBRANCH  14  15
ENDBRANCH  13  14
ENDBRANCH   1  13
TORSDOF 20
ENDMDL
MODEL 7
REMARK VINA RESULT:    -5.738      4.433      8.876
REMARK INTER + INTRA:         -14.771
REMARK INTER:                 -12.138
REMARK INTRA:                  -2.633
REMARK UNBOUND:                -2.325
REMARK SMILES CCCCCCCCCCCCCCCCCCCCCC(=O)[O-]
REMARK SMILES IDX 12 1 11 2 10 3 9 4 8 5 7 6 6 7 5 8 4 9 3 10 2 11 1 12 13 13
REMARK SMILES IDX 14 14 15 15 16 16 17 17 18 18 19 19 20 20 21 21 22 22 23 23
REMARK SMILES IDX 24 24
REMARK H PARENT
REMARK Flexibility Score: inf
ROOT
ATOM      1  C   UNL     1     -24.092 -31.117  22.596  1.00  0.00     0.000 C 
ENDROOT
BRANCH   1   2
ATOM      2  C   UNL     1     -24.757 -29.762  22.916  1.00  0.00     0.000 C 
BRANCH   2   3
ATOM      3  C   UNL     1     -24.127 -28.571  22.172  1.00  0.00     0.000 C 
BRANCH   3   4
ATOM      4  C   UNL     1     -23.089 -27.819  23.022  1.00  0.00    -0.000 C 
BRANCH   4   5
ATOM      5  C   UNL     1     -23.439 -27.824  24.519  1.00  0.00    -0.000 C 
BRANCH   5   6
ATOM      6  C   UNL     1     -22.290 -28.353  25.391  1.00  0.00    -0.000 C 
BRANCH   6   7
ATOM      7  C   UNL     1     -20.966 -28.357  24.609  1.00  0.00    -0.000 C 
BRANCH   7   8
ATOM      8  C   UNL     1     -19.811 -28.999  25.396  1.00  0.00    -0.000 C 
BRANCH   8   9
ATOM      9  C   UNL     1     -19.154 -30.216  24.712  1.00  0.00    -0.000 C 
BRANCH   9  10
ATOM     10  C   UNL     1     -18.052 -29.875  23.689  1.00  0.00    -0.000 C 
BRANCH  10  11
ATOM     11  C   UNL     1     -16.987 -30.970  23.499  1.00  0.00    -0.003 C 
ATOM     12  C   UNL     1     -16.195 -30.811  22.201  1.00  0.00     0.004 C 
ENDBRANCH  10  11
ENDBRANCH   9  10
ENDBRANCH   8   9
ENDBRANCH   7   8
ENDBRANCH   6   7
ENDBRANCH   5   6
ENDBRANCH   4   5
ENDBRANCH   3   4
ENDBRANCH   2   3
ENDBRANCH   1   2
BRANCH   1  13
ATOM     13  C   UNL     1     -23.143 -31.576  23.717  1.00  0.00     0.000 C 
BRANCH  13  14
ATOM     14  C   UNL     1     -23.819 -31.594  25.101  1.00  0.00     0.000 C 
BRANCH  14  15
ATOM     15  C   UNL     1     -24.676 -32.845  25.368  1.00  0.00     0.000 C 
BRANCH  15  16
ATOM     16  C   UNL     1     -26.069 -32.494  25.916  1.00  0.00     0.000 C 
BRANCH  16  17
ATOM     17  C   UNL     1     -27.064 -32.094  24.813  1.00  0.00     0.000 C 
BRANCH  17  18
ATOM     18  C   UNL     1     -27.427 -33.249  23.856  1.00  0.00     0.000 C 
BRANCH  18  19
ATOM     19  C   UNL     1     -27.759 -32.747  22.439  1.00  0.00     0.000 C 
BRANCH  19  20
ATOM     20  C   UNL     1     -28.380 -31.337  22.438  1.00  0.00     0.006 C 
BRANCH  20  21
ATOM     21  C   UNL     1     -29.917 -31.326  22.428  1.00  0.00     0.053 C 
BRANCH  21  22
ATOM     22  C   UNL     1     -30.481 -30.437  23.492  1.00  0.00     0.041 C 
ATOM     23  O   UNL     1     -29.733 -29.966  24.388  1.00  0.00    -0.550 OA
ATOM     24  O   UNL     1     -31.832 -30.111  23.483  1.00  0.00    -0.550 OA
ENDBRANCH  21  22
ENDBRANCH  20  21
ENDBRANCH  19  20
ENDBRANCH  18  19
ENDBRANCH  17  18
ENDBRANCH  16  17
ENDBRANCH  15  16
ENDBRANCH  14  15
ENDBRANCH  13  14
ENDBRANCH   1  13
TORSDOF 20
ENDMDL
MODEL 8
REMARK VINA RESULT:    -5.728      1.268      3.212
REMARK INTER + INTRA:         -14.750
REMARK INTER:                 -11.941
REMARK INTRA:                  -2.808
REMARK UNBOUND:                -2.325
REMARK SMILES CCCCCCCCCCCCCCCCCCCCCC(=O)[O-]
REMARK SMILES IDX 12 1 11 2 10 3 9 4 8 5 7 6 6 7 5 8 4 9 3 10 2 11 1 12 13 13
REMARK SMILES IDX 14 14 15 15 16 16 17 17 18 18 19 19 20 20 21 21 22 22 23 23
REMARK SMILES IDX 24 24
REMARK H PARENT
REMARK Flexibility Score: inf
ROOT
ATOM      1  C   UNL     1     -26.420 -32.495  26.052  1.00  0.00     0.000 C 
ENDROOT
BRANCH   1   2
ATOM      2  C   UNL     1     -27.568 -32.948  25.125  1.00  0.00     0.000 C 
BRANCH   2   3
ATOM      3  C   UNL     1     -27.145 -33.123  23.656  1.00  0.00     0.000 C 
BRANCH   3   4
ATOM      4  C   UNL     1     -28.234 -32.681  22.665  1.00  0.00    -0.000 C 
BRANCH   4   5
ATOM      5  C   UNL     1     -28.314 -31.152  22.521  1.00  0.00    -0.000 C 
BRANCH   5   6
ATOM      6  C   UNL     1     -26.930 -30.486  22.537  1.00  0.00    -0.000 C 
BRANCH   6   7
ATOM      7  C   UNL     1     -26.793 -29.536  23.738  1.00  0.00    -0.000 C 
BRANCH   7   8
ATOM      8  C   UNL     1     -28.148 -29.005  24.236  1.00  0.00    -0.000 C 
BRANCH   8   9
ATOM      9  C   UNL     1     -28.615 -29.578  25.590  1.00  0.00    -0.000 C 
BRANCH   9  10
ATOM     10  C   UNL     1     -30.139 -29.769  25.730  1.00  0.00    -0.000 C 
BRANCH  10  11
ATOM     11  C   UNL     1     -30.976 -29.113  24.618  1.00  0.00    -0.003 C 
ATOM     12  C   UNL     1     -31.644 -30.134  23.697  1.00  0.00     0.004 C 
ENDBRANCH  10  11
ENDBRANCH   9  10
ENDBRANCH   8   9
ENDBRANCH   7   8
ENDBRANCH   6   7
ENDBRANCH   5   6
ENDBRANCH   4   5
ENDBRANCH   3   4
ENDBRANCH   2   3
ENDBRANCH   1   2
BRANCH   1  13
ATOM     13  C   UNL     1     -25.037 -32.843  25.475  1.00  0.00     0.000 C 
BRANCH  13  14
ATOM     14  C   UNL     1     -24.179 -31.596  25.189  1.00  0.00     0.000 C 
BRANCH  14  15
ATOM     15  C   UNL     1     -23.251 -31.735  23.969  1.00  0.00     0.000 C 
BRANCH  15  16
ATOM     16  C   UNL     1     -23.243 -30.472  23.093  1.00  0.00     0.000 C 
BRANCH  16  17
ATOM     17  C   UNL     1     -21.903 -29.717  23.143  1.00  0.00     0.000 C 
BRANCH  17  18
ATOM     18  C   UNL     1     -21.540 -29.188  24.547  1.00  0.00     0.000 C 
BRANCH  18  19
ATOM     19  C   UNL     1     -20.273 -29.857  25.110  1.00  0.00     0.000 C 
BRANCH  19  20
ATOM     20  C   UNL     1     -19.475 -30.620  24.035  1.00  0.00     0.006 C 
BRANCH  20  21
ATOM     21  C   UNL     1     -18.316 -29.817  23.424  1.00  0.00     0.053 C 
BRANCH  21  22
ATOM     22  C   UNL     1     -17.200 -30.701  22.960  1.00  0.00     0.041 C 
ATOM     23  O   UNL     1     -16.510 -31.342  23.795  1.00  0.00    -0.550 OA
ATOM     24  O   UNL     1     -16.934 -30.833  21.602  1.00  0.00    -0.550 OA
ENDBRANCH  21  22
ENDBRANCH  20  21
ENDBRANCH  19  20
ENDBRANCH  18  19
ENDBRANCH  17  18
ENDBRANCH  16  17
ENDBRANCH  15  16
ENDBRANCH  14  15
ENDBRANCH  13  14
ENDBRANCH   1  13
TORSDOF 20
ENDMDL
MODEL 9
REMARK VINA RESULT:    -5.696      3.993      8.222
REMARK INTER + INTRA:         -14.681
REMARK INTER:                 -11.421
REMARK INTRA:                  -3.260
REMARK UNBOUND:                -2.325
REMARK SMILES CCCCCCCCCCCCCCCCCCCCCC(=O)[O-]
REMARK SMILES IDX 12 1 11 2 10 3 9 4 8 5 7 6 6 7 5 8 4 9 3 10 2 11 1 12 13 13
REMARK SMILES IDX 14 14 15 15 16 16 17 17 18 18 19 19 20 20 21 21 22 22 23 23
REMARK SMILES IDX 24 24
REMARK H PARENT
REMARK Flexibility Score: inf
ROOT
ATOM      1  C   UNL     1     -24.412 -31.521  25.089  1.00  0.00     0.000 C 
ENDROOT
BRANCH   1   2
ATOM      2  C   UNL     1     -23.060 -31.854  24.424  1.00  0.00     0.000 C 
BRANCH   2   3
ATOM      3  C   UNL     1     -22.977 -31.438  22.945  1.00  0.00     0.000 C 
BRANCH   3   4
ATOM      4  C   UNL     1     -23.580 -30.048  22.682  1.00  0.00    -0.000 C 
BRANCH   4   5
ATOM      5  C   UNL     1     -22.571 -28.913  22.924  1.00  0.00    -0.000 C 
BRANCH   5   6
ATOM      6  C   UNL     1     -22.824 -28.172  24.247  1.00  0.00    -0.000 C 
BRANCH   6   7
ATOM      7  C   UNL     1     -21.714 -28.476  25.266  1.00  0.00    -0.000 C 
BRANCH   7   8
ATOM      8  C   UNL     1     -20.316 -28.530  24.625  1.00  0.00    -0.000 C 
BRANCH   8   9
ATOM      9  C   UNL     1     -19.507 -29.806  24.933  1.00  0.00    -0.000 C 
BRANCH   9  10
ATOM     10  C   UNL     1     -19.426 -30.825  23.778  1.00  0.00    -0.000 C 
BRANCH  10  11
ATOM     11  C   UNL     1     -18.005 -31.308  23.442  1.00  0.00    -0.003 C 
ATOM     12  C   UNL     1     -17.037 -30.159  23.159  1.00  0.00     0.004 C 
ENDBRANCH  10  11
ENDBRANCH   9  10
ENDBRANCH   8   9
ENDBRANCH   7   8
ENDBRANCH   6   7
ENDBRANCH   5   6
ENDBRANCH   4   5
ENDBRANCH   3   4
ENDBRANCH   2   3
ENDBRANCH   1   2
BRANCH   1  13
ATOM     13  C   UNL     1     -25.138 -32.782  25.590  1.00  0.00     0.000 C 
BRANCH  13  14
ATOM     14  C   UNL     1     -26.477 -32.465  26.281  1.00  0.00     0.000 C 
BRANCH  14  15
ATOM     15  C   UNL     1     -27.719 -32.864  25.464  1.00  0.00     0.000 C 
BRANCH  15  16
ATOM     16  C   UNL     1     -27.361 -33.318  24.039  1.00  0.00     0.000 C 
BRANCH  16  17
ATOM     17  C   UNL     1     -28.035 -32.463  22.952  1.00  0.00     0.000 C 
BRANCH  17  18
ATOM     18  C   UNL     1     -27.049 -31.582  22.156  1.00  0.00     0.000 C 
BRANCH  18  19
ATOM     19  C   UNL     1     -27.321 -30.079  22.356  1.00  0.00     0.000 C 
BRANCH  19  20
ATOM     20  C   UNL     1     -27.010 -29.604  23.788  1.00  0.00     0.006 C 
BRANCH  20  21
ATOM     21  C   UNL     1     -28.252 -29.210  24.603  1.00  0.00     0.053 C 
BRANCH  21  22
ATOM     22  C   UNL     1     -28.227 -27.770  25.010  1.00  0.00     0.041 C 
ATOM     23  O   UNL     1     -29.165 -27.289  25.699  1.00  0.00    -0.550 OA
ATOM     24  O   UNL     1     -27.156 -26.962  24.646  1.00  0.00    -0.550 OA
ENDBRANCH  21  22
ENDBRANCH  20  21
ENDBRANCH  19  20
ENDBRANCH  18  19
ENDBRANCH  17  18
ENDBRANCH  16  17
ENDBRANCH  15  16
ENDBRANCH  14  15
ENDBRANCH  13  14
ENDBRANCH   1  13
TORSDOF 20
ENDMDL
