MODEL 1
REMARK VINA RESULT:    -5.283      0.000      0.000
REMARK INTER + INTRA:         -11.662
REMARK INTER:                  -9.606
REMARK INTRA:                  -2.056
REMARK UNBOUND:                -2.056
REMARK SMILES CCCCCCCCCCCCCCCC(=O)[O-]
REMARK SMILES IDX 9 1 10 2 11 3 12 4 13 5 14 6 15 7 16 8 17 9 18 10 8 11 7 12
REMARK SMILES IDX 6 13 5 14 4 15 3 16 2 17 1 18
REMARK H PARENT
REMARK Flexibility Score: inf
ROOT
ATOM      1  C   UNL     1      20.614  21.263   6.072  1.00  0.00     0.000 C 
ENDROOT
BRANCH   1   2
ATOM      2  C   UNL     1      19.503  21.742   5.119  1.00  0.00     0.000 C 
BRANCH   2   3
ATOM      3  C   UNL     1      18.616  22.873   5.674  1.00  0.00     0.000 C 
BRANCH   3   4
ATOM      4  C   UNL     1      17.471  22.357   6.558  1.00  0.00     0.000 C 
BRANCH   4   5
ATOM      5  C   UNL     1      17.059  23.415   7.593  1.00  0.00     0.000 C 
BRANCH   5   6
ATOM      6  C   UNL     1      18.193  24.400   7.918  1.00  0.00     0.006 C 
BRANCH   6   7
ATOM      7  C   UNL     1      17.674  25.769   8.374  1.00  0.00     0.053 C 
BRANCH   7   8
ATOM      8  C   UNL     1      18.610  26.376   9.372  1.00  0.00     0.041 C 
ATOM      9  O   UNL     1      18.851  25.784  10.456  1.00  0.00    -0.550 OA
ATOM     10  O   UNL     1      19.178  27.620   9.125  1.00  0.00    -0.550 OA
ENDBRANCH   7   8
ENDBRANCH   6   7
ENDBRANCH   5   6
ENDBRANCH   4   5
ENDBRANCH   3   4
ENDBRANCH   2   3
ENDBRANCH   1   2
BRANCH   1  11
ATOM     11  C   UNL     1      21.199  22.395   6.929  1.00  0.00     0.000 C 
BRANCH  11  12
ATOM     12  C   UNL     1      21.539  21.895   8.340  1.00  0.00    -0.000 C 
BRANCH  12  13
ATOM     13  C   UNL     1      21.627  23.031   9.376  1.00  0.00    -0.000 C 
BRANCH  13  14
ATOM     14  C   UNL     1      20.521  23.021  10.446  1.00  0.00    -0.000 C 
BRANCH  14  15
ATOM     15  C   UNL     1      19.424  21.983  10.165  1.00  0.00    -0.000 C 
BRANCH  15  16
ATOM     16  C   UNL     1      18.394  21.951  11.300  1.00  0.00    -0.000 C 
BRANCH  16  17
ATOM     17  C   UNL     1      17.028  21.475  10.791  1.00  0.00    -0.003 C 
ATOM     18  C   UNL     1      17.176  20.308   9.820  1.00  0.00     0.004 C 
ENDBRANCH  16  17
ENDBRANCH  15  16
ENDBRANCH  14  15
ENDBRANCH  13  14
ENDBRANCH  12  13
ENDBRANCH  11  12
ENDBRANCH   1  11
TORSDOF 14
ENDMDL
MODEL 2
REMARK VINA RESULT:    -5.265      2.224      4.586
REMARK INTER + INTRA:         -11.630
REMARK INTER:                  -9.414
REMARK INTRA:                  -2.216
REMARK UNBOUND:                -2.056
REMARK SMILES CCCCCCCCCCCCCCCC(=O)[O-]
REMARK SMILES IDX 9 1 10 2 11 3 12 4 13 5 14 6 15 7 16 8 17 9 18 10 8 11 7 12
REMARK SMILES IDX 6 13 5 14 4 15 3 16 2 17 1 18
REMARK H PARENT
REMARK Flexibility Score: inf
ROOT
ATOM      1  C   UNL     1      17.254  21.389   7.702  1.00  0.00     0.000 C 
ENDROOT
BRANCH   1   2
ATOM      2  C   UNL     1      17.040  22.649   6.845  1.00  0.00     0.000 C 
BRANCH   2   3
ATOM      3  C   UNL     1      18.234  23.038   5.953  1.00  0.00     0.000 C 
BRANCH   3   4
ATOM      4  C   UNL     1      18.916  21.826   5.302  1.00  0.00     0.000 C 
BRANCH   4   5
ATOM      5  C   UNL     1      20.436  21.873   5.517  1.00  0.00     0.000 C 
BRANCH   5   6
ATOM      6  C   UNL     1      20.825  22.477   6.875  1.00  0.00     0.006 C 
BRANCH   6   7
ATOM      7  C   UNL     1      21.061  21.409   7.950  1.00  0.00     0.053 C 
BRANCH   7   8
ATOM      8  C   UNL     1      22.199  21.805   8.839  1.00  0.00     0.041 C 
ATOM      9  O   UNL     1      22.118  22.844   9.546  1.00  0.00    -0.550 OA
ATOM     10  O   UNL     1      23.367  21.054   8.849  1.00  0.00    -0.550 OA
ENDBRANCH   7   8
ENDBRANCH   6   7
ENDBRANCH   5   6
ENDBRANCH   4   5
ENDBRANCH   3   4
ENDBRANCH   2   3
ENDBRANCH   1   2
BRANCH   1  11
ATOM     11  C   UNL     1      16.950  21.617   9.190  1.00  0.00     0.000 C 
BRANCH  11  12
ATOM     12  C   UNL     1      18.169  21.274  10.058  1.00  0.00    -0.000 C 
BRANCH  12  13
ATOM     13  C   UNL     1      18.774  22.504  10.759  1.00  0.00    -0.000 C 
BRANCH  13  14
ATOM     14  C   UNL     1      18.264  23.862  10.244  1.00  0.00    -0.000 C 
BRANCH  14  15
ATOM     15  C   UNL     1      19.336  24.657   9.484  1.00  0.00    -0.000 C 
BRANCH  15  16
ATOM     16  C   UNL     1      18.698  25.593   8.451  1.00  0.00    -0.000 C 
BRANCH  16  17
ATOM     17  C   UNL     1      18.727  27.047   8.934  1.00  0.00    -0.003 C 
ATOM     18  C   UNL     1      17.317  27.615   9.060  1.00  0.00     0.004 C 
ENDBRANCH  16  17
ENDBRANCH  15  16
ENDBRANCH  14  15
ENDBRANCH  13  14
ENDBRANCH  12  13
ENDBRANCH  11  12
ENDBRANCH   1  11
TORSDOF 14
ENDMDL
MODEL 3
REMARK VINA RESULT:    -5.225      1.331      3.876
REMARK INTER + INTRA:         -11.558
REMARK INTER:                  -9.105
REMARK INTRA:                  -2.453
REMARK UNBOUND:                -2.056
REMARK SMILES CCCCCCCCCCCCCCCC(=O)[O-]
REMARK SMILES IDX 9 1 10 2 11 3 12 4 13 5 14 6 15 7 16 8 17 9 18 10 8 11 7 12
REMARK SMILES IDX 6 13 5 14 4 15 3 16 2 17 1 18
REMARK H PARENT
REMARK Flexibility Score: inf
ROOT
ATOM      1  C   UNL     1      18.224  20.257   8.193  1.00  0.00     0.000 C 
ENDROOT
BRANCH   1   2
ATOM      2  C   UNL     1      17.421  20.955   9.305  1.00  0.00     0.000 C 
BRANCH   2   3
ATOM      3  C   UNL     1      18.211  21.239  10.596  1.00  0.00     0.000 C 
BRANCH   3   4
ATOM      4  C   UNL     1      17.903  22.619  11.196  1.00  0.00     0.000 C 
BRANCH   4   5
ATOM      5  C   UNL     1      17.133  23.493  10.195  1.00  0.00     0.000 C 
BRANCH   5   6
ATOM      6  C   UNL     1      17.544  24.972  10.261  1.00  0.00     0.006 C 
BRANCH   6   7
ATOM      7  C   UNL     1      17.428  25.678   8.905  1.00  0.00     0.053 C 
BRANCH   7   8
ATOM      8  C   UNL     1      17.783  27.127   9.038  1.00  0.00     0.041 C 
ATOM      9  O   UNL     1      16.876  27.999   9.088  1.00  0.00    -0.550 OA
ATOM     10  O   UNL     1      19.115  27.517   9.059  1.00  0.00    -0.550 OA
ENDBRANCH   7   8
ENDBRANCH   6   7
ENDBRANCH   5   6
ENDBRANCH   4   5
ENDBRANCH   3   4
ENDBRANCH   2   3
ENDBRANCH   1   2
BRANCH   1  11
ATOM     11  C   UNL     1      17.638  20.490   6.793  1.00  0.00     0.000 C 
BRANCH  11  12
ATOM     12  C   UNL     1      17.078  21.914   6.662  1.00  0.00    -0.000 C 
BRANCH  12  13
ATOM     13  C   UNL     1      18.174  22.971   6.426  1.00  0.00    -0.000 C 
BRANCH  13  14
ATOM     14  C   UNL     1      19.491  22.424   5.850  1.00  0.00    -0.000 C 
BRANCH  14  15
ATOM     15  C   UNL     1      20.687  22.624   6.793  1.00  0.00    -0.000 C 
BRANCH  15  16
ATOM     16  C   UNL     1      20.302  23.500   7.990  1.00  0.00    -0.000 C 
BRANCH  16  17
ATOM     17  C   UNL     1      21.113  23.121   9.235  1.00  0.00    -0.003 C 
ATOM     18  C   UNL     1      22.109  22.008   8.926  1.00  0.00     0.004 C 
ENDBRANCH  16  17
ENDBRANCH  15  16
ENDBRANCH  14  15
ENDBRANCH  13  14
ENDBRANCH  12  13
ENDBRANCH  11  12
ENDBRANCH   1  11
TORSDOF 14
ENDMDL
MODEL 4
REMARK VINA RESULT:    -5.107      3.756      5.875
REMARK INTER + INTRA:         -11.342
REMARK INTER:                  -9.450
REMARK INTRA:                  -1.892
REMARK UNBOUND:                -2.056
REMARK SMILES CCCCCCCCCCCCCCCC(=O)[O-]
REMARK SMILES IDX 9 1 10 2 11 3 12 4 13 5 14 6 15 7 16 8 17 9 18 10 8 11 7 12
REMARK SMILES IDX 6 13 5 14 4 15 3 16 2 17 1 18
REMARK H PARENT
REMARK Flexibility Score: inf
ROOT
ATOM      1  C   UNL     1      20.814  22.585   9.297  1.00  0.00     0.000 C 
ENDROOT
BRANCH   1   2
ATOM      2  C   UNL     1      20.894  23.203   7.890  1.00  0.00     0.000 C 
BRANCH   2   3
ATOM      3  C   UNL     1      19.579  23.169   7.090  1.00  0.00     0.000 C 
BRANCH   3   4
ATOM      4  C   UNL     1      19.664  22.291   5.832  1.00  0.00     0.000 C 
BRANCH   4   5
ATOM      5  C   UNL     1      21.063  21.672   5.690  1.00  0.00     0.000 C 
BRANCH   5   6
ATOM      6  C   UNL     1      21.100  20.191   6.099  1.00  0.00     0.006 C 
BRANCH   6   7
ATOM      7  C   UNL     1      22.449  19.778   6.700  1.00  0.00     0.053 C 
BRANCH   7   8
ATOM      8  C   UNL     1      23.208  18.918   5.738  1.00  0.00     0.041 C 
ATOM      9  O   UNL     1      24.462  18.833   5.818  1.00  0.00    -0.550 OA
ATOM     10  O   UNL     1      22.536  18.251   4.722  1.00  0.00    -0.550 OA
ENDBRANCH   7   8
ENDBRANCH   6   7
ENDBRANCH   5   6
ENDBRANCH   4   5
ENDBRANCH   3   4
ENDBRANCH   2   3
ENDBRANCH   1   2
BRANCH   1  11
ATOM     11  C   UNL     1      19.498  21.833   9.548  1.00  0.00     0.000 C 
BRANCH  11  12
ATOM     12  C   UNL     1      19.043  21.995  11.005  1.00  0.00    -0.000 C 
BRANCH  12  13
ATOM     13  C   UNL     1      17.657  22.655  11.133  1.00  0.00    -0.000 C 
BRANCH  13  14
ATOM     14  C   UNL     1      17.211  23.472   9.908  1.00  0.00    -0.000 C 
BRANCH  14  15
ATOM     15  C   UNL     1      17.279  24.989  10.142  1.00  0.00    -0.000 C 
BRANCH  15  16
ATOM     16  C   UNL     1      18.723  25.496  10.041  1.00  0.00    -0.000 C 
BRANCH  16  17
ATOM     17  C   UNL     1      18.910  26.381   8.803  1.00  0.00    -0.003 C 
ATOM     18  C   UNL     1      17.801  27.422   8.695  1.00  0.00     0.004 C 
ENDBRANCH  16  17
ENDBRANCH  15  16
ENDBRANCH  14  15
ENDBRANCH  13  14
ENDBRANCH  12  13
ENDBRANCH  11  12
ENDBRANCH   1  11
TORSDOF 14
ENDMDL
MODEL 5
REMARK VINA RESULT:    -5.094      1.407      3.547
REMARK INTER + INTRA:         -11.319
REMARK INTER:                  -9.144
REMARK INTRA:                  -2.174
REMARK UNBOUND:                -2.056
REMARK SMILES CCCCCCCCCCCCCCCC(=O)[O-]
REMARK SMILES IDX 9 1 10 2 11 3 12 4 13 5 14 6 15 7 16 8 17 9 18 10 8 11 7 12
REMARK SMILES IDX 6 13 5 14 4 15 3 16 2 17 1 18
REMARK H PARENT
REMARK Flexibility Score: inf
ROOT
ATOM      1  C   UNL     1      21.279  22.959   9.344  1.00  0.00     0.000 C 
ENDROOT
BRANCH   1   2
ATOM      2  C   UNL     1      20.208  23.141  10.435  1.00  0.00     0.000 C 
BRANCH   2   3
ATOM      3  C   UNL     1      19.063  22.112  10.398  1.00  0.00     0.000 C 
BRANCH   3   4
ATOM      4  C   UNL     1      17.681  22.745  10.622  1.00  0.00     0.000 C 
BRANCH   4   5
ATOM      5  C   UNL     1      17.766  24.278  10.571  1.00  0.00     0.000 C 
BRANCH   5   6
ATOM      6  C   UNL     1      16.932  24.879   9.428  1.00  0.00     0.006 C 
BRANCH   6   7
ATOM      7  C   UNL     1      17.778  25.706   8.452  1.00  0.00     0.053 C 
BRANCH   7   8
ATOM      8  C   UNL     1      17.936  27.107   8.957  1.00  0.00     0.041 C 
ATOM      9  O   UNL     1      16.938  27.871   9.027  1.00  0.00    -0.550 OA
ATOM     10  O   UNL     1      19.194  27.584   9.303  1.00  0.00    -0.550 OA
ENDBRANCH   7   8
ENDBRANCH   6   7
ENDBRANCH   5   6
ENDBRANCH   4   5
ENDBRANCH   3   4
ENDBRANCH   2   3
ENDBRANCH   1   2
BRANCH   1  11
ATOM     11  C   UNL     1      20.814  23.441   7.962  1.00  0.00     0.000 C 
BRANCH  11  12
ATOM     12  C   UNL     1      21.100  22.383   6.887  1.00  0.00    -0.000 C 
BRANCH  12  13
ATOM     13  C   UNL     1      19.930  22.192   5.903  1.00  0.00    -0.000 C 
BRANCH  13  14
ATOM     14  C   UNL     1      18.674  23.023   6.220  1.00  0.00    -0.000 C 
BRANCH  14  15
ATOM     15  C   UNL     1      17.440  22.156   6.512  1.00  0.00    -0.000 C 
BRANCH  15  16
ATOM     16  C   UNL     1      17.513  20.823   5.757  1.00  0.00    -0.000 C 
BRANCH  16  17
ATOM     17  C   UNL     1      17.246  19.642   6.697  1.00  0.00    -0.003 C 
ATOM     18  C   UNL     1      18.040  19.777   7.992  1.00  0.00     0.004 C 
ENDBRANCH  16  17
ENDBRANCH  15  16
ENDBRANCH  14  15
ENDBRANCH  13  14
ENDBRANCH  12  13
ENDBRANCH  11  12
ENDBRANCH   1  11
TORSDOF 14
ENDMDL
MODEL 6
REMARK VINA RESULT:    -5.008      2.650      5.380
REMARK INTER + INTRA:         -11.164
REMARK INTER:                  -9.151
REMARK INTRA:                  -2.012
REMARK UNBOUND:                -2.056
REMARK SMILES CCCCCCCCCCCCCCCC(=O)[O-]
REMARK SMILES IDX 9 1 10 2 11 3 12 4 13 5 14 6 15 7 16 8 17 9 18 10 8 11 7 12
REMARK SMILES IDX 6 13 5 14 4 15 3 16 2 17 1 18
REMARK H PARENT
REMARK Flexibility Score: inf
ROOT
ATOM      1  C   UNL     1      20.526  23.216  10.605  1.00  0.00     0.000 C 
ENDROOT
BRANCH   1   2
ATOM      2  C   UNL     1      21.443  23.046   9.380  1.00  0.00     0.000 C 
BRANCH   2   3
ATOM      3  C   UNL     1      20.945  22.032   8.333  1.00  0.00     0.000 C 
BRANCH   3   4
ATOM      4  C   UNL     1      20.882  22.617   6.915  1.00  0.00     0.000 C 
BRANCH   4   5
ATOM      5  C   UNL     1      21.341  21.583   5.875  1.00  0.00     0.000 C 
BRANCH   5   6
ATOM      6  C   UNL     1      20.293  21.341   4.777  1.00  0.00     0.006 C 
BRANCH   6   7
ATOM      7  C   UNL     1      18.923  21.936   5.129  1.00  0.00     0.053 C 
BRANCH   7   8
ATOM      8  C   UNL     1      17.977  20.854   5.549  1.00  0.00     0.041 C 
ATOM      9  O   UNL     1      17.088  20.447   4.757  1.00  0.00    -0.550 OA
ATOM     10  O   UNL     1      18.047  20.330   6.834  1.00  0.00    -0.550 OA
ENDBRANCH   7   8
ENDBRANCH   6   7
ENDBRANCH   5   6
ENDBRANCH   4   5
ENDBRANCH   3   4
ENDBRANCH   2   3
ENDBRANCH   1   2
BRANCH   1  11
ATOM     11  C   UNL     1      19.238  22.386  10.510  1.00  0.00     0.000 C 
BRANCH  11  12
ATOM     12  C   UNL     1      17.997  23.281  10.642  1.00  0.00    -0.000 C 
BRANCH  12  13
ATOM     13  C   UNL     1      17.016  23.128   9.465  1.00  0.00    -0.000 C 
BRANCH  13  14
ATOM     14  C   UNL     1      17.547  23.623   8.108  1.00  0.00    -0.000 C 
BRANCH  14  15
ATOM     15  C   UNL     1      17.581  25.155   8.001  1.00  0.00    -0.000 C 
BRANCH  15  16
ATOM     16  C   UNL     1      18.950  25.704   8.420  1.00  0.00    -0.000 C 
BRANCH  16  17
ATOM     17  C   UNL     1      18.809  27.064   9.113  1.00  0.00    -0.003 C 
ATOM     18  C   UNL     1      17.370  27.567   9.055  1.00  0.00     0.004 C 
ENDBRANCH  16  17
ENDBRANCH  15  16
ENDBRANCH  14  15
ENDBRANCH  13  14
ENDBRANCH  12  13
ENDBRANCH  11  12
ENDBRANCH   1  11
TORSDOF 14
ENDMDL
MODEL 7
REMARK VINA RESULT:    -4.904      2.977      5.124
REMARK INTER + INTRA:         -10.974
REMARK INTER:                  -8.567
REMARK INTRA:                  -2.407
REMARK UNBOUND:                -2.056
REMARK SMILES CCCCCCCCCCCCCCCC(=O)[O-]
REMARK SMILES IDX 9 1 10 2 11 3 12 4 13 5 14 6 15 7 16 8 17 9 18 10 8 11 7 12
REMARK SMILES IDX 6 13 5 14 4 15 3 16 2 17 1 18
REMARK H PARENT
REMARK Flexibility Score: inf
ROOT
ATOM      1  C   UNL     1      17.172  24.609   7.715  1.00  0.00     0.000 C 
ENDROOT
BRANCH   1   2
ATOM      2  C   UNL     1      17.739  23.698   6.612  1.00  0.00     0.000 C 
BRANCH   2   3
ATOM      3  C   UNL     1      17.253  22.237   6.662  1.00  0.00     0.000 C 
BRANCH   3   4
ATOM      4  C   UNL     1      18.043  21.310   5.727  1.00  0.00     0.000 C 
BRANCH   4   5
ATOM      5  C   UNL     1      19.177  22.074   5.027  1.00  0.00     0.000 C 
BRANCH   5   6
ATOM      6  C   UNL     1      20.141  21.144   4.273  1.00  0.00     0.006 C 
BRANCH   6   7
ATOM      7  C   UNL     1      21.548  21.131   4.883  1.00  0.00     0.053 C 
BRANCH   7   8
ATOM      8  C   UNL     1      21.684  20.001   5.856  1.00  0.00     0.041 C 
ATOM      9  O   UNL     1      22.541  20.058   6.777  1.00  0.00    -0.550 OA
ATOM     10  O   UNL     1      20.898  18.864   5.715  1.00  0.00    -0.550 OA
ENDBRANCH   7   8
ENDBRANCH   6   7
ENDBRANCH   5   6
ENDBRANCH   4   5
ENDBRANCH   3   4
ENDBRANCH   2   3
ENDBRANCH   1   2
BRANCH   1  11
ATOM     11  C   UNL     1      18.263  25.233   8.597  1.00  0.00     0.000 C 
BRANCH  11  12
ATOM     12  C   UNL     1      18.098  24.802  10.061  1.00  0.00    -0.000 C 
BRANCH  12  13
ATOM     13  C   UNL     1      17.035  23.704  10.249  1.00  0.00    -0.000 C 
BRANCH  13  14
ATOM     14  C   UNL     1      17.594  22.310  10.587  1.00  0.00    -0.000 C 
BRANCH  14  15
ATOM     15  C   UNL     1      19.125  22.293  10.716  1.00  0.00    -0.000 C 
BRANCH  15  16
ATOM     16  C   UNL     1      19.782  21.853   9.403  1.00  0.00    -0.000 C 
BRANCH  16  17
ATOM     17  C   UNL     1      21.141  22.535   9.211  1.00  0.00    -0.003 C 
ATOM     18  C   UNL     1      21.249  23.173   7.830  1.00  0.00     0.004 C 
ENDBRANCH  16  17
ENDBRANCH  15  16
ENDBRANCH  14  15
ENDBRANCH  13  14
ENDBRANCH  12  13
ENDBRANCH  11  12
ENDBRANCH   1  11
TORSDOF 14
ENDMDL
MODEL 8
REMARK VINA RESULT:    -4.777      1.675      4.614
REMARK INTER + INTRA:         -10.742
REMARK INTER:                  -8.935
REMARK INTRA:                  -1.807
REMARK UNBOUND:                -2.056
REMARK SMILES CCCCCCCCCCCCCCCC(=O)[O-]
REMARK SMILES IDX 9 1 10 2 11 3 12 4 13 5 14 6 15 7 16 8 17 9 18 10 8 11 7 12
REMARK SMILES IDX 6 13 5 14 4 15 3 16 2 17 1 18
REMARK H PARENT
REMARK Flexibility Score: inf
ROOT
ATOM      1  C   UNL     1      21.419  23.109   9.309  1.00  0.00     0.000 C 
ENDROOT
BRANCH   1   2
ATOM      2  C   UNL     1      20.295  23.114  10.361  1.00  0.00     0.000 C 
BRANCH   2   3
ATOM      3  C   UNL     1      19.156  22.112  10.098  1.00  0.00     0.000 C 
BRANCH   3   4
ATOM      4  C   UNL     1      17.830  22.795   9.732  1.00  0.00     0.000 C 
BRANCH   4   5
ATOM      5  C   UNL     1      17.682  22.925   8.208  1.00  0.00     0.000 C 
BRANCH   5   6
ATOM      6  C   UNL     1      17.795  24.379   7.724  1.00  0.00     0.006 C 
BRANCH   6   7
ATOM      7  C   UNL     1      17.222  25.383   8.732  1.00  0.00     0.053 C 
BRANCH   7   8
ATOM      8  C   UNL     1      18.231  26.445   9.043  1.00  0.00     0.041 C 
ATOM      9  O   UNL     1      18.327  27.462   8.307  1.00  0.00    -0.550 OA
ATOM     10  O   UNL     1      19.099  26.287  10.116  1.00  0.00    -0.550 OA
ENDBRANCH   7   8
ENDBRANCH   6   7
ENDBRANCH   5   6
ENDBRANCH   4   5
ENDBRANCH   3   4
ENDBRANCH   2   3
ENDBRANCH   1   2
BRANCH   1  11
ATOM     11  C   UNL     1      21.336  21.913   8.349  1.00  0.00     0.000 C 
BRANCH  11  12
ATOM     12  C   UNL     1      21.330  22.383   6.887  1.00  0.00    -0.000 C 
BRANCH  12  13
ATOM     13  C   UNL     1      20.201  21.746   6.055  1.00  0.00    -0.000 C 
BRANCH  13  14
ATOM     14  C   UNL     1      20.637  21.188   4.689  1.00  0.00    -0.000 C 
BRANCH  14  15
ATOM     15  C   UNL     1      22.124  20.806   4.644  1.00  0.00    -0.000 C 
BRANCH  15  16
ATOM     16  C   UNL     1      22.301  19.334   4.251  1.00  0.00    -0.000 C 
BRANCH  16  17
ATOM     17  C   UNL     1      23.302  18.634   5.177  1.00  0.00    -0.003 C 
ATOM     18  C   UNL     1      23.338  19.294   6.552  1.00  0.00     0.004 C 
ENDBRANCH  16  17
ENDBRANCH  15  16
ENDBRANCH  14  15
ENDBRANCH  13  14
ENDBRANCH  12  13
ENDBRANCH  11  12
ENDBRANCH   1  11
TORSDOF 14
ENDMDL
MODEL 9
REMARK VINA RESULT:    -4.759      3.209      4.920
REMARK INTER + INTRA:         -10.710
REMARK INTER:                  -8.891
REMARK INTRA:                  -1.819
REMARK UNBOUND:                -2.056
REMARK SMILES CCCCCCCCCCCCCCCC(=O)[O-]
REMARK SMILES IDX 9 1 10 2 11 3 12 4 13 5 14 6 15 7 16 8 17 9 18 10 8 11 7 12
REMARK SMILES IDX 6 13 5 14 4 15 3 16 2 17 1 18
REMARK H PARENT
REMARK Flexibility Score: inf
ROOT
ATOM      1  C   UNL     1      16.962  24.278   8.033  1.00  0.00     0.000 C 
ENDROOT
BRANCH   1   2
ATOM      2  C   UNL     1      17.283  23.855   6.588  1.00  0.00     0.000 C 
BRANCH   2   3
ATOM      3  C   UNL     1      18.631  23.131   6.407  1.00  0.00     0.000 C 
BRANCH   3   4
ATOM      4  C   UNL     1      18.526  21.882   5.520  1.00  0.00     0.000 C 
BRANCH   4   5
ATOM      5  C   UNL     1      19.859  21.602   4.809  1.00  0.00     0.000 C 
BRANCH   5   6
ATOM      6  C   UNL     1      21.064  21.677   5.759  1.00  0.00     0.006 C 
BRANCH   6   7
ATOM      7  C   UNL     1      21.210  20.421   6.627  1.00  0.00     0.053 C 
BRANCH   7   8
ATOM      8  C   UNL     1      22.341  19.574   6.133  1.00  0.00     0.041 C 
ATOM      9  O   UNL     1      22.235  18.946   5.047  1.00  0.00    -0.550 OA
ATOM     10  O   UNL     1      23.494  19.438   6.896  1.00  0.00    -0.550 OA
ENDBRANCH   7   8
ENDBRANCH   6   7
ENDBRANCH   5   6
ENDBRANCH   4   5
ENDBRANCH   3   4
ENDBRANCH   2   3
ENDBRANCH   1   2
BRANCH   1  11
ATOM     11  C   UNL     1      17.417  25.710   8.353  1.00  0.00     0.000 C 
BRANCH  11  12
ATOM     12  C   UNL     1      18.881  25.730   8.815  1.00  0.00    -0.000 C 
BRANCH  12  13
ATOM     13  C   UNL     1      19.143  24.814  10.025  1.00  0.00    -0.000 C 
BRANCH  13  14
ATOM     14  C   UNL     1      20.053  23.606   9.740  1.00  0.00    -0.000 C 
BRANCH  14  15
ATOM     15  C   UNL     1      19.704  22.377  10.593  1.00  0.00    -0.000 C 
BRANCH  15  16
ATOM     16  C   UNL     1      18.199  22.318  10.882  1.00  0.00    -0.000 C 
BRANCH  16  17
ATOM     17  C   UNL     1      17.616  20.956  10.489  1.00  0.00    -0.003 C 
ATOM     18  C   UNL     1      17.966  20.600   9.048  1.00  0.00     0.004 C 
ENDBRANCH  16  17
ENDBRANCH  15  16
ENDBRANCH  14  15
ENDBRANCH  13  14
ENDBRANCH  12  13
ENDBRANCH  11  12
ENDBRANCH   1  11
TORSDOF 14
ENDMDL
