MODEL 1
REMARK VINA RESULT:    -3.451      0.000      0.000
REMARK INTER + INTRA:          -4.483
REMARK INTER:                  -4.157
REMARK INTRA:                  -0.327
REMARK UNBOUND:                -0.327
REMARK SMILES O=c1c(O)c(-c2ccc(O)c(O)c2)oc2cc(O)cc(O)c12
REMARK SMILES IDX 5 1 3 2 2 3 1 4 22 5 20 6 19 7 17 8 16 9 15 10 14 11 6 12
REMARK SMILES IDX 7 13 8 14 9 15 13 16 11 17 10 18 12 20 4 22 21 24 18 26
REMARK H PARENT 10 19 12 21 4 23 21 25 18 27
REMARK Flexibility Score: inf
ROOT
ATOM      1  C   UNL     1    -126.791  39.820  15.971  1.00  0.00     0.180 A 
ATOM      2  C   UNL     1    -126.765  38.622  16.707  1.00  0.00     0.208 A 
ATOM      3  C   UNL     1    -127.867  38.293  17.511  1.00  0.00     0.238 A 
ATOM      4  O   UNL     1    -127.805  37.257  18.225  1.00  0.00    -0.285 OA
ATOM      5  C   UNL     1    -129.005  39.135  17.527  1.00  0.00     0.111 A 
ATOM      6  C   UNL     1    -130.198  38.876  18.270  1.00  0.00     0.134 A 
ATOM      7  C   UNL     1    -131.219  39.834  18.292  1.00  0.00     0.093 A 
ATOM      8  C   UNL     1    -131.121  41.010  17.549  1.00  0.00     0.123 A 
ATOM      9  C   UNL     1    -129.984  41.247  16.776  1.00  0.00     0.094 A 
ATOM     10  C   UNL     1    -128.931  40.329  16.763  1.00  0.00     0.146 A 
ATOM     11  O   UNL     1    -127.859  40.605  16.030  1.00  0.00    -0.452 OA
ENDROOT
BRANCH   1  12
ATOM     12  C   UNL     1    -125.662  40.242  15.112  1.00  0.00     0.025 A 
ATOM     13  C   UNL     1    -125.711  39.988  13.732  1.00  0.00     0.016 A 
ATOM     14  C   UNL     1    -124.667  40.397  12.899  1.00  0.00     0.051 A 
ATOM     15  C   UNL     1    -123.566  41.078  13.428  1.00  0.00     0.157 A 
ATOM     16  C   UNL     1    -124.563  40.946  15.638  1.00  0.00     0.062 A 
ATOM     17  C   UNL     1    -123.515  41.358  14.803  1.00  0.00     0.158 A 
BRANCH  15  18
ATOM     18  O   UNL     1    -122.538  41.471  12.572  1.00  0.00    -0.504 OA
ATOM     19  H   UNL     1    -122.704  41.691  11.597  1.00  0.00     0.293 HD
ENDBRANCH  15  18
BRANCH  17  20
ATOM     20  O   UNL     1    -122.428  42.051  15.334  1.00  0.00    -0.504 OA
ATOM     21  H   UNL     1    -121.762  41.602  15.951  1.00  0.00     0.293 HD
ENDBRANCH  17  20
ENDBRANCH   1  12
BRANCH   2  22
ATOM     22  O   UNL     1    -125.663  37.767  16.618  1.00  0.00    -0.502 OA
ATOM     23  H   UNL     1    -124.991  37.665  17.370  1.00  0.00     0.293 HD
ENDBRANCH   2  22
BRANCH   6  24
ATOM     24  O   UNL     1    -130.439  37.694  18.977  1.00  0.00    -0.507 OA
ATOM     25  H   UNL     1    -129.783  37.250  19.601  1.00  0.00     0.293 HD
ENDBRANCH   6  24
BRANCH   8  26
ATOM     26  O   UNL     1    -132.164  41.932  17.582  1.00  0.00    -0.508 OA
ATOM     27  H   UNL     1    -132.845  41.988  16.833  1.00  0.00     0.293 HD
ENDBRANCH   8  26
TORSDOF 6
ENDMDL
MODEL 2
REMARK VINA RESULT:    -3.387     10.356     14.464
REMARK INTER + INTRA:          -4.407
REMARK INTER:                  -4.087
REMARK INTRA:                  -0.320
REMARK UNBOUND:                -0.327
REMARK SMILES O=c1c(O)c(-c2ccc(O)c(O)c2)oc2cc(O)cc(O)c12
REMARK SMILES IDX 5 1 3 2 2 3 1 4 22 5 20 6 19 7 17 8 16 9 15 10 14 11 6 12
REMARK SMILES IDX 7 13 8 14 9 15 13 16 11 17 10 18 12 20 4 22 21 24 18 26
REMARK H PARENT 10 19 12 21 4 23 21 25 18 27
REMARK Flexibility Score: inf
ROOT
ATOM      1  C   UNL     1    -123.065  40.292   4.761  1.00  0.00     0.180 A 
ATOM      2  C   UNL     1    -122.237  41.114   5.545  1.00  0.00     0.208 A 
ATOM      3  C   UNL     1    -120.948  41.421   5.082  1.00  0.00     0.238 A 
ATOM      4  O   UNL     1    -120.186  42.096   5.823  1.00  0.00    -0.285 OA
ATOM      5  C   UNL     1    -120.522  40.950   3.816  1.00  0.00     0.111 A 
ATOM      6  C   UNL     1    -119.253  41.237   3.227  1.00  0.00     0.134 A 
ATOM      7  C   UNL     1    -118.901  40.629   2.016  1.00  0.00     0.093 A 
ATOM      8  C   UNL     1    -119.793  39.796   1.341  1.00  0.00     0.123 A 
ATOM      9  C   UNL     1    -121.056  39.552   1.881  1.00  0.00     0.094 A 
ATOM     10  C   UNL     1    -121.423  40.114   3.106  1.00  0.00     0.146 A 
ATOM     11  O   UNL     1    -122.627  39.838   3.594  1.00  0.00    -0.452 OA
ENDROOT
BRANCH   1  12
ATOM     12  C   UNL     1    -124.431  39.913   5.189  1.00  0.00     0.025 A 
ATOM     13  C   UNL     1    -124.608  38.795   6.020  1.00  0.00     0.016 A 
ATOM     14  C   UNL     1    -125.886  38.432   6.455  1.00  0.00     0.051 A 
ATOM     15  C   UNL     1    -127.002  39.187   6.079  1.00  0.00     0.157 A 
ATOM     16  C   UNL     1    -125.552  40.683   4.830  1.00  0.00     0.062 A 
ATOM     17  C   UNL     1    -126.834  40.320   5.266  1.00  0.00     0.158 A 
BRANCH  15  18
ATOM     18  O   UNL     1    -128.264  38.798   6.525  1.00  0.00    -0.504 OA
ATOM     19  H   UNL     1    -128.402  38.347   7.422  1.00  0.00     0.293 HD
ENDBRANCH  15  18
BRANCH  17  20
ATOM     20  O   UNL     1    -127.941  41.086   4.901  1.00  0.00    -0.504 OA
ATOM     21  H   UNL     1    -128.631  40.742   4.243  1.00  0.00     0.293 HD
ENDBRANCH  17  20
ENDBRANCH   1  12
BRANCH   2  22
ATOM     22  O   UNL     1    -122.704  41.632   6.756  1.00  0.00    -0.502 OA
ATOM     23  H   UNL     1    -123.644  41.993   6.867  1.00  0.00     0.293 HD
ENDBRANCH   2  22
BRANCH   6  24
ATOM     24  O   UNL     1    -118.320  42.125   3.771  1.00  0.00    -0.507 OA
ATOM     25  H   UNL     1    -118.298  42.422   4.734  1.00  0.00     0.293 HD
ENDBRANCH   6  24
BRANCH   8  26
ATOM     26  O   UNL     1    -119.414  39.222   0.129  1.00  0.00    -0.508 OA
ATOM     27  H   UNL     1    -119.112  39.789  -0.654  1.00  0.00     0.293 HD
ENDBRANCH   8  26
TORSDOF 6
ENDMDL
MODEL 3
REMARK VINA RESULT:    -3.380      1.553      2.867
REMARK INTER + INTRA:          -4.398
REMARK INTER:                  -4.076
REMARK INTRA:                  -0.322
REMARK UNBOUND:                -0.327
REMARK SMILES O=c1c(O)c(-c2ccc(O)c(O)c2)oc2cc(O)cc(O)c12
REMARK SMILES IDX 5 1 3 2 2 3 1 4 22 5 20 6 19 7 17 8 16 9 15 10 14 11 6 12
REMARK SMILES IDX 7 13 8 14 9 15 13 16 11 17 10 18 12 20 4 22 21 24 18 26
REMARK H PARENT 10 19 12 21 4 23 21 25 18 27
REMARK Flexibility Score: inf
ROOT
ATOM      1  C   UNL     1    -127.267  40.108  15.599  1.00  0.00     0.180 A 
ATOM      2  C   UNL     1    -128.136  40.862  14.793  1.00  0.00     0.208 A 
ATOM      3  C   UNL     1    -129.459  41.061  15.219  1.00  0.00     0.238 A 
ATOM      4  O   UNL     1    -130.252  41.674  14.457  1.00  0.00    -0.285 OA
ATOM      5  C   UNL     1    -129.880  40.553  16.472  1.00  0.00     0.111 A 
ATOM      6  C   UNL     1    -131.184  40.734  17.025  1.00  0.00     0.134 A 
ATOM      7  C   UNL     1    -131.521  40.095  18.225  1.00  0.00     0.093 A 
ATOM      8  C   UNL     1    -130.583  39.335  18.924  1.00  0.00     0.123 A 
ATOM      9  C   UNL     1    -129.290  39.197  18.420  1.00  0.00     0.094 A 
ATOM     10  C   UNL     1    -128.935  39.791  17.207  1.00  0.00     0.146 A 
ATOM     11  O   UNL     1    -127.699  39.616  16.753  1.00  0.00    -0.452 OA
ENDROOT
BRANCH   1  12
ATOM     12  C   UNL     1    -125.863  39.842  15.210  1.00  0.00     0.025 A 
ATOM     13  C   UNL     1    -125.568  38.732  14.404  1.00  0.00     0.016 A 
ATOM     14  C   UNL     1    -124.254  38.475  14.006  1.00  0.00     0.051 A 
ATOM     15  C   UNL     1    -123.217  39.329  14.395  1.00  0.00     0.157 A 
ATOM     16  C   UNL     1    -124.822  40.713  15.582  1.00  0.00     0.062 A 
ATOM     17  C   UNL     1    -123.502  40.457  15.182  1.00  0.00     0.158 A 
BRANCH  15  18
ATOM     18  O   UNL     1    -121.915  39.045  13.985  1.00  0.00    -0.504 OA
ATOM     19  H   UNL     1    -121.145  39.679  14.163  1.00  0.00     0.293 HD
ENDBRANCH  15  18
BRANCH  17  20
ATOM     20  O   UNL     1    -122.476  41.322  15.560  1.00  0.00    -0.504 OA
ATOM     21  H   UNL     1    -122.574  42.327  15.485  1.00  0.00     0.293 HD
ENDBRANCH  17  20
ENDBRANCH   1  12
BRANCH   2  22
ATOM     22  O   UNL     1    -127.679  41.421  13.596  1.00  0.00    -0.502 OA
ATOM     23  H   UNL     1    -127.808  40.967  12.699  1.00  0.00     0.293 HD
ENDBRANCH   2  22
BRANCH   6  24
ATOM     24  O   UNL     1    -132.172  41.544  16.455  1.00  0.00    -0.507 OA
ATOM     25  H   UNL     1    -133.046  41.787  16.896  1.00  0.00     0.293 HD
ENDBRANCH   6  24
BRANCH   8  26
ATOM     26  O   UNL     1    -130.948  38.728  20.124  1.00  0.00    -0.508 OA
ATOM     27  H   UNL     1    -130.486  38.959  20.996  1.00  0.00     0.293 HD
ENDBRANCH   8  26
TORSDOF 6
ENDMDL
MODEL 4
REMARK VINA RESULT:    -3.330      9.536     14.373
REMARK INTER + INTRA:          -4.338
REMARK INTER:                  -4.074
REMARK INTRA:                  -0.264
REMARK UNBOUND:                -0.327
REMARK SMILES O=c1c(O)c(-c2ccc(O)c(O)c2)oc2cc(O)cc(O)c12
REMARK SMILES IDX 5 1 3 2 2 3 1 4 22 5 20 6 19 7 17 8 16 9 15 10 14 11 6 12
REMARK SMILES IDX 7 13 8 14 9 15 13 16 11 17 10 18 12 20 4 22 21 24 18 26
REMARK H PARENT 10 19 12 21 4 23 21 25 18 27
REMARK Flexibility Score: inf
ROOT
ATOM      1  C   UNL     1    -123.718  39.872   4.393  1.00  0.00     0.180 A 
ATOM      2  C   UNL     1    -123.721  38.645   3.707  1.00  0.00     0.208 A 
ATOM      3  C   UNL     1    -122.635  38.326   2.878  1.00  0.00     0.238 A 
ATOM      4  O   UNL     1    -122.679  37.260   2.210  1.00  0.00    -0.285 OA
ATOM      5  C   UNL     1    -121.533  39.211   2.788  1.00  0.00     0.111 A 
ATOM      6  C   UNL     1    -120.357  38.968   2.013  1.00  0.00     0.134 A 
ATOM      7  C   UNL     1    -119.377  39.963   1.916  1.00  0.00     0.093 A 
ATOM      8  C   UNL     1    -119.498  41.164   2.613  1.00  0.00     0.123 A 
ATOM      9  C   UNL     1    -120.616  41.389   3.416  1.00  0.00     0.094 A 
ATOM     10  C   UNL     1    -121.629  40.432   3.504  1.00  0.00     0.146 A 
ATOM     11  O   UNL     1    -122.686  40.696   4.263  1.00  0.00    -0.452 OA
ENDROOT
BRANCH   1  12
ATOM     12  C   UNL     1    -124.834  40.285   5.274  1.00  0.00     0.025 A 
ATOM     13  C   UNL     1    -124.639  40.323   6.663  1.00  0.00     0.016 A 
ATOM     14  C   UNL     1    -125.670  40.731   7.513  1.00  0.00     0.051 A 
ATOM     15  C   UNL     1    -126.906  41.121   6.987  1.00  0.00     0.157 A 
ATOM     16  C   UNL     1    -126.071  40.699   4.746  1.00  0.00     0.062 A 
ATOM     17  C   UNL     1    -127.107  41.110   5.597  1.00  0.00     0.158 A 
BRANCH  15  18
ATOM     18  O   UNL     1    -127.918  41.520   7.859  1.00  0.00    -0.504 OA
ATOM     19  H   UNL     1    -128.099  41.036   8.730  1.00  0.00     0.293 HD
ENDBRANCH  15  18
BRANCH  17  20
ATOM     20  O   UNL     1    -128.332  41.513   5.065  1.00  0.00    -0.504 OA
ATOM     21  H   UNL     1    -128.853  42.286   5.461  1.00  0.00     0.293 HD
ENDBRANCH  17  20
ENDBRANCH   1  12
BRANCH   2  22
ATOM     22  O   UNL     1    -124.784  37.751   3.870  1.00  0.00    -0.502 OA
ATOM     23  H   UNL     1    -125.028  37.355   4.770  1.00  0.00     0.293 HD
ENDBRANCH   2  22
BRANCH   6  24
ATOM     24  O   UNL     1    -120.092  37.768   1.346  1.00  0.00    -0.507 OA
ATOM     25  H   UNL     1    -119.528  37.016   1.712  1.00  0.00     0.293 HD
ENDBRANCH   6  24
BRANCH   8  26
ATOM     26  O   UNL     1    -118.494  42.125   2.506  1.00  0.00    -0.508 OA
ATOM     27  H   UNL     1    -117.600  41.911   2.079  1.00  0.00     0.293 HD
ENDBRANCH   8  26
TORSDOF 6
ENDMDL
MODEL 5
REMARK VINA RESULT:    -3.304      9.658     12.112
REMARK INTER + INTRA:          -4.307
REMARK INTER:                  -3.984
REMARK INTRA:                  -0.323
REMARK UNBOUND:                -0.327
REMARK SMILES O=c1c(O)c(-c2ccc(O)c(O)c2)oc2cc(O)cc(O)c12
REMARK SMILES IDX 5 1 3 2 2 3 1 4 22 5 20 6 19 7 17 8 16 9 15 10 14 11 6 12
REMARK SMILES IDX 7 13 8 14 9 15 13 16 11 17 10 18 12 20 4 22 21 24 18 26
REMARK H PARENT 10 19 12 21 4 23 21 25 18 27
REMARK Flexibility Score: inf
ROOT
ATOM      1  C   UNL     1    -123.058  40.482   4.886  1.00  0.00     0.180 A 
ATOM      2  C   UNL     1    -122.983  41.147   6.122  1.00  0.00     0.208 A 
ATOM      3  C   UNL     1    -124.172  41.463   6.798  1.00  0.00     0.238 A 
ATOM      4  O   UNL     1    -124.101  42.124   7.867  1.00  0.00    -0.285 OA
ATOM      5  C   UNL     1    -125.418  41.061   6.259  1.00  0.00     0.111 A 
ATOM      6  C   UNL     1    -126.684  41.287   6.880  1.00  0.00     0.134 A 
ATOM      7  C   UNL     1    -127.859  40.938   6.203  1.00  0.00     0.093 A 
ATOM      8  C   UNL     1    -127.814  40.314   4.957  1.00  0.00     0.123 A 
ATOM      9  C   UNL     1    -126.581  40.038   4.365  1.00  0.00     0.094 A 
ATOM     10  C   UNL     1    -125.392  40.408   4.999  1.00  0.00     0.146 A 
ATOM     11  O   UNL     1    -124.242  40.146   4.390  1.00  0.00    -0.452 OA
ENDROOT
BRANCH   1  12
ATOM     12  C   UNL     1    -121.849  40.128   4.108  1.00  0.00     0.025 A 
ATOM     13  C   UNL     1    -121.307  41.063   3.212  1.00  0.00     0.016 A 
ATOM     14  C   UNL     1    -120.154  40.759   2.483  1.00  0.00     0.051 A 
ATOM     15  C   UNL     1    -119.517  39.525   2.650  1.00  0.00     0.157 A 
ATOM     16  C   UNL     1    -121.194  38.896   4.290  1.00  0.00     0.062 A 
ATOM     17  C   UNL     1    -120.036  38.590   3.560  1.00  0.00     0.158 A 
BRANCH  15  18
ATOM     18  O   UNL     1    -118.370  39.249   1.906  1.00  0.00    -0.504 OA
ATOM     19  H   UNL     1    -118.379  39.221   0.894  1.00  0.00     0.293 HD
ENDBRANCH  15  18
BRANCH  17  20
ATOM     20  O   UNL     1    -119.397  37.365   3.743  1.00  0.00    -0.504 OA
ATOM     21  H   UNL     1    -118.591  37.099   3.189  1.00  0.00     0.293 HD
ENDBRANCH  17  20
ENDBRANCH   1  12
BRANCH   2  22
ATOM     22  O   UNL     1    -121.740  41.468   6.675  1.00  0.00    -0.502 OA
ATOM     23  H   UNL     1    -121.405  42.422   6.744  1.00  0.00     0.293 HD
ENDBRANCH   2  22
BRANCH   6  24
ATOM     24  O   UNL     1    -126.843  41.824   8.162  1.00  0.00    -0.507 OA
ATOM     25  H   UNL     1    -126.093  42.177   8.737  1.00  0.00     0.293 HD
ENDBRANCH   6  24
BRANCH   8  26
ATOM     26  O   UNL     1    -129.003  39.965   4.319  1.00  0.00    -0.508 OA
ATOM     27  H   UNL     1    -129.289  40.408   3.454  1.00  0.00     0.293 HD
ENDBRANCH   8  26
TORSDOF 6
ENDMDL
MODEL 6
REMARK VINA RESULT:    -3.282      2.369      6.457
REMARK INTER + INTRA:          -4.280
REMARK INTER:                  -3.949
REMARK INTRA:                  -0.331
REMARK UNBOUND:                -0.327
REMARK SMILES O=c1c(O)c(-c2ccc(O)c(O)c2)oc2cc(O)cc(O)c12
REMARK SMILES IDX 5 1 3 2 2 3 1 4 22 5 20 6 19 7 17 8 16 9 15 10 14 11 6 12
REMARK SMILES IDX 7 13 8 14 9 15 13 16 11 17 10 18 12 20 4 22 21 24 18 26
REMARK H PARENT 10 19 12 21 4 23 21 25 18 27
REMARK Flexibility Score: inf
ROOT
ATOM      1  C   UNL     1    -127.066  39.548  16.237  1.00  0.00     0.180 A 
ATOM      2  C   UNL     1    -125.967  40.250  15.711  1.00  0.00     0.208 A 
ATOM      3  C   UNL     1    -124.669  39.799  16.000  1.00  0.00     0.238 A 
ATOM      4  O   UNL     1    -123.690  40.474  15.588  1.00  0.00    -0.285 OA
ATOM      5  C   UNL     1    -124.486  38.620  16.763  1.00  0.00     0.111 A 
ATOM      6  C   UNL     1    -123.218  38.045  17.079  1.00  0.00     0.134 A 
ATOM      7  C   UNL     1    -123.155  36.936  17.931  1.00  0.00     0.093 A 
ATOM      8  C   UNL     1    -124.314  36.342  18.427  1.00  0.00     0.123 A 
ATOM      9  C   UNL     1    -125.561  36.862  18.081  1.00  0.00     0.094 A 
ATOM     10  C   UNL     1    -125.656  37.991  17.263  1.00  0.00     0.146 A 
ATOM     11  O   UNL     1    -126.862  38.465  16.976  1.00  0.00    -0.452 OA
ENDROOT
BRANCH   1  12
ATOM     12  C   UNL     1    -128.462  39.971  15.988  1.00  0.00     0.025 A 
ATOM     13  C   UNL     1    -129.166  39.425  14.903  1.00  0.00     0.016 A 
ATOM     14  C   UNL     1    -130.492  39.792  14.662  1.00  0.00     0.051 A 
ATOM     15  C   UNL     1    -131.140  40.698  15.508  1.00  0.00     0.157 A 
ATOM     16  C   UNL     1    -129.123  40.865  16.851  1.00  0.00     0.062 A 
ATOM     17  C   UNL     1    -130.454  41.234  16.611  1.00  0.00     0.158 A 
BRANCH  15  18
ATOM     18  O   UNL     1    -132.463  41.047  15.241  1.00  0.00    -0.504 OA
ATOM     19  H   UNL     1    -132.885  41.887  15.620  1.00  0.00     0.293 HD
ENDBRANCH  15  18
BRANCH  17  20
ATOM     20  O   UNL     1    -131.100  42.125  17.467  1.00  0.00    -0.504 OA
ATOM     21  H   UNL     1    -131.675  42.880  17.113  1.00  0.00     0.293 HD
ENDBRANCH  17  20
ENDBRANCH   1  12
BRANCH   2  22
ATOM     22  O   UNL     1    -126.170  41.367  14.896  1.00  0.00    -0.502 OA
ATOM     23  H   UNL     1    -125.842  42.292  15.148  1.00  0.00     0.293 HD
ENDBRANCH   2  22
BRANCH   6  24
ATOM     24  O   UNL     1    -122.000  38.505  16.566  1.00  0.00    -0.507 OA
ATOM     25  H   UNL     1    -121.113  38.037  16.676  1.00  0.00     0.293 HD
ENDBRANCH   6  24
BRANCH   8  26
ATOM     26  O   UNL     1    -124.214  35.228  19.259  1.00  0.00    -0.508 OA
ATOM     27  H   UNL     1    -124.951  34.986  19.910  1.00  0.00     0.293 HD
ENDBRANCH   8  26
TORSDOF 6
ENDMDL
MODEL 7
REMARK VINA RESULT:    -3.281      1.898      6.395
REMARK INTER + INTRA:          -4.279
REMARK INTER:                  -3.951
REMARK INTRA:                  -0.328
REMARK UNBOUND:                -0.327
REMARK SMILES O=c1c(O)c(-c2ccc(O)c(O)c2)oc2cc(O)cc(O)c12
REMARK SMILES IDX 5 1 3 2 2 3 1 4 22 5 20 6 19 7 17 8 16 9 15 10 14 11 6 12
REMARK SMILES IDX 7 13 8 14 9 15 13 16 11 17 10 18 12 20 4 22 21 24 18 26
REMARK H PARENT 10 19 12 21 4 23 21 25 18 27
REMARK Flexibility Score: inf
ROOT
ATOM      1  C   UNL     1    -127.585  39.570  16.377  1.00  0.00     0.180 A 
ATOM      2  C   UNL     1    -127.364  38.374  17.081  1.00  0.00     0.208 A 
ATOM      3  C   UNL     1    -126.048  37.915  17.246  1.00  0.00     0.238 A 
ATOM      4  O   UNL     1    -125.864  36.805  17.812  1.00  0.00    -0.285 OA
ATOM      5  C   UNL     1    -124.966  38.684  16.755  1.00  0.00     0.111 A 
ATOM      6  C   UNL     1    -123.588  38.338  16.905  1.00  0.00     0.134 A 
ATOM      7  C   UNL     1    -122.607  39.121  16.285  1.00  0.00     0.093 A 
ATOM      8  C   UNL     1    -122.947  40.272  15.575  1.00  0.00     0.123 A 
ATOM      9  C   UNL     1    -124.285  40.650  15.469  1.00  0.00     0.094 A 
ATOM     10  C   UNL     1    -125.290  39.869  16.044  1.00  0.00     0.146 A 
ATOM     11  O   UNL     1    -126.553  40.254  15.900  1.00  0.00    -0.452 OA
ENDROOT
BRANCH   1  12
ATOM     12  C   UNL     1    -128.945  40.111  16.150  1.00  0.00     0.025 A 
ATOM     13  C   UNL     1    -129.503  40.992  17.090  1.00  0.00     0.016 A 
ATOM     14  C   UNL     1    -130.775  41.532  16.886  1.00  0.00     0.051 A 
ATOM     15  C   UNL     1    -131.502  41.214  15.734  1.00  0.00     0.157 A 
ATOM     16  C   UNL     1    -129.669  39.810  14.981  1.00  0.00     0.062 A 
ATOM     17  C   UNL     1    -130.945  40.352  14.775  1.00  0.00     0.158 A 
BRANCH  15  18
ATOM     18  O   UNL     1    -132.770  41.766  15.559  1.00  0.00    -0.504 OA
ATOM     19  H   UNL     1    -133.522  41.255  15.111  1.00  0.00     0.293 HD
ENDBRANCH  15  18
BRANCH  17  20
ATOM     20  O   UNL     1    -131.658  40.043  13.617  1.00  0.00    -0.504 OA
ATOM     21  H   UNL     1    -131.645  40.652  12.807  1.00  0.00     0.293 HD
ENDBRANCH  17  20
ENDBRANCH   1  12
BRANCH   2  22
ATOM     22  O   UNL     1    -128.442  37.669  17.625  1.00  0.00    -0.502 OA
ATOM     23  H   UNL     1    -128.549  37.523  18.622  1.00  0.00     0.293 HD
ENDBRANCH   2  22
BRANCH   6  24
ATOM     24  O   UNL     1    -123.131  37.258  17.668  1.00  0.00    -0.507 OA
ATOM     25  H   UNL     1    -123.602  36.879  18.475  1.00  0.00     0.293 HD
ENDBRANCH   6  24
BRANCH   8  26
ATOM     26  O   UNL     1    -121.942  41.038  14.986  1.00  0.00    -0.508 OA
ATOM     27  H   UNL     1    -122.153  41.896  14.490  1.00  0.00     0.293 HD
ENDBRANCH   8  26
TORSDOF 6
ENDMDL
MODEL 8
REMARK VINA RESULT:    -3.272      2.843      4.314
REMARK INTER + INTRA:          -4.269
REMARK INTER:                  -3.975
REMARK INTRA:                  -0.294
REMARK UNBOUND:                -0.327
REMARK SMILES O=c1c(O)c(-c2ccc(O)c(O)c2)oc2cc(O)cc(O)c12
REMARK SMILES IDX 5 1 3 2 2 3 1 4 22 5 20 6 19 7 17 8 16 9 15 10 14 11 6 12
REMARK SMILES IDX 7 13 8 14 9 15 13 16 11 17 10 18 12 20 4 22 21 24 18 26
REMARK H PARENT 10 19 12 21 4 23 21 25 18 27
REMARK Flexibility Score: inf
ROOT
ATOM      1  C   UNL     1    -128.300  40.229  15.557  1.00  0.00     0.180 A 
ATOM      2  C   UNL     1    -129.198  40.824  16.460  1.00  0.00     0.208 A 
ATOM      3  C   UNL     1    -130.471  41.200  16.005  1.00  0.00     0.238 A 
ATOM      4  O   UNL     1    -131.242  41.800  16.799  1.00  0.00    -0.285 OA
ATOM      5  C   UNL     1    -130.852  40.926  14.669  1.00  0.00     0.111 A 
ATOM      6  C   UNL     1    -132.134  41.223  14.112  1.00  0.00     0.134 A 
ATOM      7  C   UNL     1    -132.362  41.003  12.748  1.00  0.00     0.093 A 
ATOM      8  C   UNL     1    -131.380  40.440  11.935  1.00  0.00     0.123 A 
ATOM      9  C   UNL     1    -130.143  40.096  12.480  1.00  0.00     0.094 A 
ATOM     10  C   UNL     1    -129.872  40.337  13.829  1.00  0.00     0.146 A 
ATOM     11  O   UNL     1    -128.674  40.014  14.302  1.00  0.00    -0.452 OA
ENDROOT
BRANCH   1  12
ATOM     12  C   UNL     1    -126.935  39.818  15.958  1.00  0.00     0.025 A 
ATOM     13  C   UNL     1    -126.751  38.598  16.628  1.00  0.00     0.016 A 
ATOM     14  C   UNL     1    -125.470  38.179  16.997  1.00  0.00     0.051 A 
ATOM     15  C   UNL     1    -124.354  38.964  16.689  1.00  0.00     0.157 A 
ATOM     16  C   UNL     1    -125.809  40.595  15.631  1.00  0.00     0.062 A 
ATOM     17  C   UNL     1    -124.523  40.176  15.999  1.00  0.00     0.158 A 
BRANCH  15  18
ATOM     18  O   UNL     1    -123.088  38.522  17.073  1.00  0.00    -0.504 OA
ATOM     19  H   UNL     1    -122.349  39.165  17.331  1.00  0.00     0.293 HD
ENDBRANCH  15  18
BRANCH  17  20
ATOM     20  O   UNL     1    -123.413  40.955  15.676  1.00  0.00    -0.504 OA
ATOM     21  H   UNL     1    -122.967  41.555  16.360  1.00  0.00     0.293 HD
ENDBRANCH  17  20
ENDBRANCH   1  12
BRANCH   2  22
ATOM     22  O   UNL     1    -128.830  41.015  17.794  1.00  0.00    -0.502 OA
ATOM     23  H   UNL     1    -128.184  40.399  18.274  1.00  0.00     0.293 HD
ENDBRANCH   2  22
BRANCH   6  24
ATOM     24  O   UNL     1    -133.217  41.706  14.853  1.00  0.00    -0.507 OA
ATOM     25  H   UNL     1    -134.165  41.370  14.778  1.00  0.00     0.293 HD
ENDBRANCH   6  24
BRANCH   8  26
ATOM     26  O   UNL     1    -131.648  40.220  10.585  1.00  0.00    -0.508 OA
ATOM     27  H   UNL     1    -131.365  40.884   9.874  1.00  0.00     0.293 HD
ENDBRANCH   8  26
TORSDOF 6
ENDMDL
MODEL 9
REMARK VINA RESULT:    -3.243     11.146     12.556
REMARK INTER + INTRA:          -4.233
REMARK INTER:                  -3.900
REMARK INTRA:                  -0.333
REMARK UNBOUND:                -0.327
REMARK SMILES O=c1c(O)c(-c2ccc(O)c(O)c2)oc2cc(O)cc(O)c12
REMARK SMILES IDX 5 1 3 2 2 3 1 4 22 5 20 6 19 7 17 8 16 9 15 10 14 11 6 12
REMARK SMILES IDX 7 13 8 14 9 15 13 16 11 17 10 18 12 20 4 22 21 24 18 26
REMARK H PARENT 10 19 12 21 4 23 21 25 18 27
REMARK Flexibility Score: inf
ROOT
ATOM      1  C   UNL     1    -123.014  39.888   4.184  1.00  0.00     0.180 A 
ATOM      2  C   UNL     1    -123.320  38.634   3.629  1.00  0.00     0.208 A 
ATOM      3  C   UNL     1    -124.650  38.186   3.653  1.00  0.00     0.238 A 
ATOM      4  O   UNL     1    -124.905  37.030   3.222  1.00  0.00    -0.285 OA
ATOM      5  C   UNL     1    -125.666  39.020   4.180  1.00  0.00     0.111 A 
ATOM      6  C   UNL     1    -127.055  38.687   4.214  1.00  0.00     0.134 A 
ATOM      7  C   UNL     1    -127.956  39.546   4.856  1.00  0.00     0.093 A 
ATOM      8  C   UNL     1    -127.531  40.753   5.408  1.00  0.00     0.123 A 
ATOM      9  C   UNL     1    -126.185  41.114   5.332  1.00  0.00     0.094 A 
ATOM     10  C   UNL     1    -125.256  40.261   4.731  1.00  0.00     0.146 A 
ATOM     11  O   UNL     1    -123.982  40.634   4.700  1.00  0.00    -0.452 OA
ENDROOT
BRANCH   1  12
ATOM     12  C   UNL     1    -121.633  40.422   4.209  1.00  0.00     0.025 A 
ATOM     13  C   UNL     1    -121.209  41.286   3.186  1.00  0.00     0.016 A 
ATOM     14  C   UNL     1    -119.918  41.820   3.200  1.00  0.00     0.051 A 
ATOM     15  C   UNL     1    -119.037  41.512   4.243  1.00  0.00     0.157 A 
ATOM     16  C   UNL     1    -120.753  40.132   5.267  1.00  0.00     0.062 A 
ATOM     17  C   UNL     1    -119.457  40.668   5.284  1.00  0.00     0.158 A 
BRANCH  15  18
ATOM     18  O   UNL     1    -117.754  42.057   4.228  1.00  0.00    -0.504 OA
ATOM     19  H   UNL     1    -117.457  42.716   3.518  1.00  0.00     0.293 HD
ENDBRANCH  15  18
BRANCH  17  20
ATOM     20  O   UNL     1    -118.589  40.370   6.334  1.00  0.00    -0.504 OA
ATOM     21  H   UNL     1    -118.874  40.466   7.301  1.00  0.00     0.293 HD
ENDBRANCH  17  20
ENDBRANCH   1  12
BRANCH   2  22
ATOM     22  O   UNL     1    -122.315  37.858   3.045  1.00  0.00    -0.502 OA
ATOM     23  H   UNL     1    -122.494  37.228   2.272  1.00  0.00     0.293 HD
ENDBRANCH   2  22
BRANCH   6  24
ATOM     24  O   UNL     1    -127.602  37.547   3.616  1.00  0.00    -0.507 OA
ATOM     25  H   UNL     1    -128.522  37.180   3.806  1.00  0.00     0.293 HD
ENDBRANCH   6  24
BRANCH   8  26
ATOM     26  O   UNL     1    -128.458  41.592   6.024  1.00  0.00    -0.508 OA
ATOM     27  H   UNL     1    -129.218  41.221   6.582  1.00  0.00     0.293 HD
ENDBRANCH   8  26
TORSDOF 6
ENDMDL
