MODEL 1
REMARK VINA RESULT:    -2.122      0.000      0.000
REMARK INTER + INTRA:          -5.884
REMARK INTER:                  -3.610
REMARK INTRA:                  -2.274
REMARK UNBOUND:                -2.274
REMARK SMILES CCCCCCCCCCCCCC(=O)[O-]
REMARK SMILES IDX 8 1 9 2 10 3 11 4 12 5 13 6 14 7 15 8 16 9 7 10 6 11 5 12
REMARK SMILES IDX 4 13 3 14 2 15 1 16
REMARK H PARENT
REMARK Flexibility Score: inf
ROOT
ATOM      1  C   UNL     1      11.039  26.037  26.211  1.00  0.00     0.000 C 
ENDROOT
BRANCH   1   2
ATOM      2  C   UNL     1      11.928  24.866  25.761  1.00  0.00     0.000 C 
BRANCH   2   3
ATOM      3  C   UNL     1      11.677  23.577  26.564  1.00  0.00     0.000 C 
BRANCH   3   4
ATOM      4  C   UNL     1      12.911  22.998  27.282  1.00  0.00     0.000 C 
BRANCH   4   5
ATOM      5  C   UNL     1      12.549  22.153  28.511  1.00  0.00     0.006 C 
BRANCH   5   6
ATOM      6  C   UNL     1      11.046  22.226  28.802  1.00  0.00     0.053 C 
BRANCH   6   7
ATOM      7  C   UNL     1      10.465  20.851  28.900  1.00  0.00     0.041 C 
ATOM      8  O   UNL     1      10.414  20.111  27.882  1.00  0.00    -0.550 OA
ATOM      9  O   UNL     1      10.023  20.368  30.125  1.00  0.00    -0.550 OA
ENDBRANCH   6   7
ENDBRANCH   5   6
ENDBRANCH   4   5
ENDBRANCH   3   4
ENDBRANCH   2   3
ENDBRANCH   1   2
BRANCH   1  10
ATOM     10  C   UNL     1       9.950  25.613  27.214  1.00  0.00     0.000 C 
BRANCH  10  11
ATOM     11  C   UNL     1       9.987  26.344  28.569  1.00  0.00    -0.000 C 
BRANCH  11  12
ATOM     12  C   UNL     1      11.407  26.763  28.989  1.00  0.00    -0.000 C 
BRANCH  12  13
ATOM     13  C   UNL     1      12.142  25.646  29.759  1.00  0.00    -0.000 C 
BRANCH  13  14
ATOM     14  C   UNL     1      13.677  25.734  29.658  1.00  0.00    -0.000 C 
BRANCH  14  15
ATOM     15  C   UNL     1      14.194  26.814  28.693  1.00  0.00    -0.003 C 
ATOM     16  C   UNL     1      14.867  26.227  27.453  1.00  0.00     0.004 C 
ENDBRANCH  14  15
ENDBRANCH  13  14
ENDBRANCH  12  13
ENDBRANCH  11  12
ENDBRANCH  10  11
ENDBRANCH   1  10
TORSDOF 12
ENDMDL
MODEL 2
REMARK VINA RESULT:    -1.976     24.031     25.817
REMARK INTER + INTRA:          -5.636
REMARK INTER:                  -3.553
REMARK INTRA:                  -2.083
REMARK UNBOUND:                -2.274
REMARK SMILES CCCCCCCCCCCCCC(=O)[O-]
REMARK SMILES IDX 8 1 9 2 10 3 11 4 12 5 13 6 14 7 15 8 16 9 7 10 6 11 5 12
REMARK SMILES IDX 4 13 3 14 2 15 1 16
REMARK H PARENT
REMARK Flexibility Score: inf
ROOT
ATOM      1  C   UNL     1      26.681  11.029  13.839  1.00  0.00     0.000 C 
ENDROOT
BRANCH   1   2
ATOM      2  C   UNL     1      25.204  10.611  13.914  1.00  0.00     0.000 C 
BRANCH   2   3
ATOM      3  C   UNL     1      24.995   9.100  13.701  1.00  0.00     0.000 C 
BRANCH   3   4
ATOM      4  C   UNL     1      24.219   8.716  12.427  1.00  0.00     0.000 C 
BRANCH   4   5
ATOM      5  C   UNL     1      23.597   9.926  11.716  1.00  0.00     0.006 C 
BRANCH   5   6
ATOM      6  C   UNL     1      23.217   9.578  10.274  1.00  0.00     0.053 C 
BRANCH   6   7
ATOM      7  C   UNL     1      21.834   9.008  10.219  1.00  0.00     0.041 C 
ATOM      8  O   UNL     1      21.662   7.789   9.953  1.00  0.00    -0.550 OA
ATOM      9  O   UNL     1      20.739   9.811  10.510  1.00  0.00    -0.550 OA
ENDBRANCH   6   7
ENDBRANCH   5   6
ENDBRANCH   4   5
ENDBRANCH   3   4
ENDBRANCH   2   3
ENDBRANCH   1   2
BRANCH   1  10
ATOM     10  C   UNL     1      27.618   9.864  13.471  1.00  0.00     0.000 C 
BRANCH  10  11
ATOM     11  C   UNL     1      28.326   9.998  12.111  1.00  0.00    -0.000 C 
BRANCH  11  12
ATOM     12  C   UNL     1      27.494   9.446  10.941  1.00  0.00    -0.000 C 
BRANCH  12  13
ATOM     13  C   UNL     1      27.000  10.564   9.997  1.00  0.00    -0.000 C 
BRANCH  13  14
ATOM     14  C   UNL     1      27.838  11.855  10.078  1.00  0.00    -0.000 C 
BRANCH  14  15
ATOM     15  C   UNL     1      27.032  13.120  10.415  1.00  0.00    -0.003 C 
ATOM     16  C   UNL     1      25.576  12.819  10.767  1.00  0.00     0.004 C 
ENDBRANCH  14  15
ENDBRANCH  13  14
ENDBRANCH  12  13
ENDBRANCH  11  12
ENDBRANCH  10  11
ENDBRANCH   1  10
TORSDOF 12
ENDMDL
MODEL 3
REMARK VINA RESULT:    -1.866      2.684      5.075
REMARK INTER + INTRA:          -5.450
REMARK INTER:                  -3.806
REMARK INTRA:                  -1.643
REMARK UNBOUND:                -2.274
REMARK SMILES CCCCCCCCCCCCCC(=O)[O-]
REMARK SMILES IDX 8 1 9 2 10 3 11 4 12 5 13 6 14 7 15 8 16 9 7 10 6 11 5 12
REMARK SMILES IDX 4 13 3 14 2 15 1 16
REMARK H PARENT
REMARK Flexibility Score: inf
ROOT
ATOM      1  C   UNL     1      12.519  26.012  25.708  1.00  0.00     0.000 C 
ENDROOT
BRANCH   1   2
ATOM      2  C   UNL     1      11.219  26.726  26.116  1.00  0.00     0.000 C 
BRANCH   2   3
ATOM      3  C   UNL     1      10.231  25.801  26.851  1.00  0.00     0.000 C 
BRANCH   3   4
ATOM      4  C   UNL     1      10.024  26.114  28.345  1.00  0.00     0.000 C 
BRANCH   4   5
ATOM      5  C   UNL     1      11.252  26.765  28.997  1.00  0.00     0.006 C 
BRANCH   5   6
ATOM      6  C   UNL     1      12.157  25.708  29.638  1.00  0.00     0.053 C 
BRANCH   6   7
ATOM      7  C   UNL     1      13.595  26.007  29.351  1.00  0.00     0.041 C 
ATOM      8  O   UNL     1      13.914  27.062  28.743  1.00  0.00    -0.550 OA
ATOM      9  O   UNL     1      14.587  25.143  29.798  1.00  0.00    -0.550 OA
ENDBRANCH   6   7
ENDBRANCH   5   6
ENDBRANCH   4   5
ENDBRANCH   3   4
ENDBRANCH   2   3
ENDBRANCH   1   2
BRANCH   1  10
ATOM     10  C   UNL     1      12.310  24.521  25.387  1.00  0.00     0.000 C 
BRANCH  10  11
ATOM     11  C   UNL     1      12.861  23.541  26.440  1.00  0.00    -0.000 C 
BRANCH  11  12
ATOM     12  C   UNL     1      11.858  22.438  26.819  1.00  0.00    -0.000 C 
BRANCH  12  13
ATOM     13  C   UNL     1      11.822  22.180  28.341  1.00  0.00    -0.000 C 
BRANCH  13  14
ATOM     14  C   UNL     1      10.489  22.578  29.003  1.00  0.00    -0.000 C 
BRANCH  14  15
ATOM     15  C   UNL     1      10.024  21.633  30.123  1.00  0.00    -0.003 C 
ATOM     16  C   UNL     1      10.058  20.162  29.710  1.00  0.00     0.004 C 
ENDBRANCH  14  15
ENDBRANCH  13  14
ENDBRANCH  12  13
ENDBRANCH  11  12
ENDBRANCH  10  11
ENDBRANCH   1  10
TORSDOF 12
ENDMDL
MODEL 4
REMARK VINA RESULT:    -1.864      1.147      2.051
REMARK INTER + INTRA:          -5.446
REMARK INTER:                  -3.504
REMARK INTRA:                  -1.942
REMARK UNBOUND:                -2.274
REMARK SMILES CCCCCCCCCCCCCC(=O)[O-]
REMARK SMILES IDX 8 1 9 2 10 3 11 4 12 5 13 6 14 7 15 8 16 9 7 10 6 11 5 12
REMARK SMILES IDX 4 13 3 14 2 15 1 16
REMARK H PARENT
REMARK Flexibility Score: inf
ROOT
ATOM      1  C   UNL     1      11.923  24.563  25.916  1.00  0.00     0.000 C 
ENDROOT
BRANCH   1   2
ATOM      2  C   UNL     1      11.533  23.257  26.628  1.00  0.00     0.000 C 
BRANCH   2   3
ATOM      3  C   UNL     1      12.641  22.723  27.554  1.00  0.00     0.000 C 
BRANCH   3   4
ATOM      4  C   UNL     1      12.147  21.992  28.817  1.00  0.00     0.000 C 
BRANCH   4   5
ATOM      5  C   UNL     1      10.796  21.293  28.616  1.00  0.00     0.006 C 
BRANCH   5   6
ATOM      6  C   UNL     1      10.987  19.797  28.346  1.00  0.00     0.053 C 
BRANCH   6   7
ATOM      7  C   UNL     1      10.285  19.397  27.087  1.00  0.00     0.041 C 
ATOM      8  O   UNL     1       9.329  18.578  27.128  1.00  0.00    -0.550 OA
ATOM      9  O   UNL     1      10.653  19.966  25.875  1.00  0.00    -0.550 OA
ENDBRANCH   6   7
ENDBRANCH   5   6
ENDBRANCH   4   5
ENDBRANCH   3   4
ENDBRANCH   2   3
ENDBRANCH   1   2
BRANCH   1  10
ATOM     10  C   UNL     1      11.021  25.750  26.300  1.00  0.00     0.000 C 
BRANCH  10  11
ATOM     11  C   UNL     1       9.889  25.419  27.291  1.00  0.00    -0.000 C 
BRANCH  11  12
ATOM     12  C   UNL     1       9.981  26.221  28.601  1.00  0.00    -0.000 C 
BRANCH  12  13
ATOM     13  C   UNL     1      11.436  26.597  28.954  1.00  0.00    -0.000 C 
BRANCH  13  14
ATOM     14  C   UNL     1      12.130  25.578  29.880  1.00  0.00    -0.000 C 
BRANCH  14  15
ATOM     15  C   UNL     1      13.656  25.499  29.714  1.00  0.00    -0.003 C 
ATOM     16  C   UNL     1      14.153  26.212  28.457  1.00  0.00     0.004 C 
ENDBRANCH  14  15
ENDBRANCH  13  14
ENDBRANCH  12  13
ENDBRANCH  11  12
ENDBRANCH  10  11
ENDBRANCH   1  10
TORSDOF 12
ENDMDL
MODEL 5
REMARK VINA RESULT:    -1.819     24.494     25.865
REMARK INTER + INTRA:          -5.370
REMARK INTER:                  -3.625
REMARK INTRA:                  -1.746
REMARK UNBOUND:                -2.274
REMARK SMILES CCCCCCCCCCCCCC(=O)[O-]
REMARK SMILES IDX 8 1 9 2 10 3 11 4 12 5 13 6 14 7 15 8 16 9 7 10 6 11 5 12
REMARK SMILES IDX 4 13 3 14 2 15 1 16
REMARK H PARENT
REMARK Flexibility Score: inf
ROOT
ATOM      1  C   UNL     1      26.529  12.189   9.875  1.00  0.00     0.000 C 
ENDROOT
BRANCH   1   2
ATOM      2  C   UNL     1      25.750  12.830  11.035  1.00  0.00     0.000 C 
BRANCH   2   3
ATOM      3  C   UNL     1      24.498  12.027  11.435  1.00  0.00     0.000 C 
BRANCH   3   4
ATOM      4  C   UNL     1      23.656  11.494  10.262  1.00  0.00     0.000 C 
BRANCH   4   5
ATOM      5  C   UNL     1      23.617   9.960  10.199  1.00  0.00     0.006 C 
BRANCH   5   6
ATOM      6  C   UNL     1      22.713   9.389  11.296  1.00  0.00     0.053 C 
BRANCH   6   7
ATOM      7  C   UNL     1      21.667   8.499  10.703  1.00  0.00     0.041 C 
ATOM      8  O   UNL     1      21.645   7.272  10.986  1.00  0.00    -0.550 OA
ATOM      9  O   UNL     1      20.687   9.034   9.876  1.00  0.00    -0.550 OA
ENDBRANCH   6   7
ENDBRANCH   5   6
ENDBRANCH   4   5
ENDBRANCH   3   4
ENDBRANCH   2   3
ENDBRANCH   1   2
BRANCH   1  10
ATOM     10  C   UNL     1      27.694  11.303  10.352  1.00  0.00     0.000 C 
BRANCH  10  11
ATOM     11  C   UNL     1      27.504   9.792  10.123  1.00  0.00    -0.000 C 
BRANCH  11  12
ATOM     12  C   UNL     1      27.629   8.966  11.414  1.00  0.00    -0.000 C 
BRANCH  12  13
ATOM     13  C   UNL     1      26.693   9.480  12.529  1.00  0.00    -0.000 C 
BRANCH  13  14
ATOM     14  C   UNL     1      27.388   9.643  13.894  1.00  0.00    -0.000 C 
BRANCH  14  15
ATOM     15  C   UNL     1      28.625  10.557  13.877  1.00  0.00    -0.003 C 
ATOM     16  C   UNL     1      28.263  12.042  13.863  1.00  0.00     0.004 C 
ENDBRANCH  14  15
ENDBRANCH  13  14
ENDBRANCH  12  13
ENDBRANCH  11  12
ENDBRANCH  10  11
ENDBRANCH   1  10
TORSDOF 12
ENDMDL
MODEL 6
REMARK VINA RESULT:    -1.775     24.266     25.847
REMARK INTER + INTRA:          -5.295
REMARK INTER:                  -3.208
REMARK INTRA:                  -2.087
REMARK UNBOUND:                -2.274
REMARK SMILES CCCCCCCCCCCCCC(=O)[O-]
REMARK SMILES IDX 8 1 9 2 10 3 11 4 12 5 13 6 14 7 15 8 16 9 7 10 6 11 5 12
REMARK SMILES IDX 4 13 3 14 2 15 1 16
REMARK H PARENT
REMARK Flexibility Score: inf
ROOT
ATOM      1  C   UNL     1      27.922  11.131  10.030  1.00  0.00     0.000 C 
ENDROOT
BRANCH   1   2
ATOM      2  C   UNL     1      26.781  12.150   9.875  1.00  0.00     0.000 C 
BRANCH   2   3
ATOM      3  C   UNL     1      26.611  13.054  11.110  1.00  0.00     0.000 C 
BRANCH   3   4
ATOM      4  C   UNL     1      27.855  13.182  12.008  1.00  0.00     0.000 C 
BRANCH   4   5
ATOM      5  C   UNL     1      27.587  12.779  13.465  1.00  0.00     0.006 C 
BRANCH   5   6
ATOM      6  C   UNL     1      28.711  11.886  14.002  1.00  0.00     0.053 C 
BRANCH   6   7
ATOM      7  C   UNL     1      28.219  11.055  15.145  1.00  0.00     0.041 C 
ATOM      8  O   UNL     1      28.767   9.952  15.408  1.00  0.00    -0.550 OA
ATOM      9  O   UNL     1      27.188  11.521  15.950  1.00  0.00    -0.550 OA
ENDBRANCH   6   7
ENDBRANCH   5   6
ENDBRANCH   4   5
ENDBRANCH   3   4
ENDBRANCH   2   3
ENDBRANCH   1   2
BRANCH   1  10
ATOM     10  C   UNL     1      27.417   9.699  10.288  1.00  0.00     0.000 C 
BRANCH  10  11
ATOM     11  C   UNL     1      27.428   9.256  11.763  1.00  0.00    -0.000 C 
BRANCH  11  12
ATOM     12  C   UNL     1      26.035   8.865  12.285  1.00  0.00    -0.000 C 
BRANCH  12  13
ATOM     13  C   UNL     1      25.296  10.059  12.927  1.00  0.00    -0.000 C 
BRANCH  13  14
ATOM     14  C   UNL     1      23.894  10.306  12.338  1.00  0.00    -0.000 C 
BRANCH  14  15
ATOM     15  C   UNL     1      23.829  10.269  10.802  1.00  0.00    -0.003 C 
ATOM     16  C   UNL     1      22.824   9.245  10.276  1.00  0.00     0.004 C 
ENDBRANCH  14  15
ENDBRANCH  13  14
ENDBRANCH  12  13
ENDBRANCH  11  12
ENDBRANCH  10  11
ENDBRANCH   1  10
TORSDOF 12
ENDMDL
MODEL 7
REMARK VINA RESULT:    -1.733     24.033     25.665
REMARK INTER + INTRA:          -5.223
REMARK INTER:                  -3.317
REMARK INTRA:                  -1.906
REMARK UNBOUND:                -2.274
REMARK SMILES CCCCCCCCCCCCCC(=O)[O-]
REMARK SMILES IDX 8 1 9 2 10 3 11 4 12 5 13 6 14 7 15 8 16 9 7 10 6 11 5 12
REMARK SMILES IDX 4 13 3 14 2 15 1 16
REMARK H PARENT
REMARK Flexibility Score: inf
ROOT
ATOM      1  C   UNL     1      28.049   9.120  11.370  1.00  0.00     0.000 C 
ENDROOT
BRANCH   1   2
ATOM      2  C   UNL     1      28.035   9.893  12.699  1.00  0.00     0.000 C 
BRANCH   2   3
ATOM      3  C   UNL     1      26.968   9.379  13.683  1.00  0.00     0.000 C 
BRANCH   3   4
ATOM      4  C   UNL     1      25.546   9.926  13.455  1.00  0.00     0.000 C 
BRANCH   4   5
ATOM      5  C   UNL     1      24.662   8.976  12.634  1.00  0.00     0.006 C 
BRANCH   5   6
ATOM      6  C   UNL     1      24.052   9.699  11.430  1.00  0.00     0.053 C 
BRANCH   6   7
ATOM      7  C   UNL     1      22.784   9.029  11.003  1.00  0.00     0.041 C 
ATOM      8  O   UNL     1      22.279   9.285   9.878  1.00  0.00    -0.550 OA
ATOM      9  O   UNL     1      22.186   8.085  11.828  1.00  0.00    -0.550 OA
ENDBRANCH   6   7
ENDBRANCH   5   6
ENDBRANCH   4   5
ENDBRANCH   3   4
ENDBRANCH   2   3
ENDBRANCH   1   2
BRANCH   1  10
ATOM     10  C   UNL     1      27.587   9.973  10.174  1.00  0.00     0.000 C 
BRANCH  10  11
ATOM     11  C   UNL     1      27.741  11.495  10.357  1.00  0.00    -0.000 C 
BRANCH  11  12
ATOM     12  C   UNL     1      26.443  12.270  10.073  1.00  0.00    -0.000 C 
BRANCH  12  13
ATOM     13  C   UNL     1      26.336  13.558  10.916  1.00  0.00    -0.000 C 
BRANCH  13  14
ATOM     14  C   UNL     1      25.993  13.302  12.396  1.00  0.00    -0.000 C 
BRANCH  14  15
ATOM     15  C   UNL     1      27.174  13.475  13.366  1.00  0.00    -0.003 C 
ATOM     16  C   UNL     1      28.355  14.213  12.736  1.00  0.00     0.004 C 
ENDBRANCH  14  15
ENDBRANCH  13  14
ENDBRANCH  12  13
ENDBRANCH  11  12
ENDBRANCH  10  11
ENDBRANCH   1  10
TORSDOF 12
ENDMDL
MODEL 8
REMARK VINA RESULT:    -1.724      1.884      2.626
REMARK INTER + INTRA:          -5.207
REMARK INTER:                  -3.230
REMARK INTRA:                  -1.978
REMARK UNBOUND:                -2.274
REMARK SMILES CCCCCCCCCCCCCC(=O)[O-]
REMARK SMILES IDX 8 1 9 2 10 3 11 4 12 5 13 6 14 7 15 8 16 9 7 10 6 11 5 12
REMARK SMILES IDX 4 13 3 14 2 15 1 16
REMARK H PARENT
REMARK Flexibility Score: inf
ROOT
ATOM      1  C   UNL     1      11.117  26.761  27.960  1.00  0.00     0.000 C 
ENDROOT
BRANCH   1   2
ATOM      2  C   UNL     1      11.773  27.037  26.597  1.00  0.00     0.000 C 
BRANCH   2   3
ATOM      3  C   UNL     1      11.979  25.762  25.759  1.00  0.00     0.000 C 
BRANCH   3   4
ATOM      4  C   UNL     1      13.341  25.067  25.941  1.00  0.00     0.000 C 
BRANCH   4   5
ATOM      5  C   UNL     1      13.236  23.536  25.953  1.00  0.00     0.006 C 
BRANCH   5   6
ATOM      6  C   UNL     1      11.802  23.082  25.666  1.00  0.00     0.053 C 
BRANCH   6   7
ATOM      7  C   UNL     1      11.749  21.599  25.478  1.00  0.00     0.041 C 
ATOM      8  O   UNL     1      12.138  21.083  24.397  1.00  0.00    -0.550 OA
ATOM      9  O   UNL     1      11.316  20.781  26.514  1.00  0.00    -0.550 OA
ENDBRANCH   6   7
ENDBRANCH   5   6
ENDBRANCH   4   5
ENDBRANCH   3   4
ENDBRANCH   2   3
ENDBRANCH   1   2
BRANCH   1  10
ATOM     10  C   UNL     1      10.216  25.512  27.950  1.00  0.00     0.000 C 
BRANCH  10  11
ATOM     11  C   UNL     1      10.663  24.373  28.884  1.00  0.00    -0.000 C 
BRANCH  11  12
ATOM     12  C   UNL     1      11.743  24.808  29.890  1.00  0.00    -0.000 C 
BRANCH  12  13
ATOM     13  C   UNL     1      12.999  23.912  29.821  1.00  0.00    -0.000 C 
BRANCH  13  14
ATOM     14  C   UNL     1      14.271  24.665  29.386  1.00  0.00    -0.000 C 
BRANCH  14  15
ATOM     15  C   UNL     1      14.275  26.165  29.728  1.00  0.00    -0.003 C 
ATOM     16  C   UNL     1      15.659  26.678  30.125  1.00  0.00     0.004 C 
ENDBRANCH  14  15
ENDBRANCH  13  14
ENDBRANCH  12  13
ENDBRANCH  11  12
ENDBRANCH  10  11
ENDBRANCH   1  10
TORSDOF 12
ENDMDL
