MODEL 1
REMARK VINA RESULT:    -3.549      0.000      0.000
REMARK INTER + INTRA:          -9.198
REMARK INTER:                  -6.661
REMARK INTRA:                  -2.537
REMARK UNBOUND:                -2.537
REMARK SMILES CCCCCCCCC=CCCCCCCCC(=O)[O-]
REMARK SMILES IDX 10 1 9 2 11 3 12 4 13 5 14 6 15 7 16 8 17 9 18 10 19 11
REMARK SMILES IDX 20 12 8 13 7 14 6 15 5 16 4 17 3 18 2 19 1 20
REMARK H PARENT
REMARK Flexibility Score: inf
ROOT
ATOM      1  C   UNL     1      20.282   2.081 -18.420  1.00  0.00    -0.031 C 
ATOM      2  C   UNL     1      20.569   3.377 -18.240  1.00  0.00    -0.031 C 
ENDROOT
BRANCH   1   3
ATOM      3  C   UNL     1      21.032   1.000 -17.692  1.00  0.00     0.027 C 
BRANCH   3   4
ATOM      4  C   UNL     1      20.082  -0.122 -17.245  1.00  0.00     0.004 C 
BRANCH   4   5
ATOM      5  C   UNL     1      18.603   0.305 -17.262  1.00  0.00     0.000 C 
BRANCH   5   6
ATOM      6  C   UNL     1      17.986   0.588 -15.877  1.00  0.00     0.000 C 
BRANCH   6   7
ATOM      7  C   UNL     1      17.026   1.790 -15.821  1.00  0.00     0.000 C 
BRANCH   7   8
ATOM      8  C   UNL     1      16.472   2.049 -14.410  1.00  0.00     0.006 C 
BRANCH   8   9
ATOM      9  C   UNL     1      16.454   0.777 -13.551  1.00  0.00     0.053 C 
BRANCH   9  10
ATOM     10  C   UNL     1      15.370   0.818 -12.517  1.00  0.00     0.041 C 
ATOM     11  O   UNL     1      14.294   1.428 -12.752  1.00  0.00    -0.550 OA
ATOM     12  O   UNL     1      15.555   0.199 -11.288  1.00  0.00    -0.550 OA
ENDBRANCH   9  10
ENDBRANCH   8   9
ENDBRANCH   7   8
ENDBRANCH   6   7
ENDBRANCH   5   6
ENDBRANCH   4   5
ENDBRANCH   3   4
ENDBRANCH   1   3
BRANCH   2  13
ATOM     13  C   UNL     1      19.801   4.466 -18.938  1.00  0.00     0.027 C 
BRANCH  13  14
ATOM     14  C   UNL     1      18.805   5.141 -17.989  1.00  0.00     0.004 C 
BRANCH  14  15
ATOM     15  C   UNL     1      17.376   4.600 -18.170  1.00  0.00     0.000 C 
BRANCH  15  16
ATOM     16  C   UNL     1      17.148   3.977 -19.556  1.00  0.00     0.000 C 
BRANCH  16  17
ATOM     17  C   UNL     1      16.647   2.524 -19.478  1.00  0.00    -0.000 C 
BRANCH  17  18
ATOM     18  C   UNL     1      17.270   1.632 -20.574  1.00  0.00    -0.000 C 
BRANCH  18  19
ATOM     19  C   UNL     1      18.143   2.408 -21.575  1.00  0.00    -0.003 C 
ATOM     20  C   UNL     1      19.465   1.709 -21.883  1.00  0.00     0.004 C 
ENDBRANCH  18  19
ENDBRANCH  17  18
ENDBRANCH  16  17
ENDBRANCH  15  16
ENDBRANCH  14  15
ENDBRANCH  13  14
ENDBRANCH   2  13
TORSDOF 15
ENDMDL
MODEL 2
REMARK VINA RESULT:    -3.487      3.298      6.637
REMARK INTER + INTRA:          -9.082
REMARK INTER:                  -6.719
REMARK INTRA:                  -2.363
REMARK UNBOUND:                -2.537
REMARK SMILES CCCCCCCCC=CCCCCCCCC(=O)[O-]
REMARK SMILES IDX 10 1 9 2 11 3 12 4 13 5 14 6 15 7 16 8 17 9 18 10 19 11
REMARK SMILES IDX 20 12 8 13 7 14 6 15 5 16 4 17 3 18 2 19 1 20
REMARK H PARENT
REMARK Flexibility Score: inf
ROOT
ATOM      1  C   UNL     1      17.738   3.322 -17.068  1.00  0.00    -0.031 C 
ATOM      2  C   UNL     1      18.399   2.175 -16.860  1.00  0.00    -0.031 C 
ENDROOT
BRANCH   1   3
ATOM      3  C   UNL     1      18.453   4.578 -17.482  1.00  0.00     0.027 C 
BRANCH   3   4
ATOM      4  C   UNL     1      19.720   4.250 -18.287  1.00  0.00     0.004 C 
BRANCH   4   5
ATOM      5  C   UNL     1      19.426   3.946 -19.767  1.00  0.00     0.000 C 
BRANCH   5   6
ATOM      6  C   UNL     1      19.675   2.486 -20.198  1.00  0.00     0.000 C 
BRANCH   6   7
ATOM      7  C   UNL     1      18.418   1.706 -20.625  1.00  0.00     0.000 C 
BRANCH   7   8
ATOM      8  C   UNL     1      17.150   2.575 -20.642  1.00  0.00     0.006 C 
BRANCH   8   9
ATOM      9  C   UNL     1      15.956   1.873 -19.982  1.00  0.00     0.053 C 
BRANCH   9  10
ATOM     10  C   UNL     1      14.931   1.450 -20.990  1.00  0.00     0.041 C 
ATOM     11  O   UNL     1      14.038   2.256 -21.363  1.00  0.00    -0.550 OA
ATOM     12  O   UNL     1      14.950   0.160 -21.504  1.00  0.00    -0.550 OA
ENDBRANCH   9  10
ENDBRANCH   8   9
ENDBRANCH   7   8
ENDBRANCH   6   7
ENDBRANCH   5   6
ENDBRANCH   4   5
ENDBRANCH   3   4
ENDBRANCH   1   3
BRANCH   2  13
ATOM     13  C   UNL     1      17.688   0.905 -16.479  1.00  0.00     0.027 C 
BRANCH  13  14
ATOM     14  C   UNL     1      18.662  -0.125 -15.896  1.00  0.00     0.004 C 
BRANCH  14  15
ATOM     15  C   UNL     1      19.249   0.333 -14.549  1.00  0.00     0.000 C 
BRANCH  15  16
ATOM     16  C   UNL     1      18.180   0.483 -13.455  1.00  0.00     0.000 C 
BRANCH  16  17
ATOM     17  C   UNL     1      18.160   1.891 -12.835  1.00  0.00    -0.000 C 
BRANCH  17  18
ATOM     18  C   UNL     1      16.922   2.705 -13.273  1.00  0.00    -0.000 C 
BRANCH  18  19
ATOM     19  C   UNL     1      15.738   1.829 -13.718  1.00  0.00    -0.003 C 
ATOM     20  C   UNL     1      14.748   1.545 -12.591  1.00  0.00     0.004 C 
ENDBRANCH  18  19
ENDBRANCH  17  18
ENDBRANCH  16  17
ENDBRANCH  15  16
ENDBRANCH  14  15
ENDBRANCH  13  14
ENDBRANCH   2  13
TORSDOF 15
ENDMDL
MODEL 3
REMARK VINA RESULT:    -3.442     14.323     17.326
REMARK INTER + INTRA:          -8.996
REMARK INTER:                  -7.438
REMARK INTRA:                  -1.558
REMARK UNBOUND:                -2.537
REMARK SMILES CCCCCCCCC=CCCCCCCCC(=O)[O-]
REMARK SMILES IDX 10 1 9 2 11 3 12 4 13 5 14 6 15 7 16 8 17 9 18 10 19 11
REMARK SMILES IDX 20 12 8 13 7 14 6 15 5 16 4 17 3 18 2 19 1 20
REMARK H PARENT
REMARK Flexibility Score: inf
ROOT
ATOM      1  C   UNL     1      21.548  11.338 -28.059  1.00  0.00    -0.031 C 
ATOM      2  C   UNL     1      21.422  10.263 -28.849  1.00  0.00    -0.031 C 
ENDROOT
BRANCH   1   3
ATOM      3  C   UNL     1      21.306  12.728 -28.577  1.00  0.00     0.027 C 
BRANCH   3   4
ATOM      4  C   UNL     1      20.720  12.691 -29.997  1.00  0.00     0.004 C 
BRANCH   4   5
ATOM      5  C   UNL     1      20.638  14.085 -30.646  1.00  0.00     0.000 C 
BRANCH   5   6
ATOM      6  C   UNL     1      20.878  15.269 -29.687  1.00  0.00     0.000 C 
BRANCH   6   7
ATOM      7  C   UNL     1      21.804  16.373 -30.228  1.00  0.00     0.000 C 
BRANCH   7   8
ATOM      8  C   UNL     1      21.191  17.778 -30.116  1.00  0.00     0.006 C 
BRANCH   8   9
ATOM      9  C   UNL     1      21.863  18.619 -29.022  1.00  0.00     0.053 C 
BRANCH   9  10
ATOM     10  C   UNL     1      21.162  18.482 -27.704  1.00  0.00     0.041 C 
ATOM     11  O   UNL     1      21.492  17.569 -26.903  1.00  0.00    -0.550 OA
ATOM     12  O   UNL     1      20.130  19.350 -27.370  1.00  0.00    -0.550 OA
ENDBRANCH   9  10
ENDBRANCH   8   9
ENDBRANCH   7   8
ENDBRANCH   6   7
ENDBRANCH   5   6
ENDBRANCH   4   5
ENDBRANCH   3   4
ENDBRANCH   1   3
BRANCH   2  13
ATOM     13  C   UNL     1      21.629   8.866 -28.331  1.00  0.00     0.027 C 
BRANCH  13  14
ATOM     14  C   UNL     1      21.293   7.820 -29.400  1.00  0.00     0.004 C 
BRANCH  14  15
ATOM     15  C   UNL     1      20.386   6.705 -28.853  1.00  0.00     0.000 C 
BRANCH  15  16
ATOM     16  C   UNL     1      18.943   6.802 -29.375  1.00  0.00     0.000 C 
BRANCH  16  17
ATOM     17  C   UNL     1      18.083   7.787 -28.564  1.00  0.00    -0.000 C 
BRANCH  17  18
ATOM     18  C   UNL     1      17.192   8.666 -29.468  1.00  0.00    -0.000 C 
BRANCH  18  19
ATOM     19  C   UNL     1      17.951   9.827 -30.136  1.00  0.00    -0.003 C 
ATOM     20  C   UNL     1      17.625  11.186 -29.520  1.00  0.00     0.004 C 
ENDBRANCH  18  19
ENDBRANCH  17  18
ENDBRANCH  16  17
ENDBRANCH  15  16
ENDBRANCH  14  15
ENDBRANCH  13  14
ENDBRANCH   2  13
TORSDOF 15
ENDMDL
MODEL 4
REMARK VINA RESULT:    -3.416     13.006     14.363
REMARK INTER + INTRA:          -8.949
REMARK INTER:                  -6.795
REMARK INTRA:                  -2.154
REMARK UNBOUND:                -2.537
REMARK SMILES CCCCCCCCC=CCCCCCCCC(=O)[O-]
REMARK SMILES IDX 10 1 9 2 11 3 12 4 13 5 14 6 15 7 16 8 17 9 18 10 19 11
REMARK SMILES IDX 20 12 8 13 7 14 6 15 5 16 4 17 3 18 2 19 1 20
REMARK H PARENT
REMARK Flexibility Score: inf
ROOT
ATOM      1  C   UNL     1      21.426   8.860 -28.987  1.00  0.00    -0.031 C 
ATOM      2  C   UNL     1      21.674   9.540 -27.860  1.00  0.00    -0.031 C 
ENDROOT
BRANCH   1   3
ATOM      3  C   UNL     1      21.016   7.414 -28.959  1.00  0.00     0.027 C 
BRANCH   3   4
ATOM      4  C   UNL     1      21.028   6.812 -30.373  1.00  0.00     0.004 C 
BRANCH   4   5
ATOM      5  C   UNL     1      21.404   5.319 -30.384  1.00  0.00     0.000 C 
BRANCH   5   6
ATOM      6  C   UNL     1      20.926   4.515 -29.158  1.00  0.00     0.000 C 
BRANCH   6   7
ATOM      7  C   UNL     1      19.814   3.488 -29.441  1.00  0.00     0.000 C 
BRANCH   7   8
ATOM      8  C   UNL     1      18.731   4.025 -30.392  1.00  0.00     0.006 C 
BRANCH   8   9
ATOM      9  C   UNL     1      17.577   4.698 -29.637  1.00  0.00     0.053 C 
BRANCH   9  10
ATOM     10  C   UNL     1      16.243   4.320 -30.206  1.00  0.00     0.041 C 
ATOM     11  O   UNL     1      15.498   5.199 -30.713  1.00  0.00    -0.550 OA
ATOM     12  O   UNL     1      15.814   2.999 -30.159  1.00  0.00    -0.550 OA
ENDBRANCH   9  10
ENDBRANCH   8   9
ENDBRANCH   7   8
ENDBRANCH   6   7
ENDBRANCH   5   6
ENDBRANCH   4   5
ENDBRANCH   3   4
ENDBRANCH   1   3
BRANCH   2  13
ATOM     13  C   UNL     1      22.052  10.997 -27.876  1.00  0.00     0.027 C 
BRANCH  13  14
ATOM     14  C   UNL     1      21.725  11.640 -29.228  1.00  0.00     0.004 C 
BRANCH  14  15
ATOM     15  C   UNL     1      20.608  12.692 -29.113  1.00  0.00     0.000 C 
BRANCH  15  16
ATOM     16  C   UNL     1      19.206  12.093 -29.314  1.00  0.00     0.000 C 
BRANCH  16  17
ATOM     17  C   UNL     1      18.993  11.547 -30.737  1.00  0.00    -0.000 C 
BRANCH  17  18
ATOM     18  C   UNL     1      18.281  10.176 -30.735  1.00  0.00    -0.000 C 
BRANCH  18  19
ATOM     19  C   UNL     1      17.809   9.732 -29.340  1.00  0.00    -0.003 C 
ATOM     20  C   UNL     1      17.149   8.355 -29.343  1.00  0.00     0.004 C 
ENDBRANCH  18  19
ENDBRANCH  17  18
ENDBRANCH  16  17
ENDBRANCH  15  16
ENDBRANCH  14  15
ENDBRANCH  13  14
ENDBRANCH   2  13
TORSDOF 15
ENDMDL
MODEL 5
REMARK VINA RESULT:    -3.372     12.786     15.350
REMARK INTER + INTRA:          -8.865
REMARK INTER:                  -5.814
REMARK INTRA:                  -3.051
REMARK UNBOUND:                -2.537
REMARK SMILES CCCCCCCCC=CCCCCCCCC(=O)[O-]
REMARK SMILES IDX 10 1 9 2 11 3 12 4 13 5 14 6 15 7 16 8 17 9 18 10 19 11
REMARK SMILES IDX 20 12 8 13 7 14 6 15 5 16 4 17 3 18 2 19 1 20
REMARK H PARENT
REMARK Flexibility Score: inf
ROOT
ATOM      1  C   UNL     1      18.216  10.007 -30.011  1.00  0.00    -0.031 C 
ATOM      2  C   UNL     1      17.622  11.147 -29.633  1.00  0.00    -0.031 C 
ENDROOT
BRANCH   1   3
ATOM      3  C   UNL     1      17.685   8.666 -29.589  1.00  0.00     0.027 C 
BRANCH   3   4
ATOM      4  C   UNL     1      18.805   7.788 -29.010  1.00  0.00     0.004 C 
BRANCH   4   5
ATOM      5  C   UNL     1      20.151   7.985 -29.730  1.00  0.00     0.000 C 
BRANCH   5   6
ATOM      6  C   UNL     1      21.359   8.239 -28.804  1.00  0.00     0.000 C 
BRANCH   6   7
ATOM      7  C   UNL     1      21.946   9.660 -28.868  1.00  0.00     0.000 C 
BRANCH   7   8
ATOM      8  C   UNL     1      21.876  10.398 -27.521  1.00  0.00     0.006 C 
BRANCH   8   9
ATOM      9  C   UNL     1      20.486  10.995 -27.258  1.00  0.00     0.053 C 
BRANCH   9  10
ATOM     10  C   UNL     1      19.689  10.152 -26.308  1.00  0.00     0.041 C 
ATOM     11  O   UNL     1      18.437  10.272 -26.252  1.00  0.00    -0.550 OA
ATOM     12  O   UNL     1      20.331   9.249 -25.470  1.00  0.00    -0.550 OA
ENDBRANCH   9  10
ENDBRANCH   8   9
ENDBRANCH   7   8
ENDBRANCH   6   7
ENDBRANCH   5   6
ENDBRANCH   4   5
ENDBRANCH   3   4
ENDBRANCH   1   3
BRANCH   2  13
ATOM     13  C   UNL     1      18.127  12.493 -30.079  1.00  0.00     0.027 C 
BRANCH  13  14
ATOM     14  C   UNL     1      19.306  12.352 -31.047  1.00  0.00     0.004 C 
BRANCH  14  15
ATOM     15  C   UNL     1      20.631  12.815 -30.416  1.00  0.00     0.000 C 
BRANCH  15  16
ATOM     16  C   UNL     1      20.560  14.252 -29.875  1.00  0.00     0.000 C 
BRANCH  16  17
ATOM     17  C   UNL     1      21.320  14.424 -28.547  1.00  0.00    -0.000 C 
BRANCH  17  18
ATOM     18  C   UNL     1      20.537  15.289 -27.535  1.00  0.00    -0.000 C 
BRANCH  18  19
ATOM     19  C   UNL     1      19.015  15.075 -27.593  1.00  0.00    -0.003 C 
ATOM     20  C   UNL     1      18.530  13.970 -26.658  1.00  0.00     0.004 C 
ENDBRANCH  18  19
ENDBRANCH  17  18
ENDBRANCH  16  17
ENDBRANCH  15  16
ENDBRANCH  14  15
ENDBRANCH  13  14
ENDBRANCH   2  13
TORSDOF 15
ENDMDL
MODEL 6
REMARK VINA RESULT:    -3.315     11.297     13.813
REMARK INTER + INTRA:          -8.758
REMARK INTER:                  -6.420
REMARK INTRA:                  -2.338
REMARK UNBOUND:                -2.537
REMARK SMILES CCCCCCCCC=CCCCCCCCC(=O)[O-]
REMARK SMILES IDX 10 1 9 2 11 3 12 4 13 5 14 6 15 7 16 8 17 9 18 10 19 11
REMARK SMILES IDX 20 12 8 13 7 14 6 15 5 16 4 17 3 18 2 19 1 20
REMARK H PARENT
REMARK Flexibility Score: inf
ROOT
ATOM      1  C   UNL     1      20.917   7.742 -28.976  1.00  0.00    -0.031 C 
ATOM      2  C   UNL     1      21.626   8.875 -28.887  1.00  0.00    -0.031 C 
ENDROOT
BRANCH   1   3
ATOM      3  C   UNL     1      20.906   6.916 -30.232  1.00  0.00     0.027 C 
BRANCH   3   4
ATOM      4  C   UNL     1      21.746   5.641 -30.057  1.00  0.00     0.004 C 
BRANCH   4   5
ATOM      5  C   UNL     1      20.942   4.356 -30.325  1.00  0.00     0.000 C 
BRANCH   5   6
ATOM      6  C   UNL     1      19.638   4.553 -31.125  1.00  0.00     0.000 C 
BRANCH   6   7
ATOM      7  C   UNL     1      18.367   4.004 -30.452  1.00  0.00     0.000 C 
BRANCH   7   8
ATOM      8  C   UNL     1      17.627   5.062 -29.617  1.00  0.00     0.006 C 
BRANCH   8   9
ATOM      9  C   UNL     1      17.965   4.963 -28.123  1.00  0.00     0.053 C 
BRANCH   9  10
ATOM     10  C   UNL     1      16.822   5.412 -27.263  1.00  0.00     0.041 C 
ATOM     11  O   UNL     1      15.798   4.689 -27.141  1.00  0.00    -0.550 OA
ATOM     12  O   UNL     1      16.880   6.638 -26.611  1.00  0.00    -0.550 OA
ENDBRANCH   9  10
ENDBRANCH   8   9
ENDBRANCH   7   8
ENDBRANCH   6   7
ENDBRANCH   5   6
ENDBRANCH   4   5
ENDBRANCH   3   4
ENDBRANCH   1   3
BRANCH   2  13
ATOM     13  C   UNL     1      21.669   9.690 -27.623  1.00  0.00     0.027 C 
BRANCH  13  14
ATOM     14  C   UNL     1      21.740  11.190 -27.930  1.00  0.00     0.004 C 
BRANCH  14  15
ATOM     15  C   UNL     1      21.334  11.503 -29.381  1.00  0.00     0.000 C 
BRANCH  15  16
ATOM     16  C   UNL     1      20.046  12.337 -29.471  1.00  0.00     0.000 C 
BRANCH  16  17
ATOM     17  C   UNL     1      19.214  12.010 -30.724  1.00  0.00    -0.000 C 
BRANCH  17  18
ATOM     18  C   UNL     1      18.669  10.565 -30.703  1.00  0.00    -0.000 C 
BRANCH  18  19
ATOM     19  C   UNL     1      17.819  10.248 -29.460  1.00  0.00    -0.003 C 
ATOM     20  C   UNL     1      17.335   8.801 -29.419  1.00  0.00     0.004 C 
ENDBRANCH  18  19
ENDBRANCH  17  18
ENDBRANCH  16  17
ENDBRANCH  15  16
ENDBRANCH  14  15
ENDBRANCH  13  14
ENDBRANCH   2  13
TORSDOF 15
ENDMDL
MODEL 7
REMARK VINA RESULT:    -2.983     12.431     14.355
REMARK INTER + INTRA:          -8.135
REMARK INTER:                  -5.720
REMARK INTRA:                  -2.415
REMARK UNBOUND:                -2.537
REMARK SMILES CCCCCCCCC=CCCCCCCCC(=O)[O-]
REMARK SMILES IDX 10 1 9 2 11 3 12 4 13 5 14 6 15 7 16 8 17 9 18 10 19 11
REMARK SMILES IDX 20 12 8 13 7 14 6 15 5 16 4 17 3 18 2 19 1 20
REMARK H PARENT
REMARK Flexibility Score: inf
ROOT
ATOM      1  C   UNL     1      20.941  10.646 -27.294  1.00  0.00    -0.031 C 
ATOM      2  C   UNL     1      21.374  11.620 -28.106  1.00  0.00    -0.031 C 
ENDROOT
BRANCH   1   3
ATOM      3  C   UNL     1      21.433   9.232 -27.430  1.00  0.00     0.027 C 
BRANCH   3   4
ATOM      4  C   UNL     1      21.725   8.890 -28.899  1.00  0.00     0.004 C 
BRANCH   4   5
ATOM      5  C   UNL     1      21.149   7.527 -29.322  1.00  0.00     0.000 C 
BRANCH   5   6
ATOM      6  C   UNL     1      20.998   6.498 -28.183  1.00  0.00     0.000 C 
BRANCH   6   7
ATOM      7  C   UNL     1      20.049   5.324 -28.483  1.00  0.00     0.000 C 
BRANCH   7   8
ATOM      8  C   UNL     1      19.883   5.057 -29.988  1.00  0.00     0.006 C 
BRANCH   8   9
ATOM      9  C   UNL     1      18.430   4.732 -30.363  1.00  0.00     0.053 C 
BRANCH   9  10
ATOM     10  C   UNL     1      17.918   3.535 -29.620  1.00  0.00     0.041 C 
ATOM     11  O   UNL     1      18.269   2.376 -29.965  1.00  0.00    -0.550 OA
ATOM     12  O   UNL     1      17.036   3.699 -28.558  1.00  0.00    -0.550 OA
ENDBRANCH   9  10
ENDBRANCH   8   9
ENDBRANCH   7   8
ENDBRANCH   6   7
ENDBRANCH   5   6
ENDBRANCH   4   5
ENDBRANCH   3   4
ENDBRANCH   1   3
BRANCH   2  13
ATOM     13  C   UNL     1      20.913  13.044 -27.956  1.00  0.00     0.027 C 
BRANCH  13  14
ATOM     14  C   UNL     1      20.062  13.483 -29.153  1.00  0.00     0.004 C 
BRANCH  14  15
ATOM     15  C   UNL     1      20.348  12.637 -30.406  1.00  0.00     0.000 C 
BRANCH  15  16
ATOM     16  C   UNL     1      19.066  12.188 -31.125  1.00  0.00     0.000 C 
BRANCH  16  17
ATOM     17  C   UNL     1      18.113  11.406 -30.204  1.00  0.00    -0.000 C 
BRANCH  17  18
ATOM     18  C   UNL     1      18.336   9.880 -30.293  1.00  0.00    -0.000 C 
BRANCH  18  19
ATOM     19  C   UNL     1      17.960   9.129 -29.005  1.00  0.00    -0.003 C 
ATOM     20  C   UNL     1      16.884   8.068 -29.223  1.00  0.00     0.004 C 
ENDBRANCH  18  19
ENDBRANCH  17  18
ENDBRANCH  16  17
ENDBRANCH  15  16
ENDBRANCH  14  15
ENDBRANCH  13  14
ENDBRANCH   2  13
TORSDOF 15
ENDMDL
