MODEL 1
REMARK VINA RESULT:    -4.522      0.000      0.000
REMARK INTER + INTRA:         -10.788
REMARK INTER:                  -8.223
REMARK INTRA:                  -2.565
REMARK UNBOUND:                -2.565
REMARK SMILES CCCCCCCCCCCCCCCC(=O)[O-]
REMARK SMILES IDX 9 1 10 2 11 3 12 4 13 5 14 6 15 7 16 8 17 9 18 10 8 11 7 12
REMARK SMILES IDX 6 13 5 14 4 15 3 16 2 17 1 18
REMARK H PARENT
REMARK Flexibility Score: inf
ROOT
ATOM      1  C   UNL     1      14.797 -15.183  40.081  1.00  0.00     0.000 C 
ENDROOT
BRANCH   1   2
ATOM      2  C   UNL     1      15.799 -14.246  39.386  1.00  0.00     0.000 C 
BRANCH   2   3
ATOM      3  C   UNL     1      15.109 -13.082  38.657  1.00  0.00     0.000 C 
BRANCH   3   4
ATOM      4  C   UNL     1      13.941 -13.545  37.769  1.00  0.00     0.000 C 
BRANCH   4   5
ATOM      5  C   UNL     1      12.631 -12.805  38.086  1.00  0.00     0.000 C 
BRANCH   5   6
ATOM      6  C   UNL     1      11.538 -13.745  38.624  1.00  0.00     0.006 C 
BRANCH   6   7
ATOM      7  C   UNL     1      11.743 -15.194  38.165  1.00  0.00     0.053 C 
BRANCH   7   8
ATOM      8  C   UNL     1      10.833 -15.550  37.030  1.00  0.00     0.041 C 
ATOM      9  O   UNL     1      10.028 -14.698  36.570  1.00  0.00    -0.550 OA
ATOM     10  O   UNL     1      10.851 -16.835  36.503  1.00  0.00    -0.550 OA
ENDBRANCH   7   8
ENDBRANCH   6   7
ENDBRANCH   5   6
ENDBRANCH   4   5
ENDBRANCH   3   4
ENDBRANCH   2   3
ENDBRANCH   1   2
BRANCH   1  11
ATOM     11  C   UNL     1      14.977 -16.660  39.683  1.00  0.00     0.000 C 
BRANCH  11  12
ATOM     12  C   UNL     1      15.646 -16.898  38.316  1.00  0.00    -0.000 C 
BRANCH  12  13
ATOM     13  C   UNL     1      14.635 -17.202  37.197  1.00  0.00    -0.000 C 
BRANCH  13  14
ATOM     14  C   UNL     1      15.108 -16.717  35.815  1.00  0.00    -0.000 C 
BRANCH  14  15
ATOM     15  C   UNL     1      16.510 -16.076  35.787  1.00  0.00    -0.000 C 
BRANCH  15  16
ATOM     16  C   UNL     1      16.547 -14.595  35.358  1.00  0.00    -0.000 C 
BRANCH  16  17
ATOM     17  C   UNL     1      17.818 -13.835  35.774  1.00  0.00    -0.003 C 
ATOM     18  C   UNL     1      18.465 -14.405  37.036  1.00  0.00     0.004 C 
ENDBRANCH  16  17
ENDBRANCH  15  16
ENDBRANCH  14  15
ENDBRANCH  13  14
ENDBRANCH  12  13
ENDBRANCH  11  12
ENDBRANCH   1  11
TORSDOF 14
ENDMDL
MODEL 2
REMARK VINA RESULT:    -4.397      2.887      5.616
REMARK INTER + INTRA:         -10.561
REMARK INTER:                  -8.312
REMARK INTRA:                  -2.249
REMARK UNBOUND:                -2.565
REMARK SMILES CCCCCCCCCCCCCCCC(=O)[O-]
REMARK SMILES IDX 9 1 10 2 11 3 12 4 13 5 14 6 15 7 16 8 17 9 18 10 8 11 7 12
REMARK SMILES IDX 6 13 5 14 4 15 3 16 2 17 1 18
REMARK H PARENT
REMARK Flexibility Score: inf
ROOT
ATOM      1  C   UNL     1      14.310 -16.135  39.683  1.00  0.00     0.000 C 
ENDROOT
BRANCH   1   2
ATOM      2  C   UNL     1      15.148 -17.422  39.605  1.00  0.00     0.000 C 
BRANCH   2   3
ATOM      3  C   UNL     1      15.482 -17.822  38.159  1.00  0.00     0.000 C 
BRANCH   3   4
ATOM      4  C   UNL     1      14.494 -17.234  37.136  1.00  0.00     0.000 C 
BRANCH   4   5
ATOM      5  C   UNL     1      15.193 -16.735  35.861  1.00  0.00     0.000 C 
BRANCH   5   6
ATOM      6  C   UNL     1      16.546 -16.063  36.155  1.00  0.00     0.006 C 
BRANCH   6   7
ATOM      7  C   UNL     1      16.605 -14.624  35.626  1.00  0.00     0.053 C 
BRANCH   7   8
ATOM      8  C   UNL     1      17.966 -14.025  35.802  1.00  0.00     0.041 C 
ATOM      9  O   UNL     1      18.474 -13.324  34.887  1.00  0.00    -0.550 OA
ATOM     10  O   UNL     1      18.687 -14.269  36.964  1.00  0.00    -0.550 OA
ENDBRANCH   7   8
ENDBRANCH   6   7
ENDBRANCH   5   6
ENDBRANCH   4   5
ENDBRANCH   3   4
ENDBRANCH   2   3
ENDBRANCH   1   2
BRANCH   1  11
ATOM     11  C   UNL     1      15.099 -14.935  40.241  1.00  0.00     0.000 C 
BRANCH  11  12
ATOM     12  C   UNL     1      15.920 -14.147  39.204  1.00  0.00    -0.000 C 
BRANCH  12  13
ATOM     13  C   UNL     1      15.204 -12.880  38.707  1.00  0.00    -0.000 C 
BRANCH  13  14
ATOM     14  C   UNL     1      14.087 -13.185  37.691  1.00  0.00    -0.000 C 
BRANCH  14  15
ATOM     15  C   UNL     1      12.678 -12.712  38.101  1.00  0.00    -0.000 C 
BRANCH  15  16
ATOM     16  C   UNL     1      11.748 -13.814  38.646  1.00  0.00    -0.000 C 
BRANCH  16  17
ATOM     17  C   UNL     1      11.017 -14.632  37.569  1.00  0.00    -0.003 C 
ATOM     18  C   UNL     1      10.976 -16.128  37.884  1.00  0.00     0.004 C 
ENDBRANCH  16  17
ENDBRANCH  15  16
ENDBRANCH  14  15
ENDBRANCH  13  14
ENDBRANCH  12  13
ENDBRANCH  11  12
ENDBRANCH   1  11
TORSDOF 14
ENDMDL
MODEL 3
REMARK VINA RESULT:    -4.115      2.876      4.491
REMARK INTER + INTRA:         -10.047
REMARK INTER:                  -8.088
REMARK INTRA:                  -1.959
REMARK UNBOUND:                -2.565
REMARK SMILES CCCCCCCCCCCCCCCC(=O)[O-]
REMARK SMILES IDX 9 1 10 2 11 3 12 4 13 5 14 6 15 7 16 8 17 9 18 10 8 11 7 12
REMARK SMILES IDX 6 13 5 14 4 15 3 16 2 17 1 18
REMARK H PARENT
REMARK Flexibility Score: inf
ROOT
ATOM      1  C   UNL     1      15.324 -14.797  40.392  1.00  0.00     0.000 C 
ENDROOT
BRANCH   1   2
ATOM      2  C   UNL     1      14.647 -16.020  39.749  1.00  0.00     0.000 C 
BRANCH   2   3
ATOM      3  C   UNL     1      13.161 -15.778  39.443  1.00  0.00     0.000 C 
BRANCH   3   4
ATOM      4  C   UNL     1      12.494 -16.979  38.748  1.00  0.00     0.000 C 
BRANCH   4   5
ATOM      5  C   UNL     1      11.733 -17.881  39.733  1.00  0.00     0.000 C 
BRANCH   5   6
ATOM      6  C   UNL     1      12.247 -19.331  39.722  1.00  0.00     0.006 C 
BRANCH   6   7
ATOM      7  C   UNL     1      13.469 -19.520  40.630  1.00  0.00     0.053 C 
BRANCH   7   8
ATOM      8  C   UNL     1      14.606 -20.166  39.901  1.00  0.00     0.041 C 
ATOM      9  O   UNL     1      15.443 -19.461  39.276  1.00  0.00    -0.550 OA
ATOM     10  O   UNL     1      14.722 -21.550  39.882  1.00  0.00    -0.550 OA
ENDBRANCH   7   8
ENDBRANCH   6   7
ENDBRANCH   5   6
ENDBRANCH   4   5
ENDBRANCH   3   4
ENDBRANCH   2   3
ENDBRANCH   1   2
BRANCH   1  11
ATOM     11  C   UNL     1      16.036 -13.895  39.368  1.00  0.00     0.000 C 
BRANCH  11  12
ATOM     12  C   UNL     1      15.155 -12.809  38.721  1.00  0.00    -0.000 C 
BRANCH  12  13
ATOM     13  C   UNL     1      14.752 -13.146  37.276  1.00  0.00    -0.000 C 
BRANCH  13  14
ATOM     14  C   UNL     1      15.899 -12.936  36.270  1.00  0.00    -0.000 C 
BRANCH  14  15
ATOM     15  C   UNL     1      16.307 -14.187  35.466  1.00  0.00    -0.000 C 
BRANCH  15  16
ATOM     16  C   UNL     1      17.208 -15.186  36.218  1.00  0.00    -0.000 C 
BRANCH  16  17
ATOM     17  C   UNL     1      16.539 -16.528  36.559  1.00  0.00    -0.003 C 
ATOM     18  C   UNL     1      15.132 -16.656  35.975  1.00  0.00     0.004 C 
ENDBRANCH  16  17
ENDBRANCH  15  16
ENDBRANCH  14  15
ENDBRANCH  13  14
ENDBRANCH  12  13
ENDBRANCH  11  12
ENDBRANCH   1  11
TORSDOF 14
ENDMDL
MODEL 4
REMARK VINA RESULT:    -4.107      2.918      4.489
REMARK INTER + INTRA:         -10.034
REMARK INTER:                  -7.714
REMARK INTRA:                  -2.320
REMARK UNBOUND:                -2.565
REMARK SMILES CCCCCCCCCCCCCCCC(=O)[O-]
REMARK SMILES IDX 9 1 10 2 11 3 12 4 13 5 14 6 15 7 16 8 17 9 18 10 8 11 7 12
REMARK SMILES IDX 6 13 5 14 4 15 3 16 2 17 1 18
REMARK H PARENT
REMARK Flexibility Score: inf
ROOT
ATOM      1  C   UNL     1      11.935 -16.724  38.628  1.00  0.00     0.000 C 
ENDROOT
BRANCH   1   2
ATOM      2  C   UNL     1      12.446 -15.741  39.694  1.00  0.00     0.000 C 
BRANCH   2   3
ATOM      3  C   UNL     1      13.643 -14.910  39.205  1.00  0.00     0.000 C 
BRANCH   3   4
ATOM      4  C   UNL     1      14.765 -14.809  40.254  1.00  0.00     0.000 C 
BRANCH   4   5
ATOM      5  C   UNL     1      16.005 -14.075  39.721  1.00  0.00     0.000 C 
BRANCH   5   6
ATOM      6  C   UNL     1      15.855 -13.656  38.248  1.00  0.00     0.006 C 
BRANCH   6   7
ATOM      7  C   UNL     1      17.146 -13.875  37.449  1.00  0.00     0.053 C 
BRANCH   7   8
ATOM      8  C   UNL     1      16.983 -13.480  36.014  1.00  0.00     0.041 C 
ATOM      9  O   UNL     1      15.842 -13.206  35.556  1.00  0.00    -0.550 OA
ATOM     10  O   UNL     1      18.089 -13.446  35.173  1.00  0.00    -0.550 OA
ENDBRANCH   7   8
ENDBRANCH   6   7
ENDBRANCH   5   6
ENDBRANCH   4   5
ENDBRANCH   3   4
ENDBRANCH   2   3
ENDBRANCH   1   2
BRANCH   1  11
ATOM     11  C   UNL     1      11.943 -18.189  39.105  1.00  0.00     0.000 C 
BRANCH  11  12
ATOM     12  C   UNL     1      13.150 -18.593  39.972  1.00  0.00    -0.000 C 
BRANCH  12  13
ATOM     13  C   UNL     1      14.032 -19.666  39.311  1.00  0.00    -0.000 C 
BRANCH  13  14
ATOM     14  C   UNL     1      15.503 -19.231  39.176  1.00  0.00    -0.000 C 
BRANCH  14  15
ATOM     15  C   UNL     1      15.720 -17.791  38.670  1.00  0.00    -0.000 C 
BRANCH  15  16
ATOM     16  C   UNL     1      16.831 -17.625  37.614  1.00  0.00    -0.000 C 
BRANCH  16  17
ATOM     17  C   UNL     1      16.351 -17.097  36.251  1.00  0.00    -0.003 C 
ATOM     18  C   UNL     1      14.869 -16.720  36.248  1.00  0.00     0.004 C 
ENDBRANCH  16  17
ENDBRANCH  15  16
ENDBRANCH  14  15
ENDBRANCH  13  14
ENDBRANCH  12  13
ENDBRANCH  11  12
ENDBRANCH   1  11
TORSDOF 14
ENDMDL
MODEL 5
REMARK VINA RESULT:    -4.047      2.624      5.054
REMARK INTER + INTRA:          -9.925
REMARK INTER:                  -7.500
REMARK INTRA:                  -2.425
REMARK UNBOUND:                -2.565
REMARK SMILES CCCCCCCCCCCCCCCC(=O)[O-]
REMARK SMILES IDX 9 1 10 2 11 3 12 4 13 5 14 6 15 7 16 8 17 9 18 10 8 11 7 12
REMARK SMILES IDX 6 13 5 14 4 15 3 16 2 17 1 18
REMARK H PARENT
REMARK Flexibility Score: inf
ROOT
ATOM      1  C   UNL     1      14.991 -16.869  35.882  1.00  0.00     0.000 C 
ENDROOT
BRANCH   1   2
ATOM      2  C   UNL     1      14.593 -17.516  37.220  1.00  0.00     0.000 C 
BRANCH   2   3
ATOM      3  C   UNL     1      15.794 -17.715  38.159  1.00  0.00     0.000 C 
BRANCH   3   4
ATOM      4  C   UNL     1      15.372 -18.003  39.611  1.00  0.00     0.000 C 
BRANCH   4   5
ATOM      5  C   UNL     1      13.849 -17.936  39.806  1.00  0.00     0.000 C 
BRANCH   5   6
ATOM      6  C   UNL     1      13.251 -19.284  40.245  1.00  0.00     0.006 C 
BRANCH   6   7
ATOM      7  C   UNL     1      12.479 -19.971  39.112  1.00  0.00     0.053 C 
BRANCH   7   8
ATOM      8  C   UNL     1      13.287 -21.058  38.471  1.00  0.00     0.041 C 
ATOM      9  O   UNL     1      14.416 -21.368  38.935  1.00  0.00    -0.550 OA
ATOM     10  O   UNL     1      12.806 -21.705  37.340  1.00  0.00    -0.550 OA
ENDBRANCH   7   8
ENDBRANCH   6   7
ENDBRANCH   5   6
ENDBRANCH   4   5
ENDBRANCH   3   4
ENDBRANCH   2   3
ENDBRANCH   1   2
BRANCH   1  11
ATOM     11  C   UNL     1      16.383 -16.213  35.920  1.00  0.00     0.000 C 
BRANCH  11  12
ATOM     12  C   UNL     1      16.426 -14.732  35.497  1.00  0.00    -0.000 C 
BRANCH  12  13
ATOM     13  C   UNL     1      17.328 -13.876  36.402  1.00  0.00    -0.000 C 
BRANCH  13  14
ATOM     14  C   UNL     1      17.247 -14.282  37.885  1.00  0.00    -0.000 C 
BRANCH  14  15
ATOM     15  C   UNL     1      16.197 -13.521  38.719  1.00  0.00    -0.000 C 
BRANCH  15  16
ATOM     16  C   UNL     1      15.105 -14.400  39.362  1.00  0.00    -0.000 C 
BRANCH  16  17
ATOM     17  C   UNL     1      13.742 -14.356  38.653  1.00  0.00    -0.003 C 
ATOM     18  C   UNL     1      13.591 -13.148  37.728  1.00  0.00     0.004 C 
ENDBRANCH  16  17
ENDBRANCH  15  16
ENDBRANCH  14  15
ENDBRANCH  13  14
ENDBRANCH  12  13
ENDBRANCH  11  12
ENDBRANCH   1  11
TORSDOF 14
ENDMDL
MODEL 6
REMARK VINA RESULT:    -4.045      3.010      5.186
REMARK INTER + INTRA:          -9.921
REMARK INTER:                  -7.779
REMARK INTRA:                  -2.142
REMARK UNBOUND:                -2.565
REMARK SMILES CCCCCCCCCCCCCCCC(=O)[O-]
REMARK SMILES IDX 9 1 10 2 11 3 12 4 13 5 14 6 15 7 16 8 17 9 18 10 8 11 7 12
REMARK SMILES IDX 6 13 5 14 4 15 3 16 2 17 1 18
REMARK H PARENT
REMARK Flexibility Score: inf
ROOT
ATOM      1  C   UNL     1      13.563 -17.879  39.705  1.00  0.00     0.000 C 
ENDROOT
BRANCH   1   2
ATOM      2  C   UNL     1      15.056 -17.515  39.642  1.00  0.00     0.000 C 
BRANCH   2   3
ATOM      3  C   UNL     1      15.885 -18.557  38.875  1.00  0.00     0.000 C 
BRANCH   3   4
ATOM      4  C   UNL     1      16.750 -17.929  37.766  1.00  0.00     0.000 C 
BRANCH   4   5
ATOM      5  C   UNL     1      16.249 -16.538  37.345  1.00  0.00     0.000 C 
BRANCH   5   6
ATOM      6  C   UNL     1      16.628 -16.189  35.896  1.00  0.00     0.006 C 
BRANCH   6   7
ATOM      7  C   UNL     1      16.556 -14.680  35.626  1.00  0.00     0.053 C 
BRANCH   7   8
ATOM      8  C   UNL     1      17.888 -14.020  35.814  1.00  0.00     0.041 C 
ATOM      9  O   UNL     1      18.406 -13.357  34.877  1.00  0.00    -0.550 OA
ATOM     10  O   UNL     1      18.572 -14.168  37.014  1.00  0.00    -0.550 OA
ENDBRANCH   7   8
ENDBRANCH   6   7
ENDBRANCH   5   6
ENDBRANCH   4   5
ENDBRANCH   3   4
ENDBRANCH   2   3
ENDBRANCH   1   2
BRANCH   1  11
ATOM     11  C   UNL     1      12.981 -18.277  38.336  1.00  0.00     0.000 C 
BRANCH  11  12
ATOM     12  C   UNL     1      12.588 -17.103  37.420  1.00  0.00    -0.000 C 
BRANCH  12  13
ATOM     13  C   UNL     1      11.483 -16.217  38.019  1.00  0.00    -0.000 C 
BRANCH  13  14
ATOM     14  C   UNL     1      11.967 -14.790  38.336  1.00  0.00    -0.000 C 
BRANCH  14  15
ATOM     15  C   UNL     1      13.448 -14.510  38.012  1.00  0.00    -0.000 C 
BRANCH  15  16
ATOM     16  C   UNL     1      13.871 -13.030  38.096  1.00  0.00    -0.000 C 
BRANCH  16  17
ATOM     17  C   UNL     1      15.298 -12.796  38.619  1.00  0.00    -0.003 C 
ATOM     18  C   UNL     1      15.742 -13.853  39.630  1.00  0.00     0.004 C 
ENDBRANCH  16  17
ENDBRANCH  15  16
ENDBRANCH  14  15
ENDBRANCH  13  14
ENDBRANCH  12  13
ENDBRANCH  11  12
ENDBRANCH   1  11
TORSDOF 14
ENDMDL
MODEL 7
REMARK VINA RESULT:    -4.019      3.634      5.609
REMARK INTER + INTRA:          -9.873
REMARK INTER:                  -8.088
REMARK INTRA:                  -1.785
REMARK UNBOUND:                -2.565
REMARK SMILES CCCCCCCCCCCCCCCC(=O)[O-]
REMARK SMILES IDX 9 1 10 2 11 3 12 4 13 5 14 6 15 7 16 8 17 9 18 10 8 11 7 12
REMARK SMILES IDX 6 13 5 14 4 15 3 16 2 17 1 18
REMARK H PARENT
REMARK Flexibility Score: inf
ROOT
ATOM      1  C   UNL     1      13.715 -16.681  38.968  1.00  0.00     0.000 C 
ENDROOT
BRANCH   1   2
ATOM      2  C   UNL     1      13.825 -15.360  39.749  1.00  0.00     0.000 C 
BRANCH   2   3
ATOM      3  C   UNL     1      15.251 -15.092  40.256  1.00  0.00     0.000 C 
BRANCH   3   4
ATOM      4  C   UNL     1      15.910 -13.884  39.566  1.00  0.00     0.000 C 
BRANCH   4   5
ATOM      5  C   UNL     1      14.964 -13.183  38.578  1.00  0.00     0.000 C 
BRANCH   5   6
ATOM      6  C   UNL     1      15.600 -12.988  37.190  1.00  0.00     0.006 C 
BRANCH   6   7
ATOM      7  C   UNL     1      16.260 -14.271  36.670  1.00  0.00     0.053 C 
BRANCH   7   8
ATOM      8  C   UNL     1      17.721 -14.075  36.405  1.00  0.00     0.041 C 
ATOM      9  O   UNL     1      18.577 -14.461  37.245  1.00  0.00    -0.550 OA
ATOM     10  O   UNL     1      18.136 -13.432  35.246  1.00  0.00    -0.550 OA
ENDBRANCH   7   8
ENDBRANCH   6   7
ENDBRANCH   5   6
ENDBRANCH   4   5
ENDBRANCH   3   4
ENDBRANCH   2   3
ENDBRANCH   1   2
BRANCH   1  11
ATOM     11  C   UNL     1      15.084 -17.254  38.558  1.00  0.00     0.000 C 
BRANCH  11  12
ATOM     12  C   UNL     1      15.452 -18.606  39.198  1.00  0.00    -0.000 C 
BRANCH  12  13
ATOM     13  C   UNL     1      14.322 -19.186  40.065  1.00  0.00    -0.000 C 
BRANCH  13  14
ATOM     14  C   UNL     1      14.384 -20.721  40.180  1.00  0.00    -0.000 C 
BRANCH  14  15
ATOM     15  C   UNL     1      13.568 -21.493  39.125  1.00  0.00    -0.000 C 
BRANCH  15  16
ATOM     16  C   UNL     1      12.371 -20.726  38.529  1.00  0.00    -0.000 C 
BRANCH  16  17
ATOM     17  C   UNL     1      12.356 -20.646  36.993  1.00  0.00    -0.003 C 
ATOM     18  C   UNL     1      12.493 -19.216  36.470  1.00  0.00     0.004 C 
ENDBRANCH  16  17
ENDBRANCH  15  16
ENDBRANCH  14  15
ENDBRANCH  13  14
ENDBRANCH  12  13
ENDBRANCH  11  12
ENDBRANCH   1  11
TORSDOF 14
ENDMDL
MODEL 8
REMARK VINA RESULT:    -4.011      2.837      5.730
REMARK INTER + INTRA:          -9.859
REMARK INTER:                  -7.355
REMARK INTRA:                  -2.504
REMARK UNBOUND:                -2.565
REMARK SMILES CCCCCCCCCCCCCCCC(=O)[O-]
REMARK SMILES IDX 9 1 10 2 11 3 12 4 13 5 14 6 15 7 16 8 17 9 18 10 8 11 7 12
REMARK SMILES IDX 6 13 5 14 4 15 3 16 2 17 1 18
REMARK H PARENT
REMARK Flexibility Score: inf
ROOT
ATOM      1  C   UNL     1      15.192 -13.052  38.832  1.00  0.00     0.000 C 
ENDROOT
BRANCH   1   2
ATOM      2  C   UNL     1      15.777 -14.212  39.655  1.00  0.00     0.000 C 
BRANCH   2   3
ATOM      3  C   UNL     1      14.831 -15.421  39.725  1.00  0.00     0.000 C 
BRANCH   3   4
ATOM      4  C   UNL     1      15.477 -16.714  39.194  1.00  0.00     0.000 C 
BRANCH   4   5
ATOM      5  C   UNL     1      15.293 -16.884  37.678  1.00  0.00     0.000 C 
BRANCH   5   6
ATOM      6  C   UNL     1      16.627 -16.846  36.913  1.00  0.00     0.006 C 
BRANCH   6   7
ATOM      7  C   UNL     1      16.663 -15.725  35.866  1.00  0.00     0.053 C 
BRANCH   7   8
ATOM      8  C   UNL     1      17.442 -14.541  36.349  1.00  0.00     0.041 C 
ATOM      9  O   UNL     1      18.327 -14.680  37.234  1.00  0.00    -0.550 OA
ATOM     10  O   UNL     1      17.167 -13.276  35.845  1.00  0.00    -0.550 OA
ENDBRANCH   7   8
ENDBRANCH   6   7
ENDBRANCH   5   6
ENDBRANCH   4   5
ENDBRANCH   3   4
ENDBRANCH   2   3
ENDBRANCH   1   2
BRANCH   1  11
ATOM     11  C   UNL     1      14.077 -13.499  37.868  1.00  0.00     0.000 C 
BRANCH  11  12
ATOM     12  C   UNL     1      12.725 -12.782  38.047  1.00  0.00    -0.000 C 
BRANCH  12  13
ATOM     13  C   UNL     1      11.537 -13.755  38.133  1.00  0.00    -0.000 C 
BRANCH  13  14
ATOM     14  C   UNL     1      11.371 -14.373  39.534  1.00  0.00    -0.000 C 
BRANCH  14  15
ATOM     15  C   UNL     1      11.021 -15.874  39.553  1.00  0.00    -0.000 C 
BRANCH  15  16
ATOM     16  C   UNL     1      11.629 -16.706  38.406  1.00  0.00    -0.000 C 
BRANCH  16  17
ATOM     17  C   UNL     1      11.930 -18.172  38.762  1.00  0.00    -0.003 C 
ATOM     18  C   UNL     1      12.296 -18.363  40.234  1.00  0.00     0.004 C 
ENDBRANCH  16  17
ENDBRANCH  15  16
ENDBRANCH  14  15
ENDBRANCH  13  14
ENDBRANCH  12  13
ENDBRANCH  11  12
ENDBRANCH   1  11
TORSDOF 14
ENDMDL
MODEL 9
REMARK VINA RESULT:    -3.966      3.124      4.994
REMARK INTER + INTRA:          -9.777
REMARK INTER:                  -7.639
REMARK INTRA:                  -2.138
REMARK UNBOUND:                -2.565
REMARK SMILES CCCCCCCCCCCCCCCC(=O)[O-]
REMARK SMILES IDX 9 1 10 2 11 3 12 4 13 5 14 6 15 7 16 8 17 9 18 10 8 11 7 12
REMARK SMILES IDX 6 13 5 14 4 15 3 16 2 17 1 18
REMARK H PARENT
REMARK Flexibility Score: inf
ROOT
ATOM      1  C   UNL     1      13.506 -14.826  38.461  1.00  0.00     0.000 C 
ENDROOT
BRANCH   1   2
ATOM      2  C   UNL     1      12.684 -16.124  38.523  1.00  0.00     0.000 C 
BRANCH   2   3
ATOM      3  C   UNL     1      13.031 -17.097  37.386  1.00  0.00     0.000 C 
BRANCH   3   4
ATOM      4  C   UNL     1      13.487 -18.475  37.900  1.00  0.00     0.000 C 
BRANCH   4   5
ATOM      5  C   UNL     1      14.069 -18.410  39.321  1.00  0.00     0.000 C 
BRANCH   5   6
ATOM      6  C   UNL     1      15.079 -19.537  39.597  1.00  0.00     0.006 C 
BRANCH   6   7
ATOM      7  C   UNL     1      14.448 -20.705  40.367  1.00  0.00     0.053 C 
BRANCH   7   8
ATOM      8  C   UNL     1      14.119 -21.852  39.463  1.00  0.00     0.041 C 
ATOM      9  O   UNL     1      12.996 -21.911  38.896  1.00  0.00    -0.550 OA
ATOM     10  O   UNL     1      15.041 -22.874  39.273  1.00  0.00    -0.550 OA
ENDBRANCH   7   8
ENDBRANCH   6   7
ENDBRANCH   5   6
ENDBRANCH   4   5
ENDBRANCH   3   4
ENDBRANCH   2   3
ENDBRANCH   1   2
BRANCH   1  11
ATOM     11  C   UNL     1      14.738 -14.847  39.385  1.00  0.00     0.000 C 
BRANCH  11  12
ATOM     12  C   UNL     1      15.860 -13.859  39.012  1.00  0.00    -0.000 C 
BRANCH  12  13
ATOM     13  C   UNL     1      15.427 -12.830  37.955  1.00  0.00    -0.000 C 
BRANCH  13  14
ATOM     14  C   UNL     1      16.211 -12.962  36.636  1.00  0.00    -0.000 C 
BRANCH  14  15
ATOM     15  C   UNL     1      16.879 -14.331  36.401  1.00  0.00    -0.000 C 
BRANCH  15  16
ATOM     16  C   UNL     1      15.979 -15.398  35.746  1.00  0.00    -0.000 C 
BRANCH  16  17
ATOM     17  C   UNL     1      16.513 -16.837  35.840  1.00  0.00    -0.003 C 
ATOM     18  C   UNL     1      16.973 -17.210  37.249  1.00  0.00     0.004 C 
ENDBRANCH  16  17
ENDBRANCH  15  16
ENDBRANCH  14  15
ENDBRANCH  13  14
ENDBRANCH  12  13
ENDBRANCH  11  12
ENDBRANCH   1  11
TORSDOF 14
ENDMDL
