MODEL 1
REMARK VINA RESULT:    -3.802      0.000      0.000
REMARK INTER + INTRA:          -7.907
REMARK INTER:                  -6.914
REMARK INTRA:                  -0.994
REMARK UNBOUND:                -0.994
REMARK SMILES CCCCCCCCCCCCCCCC(=O)[O-]
REMARK SMILES IDX 9 1 10 2 11 3 12 4 13 5 14 6 15 7 16 8 17 9 18 10 8 11 7 12
REMARK SMILES IDX 6 13 5 14 4 15 3 16 2 17 1 18
REMARK H PARENT
REMARK Flexibility Score: inf
ROOT
ATOM      1  C   UNL     1      13.383   4.209  -1.197  1.00  0.00     0.000 C 
ENDROOT
BRANCH   1   2
ATOM      2  C   UNL     1      14.678   3.413  -1.439  1.00  0.00     0.000 C 
BRANCH   2   3
ATOM      3  C   UNL     1      14.531   2.366  -2.553  1.00  0.00     0.000 C 
BRANCH   3   4
ATOM      4  C   UNL     1      15.502   1.186  -2.391  1.00  0.00     0.000 C 
BRANCH   4   5
ATOM      5  C   UNL     1      16.915   1.683  -2.051  1.00  0.00     0.000 C 
BRANCH   5   6
ATOM      6  C   UNL     1      18.005   0.964  -2.862  1.00  0.00     0.006 C 
BRANCH   6   7
ATOM      7  C   UNL     1      19.336   1.728  -2.871  1.00  0.00     0.053 C 
BRANCH   7   8
ATOM      8  C   UNL     1      20.410   0.914  -2.222  1.00  0.00     0.041 C 
ATOM      9  O   UNL     1      20.372  -0.343  -2.275  1.00  0.00    -0.550 OA
ATOM     10  O   UNL     1      21.429   1.542  -1.516  1.00  0.00    -0.550 OA
ENDBRANCH   7   8
ENDBRANCH   6   7
ENDBRANCH   5   6
ENDBRANCH   4   5
ENDBRANCH   3   4
ENDBRANCH   2   3
ENDBRANCH   1   2
BRANCH   1  11
ATOM     11  C   UNL     1      12.370   4.036  -2.348  1.00  0.00     0.000 C 
BRANCH  11  12
ATOM     12  C   UNL     1      10.961   4.569  -2.022  1.00  0.00    -0.000 C 
BRANCH  12  13
ATOM     13  C   UNL     1      10.781   5.094  -0.587  1.00  0.00    -0.000 C 
BRANCH  13  14
ATOM     14  C   UNL     1      10.734   6.631  -0.518  1.00  0.00    -0.000 C 
BRANCH  14  15
ATOM     15  C   UNL     1       9.724   7.236  -1.509  1.00  0.00    -0.000 C 
BRANCH  15  16
ATOM     16  C   UNL     1      10.343   8.340  -2.384  1.00  0.00    -0.000 C 
BRANCH  16  17
ATOM     17  C   UNL     1      11.874   8.232  -2.470  1.00  0.00    -0.003 C 
ATOM     18  C   UNL     1      12.582   9.537  -2.103  1.00  0.00     0.004 C 
ENDBRANCH  16  17
ENDBRANCH  15  16
ENDBRANCH  14  15
ENDBRANCH  13  14
ENDBRANCH  12  13
ENDBRANCH  11  12
ENDBRANCH   1  11
TORSDOF 14
ENDMDL
MODEL 2
REMARK VINA RESULT:    -3.752      4.538      9.544
REMARK INTER + INTRA:          -7.816
REMARK INTER:                  -7.102
REMARK INTRA:                  -0.714
REMARK UNBOUND:                -0.994
REMARK SMILES CCCCCCCCCCCCCCCC(=O)[O-]
REMARK SMILES IDX 9 1 10 2 11 3 12 4 13 5 14 6 15 7 16 8 17 9 18 10 8 11 7 12
REMARK SMILES IDX 6 13 5 14 4 15 3 16 2 17 1 18
REMARK H PARENT
REMARK Flexibility Score: inf
ROOT
ATOM      1  C   UNL     1      14.489   3.496  -1.110  1.00  0.00     0.000 C 
ENDROOT
BRANCH   1   2
ATOM      2  C   UNL     1      13.562   3.556  -2.337  1.00  0.00     0.000 C 
BRANCH   2   3
ATOM      3  C   UNL     1      12.175   4.127  -2.006  1.00  0.00     0.000 C 
BRANCH   3   4
ATOM      4  C   UNL     1      12.209   5.131  -0.844  1.00  0.00     0.000 C 
BRANCH   4   5
ATOM      5  C   UNL     1      10.788   5.559  -0.449  1.00  0.00     0.000 C 
BRANCH   5   6
ATOM      6  C   UNL     1       9.991   6.128  -1.635  1.00  0.00     0.006 C 
BRANCH   6   7
ATOM      7  C   UNL     1       9.365   7.494  -1.325  1.00  0.00     0.053 C 
BRANCH   7   8
ATOM      8  C   UNL     1      10.168   8.591  -1.951  1.00  0.00     0.041 C 
ATOM      9  O   UNL     1       9.846   9.794  -1.772  1.00  0.00    -0.550 OA
ATOM     10  O   UNL     1      11.245   8.282  -2.774  1.00  0.00    -0.550 OA
ENDBRANCH   7   8
ENDBRANCH   6   7
ENDBRANCH   5   6
ENDBRANCH   4   5
ENDBRANCH   3   4
ENDBRANCH   2   3
ENDBRANCH   1   2
BRANCH   1  11
ATOM     11  C   UNL     1      15.751   2.648  -1.374  1.00  0.00     0.000 C 
BRANCH  11  12
ATOM     12  C   UNL     1      15.475   1.350  -2.156  1.00  0.00    -0.000 C 
BRANCH  12  13
ATOM     13  C   UNL     1      16.719   0.678  -2.763  1.00  0.00    -0.000 C 
BRANCH  13  14
ATOM     14  C   UNL     1      17.982   1.550  -2.642  1.00  0.00    -0.000 C 
BRANCH  14  15
ATOM     15  C   UNL     1      19.270   0.773  -2.968  1.00  0.00    -0.000 C 
BRANCH  15  16
ATOM     16  C   UNL     1      20.497   1.692  -3.102  1.00  0.00    -0.000 C 
BRANCH  16  17
ATOM     17  C   UNL     1      21.804   0.987  -2.706  1.00  0.00    -0.003 C 
ATOM     18  C   UNL     1      21.903   0.720  -1.203  1.00  0.00     0.004 C 
ENDBRANCH  16  17
ENDBRANCH  15  16
ENDBRANCH  14  15
ENDBRANCH  13  14
ENDBRANCH  12  13
ENDBRANCH  11  12
ENDBRANCH   1  11
TORSDOF 14
ENDMDL
MODEL 3
REMARK VINA RESULT:    -3.620      2.279      4.409
REMARK INTER + INTRA:          -7.576
REMARK INTER:                  -6.234
REMARK INTRA:                  -1.342
REMARK UNBOUND:                -0.994
REMARK SMILES CCCCCCCCCCCCCCCC(=O)[O-]
REMARK SMILES IDX 9 1 10 2 11 3 12 4 13 5 14 6 15 7 16 8 17 9 18 10 8 11 7 12
REMARK SMILES IDX 6 13 5 14 4 15 3 16 2 17 1 18
REMARK H PARENT
REMARK Flexibility Score: inf
ROOT
ATOM      1  C   UNL     1      10.059   6.851  -1.640  1.00  0.00     0.000 C 
ENDROOT
BRANCH   1   2
ATOM      2  C   UNL     1      10.955   6.477  -0.445  1.00  0.00     0.000 C 
BRANCH   2   3
ATOM      3  C   UNL     1      11.539   5.061  -0.562  1.00  0.00     0.000 C 
BRANCH   3   4
ATOM      4  C   UNL     1      12.890   5.036  -1.295  1.00  0.00     0.000 C 
BRANCH   4   5
ATOM      5  C   UNL     1      12.766   4.309  -2.643  1.00  0.00     0.000 C 
BRANCH   5   6
ATOM      6  C   UNL     1      13.736   3.123  -2.766  1.00  0.00     0.006 C 
BRANCH   6   7
ATOM      7  C   UNL     1      14.800   3.112  -1.661  1.00  0.00     0.053 C 
BRANCH   7   8
ATOM      8  C   UNL     1      15.789   2.014  -1.899  1.00  0.00     0.041 C 
ATOM      9  O   UNL     1      15.400   0.887  -2.302  1.00  0.00    -0.550 OA
ATOM     10  O   UNL     1      17.137   2.222  -1.631  1.00  0.00    -0.550 OA
ENDBRANCH   7   8
ENDBRANCH   6   7
ENDBRANCH   5   6
ENDBRANCH   4   5
ENDBRANCH   3   4
ENDBRANCH   2   3
ENDBRANCH   1   2
BRANCH   1  11
ATOM     11  C   UNL     1       8.829   7.677  -1.208  1.00  0.00     0.000 C 
BRANCH  11  12
ATOM     12  C   UNL     1       8.571   8.914  -2.091  1.00  0.00    -0.000 C 
BRANCH  12  13
ATOM     13  C   UNL     1       9.836   9.604  -2.630  1.00  0.00    -0.000 C 
BRANCH  13  14
ATOM     14  C   UNL     1      10.512  10.507  -1.583  1.00  0.00    -0.000 C 
BRANCH  14  15
ATOM     15  C   UNL     1      12.047  10.463  -1.668  1.00  0.00    -0.000 C 
BRANCH  15  16
ATOM     16  C   UNL     1      12.551   9.668  -2.885  1.00  0.00    -0.000 C 
BRANCH  16  17
ATOM     17  C   UNL     1      13.709   8.722  -2.530  1.00  0.00    -0.003 C 
ATOM     18  C   UNL     1      14.974   9.467  -2.101  1.00  0.00     0.004 C 
ENDBRANCH  16  17
ENDBRANCH  15  16
ENDBRANCH  14  15
ENDBRANCH  13  14
ENDBRANCH  12  13
ENDBRANCH  11  12
ENDBRANCH   1  11
TORSDOF 14
ENDMDL
MODEL 4
REMARK VINA RESULT:    -3.543      1.844      3.103
REMARK INTER + INTRA:          -7.436
REMARK INTER:                  -6.261
REMARK INTRA:                  -1.175
REMARK UNBOUND:                -0.994
REMARK SMILES CCCCCCCCCCCCCCCC(=O)[O-]
REMARK SMILES IDX 9 1 10 2 11 3 12 4 13 5 14 6 15 7 16 8 17 9 18 10 8 11 7 12
REMARK SMILES IDX 6 13 5 14 4 15 3 16 2 17 1 18
REMARK H PARENT
REMARK Flexibility Score: inf
ROOT
ATOM      1  C   UNL     1      12.166   5.230  -0.806  1.00  0.00     0.000 C 
ENDROOT
BRANCH   1   2
ATOM      2  C   UNL     1      12.819   5.155  -2.197  1.00  0.00     0.000 C 
BRANCH   2   3
ATOM      3  C   UNL     1      12.239   4.028  -3.065  1.00  0.00     0.000 C 
BRANCH   3   4
ATOM      4  C   UNL     1      13.098   2.755  -3.038  1.00  0.00     0.000 C 
BRANCH   4   5
ATOM      5  C   UNL     1      14.573   3.096  -2.781  1.00  0.00     0.000 C 
BRANCH   5   6
ATOM      6  C   UNL     1      15.162   2.319  -1.593  1.00  0.00     0.006 C 
BRANCH   6   7
ATOM      7  C   UNL     1      16.696   2.329  -1.582  1.00  0.00     0.053 C 
BRANCH   7   8
ATOM      8  C   UNL     1      17.232   1.339  -2.568  1.00  0.00     0.041 C 
ATOM      9  O   UNL     1      18.373   1.502  -3.075  1.00  0.00    -0.550 OA
ATOM     10  O   UNL     1      16.451   0.261  -2.966  1.00  0.00    -0.550 OA
ENDBRANCH   7   8
ENDBRANCH   6   7
ENDBRANCH   5   6
ENDBRANCH   4   5
ENDBRANCH   3   4
ENDBRANCH   2   3
ENDBRANCH   1   2
BRANCH   1  11
ATOM     11  C   UNL     1      10.628   5.343  -0.890  1.00  0.00     0.000 C 
BRANCH  11  12
ATOM     12  C   UNL     1      10.116   6.794  -0.966  1.00  0.00    -0.000 C 
BRANCH  12  13
ATOM     13  C   UNL     1       9.880   7.326  -2.391  1.00  0.00    -0.000 C 
BRANCH  13  14
ATOM     14  C   UNL     1      11.036   8.210  -2.893  1.00  0.00    -0.000 C 
BRANCH  14  15
ATOM     15  C   UNL     1      11.633   9.090  -1.781  1.00  0.00    -0.000 C 
BRANCH  15  16
ATOM     16  C   UNL     1      11.569  10.591  -2.115  1.00  0.00    -0.000 C 
BRANCH  16  17
ATOM     17  C   UNL     1      10.489  11.327  -1.307  1.00  0.00    -0.003 C 
ATOM     18  C   UNL     1      11.063  12.432  -0.418  1.00  0.00     0.004 C 
ENDBRANCH  16  17
ENDBRANCH  15  16
ENDBRANCH  14  15
ENDBRANCH  13  14
ENDBRANCH  12  13
ENDBRANCH  11  12
ENDBRANCH   1  11
TORSDOF 14
ENDMDL
MODEL 5
REMARK VINA RESULT:    -3.532      5.810      9.716
REMARK INTER + INTRA:          -7.416
REMARK INTER:                  -6.336
REMARK INTRA:                  -1.080
REMARK UNBOUND:                -0.994
REMARK SMILES CCCCCCCCCCCCCCCC(=O)[O-]
REMARK SMILES IDX 9 1 10 2 11 3 12 4 13 5 14 6 15 7 16 8 17 9 18 10 8 11 7 12
REMARK SMILES IDX 6 13 5 14 4 15 3 16 2 17 1 18
REMARK H PARENT
REMARK Flexibility Score: inf
ROOT
ATOM      1  C   UNL     1      10.648   6.666  -0.466  1.00  0.00     0.000 C 
ENDROOT
BRANCH   1   2
ATOM      2  C   UNL     1       9.845   7.176  -1.677  1.00  0.00     0.000 C 
BRANCH   2   3
ATOM      3  C   UNL     1      10.579   8.281  -2.452  1.00  0.00     0.000 C 
BRANCH   3   4
ATOM      4  C   UNL     1      12.010   8.513  -1.942  1.00  0.00     0.000 C 
BRANCH   4   5
ATOM      5  C   UNL     1      12.250  10.001  -1.645  1.00  0.00     0.000 C 
BRANCH   5   6
ATOM      6  C   UNL     1      10.941  10.792  -1.492  1.00  0.00     0.006 C 
BRANCH   6   7
ATOM      7  C   UNL     1      11.082  11.992  -0.547  1.00  0.00     0.053 C 
BRANCH   7   8
ATOM      8  C   UNL     1      10.071  13.043  -0.883  1.00  0.00     0.041 C 
ATOM      9  O   UNL     1       8.986  13.104  -0.248  1.00  0.00    -0.550 OA
ATOM     10  O   UNL     1      10.307  13.926  -1.929  1.00  0.00    -0.550 OA
ENDBRANCH   7   8
ENDBRANCH   6   7
ENDBRANCH   5   6
ENDBRANCH   4   5
ENDBRANCH   3   4
ENDBRANCH   2   3
ENDBRANCH   1   2
BRANCH   1  11
ATOM     11  C   UNL     1      10.926   5.150  -0.549  1.00  0.00     0.000 C 
BRANCH  11  12
ATOM     12  C   UNL     1      10.624   4.538  -1.931  1.00  0.00    -0.000 C 
BRANCH  12  13
ATOM     13  C   UNL     1      11.855   4.016  -2.694  1.00  0.00    -0.000 C 
BRANCH  13  14
ATOM     14  C   UNL     1      13.176   4.312  -1.961  1.00  0.00    -0.000 C 
BRANCH  14  15
ATOM     15  C   UNL     1      14.342   3.448  -2.474  1.00  0.00    -0.000 C 
BRANCH  15  16
ATOM     16  C   UNL     1      15.191   2.863  -1.332  1.00  0.00    -0.000 C 
BRANCH  16  17
ATOM     17  C   UNL     1      15.703   1.448  -1.646  1.00  0.00    -0.003 C 
ATOM     18  C   UNL     1      17.060   1.450  -2.352  1.00  0.00     0.004 C 
ENDBRANCH  16  17
ENDBRANCH  15  16
ENDBRANCH  14  15
ENDBRANCH  13  14
ENDBRANCH  12  13
ENDBRANCH  11  12
ENDBRANCH   1  11
TORSDOF 14
ENDMDL
MODEL 6
REMARK VINA RESULT:    -3.531      2.454      4.466
REMARK INTER + INTRA:          -7.414
REMARK INTER:                  -6.434
REMARK INTRA:                  -0.980
REMARK UNBOUND:                -0.994
REMARK SMILES CCCCCCCCCCCCCCCC(=O)[O-]
REMARK SMILES IDX 9 1 10 2 11 3 12 4 13 5 14 6 15 7 16 8 17 9 18 10 8 11 7 12
REMARK SMILES IDX 6 13 5 14 4 15 3 16 2 17 1 18
REMARK H PARENT
REMARK Flexibility Score: inf
ROOT
ATOM      1  C   UNL     1      10.695   6.512  -0.493  1.00  0.00     0.000 C 
ENDROOT
BRANCH   1   2
ATOM      2  C   UNL     1      10.889   5.001  -0.709  1.00  0.00     0.000 C 
BRANCH   2   3
ATOM      3  C   UNL     1      10.573   4.562  -2.147  1.00  0.00     0.000 C 
BRANCH   3   4
ATOM      4  C   UNL     1      11.746   3.829  -2.816  1.00  0.00     0.000 C 
BRANCH   4   5
ATOM      5  C   UNL     1      13.020   3.944  -1.965  1.00  0.00     0.000 C 
BRANCH   5   6
ATOM      6  C   UNL     1      14.277   3.479  -2.716  1.00  0.00     0.006 C 
BRANCH   6   7
ATOM      7  C   UNL     1      14.423   1.952  -2.736  1.00  0.00     0.053 C 
BRANCH   7   8
ATOM      8  C   UNL     1      15.817   1.556  -2.360  1.00  0.00     0.041 C 
ATOM      9  O   UNL     1      16.271   0.433  -2.704  1.00  0.00    -0.550 OA
ATOM     10  O   UNL     1      16.598   2.407  -1.588  1.00  0.00    -0.550 OA
ENDBRANCH   7   8
ENDBRANCH   6   7
ENDBRANCH   5   6
ENDBRANCH   4   5
ENDBRANCH   3   4
ENDBRANCH   2   3
ENDBRANCH   1   2
BRANCH   1  11
ATOM     11  C   UNL     1      10.705   7.296  -1.823  1.00  0.00     0.000 C 
BRANCH  11  12
ATOM     12  C   UNL     1      12.088   7.859  -2.203  1.00  0.00    -0.000 C 
BRANCH  12  13
ATOM     13  C   UNL     1      12.078   9.301  -2.740  1.00  0.00    -0.000 C 
BRANCH  13  14
ATOM     14  C   UNL     1      12.238  10.351  -1.626  1.00  0.00    -0.000 C 
BRANCH  14  15
ATOM     15  C   UNL     1      10.906  11.025  -1.254  1.00  0.00    -0.000 C 
BRANCH  15  16
ATOM     16  C   UNL     1      11.104  12.375  -0.544  1.00  0.00    -0.000 C 
BRANCH  16  17
ATOM     17  C   UNL     1      11.638  13.463  -1.490  1.00  0.00    -0.003 C 
ATOM     18  C   UNL     1      12.403  14.565  -0.756  1.00  0.00     0.004 C 
ENDBRANCH  16  17
ENDBRANCH  15  16
ENDBRANCH  14  15
ENDBRANCH  13  14
ENDBRANCH  12  13
ENDBRANCH  11  12
ENDBRANCH   1  11
TORSDOF 14
ENDMDL
MODEL 7
REMARK VINA RESULT:    -3.495      3.376      5.929
REMARK INTER + INTRA:          -7.349
REMARK INTER:                  -6.290
REMARK INTRA:                  -1.059
REMARK UNBOUND:                -0.994
REMARK SMILES CCCCCCCCCCCCCCCC(=O)[O-]
REMARK SMILES IDX 9 1 10 2 11 3 12 4 13 5 14 6 15 7 16 8 17 9 18 10 8 11 7 12
REMARK SMILES IDX 6 13 5 14 4 15 3 16 2 17 1 18
REMARK H PARENT
REMARK Flexibility Score: inf
ROOT
ATOM      1  C   UNL     1      12.688   7.842  -2.404  1.00  0.00     0.000 C 
ENDROOT
BRANCH   1   2
ATOM      2  C   UNL     1      11.301   7.174  -2.414  1.00  0.00     0.000 C 
BRANCH   2   3
ATOM      3  C   UNL     1      10.904   6.611  -1.041  1.00  0.00     0.000 C 
BRANCH   3   4
ATOM      4  C   UNL     1      11.360   5.157  -0.842  1.00  0.00     0.000 C 
BRANCH   4   5
ATOM      5  C   UNL     1      11.199   4.351  -2.140  1.00  0.00     0.000 C 
BRANCH   5   6
ATOM      6  C   UNL     1      12.470   3.572  -2.515  1.00  0.00     0.006 C 
BRANCH   6   7
ATOM      7  C   UNL     1      13.671   3.944  -1.636  1.00  0.00     0.053 C 
BRANCH   7   8
ATOM      8  C   UNL     1      14.791   2.974  -1.844  1.00  0.00     0.041 C 
ATOM      9  O   UNL     1      14.665   2.028  -2.665  1.00  0.00    -0.550 OA
ATOM     10  O   UNL     1      15.957   3.086  -1.097  1.00  0.00    -0.550 OA
ENDBRANCH   7   8
ENDBRANCH   6   7
ENDBRANCH   5   6
ENDBRANCH   4   5
ENDBRANCH   3   4
ENDBRANCH   2   3
ENDBRANCH   1   2
BRANCH   1  11
ATOM     11  C   UNL     1      12.596   9.376  -2.550  1.00  0.00     0.000 C 
BRANCH  11  12
ATOM     12  C   UNL     1      12.195  10.101  -1.251  1.00  0.00    -0.000 C 
BRANCH  12  13
ATOM     13  C   UNL     1      10.997  11.058  -1.384  1.00  0.00    -0.000 C 
BRANCH  13  14
ATOM     14  C   UNL     1      11.122  12.295  -0.477  1.00  0.00    -0.000 C 
BRANCH  14  15
ATOM     15  C   UNL     1      11.196  13.608  -1.275  1.00  0.00    -0.000 C 
BRANCH  15  16
ATOM     16  C   UNL     1      12.576  13.834  -1.916  1.00  0.00    -0.000 C 
BRANCH  16  17
ATOM     17  C   UNL     1      13.397  14.905  -1.181  1.00  0.00    -0.003 C 
ATOM     18  C   UNL     1      12.529  15.861  -0.362  1.00  0.00     0.004 C 
ENDBRANCH  16  17
ENDBRANCH  15  16
ENDBRANCH  14  15
ENDBRANCH  13  14
ENDBRANCH  12  13
ENDBRANCH  11  12
ENDBRANCH   1  11
TORSDOF 14
ENDMDL
MODEL 8
REMARK VINA RESULT:    -3.474      3.970      8.900
REMARK INTER + INTRA:          -7.310
REMARK INTER:                  -6.615
REMARK INTRA:                  -0.696
REMARK UNBOUND:                -0.994
REMARK SMILES CCCCCCCCCCCCCCCC(=O)[O-]
REMARK SMILES IDX 9 1 10 2 11 3 12 4 13 5 14 6 15 7 16 8 17 9 18 10 8 11 7 12
REMARK SMILES IDX 6 13 5 14 4 15 3 16 2 17 1 18
REMARK H PARENT
REMARK Flexibility Score: inf
ROOT
ATOM      1  C   UNL     1      12.986   5.176  -1.368  1.00  0.00     0.000 C 
ENDROOT
BRANCH   1   2
ATOM      2  C   UNL     1      11.815   5.041  -0.377  1.00  0.00     0.000 C 
BRANCH   2   3
ATOM      3  C   UNL     1      10.805   6.193  -0.493  1.00  0.00     0.000 C 
BRANCH   3   4
ATOM      4  C   UNL     1      10.626   6.683  -1.938  1.00  0.00     0.000 C 
BRANCH   4   5
ATOM      5  C   UNL     1      10.276   8.178  -1.969  1.00  0.00     0.000 C 
BRANCH   5   6
ATOM      6  C   UNL     1      11.238   8.992  -2.850  1.00  0.00     0.006 C 
BRANCH   6   7
ATOM      7  C   UNL     1      12.704   8.581  -2.661  1.00  0.00     0.053 C 
BRANCH   7   8
ATOM      8  C   UNL     1      13.557   9.787  -2.422  1.00  0.00     0.041 C 
ATOM      9  O   UNL     1      14.810   9.677  -2.373  1.00  0.00    -0.550 OA
ATOM     10  O   UNL     1      12.966  11.025  -2.204  1.00  0.00    -0.550 OA
ENDBRANCH   7   8
ENDBRANCH   6   7
ENDBRANCH   5   6
ENDBRANCH   4   5
ENDBRANCH   3   4
ENDBRANCH   2   3
ENDBRANCH   1   2
BRANCH   1  11
ATOM     11  C   UNL     1      13.446   3.808  -1.915  1.00  0.00     0.000 C 
BRANCH  11  12
ATOM     12  C   UNL     1      14.739   3.281  -1.263  1.00  0.00    -0.000 C 
BRANCH  12  13
ATOM     13  C   UNL     1      15.456   2.169  -2.048  1.00  0.00    -0.000 C 
BRANCH  13  14
ATOM     14  C   UNL     1      16.956   2.078  -1.713  1.00  0.00    -0.000 C 
BRANCH  14  15
ATOM     15  C   UNL     1      17.741   1.243  -2.739  1.00  0.00    -0.000 C 
BRANCH  15  16
ATOM     16  C   UNL     1      19.237   1.601  -2.773  1.00  0.00    -0.000 C 
BRANCH  16  17
ATOM     17  C   UNL     1      20.132   0.424  -2.352  1.00  0.00    -0.003 C 
ATOM     18  C   UNL     1      21.336   0.864  -1.517  1.00  0.00     0.004 C 
ENDBRANCH  16  17
ENDBRANCH  15  16
ENDBRANCH  14  15
ENDBRANCH  13  14
ENDBRANCH  12  13
ENDBRANCH  11  12
ENDBRANCH   1  11
TORSDOF 14
ENDMDL
MODEL 9
REMARK VINA RESULT:    -3.413      1.471      2.078
REMARK INTER + INTRA:          -7.200
REMARK INTER:                  -6.517
REMARK INTRA:                  -0.682
REMARK UNBOUND:                -0.994
REMARK SMILES CCCCCCCCCCCCCCCC(=O)[O-]
REMARK SMILES IDX 9 1 10 2 11 3 12 4 13 5 14 6 15 7 16 8 17 9 18 10 8 11 7 12
REMARK SMILES IDX 6 13 5 14 4 15 3 16 2 17 1 18
REMARK H PARENT
REMARK Flexibility Score: inf
ROOT
ATOM      1  C   UNL     1      14.598   3.571  -1.437  1.00  0.00     0.000 C 
ENDROOT
BRANCH   1   2
ATOM      2  C   UNL     1      15.167   2.149  -1.290  1.00  0.00     0.000 C 
BRANCH   2   3
ATOM      3  C   UNL     1      15.178   1.375  -2.618  1.00  0.00     0.000 C 
BRANCH   3   4
ATOM      4  C   UNL     1      16.483   0.593  -2.839  1.00  0.00     0.000 C 
BRANCH   4   5
ATOM      5  C   UNL     1      17.700   1.526  -2.757  1.00  0.00     0.000 C 
BRANCH   5   6
ATOM      6  C   UNL     1      19.019   0.762  -2.565  1.00  0.00     0.006 C 
BRANCH   6   7
ATOM      7  C   UNL     1      20.253   1.639  -2.815  1.00  0.00     0.053 C 
BRANCH   7   8
ATOM      8  C   UNL     1      21.487   0.962  -2.306  1.00  0.00     0.041 C 
ATOM      9  O   UNL     1      21.533   0.535  -1.123  1.00  0.00    -0.550 OA
ATOM     10  O   UNL     1      22.604   0.847  -3.125  1.00  0.00    -0.550 OA
ENDBRANCH   7   8
ENDBRANCH   6   7
ENDBRANCH   5   6
ENDBRANCH   4   5
ENDBRANCH   3   4
ENDBRANCH   2   3
ENDBRANCH   1   2
BRANCH   1  11
ATOM     11  C   UNL     1      13.593   3.679  -2.603  1.00  0.00     0.000 C 
BRANCH  11  12
ATOM     12  C   UNL     1      12.375   4.572  -2.293  1.00  0.00    -0.000 C 
BRANCH  12  13
ATOM     13  C   UNL     1      12.129   4.839  -0.797  1.00  0.00    -0.000 C 
BRANCH  13  14
ATOM     14  C   UNL     1      10.790   5.553  -0.535  1.00  0.00    -0.000 C 
BRANCH  14  15
ATOM     15  C   UNL     1      10.399   6.512  -1.672  1.00  0.00    -0.000 C 
BRANCH  15  16
ATOM     16  C   UNL     1       9.168   7.368  -1.327  1.00  0.00    -0.000 C 
BRANCH  16  17
ATOM     17  C   UNL     1       8.437   7.878  -2.579  1.00  0.00    -0.003 C 
ATOM     18  C   UNL     1       7.271   6.979  -2.993  1.00  0.00     0.004 C 
ENDBRANCH  16  17
ENDBRANCH  15  16
ENDBRANCH  14  15
ENDBRANCH  13  14
ENDBRANCH  12  13
ENDBRANCH  11  12
ENDBRANCH   1  11
TORSDOF 14
ENDMDL
