MODEL 1
REMARK VINA RESULT:    -4.757      0.000      0.000
REMARK INTER + INTRA:          -9.502
REMARK INTER:                  -8.094
REMARK INTRA:                  -1.408
REMARK UNBOUND:                -1.408
REMARK SMILES CCCCCCCCCCCCCC(=O)[O-]
REMARK SMILES IDX 8 1 9 2 10 3 11 4 12 5 13 6 14 7 15 8 16 9 7 10 6 11 5 12
REMARK SMILES IDX 4 13 3 14 2 15 1 16
REMARK H PARENT
REMARK Flexibility Score: inf
ROOT
ATOM      1  C   UNL     1      -3.620  11.778  -7.167  1.00  0.00     0.000 C 
ENDROOT
BRANCH   1   2
ATOM      2  C   UNL     1      -2.647  12.293  -8.238  1.00  0.00     0.000 C 
BRANCH   2   3
ATOM      3  C   UNL     1      -1.509  11.288  -8.473  1.00  0.00     0.000 C 
BRANCH   3   4
ATOM      4  C   UNL     1      -0.144  11.818  -8.008  1.00  0.00     0.000 C 
BRANCH   4   5
ATOM      5  C   UNL     1       0.494  10.941  -6.921  1.00  0.00     0.006 C 
BRANCH   5   6
ATOM      6  C   UNL     1       1.326   9.814  -7.543  1.00  0.00     0.053 C 
BRANCH   6   7
ATOM      7  C   UNL     1       2.722  10.279  -7.810  1.00  0.00     0.041 C 
ATOM      8  O   UNL     1       3.348  10.939  -6.939  1.00  0.00    -0.550 OA
ATOM      9  O   UNL     1       3.351   9.942  -9.001  1.00  0.00    -0.550 OA
ENDBRANCH   6   7
ENDBRANCH   5   6
ENDBRANCH   4   5
ENDBRANCH   3   4
ENDBRANCH   2   3
ENDBRANCH   1   2
BRANCH   1  10
ATOM     10  C   UNL     1      -5.010  12.428  -7.262  1.00  0.00     0.000 C 
BRANCH  10  11
ATOM     11  C   UNL     1      -5.418  12.737  -8.713  1.00  0.00    -0.000 C 
BRANCH  11  12
ATOM     12  C   UNL     1      -6.620  11.899  -9.186  1.00  0.00    -0.000 C 
BRANCH  12  13
ATOM     13  C   UNL     1      -6.294  10.823 -10.241  1.00  0.00    -0.000 C 
BRANCH  13  14
ATOM     14  C   UNL     1      -4.833  10.810 -10.736  1.00  0.00    -0.000 C 
BRANCH  14  15
ATOM     15  C   UNL     1      -4.071   9.502 -10.462  1.00  0.00    -0.003 C 
ATOM     16  C   UNL     1      -4.705   8.665  -9.352  1.00  0.00     0.004 C 
ENDBRANCH  14  15
ENDBRANCH  13  14
ENDBRANCH  12  13
ENDBRANCH  11  12
ENDBRANCH  10  11
ENDBRANCH   1  10
TORSDOF 12
ENDMDL
MODEL 2
REMARK VINA RESULT:    -4.742      1.123      2.301
REMARK INTER + INTRA:          -9.477
REMARK INTER:                  -7.860
REMARK INTRA:                  -1.617
REMARK UNBOUND:                -1.408
REMARK SMILES CCCCCCCCCCCCCC(=O)[O-]
REMARK SMILES IDX 8 1 9 2 10 3 11 4 12 5 13 6 14 7 15 8 16 9 7 10 6 11 5 12
REMARK SMILES IDX 4 13 3 14 2 15 1 16
REMARK H PARENT
REMARK Flexibility Score: inf
ROOT
ATOM      1  C   UNL     1      -3.000  11.400  -7.114  1.00  0.00     0.000 C 
ENDROOT
BRANCH   1   2
ATOM      2  C   UNL     1      -2.437  12.761  -7.548  1.00  0.00     0.000 C 
BRANCH   2   3
ATOM      3  C   UNL     1      -1.220  13.148  -6.694  1.00  0.00     0.000 C 
BRANCH   3   4
ATOM      4  C   UNL     1      -0.187  12.016  -6.586  1.00  0.00     0.000 C 
BRANCH   4   5
ATOM      5  C   UNL     1       0.610  11.814  -7.883  1.00  0.00     0.006 C 
BRANCH   5   6
ATOM      6  C   UNL     1       1.010  10.345  -8.059  1.00  0.00     0.053 C 
BRANCH   6   7
ATOM      7  C   UNL     1       2.496  10.216  -8.172  1.00  0.00     0.041 C 
ATOM      8  O   UNL     1       3.244  10.701  -7.284  1.00  0.00    -0.550 OA
ATOM      9  O   UNL     1       3.053   9.516  -9.234  1.00  0.00    -0.550 OA
ENDBRANCH   6   7
ENDBRANCH   5   6
ENDBRANCH   4   5
ENDBRANCH   3   4
ENDBRANCH   2   3
ENDBRANCH   1   2
BRANCH   1  10
ATOM     10  C   UNL     1      -3.099  10.399  -8.276  1.00  0.00     0.000 C 
BRANCH  10  11
ATOM     11  C   UNL     1      -2.998  11.079  -9.652  1.00  0.00    -0.000 C 
BRANCH  11  12
ATOM     12  C   UNL     1      -3.961  10.473 -10.690  1.00  0.00    -0.000 C 
BRANCH  12  13
ATOM     13  C   UNL     1      -5.345  10.070 -10.143  1.00  0.00    -0.000 C 
BRANCH  13  14
ATOM     14  C   UNL     1      -6.367  11.220 -10.030  1.00  0.00    -0.000 C 
BRANCH  14  15
ATOM     15  C   UNL     1      -6.724  11.627  -8.590  1.00  0.00    -0.003 C 
ATOM     16  C   UNL     1      -6.207  13.016  -8.218  1.00  0.00     0.004 C 
ENDBRANCH  14  15
ENDBRANCH  13  14
ENDBRANCH  12  13
ENDBRANCH  11  12
ENDBRANCH  10  11
ENDBRANCH   1  10
TORSDOF 12
ENDMDL
MODEL 3
REMARK VINA RESULT:    -4.711      3.407      6.850
REMARK INTER + INTRA:          -9.423
REMARK INTER:                  -8.776
REMARK INTRA:                  -0.647
REMARK UNBOUND:                -1.408
REMARK SMILES CCCCCCCCCCCCCC(=O)[O-]
REMARK SMILES IDX 8 1 9 2 10 3 11 4 12 5 13 6 14 7 15 8 16 9 7 10 6 11 5 12
REMARK SMILES IDX 4 13 3 14 2 15 1 16
REMARK H PARENT
REMARK Flexibility Score: inf
ROOT
ATOM      1  C   UNL     1      -4.448  11.411  -9.298  1.00  0.00     0.000 C 
ENDROOT
BRANCH   1   2
ATOM      2  C   UNL     1      -5.297  10.981 -10.503  1.00  0.00     0.000 C 
BRANCH   2   3
ATOM      3  C   UNL     1      -6.555  10.227 -10.045  1.00  0.00     0.000 C 
BRANCH   3   4
ATOM      4  C   UNL     1      -6.416   9.645  -8.630  1.00  0.00     0.000 C 
BRANCH   4   5
ATOM      5  C   UNL     1      -6.100   8.142  -8.635  1.00  0.00     0.006 C 
BRANCH   5   6
ATOM      6  C   UNL     1      -6.460   7.511  -9.984  1.00  0.00     0.053 C 
BRANCH   6   7
ATOM      7  C   UNL     1      -5.230   7.016 -10.677  1.00  0.00     0.041 C 
ATOM      8  O   UNL     1      -5.328   6.291 -11.702  1.00  0.00    -0.550 OA
ATOM      9  O   UNL     1      -3.975   7.397 -10.221  1.00  0.00    -0.550 OA
ENDBRANCH   6   7
ENDBRANCH   5   6
ENDBRANCH   4   5
ENDBRANCH   3   4
ENDBRANCH   2   3
ENDBRANCH   1   2
BRANCH   1  10
ATOM     10  C   UNL     1      -2.938  11.302  -9.564  1.00  0.00     0.000 C 
BRANCH  10  11
ATOM     11  C   UNL     1      -2.095  11.971  -8.465  1.00  0.00    -0.000 C 
BRANCH  11  12
ATOM     12  C   UNL     1      -1.146  10.986  -7.757  1.00  0.00    -0.000 C 
BRANCH  12  13
ATOM     13  C   UNL     1       0.356  11.243  -7.988  1.00  0.00    -0.000 C 
BRANCH  13  14
ATOM     14  C   UNL     1       1.225   9.976  -8.126  1.00  0.00    -0.000 C 
BRANCH  14  15
ATOM     15  C   UNL     1       2.742  10.234  -8.143  1.00  0.00    -0.003 C 
ATOM     16  C   UNL     1       3.422   9.700  -9.403  1.00  0.00     0.004 C 
ENDBRANCH  14  15
ENDBRANCH  13  14
ENDBRANCH  12  13
ENDBRANCH  11  12
ENDBRANCH  10  11
ENDBRANCH   1  10
TORSDOF 12
ENDMDL
MODEL 4
REMARK VINA RESULT:    -4.707      0.942      1.645
REMARK INTER + INTRA:          -9.417
REMARK INTER:                  -8.190
REMARK INTRA:                  -1.227
REMARK UNBOUND:                -1.408
REMARK SMILES CCCCCCCCCCCCCC(=O)[O-]
REMARK SMILES IDX 8 1 9 2 10 3 11 4 12 5 13 6 14 7 15 8 16 9 7 10 6 11 5 12
REMARK SMILES IDX 4 13 3 14 2 15 1 16
REMARK H PARENT
REMARK Flexibility Score: inf
ROOT
ATOM      1  C   UNL     1      -4.613  13.041  -7.399  1.00  0.00     0.000 C 
ENDROOT
BRANCH   1   2
ATOM      2  C   UNL     1      -3.457  12.035  -7.298  1.00  0.00     0.000 C 
BRANCH   2   3
ATOM      3  C   UNL     1      -2.387  12.321  -8.363  1.00  0.00     0.000 C 
BRANCH   3   4
ATOM      4  C   UNL     1      -1.384  11.168  -8.522  1.00  0.00     0.000 C 
BRANCH   4   5
ATOM      5  C   UNL     1      -0.373  11.098  -7.368  1.00  0.00     0.006 C 
BRANCH   5   6
ATOM      6  C   UNL     1       0.980  11.681  -7.788  1.00  0.00     0.053 C 
BRANCH   6   7
ATOM      7  C   UNL     1       1.995  10.592  -7.939  1.00  0.00     0.041 C 
ATOM      8  O   UNL     1       1.743   9.585  -8.651  1.00  0.00    -0.550 OA
ATOM      9  O   UNL     1       3.239  10.714  -7.334  1.00  0.00    -0.550 OA
ENDBRANCH   6   7
ENDBRANCH   5   6
ENDBRANCH   4   5
ENDBRANCH   3   4
ENDBRANCH   2   3
ENDBRANCH   1   2
BRANCH   1  10
ATOM     10  C   UNL     1      -5.298  13.025  -8.775  1.00  0.00     0.000 C 
BRANCH  10  11
ATOM     11  C   UNL     1      -6.352  11.911  -8.896  1.00  0.00    -0.000 C 
BRANCH  11  12
ATOM     12  C   UNL     1      -6.216  11.099 -10.197  1.00  0.00    -0.000 C 
BRANCH  12  13
ATOM     13  C   UNL     1      -4.816  10.509 -10.458  1.00  0.00    -0.000 C 
BRANCH  13  14
ATOM     14  C   UNL     1      -4.438   9.302  -9.575  1.00  0.00    -0.000 C 
BRANCH  14  15
ATOM     15  C   UNL     1      -4.049   8.031 -10.352  1.00  0.00    -0.003 C 
ATOM     16  C   UNL     1      -5.261   7.234 -10.832  1.00  0.00     0.004 C 
ENDBRANCH  14  15
ENDBRANCH  13  14
ENDBRANCH  12  13
ENDBRANCH  11  12
ENDBRANCH  10  11
ENDBRANCH   1  10
TORSDOF 12
ENDMDL
MODEL 5
REMARK VINA RESULT:    -4.607      1.158      2.222
REMARK INTER + INTRA:          -9.246
REMARK INTER:                  -7.535
REMARK INTRA:                  -1.711
REMARK UNBOUND:                -1.408
REMARK SMILES CCCCCCCCCCCCCC(=O)[O-]
REMARK SMILES IDX 8 1 9 2 10 3 11 4 12 5 13 6 14 7 15 8 16 9 7 10 6 11 5 12
REMARK SMILES IDX 4 13 3 14 2 15 1 16
REMARK H PARENT
REMARK Flexibility Score: inf
ROOT
ATOM      1  C   UNL     1      -3.039  12.282  -6.016  1.00  0.00     0.000 C 
ENDROOT
BRANCH   1   2
ATOM      2  C   UNL     1      -2.465  10.979  -5.442  1.00  0.00     0.000 C 
BRANCH   2   3
ATOM      3  C   UNL     1      -1.092  10.667  -6.058  1.00  0.00     0.000 C 
BRANCH   3   4
ATOM      4  C   UNL     1      -0.267  11.933  -6.340  1.00  0.00     0.000 C 
BRANCH   4   5
ATOM      5  C   UNL     1       0.433  11.892  -7.706  1.00  0.00     0.006 C 
BRANCH   5   6
ATOM      6  C   UNL     1       0.758  10.451  -8.112  1.00  0.00     0.053 C 
BRANCH   6   7
ATOM      7  C   UNL     1       2.238  10.233  -8.135  1.00  0.00     0.041 C 
ATOM      8  O   UNL     1       2.772   9.609  -9.089  1.00  0.00    -0.550 OA
ATOM      9  O   UNL     1       3.034  10.761  -7.126  1.00  0.00    -0.550 OA
ENDBRANCH   6   7
ENDBRANCH   5   6
ENDBRANCH   4   5
ENDBRANCH   3   4
ENDBRANCH   2   3
ENDBRANCH   1   2
BRANCH   1  10
ATOM     10  C   UNL     1      -4.073  12.039  -7.127  1.00  0.00     0.000 C 
BRANCH  10  11
ATOM     11  C   UNL     1      -3.607  12.566  -8.494  1.00  0.00    -0.000 C 
BRANCH  11  12
ATOM     12  C   UNL     1      -2.774  11.536  -9.279  1.00  0.00    -0.000 C 
BRANCH  12  13
ATOM     13  C   UNL     1      -3.355  10.108  -9.307  1.00  0.00    -0.000 C 
BRANCH  13  14
ATOM     14  C   UNL     1      -4.339   9.823 -10.460  1.00  0.00    -0.000 C 
BRANCH  14  15
ATOM     15  C   UNL     1      -5.820   9.780 -10.048  1.00  0.00    -0.003 C 
ATOM     16  C   UNL     1      -6.591  11.031 -10.467  1.00  0.00     0.004 C 
ENDBRANCH  14  15
ENDBRANCH  13  14
ENDBRANCH  12  13
ENDBRANCH  11  12
ENDBRANCH  10  11
ENDBRANCH   1  10
TORSDOF 12
ENDMDL
MODEL 6
REMARK VINA RESULT:    -4.534      3.282      6.378
REMARK INTER + INTRA:          -9.122
REMARK INTER:                  -7.961
REMARK INTRA:                  -1.162
REMARK UNBOUND:                -1.408
REMARK SMILES CCCCCCCCCCCCCC(=O)[O-]
REMARK SMILES IDX 8 1 9 2 10 3 11 4 12 5 13 6 14 7 15 8 16 9 7 10 6 11 5 12
REMARK SMILES IDX 4 13 3 14 2 15 1 16
REMARK H PARENT
REMARK Flexibility Score: inf
ROOT
ATOM      1  C   UNL     1      -2.959  11.698  -6.841  1.00  0.00     0.000 C 
ENDROOT
BRANCH   1   2
ATOM      2  C   UNL     1      -2.583  10.786  -8.018  1.00  0.00     0.000 C 
BRANCH   2   3
ATOM      3  C   UNL     1      -2.993  11.421  -9.355  1.00  0.00     0.000 C 
BRANCH   3   4
ATOM      4  C   UNL     1      -4.518  11.490  -9.537  1.00  0.00     0.000 C 
BRANCH   4   5
ATOM      5  C   UNL     1      -5.017  10.614 -10.695  1.00  0.00     0.006 C 
BRANCH   5   6
ATOM      6  C   UNL     1      -5.715   9.355 -10.169  1.00  0.00     0.053 C 
BRANCH   6   7
ATOM      7  C   UNL     1      -4.943   8.131 -10.547  1.00  0.00     0.041 C 
ATOM      8  O   UNL     1      -3.718   8.042 -10.269  1.00  0.00    -0.550 OA
ATOM      9  O   UNL     1      -5.588   7.065 -11.162  1.00  0.00    -0.550 OA
ENDBRANCH   6   7
ENDBRANCH   5   6
ENDBRANCH   4   5
ENDBRANCH   3   4
ENDBRANCH   2   3
ENDBRANCH   1   2
BRANCH   1  10
ATOM     10  C   UNL     1      -2.478  13.146  -7.033  1.00  0.00     0.000 C 
BRANCH  10  11
ATOM     11  C   UNL     1      -0.950  13.280  -6.923  1.00  0.00    -0.000 C 
BRANCH  11  12
ATOM     12  C   UNL     1      -0.358  12.438  -5.777  1.00  0.00    -0.000 C 
BRANCH  12  13
ATOM     13  C   UNL     1       0.800  11.504  -6.181  1.00  0.00    -0.000 C 
BRANCH  13  14
ATOM     14  C   UNL     1       1.039  11.373  -7.699  1.00  0.00    -0.000 C 
BRANCH  14  15
ATOM     15  C   UNL     1       1.487   9.976  -8.163  1.00  0.00    -0.003 C 
ATOM     16  C   UNL     1       2.889   9.973  -8.771  1.00  0.00     0.004 C 
ENDBRANCH  14  15
ENDBRANCH  13  14
ENDBRANCH  12  13
ENDBRANCH  11  12
ENDBRANCH  10  11
ENDBRANCH   1  10
TORSDOF 12
ENDMDL
MODEL 7
REMARK VINA RESULT:    -4.517      1.797      2.547
REMARK INTER + INTRA:          -9.093
REMARK INTER:                  -8.367
REMARK INTRA:                  -0.726
REMARK UNBOUND:                -1.408
REMARK SMILES CCCCCCCCCCCCCC(=O)[O-]
REMARK SMILES IDX 8 1 9 2 10 3 11 4 12 5 13 6 14 7 15 8 16 9 7 10 6 11 5 12
REMARK SMILES IDX 4 13 3 14 2 15 1 16
REMARK H PARENT
REMARK Flexibility Score: inf
ROOT
ATOM      1  C   UNL     1      -2.744  11.486  -9.251  1.00  0.00     0.000 C 
ENDROOT
BRANCH   1   2
ATOM      2  C   UNL     1      -3.055  11.422  -7.749  1.00  0.00     0.000 C 
BRANCH   2   3
ATOM      3  C   UNL     1      -1.800  11.731  -6.917  1.00  0.00     0.000 C 
BRANCH   3   4
ATOM      4  C   UNL     1      -0.647  12.288  -7.767  1.00  0.00     0.000 C 
BRANCH   4   5
ATOM      5  C   UNL     1       0.732  11.846  -7.256  1.00  0.00     0.006 C 
BRANCH   5   6
ATOM      6  C   UNL     1       1.024  10.395  -7.650  1.00  0.00     0.053 C 
BRANCH   6   7
ATOM      7  C   UNL     1       2.454  10.240  -8.062  1.00  0.00     0.041 C 
ATOM      8  O   UNL     1       3.377  10.654  -7.312  1.00  0.00    -0.550 OA
ATOM      9  O   UNL     1       2.770   9.594  -9.249  1.00  0.00    -0.550 OA
ENDBRANCH   6   7
ENDBRANCH   5   6
ENDBRANCH   4   5
ENDBRANCH   3   4
ENDBRANCH   2   3
ENDBRANCH   1   2
BRANCH   1  10
ATOM     10  C   UNL     1      -3.729  10.663 -10.098  1.00  0.00     0.000 C 
BRANCH  10  11
ATOM     11  C   UNL     1      -4.123   9.338  -9.424  1.00  0.00    -0.000 C 
BRANCH  11  12
ATOM     12  C   UNL     1      -5.647   9.179  -9.266  1.00  0.00    -0.000 C 
BRANCH  12  13
ATOM     13  C   UNL     1      -6.261   7.978 -10.012  1.00  0.00    -0.000 C 
BRANCH  13  14
ATOM     14  C   UNL     1      -5.285   7.199 -10.917  1.00  0.00    -0.000 C 
BRANCH  14  15
ATOM     15  C   UNL     1      -5.835   5.870 -11.463  1.00  0.00    -0.003 C 
ATOM     16  C   UNL     1      -7.112   5.419 -10.757  1.00  0.00     0.004 C 
ENDBRANCH  14  15
ENDBRANCH  13  14
ENDBRANCH  12  13
ENDBRANCH  11  12
ENDBRANCH  10  11
ENDBRANCH   1  10
TORSDOF 12
ENDMDL
MODEL 8
REMARK VINA RESULT:    -4.398      1.179      2.909
REMARK INTER + INTRA:          -8.892
REMARK INTER:                  -7.512
REMARK INTRA:                  -1.380
REMARK UNBOUND:                -1.408
REMARK SMILES CCCCCCCCCCCCCC(=O)[O-]
REMARK SMILES IDX 8 1 9 2 10 3 11 4 12 5 13 6 14 7 15 8 16 9 7 10 6 11 5 12
REMARK SMILES IDX 4 13 3 14 2 15 1 16
REMARK H PARENT
REMARK Flexibility Score: inf
ROOT
ATOM      1  C   UNL     1      -4.038  10.226  -9.236  1.00  0.00     0.000 C 
ENDROOT
BRANCH   1   2
ATOM      2  C   UNL     1      -2.732  11.014  -9.418  1.00  0.00     0.000 C 
BRANCH   2   3
ATOM      3  C   UNL     1      -2.717  12.262  -8.521  1.00  0.00     0.000 C 
BRANCH   3   4
ATOM      4  C   UNL     1      -1.307  12.619  -8.025  1.00  0.00     0.000 C 
BRANCH   4   5
ATOM      5  C   UNL     1      -0.428  11.381  -7.797  1.00  0.00     0.006 C 
BRANCH   5   6
ATOM      6  C   UNL     1       1.037  11.779  -7.588  1.00  0.00     0.053 C 
BRANCH   6   7
ATOM      7  C   UNL     1       1.937  10.604  -7.804  1.00  0.00     0.041 C 
ATOM      8  O   UNL     1       1.544   9.623  -8.490  1.00  0.00    -0.550 OA
ATOM      9  O   UNL     1       3.227  10.612  -7.291  1.00  0.00    -0.550 OA
ENDBRANCH   6   7
ENDBRANCH   5   6
ENDBRANCH   4   5
ENDBRANCH   3   4
ENDBRANCH   2   3
ENDBRANCH   1   2
BRANCH   1  10
ATOM     10  C   UNL     1      -4.891  10.185 -10.515  1.00  0.00     0.000 C 
BRANCH  10  11
ATOM     11  C   UNL     1      -6.159  11.047 -10.406  1.00  0.00    -0.000 C 
BRANCH  11  12
ATOM     12  C   UNL     1      -6.531  11.381  -8.950  1.00  0.00    -0.000 C 
BRANCH  12  13
ATOM     13  C   UNL     1      -6.489  12.880  -8.590  1.00  0.00    -0.000 C 
BRANCH  13  14
ATOM     14  C   UNL     1      -6.063  13.196  -7.142  1.00  0.00    -0.000 C 
BRANCH  14  15
ATOM     15  C   UNL     1      -5.744  11.961  -6.280  1.00  0.00    -0.003 C 
ATOM     16  C   UNL     1      -4.534  12.167  -5.370  1.00  0.00     0.004 C 
ENDBRANCH  14  15
ENDBRANCH  13  14
ENDBRANCH  12  13
ENDBRANCH  11  12
ENDBRANCH  10  11
ENDBRANCH   1  10
TORSDOF 12
ENDMDL
MODEL 9
REMARK VINA RESULT:    -4.372      3.398      6.502
REMARK INTER + INTRA:          -8.846
REMARK INTER:                  -7.769
REMARK INTRA:                  -1.077
REMARK UNBOUND:                -1.408
REMARK SMILES CCCCCCCCCCCCCC(=O)[O-]
REMARK SMILES IDX 8 1 9 2 10 3 11 4 12 5 13 6 14 7 15 8 16 9 7 10 6 11 5 12
REMARK SMILES IDX 4 13 3 14 2 15 1 16
REMARK H PARENT
REMARK Flexibility Score: inf
ROOT
ATOM      1  C   UNL     1      -1.539  12.901  -6.504  1.00  0.00     0.000 C 
ENDROOT
BRANCH   1   2
ATOM      2  C   UNL     1      -2.364  11.952  -5.623  1.00  0.00     0.000 C 
BRANCH   2   3
ATOM      3  C   UNL     1      -2.840  10.732  -6.428  1.00  0.00     0.000 C 
BRANCH   3   4
ATOM      4  C   UNL     1      -3.569  11.124  -7.722  1.00  0.00     0.000 C 
BRANCH   4   5
ATOM      5  C   UNL     1      -2.867  10.594  -8.981  1.00  0.00     0.006 C 
BRANCH   5   6
ATOM      6  C   UNL     1      -3.770  10.733 -10.212  1.00  0.00     0.053 C 
BRANCH   6   7
ATOM      7  C   UNL     1      -4.575   9.488 -10.414  1.00  0.00     0.041 C 
ATOM      8  O   UNL     1      -4.000   8.393 -10.652  1.00  0.00    -0.550 OA
ATOM      9  O   UNL     1      -5.957   9.527 -10.291  1.00  0.00    -0.550 OA
ENDBRANCH   6   7
ENDBRANCH   5   6
ENDBRANCH   4   5
ENDBRANCH   3   4
ENDBRANCH   2   3
ENDBRANCH   1   2
BRANCH   1  10
ATOM     10  C   UNL     1      -0.299  13.454  -5.784  1.00  0.00     0.000 C 
BRANCH  10  11
ATOM     11  C   UNL     1       0.965  12.622  -6.061  1.00  0.00    -0.000 C 
BRANCH  11  12
ATOM     12  C   UNL     1       0.907  11.881  -7.410  1.00  0.00    -0.000 C 
BRANCH  12  13
ATOM     13  C   UNL     1       0.924  10.343  -7.314  1.00  0.00    -0.000 C 
BRANCH  13  14
ATOM     14  C   UNL     1       1.707   9.624  -8.432  1.00  0.00    -0.000 C 
BRANCH  14  15
ATOM     15  C   UNL     1       3.125  10.169  -8.678  1.00  0.00    -0.003 C 
ATOM     16  C   UNL     1       3.767   9.605  -9.945  1.00  0.00     0.004 C 
ENDBRANCH  14  15
ENDBRANCH  13  14
ENDBRANCH  12  13
ENDBRANCH  11  12
ENDBRANCH  10  11
ENDBRANCH   1  10
TORSDOF 12
ENDMDL
