MODEL 1
REMARK VINA RESULT:    -7.659      0.000      0.000
REMARK INTER + INTRA:          -9.291
REMARK INTER:                  -9.002
REMARK INTRA:                  -0.289
REMARK UNBOUND:                -0.289
REMARK SMILES O=c1cc(-c2ccc(O)c(O)c2)oc2cc(O)cc(O)c12
REMARK SMILES IDX 4 1 3 2 2 3 1 4 21 5 19 6 18 7 16 8 15 9 14 10 13 11 5 12
REMARK SMILES IDX 6 13 7 14 8 15 12 16 10 17 9 18 11 20 20 22 17 24
REMARK H PARENT 9 19 11 21 20 23 17 25
REMARK Flexibility Score: inf
ROOT
ATOM      1  C   UNL     1      28.062 -40.722   2.912  1.00  0.00     0.138 A 
ATOM      2  C   UNL     1      29.325 -41.257   2.607  1.00  0.00     0.100 A 
ATOM      3  C   UNL     1      30.243 -41.482   3.635  1.00  0.00     0.197 A 
ATOM      4  O   UNL     1      31.372 -41.963   3.350  1.00  0.00    -0.289 OA
ATOM      5  C   UNL     1      29.888 -41.173   4.963  1.00  0.00     0.107 A 
ATOM      6  C   UNL     1      30.759 -41.368   6.062  1.00  0.00     0.134 A 
ATOM      7  C   UNL     1      30.327 -41.041   7.357  1.00  0.00     0.093 A 
ATOM      8  C   UNL     1      29.048 -40.523   7.572  1.00  0.00     0.123 A 
ATOM      9  C   UNL     1      28.183 -40.328   6.489  1.00  0.00     0.094 A 
ATOM     10  C   UNL     1      28.594 -40.648   5.191  1.00  0.00     0.146 A 
ATOM     11  O   UNL     1      27.756 -40.452   4.179  1.00  0.00    -0.456 OA
ENDROOT
BRANCH   1  12
ATOM     12  C   UNL     1      27.046 -40.465   1.861  1.00  0.00     0.021 A 
ATOM     13  C   UNL     1      26.089 -39.455   2.059  1.00  0.00     0.016 A 
ATOM     14  C   UNL     1      25.127 -39.187   1.082  1.00  0.00     0.051 A 
ATOM     15  C   UNL     1      25.111 -39.917  -0.114  1.00  0.00     0.157 A 
ATOM     16  C   UNL     1      27.033 -41.186   0.650  1.00  0.00     0.062 A 
ATOM     17  C   UNL     1      26.068 -40.915  -0.330  1.00  0.00     0.158 A 
BRANCH  15  18
ATOM     18  O   UNL     1      24.152 -39.653  -1.090  1.00  0.00    -0.504 OA
ATOM     19  H   UNL     1      24.009 -38.719  -1.453  1.00  0.00     0.293 HD
ENDBRANCH  15  18
BRANCH  17  20
ATOM     20  O   UNL     1      26.056 -41.633  -1.526  1.00  0.00    -0.504 OA
ATOM     21  H   UNL     1      25.429 -42.416  -1.668  1.00  0.00     0.293 HD
ENDBRANCH  17  20
ENDBRANCH   1  12
BRANCH   6  22
ATOM     22  O   UNL     1      32.042 -41.883   5.878  1.00  0.00    -0.507 OA
ATOM     23  H   UNL     1      32.195 -42.817   5.515  1.00  0.00     0.293 HD
ENDBRANCH   6  22
BRANCH   8  24
ATOM     24  O   UNL     1      28.644 -40.206   8.867  1.00  0.00    -0.508 OA
ATOM     25  H   UNL     1      29.045 -40.667   9.675  1.00  0.00     0.293 HD
ENDBRANCH   8  24
TORSDOF 5
ENDMDL
MODEL 2
REMARK VINA RESULT:    -7.568      0.605      1.483
REMARK INTER + INTRA:          -9.184
REMARK INTER:                  -8.877
REMARK INTRA:                  -0.307
REMARK UNBOUND:                -0.289
REMARK SMILES O=c1cc(-c2ccc(O)c(O)c2)oc2cc(O)cc(O)c12
REMARK SMILES IDX 4 1 3 2 2 3 1 4 21 5 19 6 18 7 16 8 15 9 14 10 13 11 5 12
REMARK SMILES IDX 6 13 7 14 8 15 12 16 10 17 9 18 11 20 20 22 17 24
REMARK H PARENT 9 19 11 21 20 23 17 25
REMARK Flexibility Score: inf
ROOT
ATOM      1  C   UNL     1      28.148 -40.715   2.981  1.00  0.00     0.138 A 
ATOM      2  C   UNL     1      29.413 -41.243   2.677  1.00  0.00     0.100 A 
ATOM      3  C   UNL     1      30.326 -41.480   3.707  1.00  0.00     0.197 A 
ATOM      4  O   UNL     1      31.458 -41.955   3.423  1.00  0.00    -0.289 OA
ATOM      5  C   UNL     1      29.963 -41.187   5.037  1.00  0.00     0.107 A 
ATOM      6  C   UNL     1      30.827 -41.395   6.138  1.00  0.00     0.134 A 
ATOM      7  C   UNL     1      30.388 -41.084   7.434  1.00  0.00     0.093 A 
ATOM      8  C   UNL     1      29.106 -40.571   7.648  1.00  0.00     0.123 A 
ATOM      9  C   UNL     1      28.248 -40.365   6.563  1.00  0.00     0.094 A 
ATOM     10  C   UNL     1      28.667 -40.667   5.264  1.00  0.00     0.146 A 
ATOM     11  O   UNL     1      27.834 -40.460   4.250  1.00  0.00    -0.456 OA
ENDROOT
BRANCH   1  12
ATOM     12  C   UNL     1      27.138 -40.446   1.928  1.00  0.00     0.021 A 
ATOM     13  C   UNL     1      27.147 -41.212   0.749  1.00  0.00     0.016 A 
ATOM     14  C   UNL     1      26.202 -40.984  -0.254  1.00  0.00     0.051 A 
ATOM     15  C   UNL     1      25.225 -39.993  -0.092  1.00  0.00     0.157 A 
ATOM     16  C   UNL     1      26.143 -39.460   2.089  1.00  0.00     0.062 A 
ATOM     17  C   UNL     1      25.195 -39.233   1.082  1.00  0.00     0.158 A 
BRANCH  15  18
ATOM     18  O   UNL     1      24.282 -39.763  -1.092  1.00  0.00    -0.504 OA
ATOM     19  H   UNL     1      23.898 -38.840  -1.256  1.00  0.00     0.293 HD
ENDBRANCH  15  18
BRANCH  17  20
ATOM     20  O   UNL     1      24.214 -38.255   1.244  1.00  0.00    -0.504 OA
ATOM     21  H   UNL     1      23.268 -38.493   1.517  1.00  0.00     0.293 HD
ENDBRANCH  17  20
ENDBRANCH   1  12
BRANCH   6  22
ATOM     22  O   UNL     1      32.113 -41.906   5.956  1.00  0.00    -0.507 OA
ATOM     23  H   UNL     1      32.822 -41.393   5.446  1.00  0.00     0.293 HD
ENDBRANCH   6  22
BRANCH   8  24
ATOM     24  O   UNL     1      28.695 -40.271   8.945  1.00  0.00    -0.508 OA
ATOM     25  H   UNL     1      29.362 -40.134   9.694  1.00  0.00     0.293 HD
ENDBRANCH   8  24
TORSDOF 5
ENDMDL
MODEL 3
REMARK VINA RESULT:    -7.120      1.240      2.754
REMARK INTER + INTRA:          -8.658
REMARK INTER:                  -8.358
REMARK INTRA:                  -0.300
REMARK UNBOUND:                -0.289
REMARK SMILES O=c1cc(-c2ccc(O)c(O)c2)oc2cc(O)cc(O)c12
REMARK SMILES IDX 4 1 3 2 2 3 1 4 21 5 19 6 18 7 16 8 15 9 14 10 13 11 5 12
REMARK SMILES IDX 6 13 7 14 8 15 12 16 10 17 9 18 11 20 20 22 17 24
REMARK H PARENT 9 19 11 21 20 23 17 25
REMARK Flexibility Score: inf
ROOT
ATOM      1  C   UNL     1      27.954 -40.772   3.055  1.00  0.00     0.138 A 
ATOM      2  C   UNL     1      27.558 -40.708   4.400  1.00  0.00     0.100 A 
ATOM      3  C   UNL     1      28.496 -40.947   5.406  1.00  0.00     0.197 A 
ATOM      4  O   UNL     1      28.131 -40.886   6.610  1.00  0.00    -0.289 OA
ATOM      5  C   UNL     1      29.828 -41.247   5.056  1.00  0.00     0.107 A 
ATOM      6  C   UNL     1      30.840 -41.504   6.011  1.00  0.00     0.134 A 
ATOM      7  C   UNL     1      32.146 -41.788   5.581  1.00  0.00     0.093 A 
ATOM      8  C   UNL     1      32.456 -41.821   4.220  1.00  0.00     0.123 A 
ATOM      9  C   UNL     1      31.459 -41.567   3.271  1.00  0.00     0.094 A 
ATOM     10  C   UNL     1      30.153 -41.282   3.679  1.00  0.00     0.146 A 
ATOM     11  O   UNL     1      29.223 -41.047   2.759  1.00  0.00    -0.456 OA
ENDROOT
BRANCH   1  12
ATOM     12  C   UNL     1      27.001 -40.524   1.944  1.00  0.00     0.021 A 
ATOM     13  C   UNL     1      26.016 -39.531   2.088  1.00  0.00     0.016 A 
ATOM     14  C   UNL     1      25.112 -39.273   1.055  1.00  0.00     0.051 A 
ATOM     15  C   UNL     1      25.182 -39.995  -0.143  1.00  0.00     0.157 A 
ATOM     16  C   UNL     1      27.074 -41.237   0.731  1.00  0.00     0.062 A 
ATOM     17  C   UNL     1      26.167 -40.976  -0.305  1.00  0.00     0.158 A 
BRANCH  15  18
ATOM     18  O   UNL     1      24.281 -39.740  -1.175  1.00  0.00    -0.504 OA
ATOM     19  H   UNL     1      24.571 -39.287  -2.033  1.00  0.00     0.293 HD
ENDBRANCH  15  18
BRANCH  17  20
ATOM     20  O   UNL     1      26.241 -41.686  -1.504  1.00  0.00    -0.504 OA
ATOM     21  H   UNL     1      26.032 -42.676  -1.547  1.00  0.00     0.293 HD
ENDBRANCH  17  20
ENDBRANCH   1  12
BRANCH   6  22
ATOM     22  O   UNL     1      30.561 -41.478   7.378  1.00  0.00    -0.507 OA
ATOM     23  H   UNL     1      31.192 -41.883   8.058  1.00  0.00     0.293 HD
ENDBRANCH   6  22
BRANCH   8  24
ATOM     24  O   UNL     1      33.760 -42.107   3.819  1.00  0.00    -0.508 OA
ATOM     25  H   UNL     1      34.558 -41.681   4.273  1.00  0.00     0.293 HD
ENDBRANCH   8  24
TORSDOF 5
ENDMDL
MODEL 4
REMARK VINA RESULT:    -6.974      1.486      7.088
REMARK INTER + INTRA:          -8.486
REMARK INTER:                  -8.169
REMARK INTRA:                  -0.316
REMARK UNBOUND:                -0.289
REMARK SMILES O=c1cc(-c2ccc(O)c(O)c2)oc2cc(O)cc(O)c12
REMARK SMILES IDX 4 1 3 2 2 3 1 4 21 5 19 6 18 7 16 8 15 9 14 10 13 11 5 12
REMARK SMILES IDX 6 13 7 14 8 15 12 16 10 17 9 18 11 20 20 22 17 24
REMARK H PARENT 9 19 11 21 20 23 17 25
REMARK Flexibility Score: inf
ROOT
ATOM      1  C   UNL     1      27.485 -40.561   1.998  1.00  0.00     0.138 A 
ATOM      2  C   UNL     1      27.394 -41.153   0.728  1.00  0.00     0.100 A 
ATOM      3  C   UNL     1      26.330 -40.820  -0.112  1.00  0.00     0.197 A 
ATOM      4  O   UNL     1      26.259 -41.356  -1.250  1.00  0.00    -0.289 OA
ATOM      5  C   UNL     1      25.363 -39.893   0.327  1.00  0.00     0.107 A 
ATOM      6  C   UNL     1      24.254 -39.502  -0.460  1.00  0.00     0.134 A 
ATOM      7  C   UNL     1      23.338 -38.567   0.047  1.00  0.00     0.093 A 
ATOM      8  C   UNL     1      23.510 -38.018   1.320  1.00  0.00     0.123 A 
ATOM      9  C   UNL     1      24.606 -38.401   2.102  1.00  0.00     0.094 A 
ATOM     10  C   UNL     1      25.529 -39.332   1.615  1.00  0.00     0.146 A 
ATOM     11  O   UNL     1      26.561 -39.681   2.377  1.00  0.00    -0.456 OA
ENDROOT
BRANCH   1  12
ATOM     12  C   UNL     1      28.595 -40.876   2.932  1.00  0.00     0.021 A 
ATOM     13  C   UNL     1      29.714 -41.585   2.461  1.00  0.00     0.016 A 
ATOM     14  C   UNL     1      30.776 -41.886   3.317  1.00  0.00     0.051 A 
ATOM     15  C   UNL     1      30.743 -41.475   4.656  1.00  0.00     0.157 A 
ATOM     16  C   UNL     1      28.576 -40.454   4.276  1.00  0.00     0.062 A 
ATOM     17  C   UNL     1      29.642 -40.756   5.134  1.00  0.00     0.158 A 
BRANCH  15  18
ATOM     18  O   UNL     1      31.801 -41.775   5.513  1.00  0.00    -0.504 OA
ATOM     19  H   UNL     1      32.740 -41.440   5.333  1.00  0.00     0.293 HD
ENDBRANCH  15  18
BRANCH  17  20
ATOM     20  O   UNL     1      29.618 -40.339   6.465  1.00  0.00    -0.504 OA
ATOM     21  H   UNL     1      30.353 -40.594   7.114  1.00  0.00     0.293 HD
ENDBRANCH  17  20
ENDBRANCH   1  12
BRANCH   6  22
ATOM     22  O   UNL     1      24.055 -40.032  -1.735  1.00  0.00    -0.507 OA
ATOM     23  H   UNL     1      23.709 -39.465  -2.500  1.00  0.00     0.293 HD
ENDBRANCH   6  22
BRANCH   8  24
ATOM     24  O   UNL     1      22.587 -37.092   1.800  1.00  0.00    -0.508 OA
ATOM     25  H   UNL     1      21.840 -36.737   1.215  1.00  0.00     0.293 HD
ENDBRANCH   8  24
TORSDOF 5
ENDMDL
MODEL 5
REMARK VINA RESULT:    -6.658      1.388      7.043
REMARK INTER + INTRA:          -8.115
REMARK INTER:                  -7.800
REMARK INTRA:                  -0.315
REMARK UNBOUND:                -0.289
REMARK SMILES O=c1cc(-c2ccc(O)c(O)c2)oc2cc(O)cc(O)c12
REMARK SMILES IDX 4 1 3 2 2 3 1 4 21 5 19 6 18 7 16 8 15 9 14 10 13 11 5 12
REMARK SMILES IDX 6 13 7 14 8 15 12 16 10 17 9 18 11 20 20 22 17 24
REMARK H PARENT 9 19 11 21 20 23 17 25
REMARK Flexibility Score: inf
ROOT
ATOM      1  C   UNL     1      27.720 -40.680   2.884  1.00  0.00     0.138 A 
ATOM      2  C   UNL     1      27.888 -41.466   1.733  1.00  0.00     0.100 A 
ATOM      3  C   UNL     1      27.016 -41.303   0.655  1.00  0.00     0.197 A 
ATOM      4  O   UNL     1      27.177 -42.013  -0.374  1.00  0.00    -0.289 OA
ATOM      5  C   UNL     1      25.981 -40.351   0.738  1.00  0.00     0.107 A 
ATOM      6  C   UNL     1      25.053 -40.124  -0.307  1.00  0.00     0.134 A 
ATOM      7  C   UNL     1      24.054 -39.151  -0.150  1.00  0.00     0.093 A 
ATOM      8  C   UNL     1      23.966 -38.404   1.028  1.00  0.00     0.123 A 
ATOM      9  C   UNL     1      24.881 -38.624   2.064  1.00  0.00     0.094 A 
ATOM     10  C   UNL     1      25.883 -39.590   1.927  1.00  0.00     0.146 A 
ATOM     11  O   UNL     1      26.739 -39.782   2.925  1.00  0.00    -0.456 OA
ENDROOT
BRANCH   1  12
ATOM     12  C   UNL     1      28.619 -40.809   4.059  1.00  0.00     0.021 A 
ATOM     13  C   UNL     1      29.854 -41.465   3.915  1.00  0.00     0.016 A 
ATOM     14  C   UNL     1      30.721 -41.592   5.003  1.00  0.00     0.051 A 
ATOM     15  C   UNL     1      30.374 -41.056   6.250  1.00  0.00     0.157 A 
ATOM     16  C   UNL     1      28.283 -40.261   5.313  1.00  0.00     0.062 A 
ATOM     17  C   UNL     1      29.155 -40.388   6.403  1.00  0.00     0.158 A 
BRANCH  15  18
ATOM     18  O   UNL     1      31.237 -41.183   7.338  1.00  0.00    -0.504 OA
ATOM     19  H   UNL     1      31.533 -40.377   7.875  1.00  0.00     0.293 HD
ENDBRANCH  15  18
BRANCH  17  20
ATOM     20  O   UNL     1      28.817 -39.847   7.643  1.00  0.00    -0.504 OA
ATOM     21  H   UNL     1      28.036 -39.209   7.749  1.00  0.00     0.293 HD
ENDBRANCH  17  20
ENDBRANCH   1  12
BRANCH   6  22
ATOM     22  O   UNL     1      25.116 -40.853  -1.494  1.00  0.00    -0.507 OA
ATOM     23  H   UNL     1      24.358 -41.455  -1.791  1.00  0.00     0.293 HD
ENDBRANCH   6  22
BRANCH   8  24
ATOM     24  O   UNL     1      22.964 -37.445   1.159  1.00  0.00    -0.508 OA
ATOM     25  H   UNL     1      23.111 -36.483   0.877  1.00  0.00     0.293 HD
ENDBRANCH   8  24
TORSDOF 5
ENDMDL
MODEL 6
REMARK VINA RESULT:    -6.609      1.775      2.938
REMARK INTER + INTRA:          -8.057
REMARK INTER:                  -7.761
REMARK INTRA:                  -0.296
REMARK UNBOUND:                -0.289
REMARK SMILES O=c1cc(-c2ccc(O)c(O)c2)oc2cc(O)cc(O)c12
REMARK SMILES IDX 4 1 3 2 2 3 1 4 21 5 19 6 18 7 16 8 15 9 14 10 13 11 5 12
REMARK SMILES IDX 6 13 7 14 8 15 12 16 10 17 9 18 11 20 20 22 17 24
REMARK H PARENT 9 19 11 21 20 23 17 25
REMARK Flexibility Score: inf
ROOT
ATOM      1  C   UNL     1      28.986 -40.918   4.893  1.00  0.00     0.138 A 
ATOM      2  C   UNL     1      30.224 -41.385   5.361  1.00  0.00     0.100 A 
ATOM      3  C   UNL     1      30.521 -41.301   6.723  1.00  0.00     0.197 A 
ATOM      4  O   UNL     1      31.635 -41.724   7.133  1.00  0.00    -0.289 OA
ATOM      5  C   UNL     1      29.572 -40.751   7.608  1.00  0.00     0.107 A 
ATOM      6  C   UNL     1      29.792 -40.627   9.000  1.00  0.00     0.134 A 
ATOM      7  C   UNL     1      28.793 -40.074   9.816  1.00  0.00     0.093 A 
ATOM      8  C   UNL     1      27.583 -39.644   9.266  1.00  0.00     0.123 A 
ATOM      9  C   UNL     1      27.359 -39.765   7.891  1.00  0.00     0.094 A 
ATOM     10  C   UNL     1      28.342 -40.312   7.061  1.00  0.00     0.146 A 
ATOM     11  O   UNL     1      28.107 -40.415   5.757  1.00  0.00    -0.456 OA
ENDROOT
BRANCH   1  12
ATOM     12  C   UNL     1      28.616 -40.985   3.457  1.00  0.00     0.021 A 
ATOM     13  C   UNL     1      27.289 -40.725   3.072  1.00  0.00     0.016 A 
ATOM     14  C   UNL     1      26.917 -40.774   1.726  1.00  0.00     0.051 A 
ATOM     15  C   UNL     1      27.866 -41.073   0.741  1.00  0.00     0.157 A 
ATOM     16  C   UNL     1      29.568 -41.272   2.458  1.00  0.00     0.062 A 
ATOM     17  C   UNL     1      29.194 -41.319   1.108  1.00  0.00     0.158 A 
BRANCH  15  18
ATOM     18  O   UNL     1      27.498 -41.124  -0.602  1.00  0.00    -0.504 OA
ATOM     19  H   UNL     1      28.000 -40.601  -1.310  1.00  0.00     0.293 HD
ENDBRANCH  15  18
BRANCH  17  20
ATOM     20  O   UNL     1      30.139 -41.606   0.124  1.00  0.00    -0.504 OA
ATOM     21  H   UNL     1      30.353 -42.559  -0.144  1.00  0.00     0.293 HD
ENDBRANCH  17  20
ENDBRANCH   1  12
BRANCH   6  22
ATOM     22  O   UNL     1      30.991 -41.048   9.577  1.00  0.00    -0.507 OA
ATOM     23  H   UNL     1      31.045 -41.889  10.139  1.00  0.00     0.293 HD
ENDBRANCH   6  22
BRANCH   8  24
ATOM     24  O   UNL     1      26.607 -39.098  10.098  1.00  0.00    -0.508 OA
ATOM     25  H   UNL     1      26.620 -38.120  10.358  1.00  0.00     0.293 HD
ENDBRANCH   8  24
TORSDOF 5
ENDMDL
MODEL 7
REMARK VINA RESULT:    -6.430      2.593      5.074
REMARK INTER + INTRA:          -7.847
REMARK INTER:                  -7.544
REMARK INTRA:                  -0.304
REMARK UNBOUND:                -0.289
REMARK SMILES O=c1cc(-c2ccc(O)c(O)c2)oc2cc(O)cc(O)c12
REMARK SMILES IDX 4 1 3 2 2 3 1 4 21 5 19 6 18 7 16 8 15 9 14 10 13 11 5 12
REMARK SMILES IDX 6 13 7 14 8 15 12 16 10 17 9 18 11 20 20 22 17 24
REMARK H PARENT 9 19 11 21 20 23 17 25
REMARK Flexibility Score: inf
ROOT
ATOM      1  C   UNL     1      25.921 -40.860  -0.742  1.00  0.00     0.138 A 
ATOM      2  C   UNL     1      25.191 -40.187   0.251  1.00  0.00     0.100 A 
ATOM      3  C   UNL     1      25.745 -40.027   1.522  1.00  0.00     0.197 A 
ATOM      4  O   UNL     1      25.082 -39.420   2.405  1.00  0.00    -0.289 OA
ATOM      5  C   UNL     1      27.029 -40.540   1.790  1.00  0.00     0.107 A 
ATOM      6  C   UNL     1      27.663 -40.422   3.050  1.00  0.00     0.134 A 
ATOM      7  C   UNL     1      28.948 -40.955   3.234  1.00  0.00     0.093 A 
ATOM      8  C   UNL     1      29.608 -41.602   2.186  1.00  0.00     0.123 A 
ATOM      9  C   UNL     1      28.987 -41.720   0.938  1.00  0.00     0.094 A 
ATOM     10  C   UNL     1      27.707 -41.196   0.735  1.00  0.00     0.146 A 
ATOM     11  O   UNL     1      27.137 -41.323  -0.459  1.00  0.00    -0.456 OA
ENDROOT
BRANCH   1  12
ATOM     12  C   UNL     1      25.383 -41.057  -2.112  1.00  0.00     0.021 A 
ATOM     13  C   UNL     1      23.999 -41.219  -2.294  1.00  0.00     0.016 A 
ATOM     14  C   UNL     1      23.467 -41.398  -3.574  1.00  0.00     0.051 A 
ATOM     15  C   UNL     1      24.308 -41.409  -4.693  1.00  0.00     0.157 A 
ATOM     16  C   UNL     1      26.222 -41.055  -3.245  1.00  0.00     0.062 A 
ATOM     17  C   UNL     1      25.687 -41.234  -4.528  1.00  0.00     0.158 A 
BRANCH  15  18
ATOM     18  O   UNL     1      23.781 -41.589  -5.971  1.00  0.00    -0.504 OA
ATOM     19  H   UNL     1      23.965 -42.428  -6.507  1.00  0.00     0.293 HD
ENDBRANCH  15  18
BRANCH  17  20
ATOM     20  O   UNL     1      26.520 -41.234  -5.646  1.00  0.00    -0.504 OA
ATOM     21  H   UNL     1      26.578 -42.035  -6.264  1.00  0.00     0.293 HD
ENDBRANCH  17  20
ENDBRANCH   1  12
BRANCH   6  22
ATOM     22  O   UNL     1      27.029 -39.783   4.115  1.00  0.00    -0.507 OA
ATOM     23  H   UNL     1      27.371 -39.863   5.065  1.00  0.00     0.293 HD
ENDBRANCH   6  22
BRANCH   8  24
ATOM     24  O   UNL     1      30.883 -42.122   2.396  1.00  0.00    -0.508 OA
ATOM     25  H   UNL     1      31.482 -42.385   1.622  1.00  0.00     0.293 HD
ENDBRANCH   8  24
TORSDOF 5
ENDMDL
MODEL 8
REMARK VINA RESULT:    -5.846      1.745      2.779
REMARK INTER + INTRA:          -7.160
REMARK INTER:                  -6.842
REMARK INTRA:                  -0.318
REMARK UNBOUND:                -0.289
REMARK SMILES O=c1cc(-c2ccc(O)c(O)c2)oc2cc(O)cc(O)c12
REMARK SMILES IDX 4 1 3 2 2 3 1 4 21 5 19 6 18 7 16 8 15 9 14 10 13 11 5 12
REMARK SMILES IDX 6 13 7 14 8 15 12 16 10 17 9 18 11 20 20 22 17 24
REMARK H PARENT 9 19 11 21 20 23 17 25
REMARK Flexibility Score: inf
ROOT
ATOM      1  C   UNL     1      27.011 -39.931   2.022  1.00  0.00     0.138 A 
ATOM      2  C   UNL     1      27.975 -40.450   1.143  1.00  0.00     0.100 A 
ATOM      3  C   UNL     1      29.146 -41.008   1.658  1.00  0.00     0.197 A 
ATOM      4  O   UNL     1      30.004 -41.472   0.860  1.00  0.00    -0.289 OA
ATOM      5  C   UNL     1      29.343 -41.044   3.053  1.00  0.00     0.107 A 
ATOM      6  C   UNL     1      30.501 -41.590   3.657  1.00  0.00     0.134 A 
ATOM      7  C   UNL     1      30.618 -41.595   5.055  1.00  0.00     0.093 A 
ATOM      8  C   UNL     1      29.604 -41.066   5.857  1.00  0.00     0.123 A 
ATOM      9  C   UNL     1      28.457 -40.527   5.265  1.00  0.00     0.094 A 
ATOM     10  C   UNL     1      28.321 -40.512   3.874  1.00  0.00     0.146 A 
ATOM     11  O   UNL     1      27.223 -39.991   3.335  1.00  0.00    -0.456 OA
ENDROOT
BRANCH   1  12
ATOM     12  C   UNL     1      25.746 -39.328   1.531  1.00  0.00     0.021 A 
ATOM     13  C   UNL     1      25.474 -39.319   0.152  1.00  0.00     0.016 A 
ATOM     14  C   UNL     1      24.287 -38.766  -0.335  1.00  0.00     0.051 A 
ATOM     15  C   UNL     1      23.347 -38.221   0.549  1.00  0.00     0.157 A 
ATOM     16  C   UNL     1      24.789 -38.790   2.415  1.00  0.00     0.062 A 
ATOM     17  C   UNL     1      23.598 -38.236   1.926  1.00  0.00     0.158 A 
BRANCH  15  18
ATOM     18  O   UNL     1      22.163 -37.666   0.067  1.00  0.00    -0.504 OA
ATOM     19  H   UNL     1      21.772 -37.946  -0.825  1.00  0.00     0.293 HD
ENDBRANCH  15  18
BRANCH  17  20
ATOM     20  O   UNL     1      22.655 -37.703   2.804  1.00  0.00    -0.504 OA
ATOM     21  H   UNL     1      21.665 -37.707   2.586  1.00  0.00     0.293 HD
ENDBRANCH  17  20
ENDBRANCH   1  12
BRANCH   6  22
ATOM     22  O   UNL     1      31.530 -42.125   2.882  1.00  0.00    -0.507 OA
ATOM     23  H   UNL     1      31.890 -41.642   2.068  1.00  0.00     0.293 HD
ENDBRANCH   6  22
BRANCH   8  24
ATOM     24  O   UNL     1      29.746 -41.083   7.243  1.00  0.00    -0.508 OA
ATOM     25  H   UNL     1      30.542 -41.521   7.689  1.00  0.00     0.293 HD
ENDBRANCH   8  24
TORSDOF 5
ENDMDL
