MODEL 1
REMARK VINA RESULT:    -4.205      0.000      0.000
REMARK INTER + INTRA:          -5.091
REMARK INTER:                  -4.942
REMARK INTRA:                  -0.148
REMARK UNBOUND:                -0.148
REMARK SMILES O=C([O-])C=Cc1ccc(O)c(O)c1
REMARK SMILES IDX 6 1 13 2 7 3 11 4 8 5 9 6 5 7 4 8 2 9 1 10 3 11 12 12 10 14
REMARK H PARENT 12 13 10 15
REMARK Flexibility Score: inf
ROOT
ATOM      1  C   UNL     1      12.506 -11.279 -27.350  1.00  0.00    -0.022 A 
ATOM      2  C   UNL     1      12.660 -12.100 -26.215  1.00  0.00     0.058 A 
ATOM      3  C   UNL     1      11.601 -11.668 -28.346  1.00  0.00     0.012 A 
ATOM      4  C   UNL     1      11.945 -13.298 -26.090  1.00  0.00     0.157 A 
ATOM      5  C   UNL     1      10.888 -12.863 -28.231  1.00  0.00     0.051 A 
ATOM      6  C   UNL     1      11.052 -13.688 -27.114  1.00  0.00     0.157 A 
ENDROOT
BRANCH   1   7
ATOM      7  C   UNL     1      13.234  -9.996 -27.512  1.00  0.00     0.010 C 
ATOM      8  C   UNL     1      12.839  -9.015 -28.333  1.00  0.00     0.025 C 
BRANCH   8   9
ATOM      9  C   UNL     1      13.586  -7.753 -28.453  1.00  0.00     0.064 C 
ATOM     10  O   UNL     1      13.185  -6.732 -27.835  1.00  0.00    -0.545 OA
ATOM     11  O   UNL     1      14.729  -7.668 -29.242  1.00  0.00    -0.545 OA
ENDBRANCH   8   9
ENDBRANCH   1   7
BRANCH   4  12
ATOM     12  O   UNL     1      12.149 -14.061 -24.938  1.00  0.00    -0.504 OA
ATOM     13  H   UNL     1      12.784 -14.844 -24.883  1.00  0.00     0.293 HD
ENDBRANCH   4  12
BRANCH   6  14
ATOM     14  O   UNL     1      10.314 -14.872 -27.063  1.00  0.00    -0.504 OA
ATOM     15  H   UNL     1       9.770 -15.165 -26.264  1.00  0.00     0.293 HD
ENDBRANCH   6  14
TORSDOF 4
ENDMDL
MODEL 2
REMARK VINA RESULT:    -3.997      0.933      1.977
REMARK INTER + INTRA:          -4.846
REMARK INTER:                  -4.725
REMARK INTRA:                  -0.121
REMARK UNBOUND:                -0.148
REMARK SMILES O=C([O-])C=Cc1ccc(O)c(O)c1
REMARK SMILES IDX 6 1 13 2 7 3 11 4 8 5 9 6 5 7 4 8 2 9 1 10 3 11 12 12 10 14
REMARK H PARENT 12 13 10 15
REMARK Flexibility Score: inf
ROOT
ATOM      1  C   UNL     1      12.508 -10.877 -27.597  1.00  0.00    -0.022 A 
ATOM      2  C   UNL     1      11.568 -11.365 -28.527  1.00  0.00     0.058 A 
ATOM      3  C   UNL     1      12.709 -11.586 -26.405  1.00  0.00     0.012 A 
ATOM      4  C   UNL     1      10.826 -12.523 -28.260  1.00  0.00     0.157 A 
ATOM      5  C   UNL     1      11.971 -12.739 -26.131  1.00  0.00     0.051 A 
ATOM      6  C   UNL     1      11.026 -13.216 -27.044  1.00  0.00     0.157 A 
ENDROOT
BRANCH   1   7
ATOM      7  C   UNL     1      13.323  -9.662 -27.848  1.00  0.00     0.010 C 
ATOM      8  C   UNL     1      12.837  -8.540 -28.393  1.00  0.00     0.025 C 
BRANCH   8   9
ATOM      9  C   UNL     1      13.679  -7.353 -28.611  1.00  0.00     0.064 C 
ATOM     10  O   UNL     1      13.341  -6.250 -28.109  1.00  0.00    -0.545 OA
ATOM     11  O   UNL     1      14.844  -7.430 -29.368  1.00  0.00    -0.545 OA
ENDBRANCH   8   9
ENDBRANCH   1   7
BRANCH   4  12
ATOM     12  O   UNL     1       9.913 -12.948 -29.229  1.00  0.00    -0.504 OA
ATOM     13  H   UNL     1       9.465 -12.331 -29.892  1.00  0.00     0.293 HD
ENDBRANCH   4  12
BRANCH   6  14
ATOM     14  O   UNL     1      10.316 -14.370 -26.707  1.00  0.00    -0.504 OA
ATOM     15  H   UNL     1      10.672 -15.308 -26.825  1.00  0.00     0.293 HD
ENDBRANCH   6  14
TORSDOF 4
ENDMDL
MODEL 3
REMARK VINA RESULT:    -3.873      1.246      1.981
REMARK INTER + INTRA:          -4.700
REMARK INTER:                  -4.546
REMARK INTRA:                  -0.155
REMARK UNBOUND:                -0.148
REMARK SMILES O=C([O-])C=Cc1ccc(O)c(O)c1
REMARK SMILES IDX 6 1 13 2 7 3 11 4 8 5 9 6 5 7 4 8 2 9 1 10 3 11 12 12 10 14
REMARK H PARENT 12 13 10 15
REMARK Flexibility Score: inf
ROOT
ATOM      1  C   UNL     1      12.407 -11.200 -27.409  1.00  0.00    -0.022 A 
ATOM      2  C   UNL     1      11.388 -12.158 -27.237  1.00  0.00     0.058 A 
ATOM      3  C   UNL     1      13.739 -11.588 -27.210  1.00  0.00     0.012 A 
ATOM      4  C   UNL     1      11.691 -13.470 -26.848  1.00  0.00     0.157 A 
ATOM      5  C   UNL     1      14.049 -12.892 -26.820  1.00  0.00     0.051 A 
ATOM      6  C   UNL     1      13.039 -13.840 -26.631  1.00  0.00     0.157 A 
ENDROOT
BRANCH   1   7
ATOM      7  C   UNL     1      12.128  -9.805 -27.833  1.00  0.00     0.010 C 
ATOM      8  C   UNL     1      13.080  -8.892 -28.060  1.00  0.00     0.025 C 
BRANCH   8   9
ATOM      9  C   UNL     1      12.759  -7.523 -28.492  1.00  0.00     0.064 C 
ATOM     10  O   UNL     1      11.646  -7.287 -29.032  1.00  0.00    -0.545 OA
ATOM     11  O   UNL     1      13.666  -6.483 -28.316  1.00  0.00    -0.545 OA
ENDBRANCH   8   9
ENDBRANCH   1   7
BRANCH   4  12
ATOM     12  O   UNL     1      10.630 -14.365 -26.696  1.00  0.00    -0.504 OA
ATOM     13  H   UNL     1       9.668 -14.084 -26.570  1.00  0.00     0.293 HD
ENDBRANCH   4  12
BRANCH   6  14
ATOM     14  O   UNL     1      13.414 -15.124 -26.234  1.00  0.00    -0.504 OA
ATOM     15  H   UNL     1      12.767 -15.889 -26.106  1.00  0.00     0.293 HD
ENDBRANCH   6  14
TORSDOF 4
ENDMDL
MODEL 4
REMARK VINA RESULT:    -3.509      1.684      2.061
REMARK INTER + INTRA:          -4.273
REMARK INTER:                  -4.150
REMARK INTRA:                  -0.123
REMARK UNBOUND:                -0.148
REMARK SMILES O=C([O-])C=Cc1ccc(O)c(O)c1
REMARK SMILES IDX 6 1 13 2 7 3 11 4 8 5 9 6 5 7 4 8 2 9 1 10 3 11 12 12 10 14
REMARK H PARENT 12 13 10 15
REMARK Flexibility Score: inf
ROOT
ATOM      1  C   UNL     1      12.640 -11.038 -27.238  1.00  0.00    -0.022 A 
ATOM      2  C   UNL     1      13.943 -11.569 -27.312  1.00  0.00     0.058 A 
ATOM      3  C   UNL     1      11.587 -11.883 -26.862  1.00  0.00     0.012 A 
ATOM      4  C   UNL     1      14.186 -12.922 -27.041  1.00  0.00     0.157 A 
ATOM      5  C   UNL     1      11.821 -13.233 -26.594  1.00  0.00     0.051 A 
ATOM      6  C   UNL     1      13.110 -13.766 -26.683  1.00  0.00     0.157 A 
ENDROOT
BRANCH   1   7
ATOM      7  C   UNL     1      12.344  -9.608 -27.504  1.00  0.00     0.010 C 
ATOM      8  C   UNL     1      13.113  -8.817 -28.263  1.00  0.00     0.025 C 
BRANCH   8   9
ATOM      9  C   UNL     1      12.774  -7.407 -28.511  1.00  0.00     0.064 C 
ATOM     10  O   UNL     1      11.676  -7.118 -29.054  1.00  0.00    -0.545 OA
ATOM     11  O   UNL     1      13.649  -6.386 -28.156  1.00  0.00    -0.545 OA
ENDBRANCH   8   9
ENDBRANCH   1   7
BRANCH   4  12
ATOM     12  O   UNL     1      15.503 -13.377 -27.134  1.00  0.00    -0.504 OA
ATOM     13  H   UNL     1      15.804 -14.112 -27.759  1.00  0.00     0.293 HD
ENDBRANCH   4  12
BRANCH   6  14
ATOM     14  O   UNL     1      13.276 -15.125 -26.409  1.00  0.00    -0.504 OA
ATOM     15  H   UNL     1      12.872 -15.594 -25.612  1.00  0.00     0.293 HD
ENDBRANCH   6  14
TORSDOF 4
ENDMDL
MODEL 5
REMARK VINA RESULT:    -3.253      2.525      6.076
REMARK INTER + INTRA:          -3.972
REMARK INTER:                  -3.835
REMARK INTRA:                  -0.137
REMARK UNBOUND:                -0.148
REMARK SMILES O=C([O-])C=Cc1ccc(O)c(O)c1
REMARK SMILES IDX 6 1 13 2 7 3 11 4 8 5 9 6 5 7 4 8 2 9 1 10 3 11 12 12 10 14
REMARK H PARENT 12 13 10 15
REMARK Flexibility Score: inf
ROOT
ATOM      1  C   UNL     1      11.526 -12.947 -26.000  1.00  0.00    -0.022 A 
ATOM      2  C   UNL     1      12.180 -11.702 -26.090  1.00  0.00     0.058 A 
ATOM      3  C   UNL     1      11.004 -13.521 -27.167  1.00  0.00     0.012 A 
ATOM      4  C   UNL     1      12.289 -11.032 -27.315  1.00  0.00     0.157 A 
ATOM      5  C   UNL     1      11.106 -12.858 -28.391  1.00  0.00     0.051 A 
ATOM      6  C   UNL     1      11.740 -11.615 -28.480  1.00  0.00     0.157 A 
ENDROOT
BRANCH   1   7
ATOM      7  C   UNL     1      11.401 -13.693 -24.723  1.00  0.00     0.010 C 
ATOM      8  C   UNL     1      10.230 -13.992 -24.147  1.00  0.00     0.025 C 
BRANCH   8   9
ATOM      9  C   UNL     1      10.153 -14.746 -22.886  1.00  0.00     0.064 C 
ATOM     10  O   UNL     1      11.213 -15.125 -22.323  1.00  0.00    -0.545 OA
ATOM     11  O   UNL     1       8.926 -15.050 -22.306  1.00  0.00    -0.545 OA
ENDBRANCH   8   9
ENDBRANCH   1   7
BRANCH   4  12
ATOM     12  O   UNL     1      12.952  -9.803 -27.328  1.00  0.00    -0.504 OA
ATOM     13  H   UNL     1      12.498  -8.918 -27.505  1.00  0.00     0.293 HD
ENDBRANCH   4  12
BRANCH   6  14
ATOM     14  O   UNL     1      11.802 -11.002 -29.733  1.00  0.00    -0.504 OA
ATOM     15  H   UNL     1      12.486 -10.303 -29.987  1.00  0.00     0.293 HD
ENDBRANCH   6  14
TORSDOF 4
ENDMDL
MODEL 6
REMARK VINA RESULT:    -2.137      1.915      2.710
REMARK INTER + INTRA:          -2.660
REMARK INTER:                  -2.539
REMARK INTRA:                  -0.121
REMARK UNBOUND:                -0.148
REMARK SMILES O=C([O-])C=Cc1ccc(O)c(O)c1
REMARK SMILES IDX 6 1 13 2 7 3 11 4 8 5 9 6 5 7 4 8 2 9 1 10 3 11 12 12 10 14
REMARK H PARENT 12 13 10 15
REMARK Flexibility Score: inf
ROOT
ATOM      1  C   UNL     1      13.004  -9.574 -27.594  1.00  0.00    -0.022 A 
ATOM      2  C   UNL     1      11.753  -9.820 -26.995  1.00  0.00     0.058 A 
ATOM      3  C   UNL     1      14.039 -10.497 -27.400  1.00  0.00     0.012 A 
ATOM      4  C   UNL     1      11.548 -10.953 -26.195  1.00  0.00     0.157 A 
ATOM      5  C   UNL     1      13.844 -11.626 -26.602  1.00  0.00     0.051 A 
ATOM      6  C   UNL     1      12.609 -11.864 -25.992  1.00  0.00     0.157 A 
ENDROOT
BRANCH   1   7
ATOM      7  C   UNL     1      13.256  -8.393 -28.458  1.00  0.00     0.010 C 
ATOM      8  C   UNL     1      13.300  -7.135 -28.004  1.00  0.00     0.025 C 
BRANCH   8   9
ATOM      9  C   UNL     1      13.567  -5.995 -28.895  1.00  0.00     0.064 C 
ATOM     10  O   UNL     1      14.703  -5.870 -29.422  1.00  0.00    -0.545 OA
ATOM     11  O   UNL     1      12.583  -5.049 -29.165  1.00  0.00    -0.545 OA
ENDBRANCH   8   9
ENDBRANCH   1   7
BRANCH   4  12
ATOM     12  O   UNL     1      10.282 -11.132 -25.634  1.00  0.00    -0.504 OA
ATOM     13  H   UNL     1       9.522 -11.612 -26.095  1.00  0.00     0.293 HD
ENDBRANCH   4  12
BRANCH   6  14
ATOM     14  O   UNL     1      12.481 -13.008 -25.201  1.00  0.00    -0.504 OA
ATOM     15  H   UNL     1      13.251 -13.608 -24.945  1.00  0.00     0.293 HD
ENDBRANCH   6  14
TORSDOF 4
ENDMDL
