MODEL 1
REMARK VINA RESULT:    -4.230      0.000      0.000
REMARK INTER + INTRA:         -16.116
REMARK INTER:                 -11.154
REMARK INTRA:                  -4.962
REMARK UNBOUND:                -4.962
REMARK SMILES CCCCCCCCCCCCCCCCCCCCCCCCCCCCCC(=O)[O-]
REMARK SMILES IDX 16 1 17 2 18 3 19 4 20 5 21 6 22 7 23 8 24 9 25 10 26 11
REMARK SMILES IDX 27 12 28 13 29 14 30 15 31 16 32 17 15 18 14 19 13 20 12 21
REMARK SMILES IDX 11 22 10 23 9 24 8 25 7 26 6 27 5 28 4 29 3 30 2 31 1 32
REMARK H PARENT
REMARK Flexibility Score: inf
ROOT
ATOM      1  C   UNL     1      49.305  -6.841 -53.904  1.00  0.00     0.000 C 
ENDROOT
BRANCH   1   2
ATOM      2  C   UNL     1      50.186  -5.778 -54.580  1.00  0.00     0.000 C 
BRANCH   2   3
ATOM      3  C   UNL     1      51.592  -6.259 -55.000  1.00  0.00     0.000 C 
BRANCH   3   4
ATOM      4  C   UNL     1      51.935  -6.064 -56.492  1.00  0.00     0.000 C 
BRANCH   4   5
ATOM      5  C   UNL     1      51.431  -4.747 -57.106  1.00  0.00     0.000 C 
BRANCH   5   6
ATOM      6  C   UNL     1      50.410  -4.971 -58.235  1.00  0.00     0.000 C 
BRANCH   6   7
ATOM      7  C   UNL     1      49.224  -3.991 -58.178  1.00  0.00     0.000 C 
BRANCH   7   8
ATOM      8  C   UNL     1      47.853  -4.586 -58.575  1.00  0.00     0.000 C 
BRANCH   8   9
ATOM      9  C   UNL     1      46.791  -4.565 -57.461  1.00  0.00     0.000 C 
BRANCH   9  10
ATOM     10  C   UNL     1      47.278  -3.840 -56.197  1.00  0.00     0.000 C 
BRANCH  10  11
ATOM     11  C   UNL     1      46.548  -4.352 -54.947  1.00  0.00     0.000 C 
BRANCH  11  12
ATOM     12  C   UNL     1      45.551  -5.476 -55.267  1.00  0.00     0.000 C 
BRANCH  12  13
ATOM     13  C   UNL     1      45.314  -6.421 -54.075  1.00  0.00     0.006 C 
BRANCH  13  14
ATOM     14  C   UNL     1      45.922  -5.880 -52.774  1.00  0.00     0.053 C 
BRANCH  14  15
ATOM     15  C   UNL     1      44.864  -5.430 -51.816  1.00  0.00     0.041 C 
ATOM     16  O   UNL     1      45.042  -4.391 -51.127  1.00  0.00    -0.550 OA
ATOM     17  O   UNL     1      43.729  -6.203 -51.611  1.00  0.00    -0.550 OA
ENDBRANCH  14  15
ENDBRANCH  13  14
ENDBRANCH  12  13
ENDBRANCH  11  12
ENDBRANCH  10  11
ENDBRANCH   9  10
ENDBRANCH   8   9
ENDBRANCH   7   8
ENDBRANCH   6   7
ENDBRANCH   5   6
ENDBRANCH   4   5
ENDBRANCH   3   4
ENDBRANCH   2   3
ENDBRANCH   1   2
BRANCH   1  18
ATOM     18  C   UNL     1      49.327  -8.192 -54.634  1.00  0.00     0.000 C 
BRANCH  18  19
ATOM     19  C   UNL     1      48.029  -8.390 -55.424  1.00  0.00     0.000 C 
BRANCH  19  20
ATOM     20  C   UNL     1      48.200  -7.976 -56.895  1.00  0.00     0.000 C 
BRANCH  20  21
ATOM     21  C   UNL     1      46.903  -8.156 -57.697  1.00  0.00     0.000 C 
BRANCH  21  22
ATOM     22  C   UNL     1      46.007  -9.273 -57.134  1.00  0.00     0.000 C 
BRANCH  22  23
ATOM     23  C   UNL     1      45.706 -10.364 -58.173  1.00  0.00     0.000 C 
BRANCH  23  24
ATOM     24  C   UNL     1      46.305 -11.727 -57.771  1.00  0.00    -0.000 C 
BRANCH  24  25
ATOM     25  C   UNL     1      47.834 -11.666 -57.661  1.00  0.00    -0.000 C 
BRANCH  25  26
ATOM     26  C   UNL     1      48.333 -11.993 -56.238  1.00  0.00    -0.000 C 
BRANCH  26  27
ATOM     27  C   UNL     1      48.913 -13.413 -56.127  1.00  0.00    -0.000 C 
BRANCH  27  28
ATOM     28  C   UNL     1      47.922 -14.448 -55.547  1.00  0.00    -0.000 C 
BRANCH  28  29
ATOM     29  C   UNL     1      48.079 -15.855 -56.153  1.00  0.00    -0.000 C 
BRANCH  29  30
ATOM     30  C   UNL     1      46.725 -16.481 -56.539  1.00  0.00    -0.000 C 
BRANCH  30  31
ATOM     31  C   UNL     1      46.463 -16.418 -58.055  1.00  0.00    -0.003 C 
ATOM     32  C   UNL     1      45.485 -15.301 -58.432  1.00  0.00     0.004 C 
ENDBRANCH  30  31
ENDBRANCH  29  30
ENDBRANCH  28  29
ENDBRANCH  27  28
ENDBRANCH  26  27
ENDBRANCH  25  26
ENDBRANCH  24  25
ENDBRANCH  23  24
ENDBRANCH  22  23
ENDBRANCH  21  22
ENDBRANCH  20  21
ENDBRANCH  19  20
ENDBRANCH  18  19
ENDBRANCH   1  18
TORSDOF 28
ENDMDL
MODEL 2
REMARK VINA RESULT:    -4.009      3.127      7.726
REMARK INTER + INTRA:         -15.535
REMARK INTER:                 -10.685
REMARK INTRA:                  -4.850
REMARK UNBOUND:                -4.962
REMARK SMILES CCCCCCCCCCCCCCCCCCCCCCCCCCCCCC(=O)[O-]
REMARK SMILES IDX 16 1 17 2 18 3 19 4 20 5 21 6 22 7 23 8 24 9 25 10 26 11
REMARK SMILES IDX 27 12 28 13 29 14 30 15 31 16 32 17 15 18 14 19 13 20 12 21
REMARK SMILES IDX 11 22 10 23 9 24 8 25 7 26 6 27 5 28 4 29 3 30 2 31 1 32
REMARK H PARENT
REMARK Flexibility Score: inf
ROOT
ATOM      1  C   UNL     1      51.582  -6.252 -56.722  1.00  0.00     0.000 C 
ENDROOT
BRANCH   1   2
ATOM      2  C   UNL     1      51.796  -5.899 -55.240  1.00  0.00     0.000 C 
BRANCH   2   3
ATOM      3  C   UNL     1      50.544  -5.381 -54.500  1.00  0.00     0.000 C 
BRANCH   3   4
ATOM      4  C   UNL     1      49.284  -6.261 -54.644  1.00  0.00     0.000 C 
BRANCH   4   5
ATOM      5  C   UNL     1      49.450  -7.714 -54.164  1.00  0.00     0.000 C 
BRANCH   5   6
ATOM      6  C   UNL     1      48.718  -8.723 -55.064  1.00  0.00     0.000 C 
BRANCH   6   7
ATOM      7  C   UNL     1      47.970  -8.056 -56.234  1.00  0.00     0.000 C 
BRANCH   7   8
ATOM      8  C   UNL     1      46.719  -8.811 -56.738  1.00  0.00     0.000 C 
BRANCH   8   9
ATOM      9  C   UNL     1      46.859  -9.434 -58.139  1.00  0.00     0.000 C 
BRANCH   9  10
ATOM     10  C   UNL     1      47.838 -10.618 -58.161  1.00  0.00     0.000 C 
BRANCH  10  11
ATOM     11  C   UNL     1      47.339 -11.768 -57.274  1.00  0.00     0.000 C 
BRANCH  11  12
ATOM     12  C   UNL     1      48.331 -12.121 -56.155  1.00  0.00     0.000 C 
BRANCH  12  13
ATOM     13  C   UNL     1      48.700 -13.615 -56.135  1.00  0.00     0.006 C 
BRANCH  13  14
ATOM     14  C   UNL     1      47.593 -14.479 -55.515  1.00  0.00     0.053 C 
BRANCH  14  15
ATOM     15  C   UNL     1      47.135 -15.547 -56.457  1.00  0.00     0.041 C 
ATOM     16  O   UNL     1      46.003 -15.459 -57.004  1.00  0.00    -0.550 OA
ATOM     17  O   UNL     1      47.906 -16.684 -56.658  1.00  0.00    -0.550 OA
ENDBRANCH  14  15
ENDBRANCH  13  14
ENDBRANCH  12  13
ENDBRANCH  11  12
ENDBRANCH  10  11
ENDBRANCH   9  10
ENDBRANCH   8   9
ENDBRANCH   7   8
ENDBRANCH   6   7
ENDBRANCH   5   6
ENDBRANCH   4   5
ENDBRANCH   3   4
ENDBRANCH   2   3
ENDBRANCH   1   2
BRANCH   1  18
ATOM     18  C   UNL     1      52.551  -5.518 -57.660  1.00  0.00     0.000 C 
BRANCH  18  19
ATOM     19  C   UNL     1      51.775  -4.796 -58.765  1.00  0.00     0.000 C 
BRANCH  19  20
ATOM     20  C   UNL     1      51.556  -3.314 -58.419  1.00  0.00     0.000 C 
BRANCH  20  21
ATOM     21  C   UNL     1      50.068  -2.936 -58.427  1.00  0.00     0.000 C 
BRANCH  21  22
ATOM     22  C   UNL     1      49.283  -3.588 -57.274  1.00  0.00     0.000 C 
BRANCH  22  23
ATOM     23  C   UNL     1      48.155  -4.501 -57.775  1.00  0.00     0.000 C 
BRANCH  23  24
ATOM     24  C   UNL     1      46.847  -4.291 -56.986  1.00  0.00    -0.000 C 
BRANCH  24  25
ATOM     25  C   UNL     1      47.077  -3.466 -55.713  1.00  0.00    -0.000 C 
BRANCH  25  26
ATOM     26  C   UNL     1      45.929  -3.629 -54.694  1.00  0.00    -0.000 C 
BRANCH  26  27
ATOM     27  C   UNL     1      46.417  -4.161 -53.335  1.00  0.00    -0.000 C 
BRANCH  27  28
ATOM     28  C   UNL     1      45.693  -5.446 -52.873  1.00  0.00    -0.000 C 
BRANCH  28  29
ATOM     29  C   UNL     1      45.668  -6.555 -53.941  1.00  0.00    -0.000 C 
BRANCH  29  30
ATOM     30  C   UNL     1      44.381  -7.400 -53.879  1.00  0.00    -0.000 C 
BRANCH  30  31
ATOM     31  C   UNL     1      43.323  -6.929 -54.892  1.00  0.00    -0.003 C 
ATOM     32  C   UNL     1      43.949  -6.409 -56.190  1.00  0.00     0.004 C 
ENDBRANCH  30  31
ENDBRANCH  29  30
ENDBRANCH  28  29
ENDBRANCH  27  28
ENDBRANCH  26  27
ENDBRANCH  25  26
ENDBRANCH  24  25
ENDBRANCH  23  24
ENDBRANCH  22  23
ENDBRANCH  21  22
ENDBRANCH  20  21
ENDBRANCH  19  20
ENDBRANCH  18  19
ENDBRANCH   1  18
TORSDOF 28
ENDMDL
MODEL 3
REMARK VINA RESULT:    -4.004      3.597      8.614
REMARK INTER + INTRA:         -15.521
REMARK INTER:                 -11.336
REMARK INTRA:                  -4.186
REMARK UNBOUND:                -4.962
REMARK SMILES CCCCCCCCCCCCCCCCCCCCCCCCCCCCCC(=O)[O-]
REMARK SMILES IDX 16 1 17 2 18 3 19 4 20 5 21 6 22 7 23 8 24 9 25 10 26 11
REMARK SMILES IDX 27 12 28 13 29 14 30 15 31 16 32 17 15 18 14 19 13 20 12 21
REMARK SMILES IDX 11 22 10 23 9 24 8 25 7 26 6 27 5 28 4 29 3 30 2 31 1 32
REMARK H PARENT
REMARK Flexibility Score: inf
ROOT
ATOM      1  C   UNL     1      49.821  -7.087 -58.941  1.00  0.00     0.000 C 
ENDROOT
BRANCH   1   2
ATOM      2  C   UNL     1      48.783  -6.086 -58.407  1.00  0.00     0.000 C 
BRANCH   2   3
ATOM      3  C   UNL     1      47.309  -6.512 -58.579  1.00  0.00     0.000 C 
BRANCH   3   4
ATOM      4  C   UNL     1      46.419  -6.319 -57.334  1.00  0.00     0.000 C 
BRANCH   4   5
ATOM      5  C   UNL     1      46.012  -7.621 -56.621  1.00  0.00     0.000 C 
BRANCH   5   6
ATOM      6  C   UNL     1      47.043  -8.070 -55.572  1.00  0.00     0.000 C 
BRANCH   6   7
ATOM      7  C   UNL     1      47.901  -9.260 -56.040  1.00  0.00     0.000 C 
BRANCH   7   8
ATOM      8  C   UNL     1      47.374 -10.006 -57.288  1.00  0.00     0.000 C 
BRANCH   8   9
ATOM      9  C   UNL     1      47.669 -11.518 -57.311  1.00  0.00     0.000 C 
BRANCH   9  10
ATOM     10  C   UNL     1      48.488 -11.976 -56.094  1.00  0.00     0.000 C 
BRANCH  10  11
ATOM     11  C   UNL     1      48.650 -13.503 -56.077  1.00  0.00     0.000 C 
BRANCH  11  12
ATOM     12  C   UNL     1      47.575 -14.199 -55.229  1.00  0.00     0.000 C 
BRANCH  12  13
ATOM     13  C   UNL     1      46.708 -15.172 -56.046  1.00  0.00     0.006 C 
BRANCH  13  14
ATOM     14  C   UNL     1      47.532 -16.308 -56.666  1.00  0.00     0.053 C 
BRANCH  14  15
ATOM     15  C   UNL     1      46.758 -17.043 -57.714  1.00  0.00     0.041 C 
ATOM     16  O   UNL     1      46.761 -18.303 -57.729  1.00  0.00    -0.550 OA
ATOM     17  O   UNL     1      46.114 -16.347 -58.729  1.00  0.00    -0.550 OA
ENDBRANCH  14  15
ENDBRANCH  13  14
ENDBRANCH  12  13
ENDBRANCH  11  12
ENDBRANCH  10  11
ENDBRANCH   9  10
ENDBRANCH   8   9
ENDBRANCH   7   8
ENDBRANCH   6   7
ENDBRANCH   5   6
ENDBRANCH   4   5
ENDBRANCH   3   4
ENDBRANCH   2   3
ENDBRANCH   1   2
BRANCH   1  18
ATOM     18  C   UNL     1      51.265  -6.587 -58.800  1.00  0.00     0.000 C 
BRANCH  18  19
ATOM     19  C   UNL     1      51.370  -5.583 -57.648  1.00  0.00     0.000 C 
BRANCH  19  20
ATOM     20  C   UNL     1      52.384  -6.048 -56.590  1.00  0.00     0.000 C 
BRANCH  20  21
ATOM     21  C   UNL     1      51.781  -6.050 -55.178  1.00  0.00     0.000 C 
BRANCH  21  22
ATOM     22  C   UNL     1      50.322  -6.537 -55.155  1.00  0.00     0.000 C 
BRANCH  22  23
ATOM     23  C   UNL     1      49.399  -5.590 -54.373  1.00  0.00     0.000 C 
BRANCH  23  24
ATOM     24  C   UNL     1      49.048  -4.326 -55.182  1.00  0.00    -0.000 C 
BRANCH  24  25
ATOM     25  C   UNL     1      48.027  -3.447 -54.448  1.00  0.00    -0.000 C 
BRANCH  25  26
ATOM     26  C   UNL     1      46.572  -3.798 -54.825  1.00  0.00    -0.000 C 
BRANCH  26  27
ATOM     27  C   UNL     1      45.572  -3.447 -53.711  1.00  0.00    -0.000 C 
BRANCH  27  28
ATOM     28  C   UNL     1      45.700  -4.338 -52.454  1.00  0.00    -0.000 C 
BRANCH  28  29
ATOM     29  C   UNL     1      45.445  -5.831 -52.731  1.00  0.00    -0.000 C 
BRANCH  29  30
ATOM     30  C   UNL     1      43.943  -6.168 -52.793  1.00  0.00    -0.000 C 
BRANCH  30  31
ATOM     31  C   UNL     1      43.687  -7.624 -53.221  1.00  0.00    -0.003 C 
ATOM     32  C   UNL     1      43.045  -7.720 -54.608  1.00  0.00     0.004 C 
ENDBRANCH  30  31
ENDBRANCH  29  30
ENDBRANCH  28  29
ENDBRANCH  27  28
ENDBRANCH  26  27
ENDBRANCH  25  26
ENDBRANCH  24  25
ENDBRANCH  23  24
ENDBRANCH  22  23
ENDBRANCH  21  22
ENDBRANCH  20  21
ENDBRANCH  19  20
ENDBRANCH  18  19
ENDBRANCH   1  18
TORSDOF 28
ENDMDL
MODEL 4
REMARK VINA RESULT:    -3.965      1.174      2.057
REMARK INTER + INTRA:         -15.417
REMARK INTER:                 -11.321
REMARK INTRA:                  -4.097
REMARK UNBOUND:                -4.962
REMARK SMILES CCCCCCCCCCCCCCCCCCCCCCCCCCCCCC(=O)[O-]
REMARK SMILES IDX 16 1 17 2 18 3 19 4 20 5 21 6 22 7 23 8 24 9 25 10 26 11
REMARK SMILES IDX 27 12 28 13 29 14 30 15 31 16 32 17 15 18 14 19 13 20 12 21
REMARK SMILES IDX 11 22 10 23 9 24 8 25 7 26 6 27 5 28 4 29 3 30 2 31 1 32
REMARK H PARENT
REMARK Flexibility Score: inf
ROOT
ATOM      1  C   UNL     1      50.700  -5.971 -54.675  1.00  0.00     0.000 C 
ENDROOT
BRANCH   1   2
ATOM      2  C   UNL     1      52.107  -6.250 -55.229  1.00  0.00     0.000 C 
BRANCH   2   3
ATOM      3  C   UNL     1      52.316  -5.873 -56.711  1.00  0.00     0.000 C 
BRANCH   3   4
ATOM      4  C   UNL     1      51.109  -6.139 -57.634  1.00  0.00     0.000 C 
BRANCH   4   5
ATOM      5  C   UNL     1      50.531  -4.889 -58.321  1.00  0.00     0.000 C 
BRANCH   5   6
ATOM      6  C   UNL     1      49.105  -5.110 -58.852  1.00  0.00     0.000 C 
BRANCH   6   7
ATOM      7  C   UNL     1      48.017  -4.602 -57.887  1.00  0.00     0.000 C 
BRANCH   7   8
ATOM      8  C   UNL     1      48.537  -3.974 -56.574  1.00  0.00     0.000 C 
BRANCH   8   9
ATOM      9  C   UNL     1      47.461  -3.283 -55.715  1.00  0.00     0.000 C 
BRANCH   9  10
ATOM     10  C   UNL     1      46.081  -3.941 -55.862  1.00  0.00     0.000 C 
BRANCH  10  11
ATOM     11  C   UNL     1      45.265  -3.815 -54.567  1.00  0.00     0.000 C 
BRANCH  11  12
ATOM     12  C   UNL     1      46.133  -3.423 -53.361  1.00  0.00     0.000 C 
BRANCH  12  13
ATOM     13  C   UNL     1      45.349  -3.425 -52.036  1.00  0.00     0.006 C 
BRANCH  13  14
ATOM     14  C   UNL     1      44.201  -4.444 -52.041  1.00  0.00     0.053 C 
BRANCH  14  15
ATOM     15  C   UNL     1      44.565  -5.688 -51.292  1.00  0.00     0.041 C 
ATOM     16  O   UNL     1      43.787  -6.678 -51.306  1.00  0.00    -0.550 OA
ATOM     17  O   UNL     1      45.707  -5.723 -50.504  1.00  0.00    -0.550 OA
ENDBRANCH  14  15
ENDBRANCH  13  14
ENDBRANCH  12  13
ENDBRANCH  11  12
ENDBRANCH  10  11
ENDBRANCH   9  10
ENDBRANCH   8   9
ENDBRANCH   7   8
ENDBRANCH   6   7
ENDBRANCH   5   6
ENDBRANCH   4   5
ENDBRANCH   3   4
ENDBRANCH   2   3
ENDBRANCH   1   2
BRANCH   1  18
ATOM     18  C   UNL     1      49.875  -7.248 -54.462  1.00  0.00     0.000 C 
BRANCH  18  19
ATOM     19  C   UNL     1      48.419  -6.893 -54.146  1.00  0.00     0.000 C 
BRANCH  19  20
ATOM     20  C   UNL     1      47.468  -7.397 -55.244  1.00  0.00     0.000 C 
BRANCH  20  21
ATOM     21  C   UNL     1      48.222  -8.123 -56.368  1.00  0.00     0.000 C 
BRANCH  21  22
ATOM     22  C   UNL     1      47.440  -8.141 -57.693  1.00  0.00     0.000 C 
BRANCH  22  23
ATOM     23  C   UNL     1      48.279  -8.675 -58.863  1.00  0.00     0.000 C 
BRANCH  23  24
ATOM     24  C   UNL     1      48.020 -10.173 -59.125  1.00  0.00    -0.000 C 
BRANCH  24  25
ATOM     25  C   UNL     1      46.775 -10.673 -58.380  1.00  0.00    -0.000 C 
BRANCH  25  26
ATOM     26  C   UNL     1      47.021 -12.018 -57.664  1.00  0.00    -0.000 C 
BRANCH  26  27
ATOM     27  C   UNL     1      48.050 -11.903 -56.527  1.00  0.00    -0.000 C 
BRANCH  27  28
ATOM     28  C   UNL     1      48.690 -13.252 -56.127  1.00  0.00    -0.000 C 
BRANCH  28  29
ATOM     29  C   UNL     1      47.709 -14.218 -55.439  1.00  0.00    -0.000 C 
BRANCH  29  30
ATOM     30  C   UNL     1      47.974 -15.689 -55.815  1.00  0.00    -0.000 C 
BRANCH  30  31
ATOM     31  C   UNL     1      47.081 -16.165 -56.976  1.00  0.00    -0.003 C 
ATOM     32  C   UNL     1      47.257 -17.657 -57.273  1.00  0.00     0.004 C 
ENDBRANCH  30  31
ENDBRANCH  29  30
ENDBRANCH  28  29
ENDBRANCH  27  28
ENDBRANCH  26  27
ENDBRANCH  25  26
ENDBRANCH  24  25
ENDBRANCH  23  24
ENDBRANCH  22  23
ENDBRANCH  21  22
ENDBRANCH  20  21
ENDBRANCH  19  20
ENDBRANCH  18  19
ENDBRANCH   1  18
TORSDOF 28
ENDMDL
MODEL 5
REMARK VINA RESULT:    -3.905      3.072      6.921
REMARK INTER + INTRA:         -15.259
REMARK INTER:                  -9.506
REMARK INTRA:                  -5.753
REMARK UNBOUND:                -4.962
REMARK SMILES CCCCCCCCCCCCCCCCCCCCCCCCCCCCCC(=O)[O-]
REMARK SMILES IDX 16 1 17 2 18 3 19 4 20 5 21 6 22 7 23 8 24 9 25 10 26 11
REMARK SMILES IDX 27 12 28 13 29 14 30 15 31 16 32 17 15 18 14 19 13 20 12 21
REMARK SMILES IDX 11 22 10 23 9 24 8 25 7 26 6 27 5 28 4 29 3 30 2 31 1 32
REMARK H PARENT
REMARK Flexibility Score: inf
ROOT
ATOM      1  C   UNL     1      47.602  -7.459 -54.875  1.00  0.00     0.000 C 
ENDROOT
BRANCH   1   2
ATOM      2  C   UNL     1      48.719  -7.102 -53.880  1.00  0.00     0.000 C 
BRANCH   2   3
ATOM      3  C   UNL     1      50.107  -6.857 -54.510  1.00  0.00     0.000 C 
BRANCH   3   4
ATOM      4  C   UNL     1      50.497  -5.375 -54.688  1.00  0.00     0.000 C 
BRANCH   4   5
ATOM      5  C   UNL     1      50.720  -4.934 -56.145  1.00  0.00     0.000 C 
BRANCH   5   6
ATOM      6  C   UNL     1      51.313  -6.052 -57.019  1.00  0.00     0.000 C 
BRANCH   6   7
ATOM      7  C   UNL     1      50.888  -5.953 -58.496  1.00  0.00     0.000 C 
BRANCH   7   8
ATOM      8  C   UNL     1      50.073  -7.151 -59.034  1.00  0.00     0.000 C 
BRANCH   8   9
ATOM      9  C   UNL     1      48.657  -7.289 -58.444  1.00  0.00     0.000 C 
BRANCH   9  10
ATOM     10  C   UNL     1      48.080  -8.701 -58.623  1.00  0.00     0.000 C 
BRANCH  10  11
ATOM     11  C   UNL     1      46.632  -8.778 -58.117  1.00  0.00     0.000 C 
BRANCH  11  12
ATOM     12  C   UNL     1      46.390  -9.994 -57.209  1.00  0.00     0.000 C 
BRANCH  12  13
ATOM     13  C   UNL     1      47.689 -10.731 -56.840  1.00  0.00     0.006 C 
BRANCH  13  14
ATOM     14  C   UNL     1      47.614 -12.233 -57.146  1.00  0.00     0.053 C 
BRANCH  14  15
ATOM     15  C   UNL     1      48.285 -13.046 -56.083  1.00  0.00     0.041 C 
ATOM     16  O   UNL     1      47.631 -13.923 -55.459  1.00  0.00    -0.550 OA
ATOM     17  O   UNL     1      49.595 -12.774 -55.714  1.00  0.00    -0.550 OA
ENDBRANCH  14  15
ENDBRANCH  13  14
ENDBRANCH  12  13
ENDBRANCH  11  12
ENDBRANCH  10  11
ENDBRANCH   9  10
ENDBRANCH   8   9
ENDBRANCH   7   8
ENDBRANCH   6   7
ENDBRANCH   5   6
ENDBRANCH   4   5
ENDBRANCH   3   4
ENDBRANCH   2   3
ENDBRANCH   1   2
BRANCH   1  18
ATOM     18  C   UNL     1      46.219  -6.966 -54.427  1.00  0.00     0.000 C 
BRANCH  18  19
ATOM     19  C   UNL     1      46.355  -6.022 -53.228  1.00  0.00     0.000 C 
BRANCH  19  20
ATOM     20  C   UNL     1      45.772  -4.633 -53.541  1.00  0.00     0.000 C 
BRANCH  20  21
ATOM     21  C   UNL     1      46.845  -3.535 -53.490  1.00  0.00     0.000 C 
BRANCH  21  22
ATOM     22  C   UNL     1      47.558  -3.338 -54.839  1.00  0.00     0.000 C 
BRANCH  22  23
ATOM     23  C   UNL     1      46.581  -3.331 -56.024  1.00  0.00     0.000 C 
BRANCH  23  24
ATOM     24  C   UNL     1      47.038  -4.272 -57.157  1.00  0.00    -0.000 C 
BRANCH  24  25
ATOM     25  C   UNL     1      45.913  -5.214 -57.602  1.00  0.00    -0.000 C 
BRANCH  25  26
ATOM     26  C   UNL     1      44.519  -4.704 -57.181  1.00  0.00    -0.000 C 
BRANCH  26  27
ATOM     27  C   UNL     1      43.610  -5.830 -56.659  1.00  0.00    -0.000 C 
BRANCH  27  28
ATOM     28  C   UNL     1      42.783  -5.437 -55.414  1.00  0.00    -0.000 C 
BRANCH  28  29
ATOM     29  C   UNL     1      42.164  -6.642 -54.682  1.00  0.00    -0.000 C 
BRANCH  29  30
ATOM     30  C   UNL     1      42.681  -6.778 -53.236  1.00  0.00    -0.000 C 
BRANCH  30  31
ATOM     31  C   UNL     1      43.119  -8.216 -52.906  1.00  0.00    -0.003 C 
ATOM     32  C   UNL     1      42.809  -8.601 -51.456  1.00  0.00     0.004 C 
ENDBRANCH  30  31
ENDBRANCH  29  30
ENDBRANCH  28  29
ENDBRANCH  27  28
ENDBRANCH  26  27
ENDBRANCH  25  26
ENDBRANCH  24  25
ENDBRANCH  23  24
ENDBRANCH  22  23
ENDBRANCH  21  22
ENDBRANCH  20  21
ENDBRANCH  19  20
ENDBRANCH  18  19
ENDBRANCH   1  18
TORSDOF 28
ENDMDL
MODEL 6
REMARK VINA RESULT:    -3.859      3.292      6.566
REMARK INTER + INTRA:         -15.138
REMARK INTER:                  -8.834
REMARK INTRA:                  -6.304
REMARK UNBOUND:                -4.962
REMARK SMILES CCCCCCCCCCCCCCCCCCCCCCCCCCCCCC(=O)[O-]
REMARK SMILES IDX 16 1 17 2 18 3 19 4 20 5 21 6 22 7 23 8 24 9 25 10 26 11
REMARK SMILES IDX 27 12 28 13 29 14 30 15 31 16 32 17 15 18 14 19 13 20 12 21
REMARK SMILES IDX 11 22 10 23 9 24 8 25 7 26 6 27 5 28 4 29 3 30 2 31 1 32
REMARK H PARENT
REMARK Flexibility Score: inf
ROOT
ATOM      1  C   UNL     1      49.022  -5.971 -54.461  1.00  0.00     0.000 C 
ENDROOT
BRANCH   1   2
ATOM      2  C   UNL     1      50.142  -6.874 -55.005  1.00  0.00     0.000 C 
BRANCH   2   3
ATOM      3  C   UNL     1      51.554  -6.251 -54.990  1.00  0.00     0.000 C 
BRANCH   3   4
ATOM      4  C   UNL     1      52.145  -5.929 -56.378  1.00  0.00     0.000 C 
BRANCH   4   5
ATOM      5  C   UNL     1      51.251  -6.316 -57.569  1.00  0.00     0.000 C 
BRANCH   5   6
ATOM      6  C   UNL     1      51.097  -5.176 -58.590  1.00  0.00     0.000 C 
BRANCH   6   7
ATOM      7  C   UNL     1      50.879  -3.801 -57.930  1.00  0.00     0.000 C 
BRANCH   7   8
ATOM      8  C   UNL     1      49.404  -3.363 -57.784  1.00  0.00     0.000 C 
BRANCH   8   9
ATOM      9  C   UNL     1      48.400  -4.179 -58.618  1.00  0.00     0.000 C 
BRANCH   9  10
ATOM     10  C   UNL     1      47.512  -5.084 -57.750  1.00  0.00     0.000 C 
BRANCH  10  11
ATOM     11  C   UNL     1      47.273  -6.442 -58.426  1.00  0.00     0.000 C 
BRANCH  11  12
ATOM     12  C   UNL     1      47.948  -7.600 -57.675  1.00  0.00     0.000 C 
BRANCH  12  13
ATOM     13  C   UNL     1      47.431  -8.980 -58.118  1.00  0.00     0.006 C 
BRANCH  13  14
ATOM     14  C   UNL     1      47.598 -10.043 -57.025  1.00  0.00     0.053 C 
BRANCH  14  15
ATOM     15  C   UNL     1      47.669 -11.422 -57.603  1.00  0.00     0.041 C 
ATOM     16  O   UNL     1      47.589 -12.425 -56.845  1.00  0.00    -0.550 OA
ATOM     17  O   UNL     1      47.919 -11.603 -58.957  1.00  0.00    -0.550 OA
ENDBRANCH  14  15
ENDBRANCH  13  14
ENDBRANCH  12  13
ENDBRANCH  11  12
ENDBRANCH  10  11
ENDBRANCH   9  10
ENDBRANCH   8   9
ENDBRANCH   7   8
ENDBRANCH   6   7
ENDBRANCH   5   6
ENDBRANCH   4   5
ENDBRANCH   3   4
ENDBRANCH   2   3
ENDBRANCH   1   2
BRANCH   1  18
ATOM     18  C   UNL     1      49.450  -4.504 -54.317  1.00  0.00     0.000 C 
BRANCH  18  19
ATOM     19  C   UNL     1      48.222  -3.588 -54.338  1.00  0.00     0.000 C 
BRANCH  19  20
ATOM     20  C   UNL     1      46.922  -4.391 -54.171  1.00  0.00     0.000 C 
BRANCH  20  21
ATOM     21  C   UNL     1      46.145  -3.973 -52.915  1.00  0.00     0.000 C 
BRANCH  21  22
ATOM     22  C   UNL     1      44.722  -3.480 -53.232  1.00  0.00     0.000 C 
BRANCH  22  23
ATOM     23  C   UNL     1      43.655  -4.175 -52.373  1.00  0.00     0.000 C 
BRANCH  23  24
ATOM     24  C   UNL     1      44.054  -5.620 -52.012  1.00  0.00    -0.000 C 
BRANCH  24  25
ATOM     25  C   UNL     1      42.986  -6.631 -52.448  1.00  0.00    -0.000 C 
BRANCH  25  26
ATOM     26  C   UNL     1      43.516  -7.627 -53.501  1.00  0.00    -0.000 C 
BRANCH  26  27
ATOM     27  C   UNL     1      44.989  -7.375 -53.864  1.00  0.00    -0.000 C 
BRANCH  27  28
ATOM     28  C   UNL     1      45.300  -7.556 -55.368  1.00  0.00    -0.000 C 
BRANCH  28  29
ATOM     29  C   UNL     1      44.054  -7.856 -56.221  1.00  0.00    -0.000 C 
BRANCH  29  30
ATOM     30  C   UNL     1      43.778  -6.754 -57.263  1.00  0.00    -0.000 C 
BRANCH  30  31
ATOM     31  C   UNL     1      43.902  -5.341 -56.665  1.00  0.00    -0.003 C 
ATOM     32  C   UNL     1      42.636  -4.911 -55.918  1.00  0.00     0.004 C 
ENDBRANCH  30  31
ENDBRANCH  29  30
ENDBRANCH  28  29
ENDBRANCH  27  28
ENDBRANCH  26  27
ENDBRANCH  25  26
ENDBRANCH  24  25
ENDBRANCH  23  24
ENDBRANCH  22  23
ENDBRANCH  21  22
ENDBRANCH  20  21
ENDBRANCH  19  20
ENDBRANCH  18  19
ENDBRANCH   1  18
TORSDOF 28
ENDMDL
MODEL 7
REMARK VINA RESULT:    -3.841      1.289      2.160
REMARK INTER + INTRA:         -15.090
REMARK INTER:                 -10.940
REMARK INTRA:                  -4.150
REMARK UNBOUND:                -4.962
REMARK SMILES CCCCCCCCCCCCCCCCCCCCCCCCCCCCCC(=O)[O-]
REMARK SMILES IDX 16 1 17 2 18 3 19 4 20 5 21 6 22 7 23 8 24 9 25 10 26 11
REMARK SMILES IDX 27 12 28 13 29 14 30 15 31 16 32 17 15 18 14 19 13 20 12 21
REMARK SMILES IDX 11 22 10 23 9 24 8 25 7 26 6 27 5 28 4 29 3 30 2 31 1 32
REMARK H PARENT
REMARK Flexibility Score: inf
ROOT
ATOM      1  C   UNL     1      47.708  -7.583 -54.747  1.00  0.00     0.000 C 
ENDROOT
BRANCH   1   2
ATOM      2  C   UNL     1      48.827  -7.012 -53.861  1.00  0.00     0.000 C 
BRANCH   2   3
ATOM      3  C   UNL     1      50.241  -7.056 -54.479  1.00  0.00     0.000 C 
BRANCH   3   4
ATOM      4  C   UNL     1      50.930  -5.685 -54.644  1.00  0.00     0.000 C 
BRANCH   4   5
ATOM      5  C   UNL     1      51.284  -5.308 -56.093  1.00  0.00     0.000 C 
BRANCH   5   6
ATOM      6  C   UNL     1      50.701  -6.293 -57.121  1.00  0.00     0.000 C 
BRANCH   6   7
ATOM      7  C   UNL     1      49.888  -5.597 -58.229  1.00  0.00     0.000 C 
BRANCH   7   8
ATOM      8  C   UNL     1      48.926  -4.487 -57.747  1.00  0.00     0.000 C 
BRANCH   8   9
ATOM      9  C   UNL     1      47.515  -4.973 -57.365  1.00  0.00     0.000 C 
BRANCH   9  10
ATOM     10  C   UNL     1      46.882  -4.124 -56.252  1.00  0.00     0.000 C 
BRANCH  10  11
ATOM     11  C   UNL     1      47.921  -3.733 -55.192  1.00  0.00     0.000 C 
BRANCH  11  12
ATOM     12  C   UNL     1      47.277  -3.356 -53.849  1.00  0.00     0.000 C 
BRANCH  12  13
ATOM     13  C   UNL     1      46.020  -4.186 -53.535  1.00  0.00     0.006 C 
BRANCH  13  14
ATOM     14  C   UNL     1      45.538  -3.991 -52.091  1.00  0.00     0.053 C 
BRANCH  14  15
ATOM     15  C   UNL     1      45.172  -5.293 -51.452  1.00  0.00     0.041 C 
ATOM     16  O   UNL     1      45.731  -5.645 -50.379  1.00  0.00    -0.550 OA
ATOM     17  O   UNL     1      44.292  -6.162 -52.083  1.00  0.00    -0.550 OA
ENDBRANCH  14  15
ENDBRANCH  13  14
ENDBRANCH  12  13
ENDBRANCH  11  12
ENDBRANCH  10  11
ENDBRANCH   9  10
ENDBRANCH   8   9
ENDBRANCH   7   8
ENDBRANCH   6   7
ENDBRANCH   5   6
ENDBRANCH   4   5
ENDBRANCH   3   4
ENDBRANCH   2   3
ENDBRANCH   1   2
BRANCH   1  18
ATOM     18  C   UNL     1      48.195  -8.693 -55.690  1.00  0.00     0.000 C 
BRANCH  18  19
ATOM     19  C   UNL     1      47.620  -8.487 -57.095  1.00  0.00     0.000 C 
BRANCH  19  20
ATOM     20  C   UNL     1      46.148  -8.924 -57.166  1.00  0.00     0.000 C 
BRANCH  20  21
ATOM     21  C   UNL     1      46.003 -10.384 -57.621  1.00  0.00     0.000 C 
BRANCH  21  22
ATOM     22  C   UNL     1      47.084 -10.800 -58.635  1.00  0.00     0.000 C 
BRANCH  22  23
ATOM     23  C   UNL     1      48.016 -11.890 -58.084  1.00  0.00     0.000 C 
BRANCH  23  24
ATOM     24  C   UNL     1      47.711 -12.221 -56.609  1.00  0.00    -0.000 C 
BRANCH  24  25
ATOM     25  C   UNL     1      48.620 -13.336 -56.077  1.00  0.00    -0.000 C 
BRANCH  25  26
ATOM     26  C   UNL     1      47.818 -14.523 -55.502  1.00  0.00    -0.000 C 
BRANCH  26  27
ATOM     27  C   UNL     1      47.709 -15.697 -56.489  1.00  0.00    -0.000 C 
BRANCH  27  28
ATOM     28  C   UNL     1      46.376 -15.733 -57.271  1.00  0.00    -0.000 C 
BRANCH  28  29
ATOM     29  C   UNL     1      45.676 -17.104 -57.228  1.00  0.00    -0.000 C 
BRANCH  29  30
ATOM     30  C   UNL     1      46.676 -18.268 -57.079  1.00  0.00    -0.000 C 
BRANCH  30  31
ATOM     31  C   UNL     1      46.169 -19.562 -57.741  1.00  0.00    -0.003 C 
ATOM     32  C   UNL     1      44.985 -19.311 -58.680  1.00  0.00     0.004 C 
ENDBRANCH  30  31
ENDBRANCH  29  30
ENDBRANCH  28  29
ENDBRANCH  27  28
ENDBRANCH  26  27
ENDBRANCH  25  26
ENDBRANCH  24  25
ENDBRANCH  23  24
ENDBRANCH  22  23
ENDBRANCH  21  22
ENDBRANCH  20  21
ENDBRANCH  19  20
ENDBRANCH  18  19
ENDBRANCH   1  18
TORSDOF 28
ENDMDL
