MODEL 1
REMARK VINA RESULT:    -3.676      0.000      0.000
REMARK INTER + INTRA:          -7.809
REMARK INTER:                  -6.254
REMARK INTRA:                  -1.555
REMARK UNBOUND:                -1.555
REMARK SMILES CCCCCCCCCCCCCC(=O)[O-]
REMARK SMILES IDX 8 1 9 2 10 3 11 4 12 5 13 6 14 7 15 8 16 9 7 10 6 11 5 12
REMARK SMILES IDX 4 13 3 14 2 15 1 16
REMARK H PARENT
REMARK Flexibility Score: inf
ROOT
ATOM      1  C   UNL     1      14.098  16.979  17.460  1.00  0.00     0.000 C 
ENDROOT
BRANCH   1   2
ATOM      2  C   UNL     1      15.413  17.556  16.906  1.00  0.00     0.000 C 
BRANCH   2   3
ATOM      3  C   UNL     1      15.935  16.771  15.692  1.00  0.00     0.000 C 
BRANCH   3   4
ATOM      4  C   UNL     1      16.674  17.667  14.683  1.00  0.00     0.000 C 
BRANCH   4   5
ATOM      5  C   UNL     1      17.636  18.659  15.362  1.00  0.00     0.006 C 
BRANCH   5   6
ATOM      6  C   UNL     1      19.060  18.119  15.573  1.00  0.00     0.053 C 
BRANCH   6   7
ATOM      7  C   UNL     1      19.324  17.772  17.006  1.00  0.00     0.041 C 
ATOM      8  O   UNL     1      18.626  18.284  17.920  1.00  0.00    -0.550 OA
ATOM      9  O   UNL     1      20.364  16.911  17.333  1.00  0.00    -0.550 OA
ENDBRANCH   6   7
ENDBRANCH   5   6
ENDBRANCH   4   5
ENDBRANCH   3   4
ENDBRANCH   2   3
ENDBRANCH   1   2
BRANCH   1  10
ATOM     10  C   UNL     1      13.418  16.012  16.477  1.00  0.00     0.000 C 
BRANCH  10  11
ATOM     11  C   UNL     1      12.006  15.606  16.926  1.00  0.00    -0.000 C 
BRANCH  11  12
ATOM     12  C   UNL     1      10.940  16.453  16.218  1.00  0.00    -0.000 C 
BRANCH  12  13
ATOM     13  C   UNL     1      11.469  17.000  14.885  1.00  0.00    -0.000 C 
BRANCH  13  14
ATOM     14  C   UNL     1      11.176  18.500  14.694  1.00  0.00    -0.000 C 
BRANCH  14  15
ATOM     15  C   UNL     1      12.225  19.447  15.305  1.00  0.00    -0.003 C 
ATOM     16  C   UNL     1      13.490  19.566  14.456  1.00  0.00     0.004 C 
ENDBRANCH  14  15
ENDBRANCH  13  14
ENDBRANCH  12  13
ENDBRANCH  11  12
ENDBRANCH  10  11
ENDBRANCH   1  10
TORSDOF 12
ENDMDL
MODEL 2
REMARK VINA RESULT:    -3.669      5.450      8.121
REMARK INTER + INTRA:          -7.798
REMARK INTER:                  -6.270
REMARK INTRA:                  -1.529
REMARK UNBOUND:                -1.555
REMARK SMILES CCCCCCCCCCCCCC(=O)[O-]
REMARK SMILES IDX 8 1 9 2 10 3 11 4 12 5 13 6 14 7 15 8 16 9 7 10 6 11 5 12
REMARK SMILES IDX 4 13 3 14 2 15 1 16
REMARK H PARENT
REMARK Flexibility Score: inf
ROOT
ATOM      1  C   UNL     1      10.488  19.882  13.932  1.00  0.00     0.000 C 
ENDROOT
BRANCH   1   2
ATOM      2  C   UNL     1      10.715  18.856  12.808  1.00  0.00     0.000 C 
BRANCH   2   3
ATOM      3  C   UNL     1      10.370  17.421  13.242  1.00  0.00     0.000 C 
BRANCH   3   4
ATOM      4  C   UNL     1      10.247  16.458  12.048  1.00  0.00     0.000 C 
BRANCH   4   5
ATOM      5  C   UNL     1       8.786  16.095  11.724  1.00  0.00     0.006 C 
BRANCH   5   6
ATOM      6  C   UNL     1       8.376  16.357  10.266  1.00  0.00     0.053 C 
BRANCH   6   7
ATOM      7  C   UNL     1       8.572  17.789   9.874  1.00  0.00     0.041 C 
ATOM      8  O   UNL     1       9.426  18.096   9.001  1.00  0.00    -0.550 OA
ATOM      9  O   UNL     1       7.837  18.789  10.499  1.00  0.00    -0.550 OA
ENDBRANCH   6   7
ENDBRANCH   5   6
ENDBRANCH   4   5
ENDBRANCH   3   4
ENDBRANCH   2   3
ENDBRANCH   1   2
BRANCH   1  10
ATOM     10  C   UNL     1      11.399  19.638  15.147  1.00  0.00     0.000 C 
BRANCH  10  11
ATOM     11  C   UNL     1      12.892  19.700  14.791  1.00  0.00    -0.000 C 
BRANCH  11  12
ATOM     12  C   UNL     1      13.602  18.393  15.172  1.00  0.00    -0.000 C 
BRANCH  12  13
ATOM     13  C   UNL     1      12.797  17.617  16.223  1.00  0.00    -0.000 C 
BRANCH  13  14
ATOM     14  C   UNL     1      12.763  16.102  15.953  1.00  0.00    -0.000 C 
BRANCH  14  15
ATOM     15  C   UNL     1      11.586  15.354  16.606  1.00  0.00    -0.003 C 
ATOM     16  C   UNL     1      10.434  16.278  16.999  1.00  0.00     0.004 C 
ENDBRANCH  14  15
ENDBRANCH  13  14
ENDBRANCH  12  13
ENDBRANCH  11  12
ENDBRANCH  10  11
ENDBRANCH   1  10
TORSDOF 12
ENDMDL
MODEL 3
REMARK VINA RESULT:    -3.656      3.632      5.972
REMARK INTER + INTRA:          -7.775
REMARK INTER:                  -6.120
REMARK INTRA:                  -1.656
REMARK UNBOUND:                -1.555
REMARK SMILES CCCCCCCCCCCCCC(=O)[O-]
REMARK SMILES IDX 8 1 9 2 10 3 11 4 12 5 13 6 14 7 15 8 16 9 7 10 6 11 5 12
REMARK SMILES IDX 4 13 3 14 2 15 1 16
REMARK H PARENT
REMARK Flexibility Score: inf
ROOT
ATOM      1  C   UNL     1      14.200  16.426  16.794  1.00  0.00     0.000 C 
ENDROOT
BRANCH   1   2
ATOM      2  C   UNL     1      13.081  15.793  17.640  1.00  0.00     0.000 C 
BRANCH   2   3
ATOM      3  C   UNL     1      11.836  15.450  16.804  1.00  0.00     0.000 C 
BRANCH   3   4
ATOM      4  C   UNL     1      11.037  16.700  16.396  1.00  0.00     0.000 C 
BRANCH   4   5
ATOM      5  C   UNL     1      11.081  16.965  14.880  1.00  0.00     0.006 C 
BRANCH   5   6
ATOM      6  C   UNL     1      11.800  18.266  14.483  1.00  0.00     0.053 C 
BRANCH   6   7
ATOM      7  C   UNL     1      10.856  19.424  14.387  1.00  0.00     0.041 C 
ATOM      8  O   UNL     1      10.940  20.379  15.204  1.00  0.00    -0.550 OA
ATOM      9  O   UNL     1       9.860  19.433  13.418  1.00  0.00    -0.550 OA
ENDBRANCH   6   7
ENDBRANCH   5   6
ENDBRANCH   4   5
ENDBRANCH   3   4
ENDBRANCH   2   3
ENDBRANCH   1   2
BRANCH   1  10
ATOM     10  C   UNL     1      14.813  17.668  17.461  1.00  0.00     0.000 C 
BRANCH  10  11
ATOM     11  C   UNL     1      13.789  18.794  17.675  1.00  0.00    -0.000 C 
BRANCH  11  12
ATOM     12  C   UNL     1      14.053  19.965  16.719  1.00  0.00    -0.000 C 
BRANCH  12  13
ATOM     13  C   UNL     1      15.418  19.817  16.032  1.00  0.00    -0.000 C 
BRANCH  13  14
ATOM     14  C   UNL     1      15.312  19.745  14.498  1.00  0.00    -0.000 C 
BRANCH  14  15
ATOM     15  C   UNL     1      16.527  19.114  13.794  1.00  0.00    -0.003 C 
ATOM     16  C   UNL     1      16.868  17.722  14.323  1.00  0.00     0.004 C 
ENDBRANCH  14  15
ENDBRANCH  13  14
ENDBRANCH  12  13
ENDBRANCH  11  12
ENDBRANCH  10  11
ENDBRANCH   1  10
TORSDOF 12
ENDMDL
MODEL 4
REMARK VINA RESULT:    -3.634      5.631      8.603
REMARK INTER + INTRA:          -7.739
REMARK INTER:                  -6.457
REMARK INTRA:                  -1.282
REMARK UNBOUND:                -1.555
REMARK SMILES CCCCCCCCCCCCCC(=O)[O-]
REMARK SMILES IDX 8 1 9 2 10 3 11 4 12 5 13 6 14 7 15 8 16 9 7 10 6 11 5 12
REMARK SMILES IDX 4 13 3 14 2 15 1 16
REMARK H PARENT
REMARK Flexibility Score: inf
ROOT
ATOM      1  C   UNL     1      10.666  18.246  13.151  1.00  0.00     0.000 C 
ENDROOT
BRANCH   1   2
ATOM      2  C   UNL     1      10.305  16.777  12.870  1.00  0.00     0.000 C 
BRANCH   2   3
ATOM      3  C   UNL     1       9.806  16.559  11.432  1.00  0.00     0.000 C 
BRANCH   3   4
ATOM      4  C   UNL     1       8.401  15.934  11.383  1.00  0.00     0.000 C 
BRANCH   4   5
ATOM      5  C   UNL     1       7.383  16.815  10.634  1.00  0.00     0.006 C 
BRANCH   5   6
ATOM      6  C   UNL     1       7.922  18.194  10.220  1.00  0.00     0.053 C 
BRANCH   6   7
ATOM      7  C   UNL     1       7.342  19.297  11.051  1.00  0.00     0.041 C 
ATOM      8  O   UNL     1       7.181  19.140  12.290  1.00  0.00    -0.550 OA
ATOM      9  O   UNL     1       6.947  20.487  10.450  1.00  0.00    -0.550 OA
ENDBRANCH   6   7
ENDBRANCH   5   6
ENDBRANCH   4   5
ENDBRANCH   3   4
ENDBRANCH   2   3
ENDBRANCH   1   2
BRANCH   1  10
ATOM     10  C   UNL     1      11.841  18.388  14.132  1.00  0.00     0.000 C 
BRANCH  10  11
ATOM     11  C   UNL     1      11.495  19.258  15.351  1.00  0.00    -0.000 C 
BRANCH  11  12
ATOM     12  C   UNL     1      12.424  18.943  16.531  1.00  0.00    -0.000 C 
BRANCH  12  13
ATOM     13  C   UNL     1      13.221  17.656  16.275  1.00  0.00    -0.000 C 
BRANCH  13  14
ATOM     14  C   UNL     1      12.830  16.510  17.226  1.00  0.00    -0.000 C 
BRANCH  14  15
ATOM     15  C   UNL     1      11.837  15.492  16.638  1.00  0.00    -0.003 C 
ATOM     16  C   UNL     1      10.379  15.926  16.783  1.00  0.00     0.004 C 
ENDBRANCH  14  15
ENDBRANCH  13  14
ENDBRANCH  12  13
ENDBRANCH  11  12
ENDBRANCH  10  11
ENDBRANCH   1  10
TORSDOF 12
ENDMDL
MODEL 5
REMARK VINA RESULT:    -3.631      3.951      6.150
REMARK INTER + INTRA:          -7.733
REMARK INTER:                  -6.575
REMARK INTRA:                  -1.158
REMARK UNBOUND:                -1.555
REMARK SMILES CCCCCCCCCCCCCC(=O)[O-]
REMARK SMILES IDX 8 1 9 2 10 3 11 4 12 5 13 6 14 7 15 8 16 9 7 10 6 11 5 12
REMARK SMILES IDX 4 13 3 14 2 15 1 16
REMARK H PARENT
REMARK Flexibility Score: inf
ROOT
ATOM      1  C   UNL     1      10.239  17.012  12.055  1.00  0.00     0.000 C 
ENDROOT
BRANCH   1   2
ATOM      2  C   UNL     1      10.325  18.058  13.181  1.00  0.00     0.000 C 
BRANCH   2   3
ATOM      3  C   UNL     1      11.431  17.735  14.199  1.00  0.00     0.000 C 
BRANCH   3   4
ATOM      4  C   UNL     1      10.991  16.689  15.238  1.00  0.00     0.000 C 
BRANCH   4   5
ATOM      5  C   UNL     1      11.577  16.955  16.636  1.00  0.00     0.006 C 
BRANCH   5   6
ATOM      6  C   UNL     1      12.667  15.960  17.068  1.00  0.00     0.053 C 
BRANCH   6   7
ATOM      7  C   UNL     1      14.027  16.587  17.087  1.00  0.00     0.041 C 
ATOM      8  O   UNL     1      14.312  17.457  17.951  1.00  0.00    -0.550 OA
ATOM      9  O   UNL     1      14.968  16.236  16.127  1.00  0.00    -0.550 OA
ENDBRANCH   6   7
ENDBRANCH   5   6
ENDBRANCH   4   5
ENDBRANCH   3   4
ENDBRANCH   2   3
ENDBRANCH   1   2
BRANCH   1  10
ATOM     10  C   UNL     1       8.910  16.239  12.067  1.00  0.00     0.000 C 
BRANCH  10  11
ATOM     11  C   UNL     1       8.421  15.877  10.656  1.00  0.00    -0.000 C 
BRANCH  11  12
ATOM     12  C   UNL     1       8.515  17.086   9.716  1.00  0.00    -0.000 C 
BRANCH  12  13
ATOM     13  C   UNL     1       7.466  18.147  10.076  1.00  0.00    -0.000 C 
BRANCH  13  14
ATOM     14  C   UNL     1       8.047  19.572  10.122  1.00  0.00    -0.000 C 
BRANCH  14  15
ATOM     15  C   UNL     1       7.881  20.295  11.471  1.00  0.00    -0.003 C 
ATOM     16  C   UNL     1       6.875  19.613  12.397  1.00  0.00     0.004 C 
ENDBRANCH  14  15
ENDBRANCH  13  14
ENDBRANCH  12  13
ENDBRANCH  11  12
ENDBRANCH  10  11
ENDBRANCH   1  10
TORSDOF 12
ENDMDL
MODEL 6
REMARK VINA RESULT:    -3.617      4.582      7.127
REMARK INTER + INTRA:          -7.709
REMARK INTER:                  -6.371
REMARK INTRA:                  -1.338
REMARK UNBOUND:                -1.555
REMARK SMILES CCCCCCCCCCCCCC(=O)[O-]
REMARK SMILES IDX 8 1 9 2 10 3 11 4 12 5 13 6 14 7 15 8 16 9 7 10 6 11 5 12
REMARK SMILES IDX 4 13 3 14 2 15 1 16
REMARK H PARENT
REMARK Flexibility Score: inf
ROOT
ATOM      1  C   UNL     1       8.785  19.591  12.568  1.00  0.00     0.000 C 
ENDROOT
BRANCH   1   2
ATOM      2  C   UNL     1      10.136  19.726  13.292  1.00  0.00     0.000 C 
BRANCH   2   3
ATOM      3  C   UNL     1      11.081  18.548  12.998  1.00  0.00     0.000 C 
BRANCH   3   4
ATOM      4  C   UNL     1      10.797  17.327  13.891  1.00  0.00     0.000 C 
BRANCH   4   5
ATOM      5  C   UNL     1      11.200  17.557  15.359  1.00  0.00     0.006 C 
BRANCH   5   6
ATOM      6  C   UNL     1      12.537  16.911  15.759  1.00  0.00     0.053 C 
BRANCH   6   7
ATOM      7  C   UNL     1      12.366  15.885  16.836  1.00  0.00     0.041 C 
ATOM      8  O   UNL     1      13.255  15.736  17.716  1.00  0.00    -0.550 OA
ATOM      9  O   UNL     1      11.242  15.069  16.849  1.00  0.00    -0.550 OA
ENDBRANCH   6   7
ENDBRANCH   5   6
ENDBRANCH   4   5
ENDBRANCH   3   4
ENDBRANCH   2   3
ENDBRANCH   1   2
BRANCH   1  10
ATOM     10  C   UNL     1       8.640  20.580  11.400  1.00  0.00     0.000 C 
BRANCH  10  11
ATOM     11  C   UNL     1       8.166  19.902  10.105  1.00  0.00    -0.000 C 
BRANCH  11  12
ATOM     12  C   UNL     1       9.207  18.895   9.599  1.00  0.00    -0.000 C 
BRANCH  12  13
ATOM     13  C   UNL     1       8.579  17.509   9.397  1.00  0.00    -0.000 C 
BRANCH  13  14
ATOM     14  C   UNL     1       7.189  17.381  10.047  1.00  0.00    -0.000 C 
BRANCH  14  15
ATOM     15  C   UNL     1       7.108  16.375  11.210  1.00  0.00    -0.003 C 
ATOM     16  C   UNL     1       8.481  15.912  11.696  1.00  0.00     0.004 C 
ENDBRANCH  14  15
ENDBRANCH  13  14
ENDBRANCH  12  13
ENDBRANCH  11  12
ENDBRANCH  10  11
ENDBRANCH   1  10
TORSDOF 12
ENDMDL
MODEL 7
REMARK VINA RESULT:    -3.616      2.338      3.687
REMARK INTER + INTRA:          -7.708
REMARK INTER:                  -6.789
REMARK INTRA:                  -0.919
REMARK UNBOUND:                -1.555
REMARK SMILES CCCCCCCCCCCCCC(=O)[O-]
REMARK SMILES IDX 8 1 9 2 10 3 11 4 12 5 13 6 14 7 15 8 16 9 7 10 6 11 5 12
REMARK SMILES IDX 4 13 3 14 2 15 1 16
REMARK H PARENT
REMARK Flexibility Score: inf
ROOT
ATOM      1  C   UNL     1      11.108  16.539  16.819  1.00  0.00     0.000 C 
ENDROOT
BRANCH   1   2
ATOM      2  C   UNL     1      12.264  15.607  17.223  1.00  0.00     0.000 C 
BRANCH   2   3
ATOM      3  C   UNL     1      13.602  16.355  17.360  1.00  0.00     0.000 C 
BRANCH   3   4
ATOM      4  C   UNL     1      14.461  16.263  16.087  1.00  0.00     0.000 C 
BRANCH   4   5
ATOM      5  C   UNL     1      14.964  17.637  15.608  1.00  0.00     0.006 C 
BRANCH   5   6
ATOM      6  C   UNL     1      16.483  17.713  15.380  1.00  0.00     0.053 C 
BRANCH   6   7
ATOM      7  C   UNL     1      17.235  17.914  16.660  1.00  0.00     0.041 C 
ATOM      8  O   UNL     1      16.680  18.478  17.639  1.00  0.00    -0.550 OA
ATOM      9  O   UNL     1      18.561  17.510  16.759  1.00  0.00    -0.550 OA
ENDBRANCH   6   7
ENDBRANCH   5   6
ENDBRANCH   4   5
ENDBRANCH   3   4
ENDBRANCH   2   3
ENDBRANCH   1   2
BRANCH   1  10
ATOM     10  C   UNL     1      10.919  16.618  15.296  1.00  0.00     0.000 C 
BRANCH  10  11
ATOM     11  C   UNL     1      11.351  17.973  14.714  1.00  0.00    -0.000 C 
BRANCH  11  12
ATOM     12  C   UNL     1      10.757  18.184  13.315  1.00  0.00    -0.000 C 
BRANCH  12  13
ATOM     13  C   UNL     1      10.233  16.862  12.735  1.00  0.00    -0.000 C 
BRANCH  13  14
ATOM     14  C   UNL     1      10.002  16.925  11.214  1.00  0.00    -0.000 C 
BRANCH  14  15
ATOM     15  C   UNL     1       8.730  16.210  10.723  1.00  0.00    -0.003 C 
ATOM     16  C   UNL     1       7.789  15.814  11.860  1.00  0.00     0.004 C 
ENDBRANCH  14  15
ENDBRANCH  13  14
ENDBRANCH  12  13
ENDBRANCH  11  12
ENDBRANCH  10  11
ENDBRANCH   1  10
TORSDOF 12
ENDMDL
MODEL 8
REMARK VINA RESULT:    -3.590      4.801      7.217
REMARK INTER + INTRA:          -7.664
REMARK INTER:                  -5.931
REMARK INTRA:                  -1.733
REMARK UNBOUND:                -1.555
REMARK SMILES CCCCCCCCCCCCCC(=O)[O-]
REMARK SMILES IDX 8 1 9 2 10 3 11 4 12 5 13 6 14 7 15 8 16 9 7 10 6 11 5 12
REMARK SMILES IDX 4 13 3 14 2 15 1 16
REMARK H PARENT
REMARK Flexibility Score: inf
ROOT
ATOM      1  C   UNL     1      12.959  20.046  16.101  1.00  0.00     0.000 C 
ENDROOT
BRANCH   1   2
ATOM      2  C   UNL     1      11.619  19.633  15.466  1.00  0.00     0.000 C 
BRANCH   2   3
ATOM      3  C   UNL     1      11.798  18.995  14.078  1.00  0.00     0.000 C 
BRANCH   3   4
ATOM      4  C   UNL     1      10.478  18.448  13.506  1.00  0.00     0.000 C 
BRANCH   4   5
ATOM      5  C   UNL     1      10.617  17.019  12.949  1.00  0.00     0.006 C 
BRANCH   5   6
ATOM      6  C   UNL     1       9.449  16.569  12.057  1.00  0.00     0.053 C 
BRANCH   6   7
ATOM      7  C   UNL     1       9.100  17.597  11.025  1.00  0.00     0.041 C 
ATOM      8  O   UNL     1       7.968  18.148  11.037  1.00  0.00    -0.550 OA
ATOM      9  O   UNL     1      10.012  17.921  10.029  1.00  0.00    -0.550 OA
ENDBRANCH   6   7
ENDBRANCH   5   6
ENDBRANCH   4   5
ENDBRANCH   3   4
ENDBRANCH   2   3
ENDBRANCH   1   2
BRANCH   1  10
ATOM     10  C   UNL     1      13.251  19.290  17.407  1.00  0.00     0.000 C 
BRANCH  10  11
ATOM     11  C   UNL     1      14.594  18.544  17.373  1.00  0.00    -0.000 C 
BRANCH  11  12
ATOM     12  C   UNL     1      14.787  17.822  16.033  1.00  0.00    -0.000 C 
BRANCH  12  13
ATOM     13  C   UNL     1      14.435  16.332  16.155  1.00  0.00    -0.000 C 
BRANCH  13  14
ATOM     14  C   UNL     1      12.973  16.029  15.780  1.00  0.00    -0.000 C 
BRANCH  14  15
ATOM     15  C   UNL     1      12.024  15.841  16.977  1.00  0.00    -0.003 C 
ATOM     16  C   UNL     1      10.550  15.980  16.599  1.00  0.00     0.004 C 
ENDBRANCH  14  15
ENDBRANCH  13  14
ENDBRANCH  12  13
ENDBRANCH  11  12
ENDBRANCH  10  11
ENDBRANCH   1  10
TORSDOF 12
ENDMDL
MODEL 9
REMARK VINA RESULT:    -3.557      5.164      7.269
REMARK INTER + INTRA:          -7.608
REMARK INTER:                  -6.296
REMARK INTRA:                  -1.312
REMARK UNBOUND:                -1.555
REMARK SMILES CCCCCCCCCCCCCC(=O)[O-]
REMARK SMILES IDX 8 1 9 2 10 3 11 4 12 5 13 6 14 7 15 8 16 9 7 10 6 11 5 12
REMARK SMILES IDX 4 13 3 14 2 15 1 16
REMARK H PARENT
REMARK Flexibility Score: inf
ROOT
ATOM      1  C   UNL     1      10.953  16.467  16.942  1.00  0.00     0.000 C 
ENDROOT
BRANCH   1   2
ATOM      2  C   UNL     1      11.034  17.559  15.860  1.00  0.00     0.000 C 
BRANCH   2   3
ATOM      3  C   UNL     1      11.035  16.976  14.436  1.00  0.00     0.000 C 
BRANCH   3   4
ATOM      4  C   UNL     1      11.051  18.068  13.352  1.00  0.00     0.000 C 
BRANCH   4   5
ATOM      5  C   UNL     1       9.915  17.904  12.325  1.00  0.00     0.006 C 
BRANCH   5   6
ATOM      6  C   UNL     1       9.868  16.526  11.645  1.00  0.00     0.053 C 
BRANCH   6   7
ATOM      7  C   UNL     1       8.642  16.356  10.802  1.00  0.00     0.041 C 
ATOM      8  O   UNL     1       7.597  15.860  11.297  1.00  0.00    -0.550 OA
ATOM      9  O   UNL     1       8.666  16.713   9.459  1.00  0.00    -0.550 OA
ENDBRANCH   6   7
ENDBRANCH   5   6
ENDBRANCH   4   5
ENDBRANCH   3   4
ENDBRANCH   2   3
ENDBRANCH   1   2
BRANCH   1  10
ATOM     10  C   UNL     1      12.137  15.489  16.884  1.00  0.00     0.000 C 
BRANCH  10  11
ATOM     11  C   UNL     1      13.455  16.124  17.355  1.00  0.00    -0.000 C 
BRANCH  11  12
ATOM     12  C   UNL     1      14.469  16.201  16.205  1.00  0.00    -0.000 C 
BRANCH  12  13
ATOM     13  C   UNL     1      15.267  17.511  16.262  1.00  0.00    -0.000 C 
BRANCH  13  14
ATOM     14  C   UNL     1      14.728  18.583  15.298  1.00  0.00    -0.000 C 
BRANCH  14  15
ATOM     15  C   UNL     1      13.784  19.616  15.941  1.00  0.00    -0.003 C 
ATOM     16  C   UNL     1      14.049  19.822  17.432  1.00  0.00     0.004 C 
ENDBRANCH  14  15
ENDBRANCH  13  14
ENDBRANCH  12  13
ENDBRANCH  11  12
ENDBRANCH  10  11
ENDBRANCH   1  10
TORSDOF 12
ENDMDL
