MODEL 1
REMARK VINA RESULT:    -2.864      0.000      0.000
REMARK INTER + INTRA:          -6.529
REMARK INTER:                  -4.873
REMARK INTRA:                  -1.656
REMARK UNBOUND:                -1.656
REMARK SMILES CCCCCCCCCCCCCC(=O)[O-]
REMARK SMILES IDX 8 1 9 2 10 3 11 4 12 5 13 6 14 7 15 8 16 9 7 10 6 11 5 12
REMARK SMILES IDX 4 13 3 14 2 15 1 16
REMARK H PARENT
REMARK Flexibility Score: inf
ROOT
ATOM      1  C   UNL     1      23.280  28.476  49.145  1.00  0.00     0.000 C 
ENDROOT
BRANCH   1   2
ATOM      2  C   UNL     1      23.661  29.566  48.129  1.00  0.00     0.000 C 
BRANCH   2   3
ATOM      3  C   UNL     1      23.516  29.096  46.671  1.00  0.00     0.000 C 
BRANCH   3   4
ATOM      4  C   UNL     1      23.608  30.254  45.664  1.00  0.00     0.000 C 
BRANCH   4   5
ATOM      5  C   UNL     1      24.124  31.554  46.304  1.00  0.00     0.006 C 
BRANCH   5   6
ATOM      6  C   UNL     1      25.517  31.941  45.789  1.00  0.00     0.053 C 
BRANCH   6   7
ATOM      7  C   UNL     1      25.589  31.901  44.293  1.00  0.00     0.041 C 
ATOM      8  O   UNL     1      24.900  32.699  43.605  1.00  0.00    -0.550 OA
ATOM      9  O   UNL     1      26.396  30.965  43.659  1.00  0.00    -0.550 OA
ENDBRANCH   6   7
ENDBRANCH   5   6
ENDBRANCH   4   5
ENDBRANCH   3   4
ENDBRANCH   2   3
ENDBRANCH   1   2
BRANCH   1  10
ATOM     10  C   UNL     1      22.739  29.060  50.461  1.00  0.00     0.000 C 
BRANCH  10  11
ATOM     11  C   UNL     1      21.385  29.765  50.282  1.00  0.00    -0.000 C 
BRANCH  11  12
ATOM     12  C   UNL     1      21.412  31.230  50.746  1.00  0.00    -0.000 C 
BRANCH  12  13
ATOM     13  C   UNL     1      20.594  32.120  49.802  1.00  0.00    -0.000 C 
BRANCH  13  14
ATOM     14  C   UNL     1      21.410  32.504  48.562  1.00  0.00    -0.000 C 
BRANCH  14  15
ATOM     15  C   UNL     1      20.584  32.321  47.283  1.00  0.00    -0.003 C 
ATOM     16  C   UNL     1      20.138  30.871  47.118  1.00  0.00     0.004 C 
ENDBRANCH  14  15
ENDBRANCH  13  14
ENDBRANCH  12  13
ENDBRANCH  11  12
ENDBRANCH  10  11
ENDBRANCH   1  10
TORSDOF 12
ENDMDL
MODEL 2
REMARK VINA RESULT:    -2.861      1.024      2.073
REMARK INTER + INTRA:          -6.523
REMARK INTER:                  -4.688
REMARK INTRA:                  -1.835
REMARK UNBOUND:                -1.656
REMARK SMILES CCCCCCCCCCCCCC(=O)[O-]
REMARK SMILES IDX 8 1 9 2 10 3 11 4 12 5 13 6 14 7 15 8 16 9 7 10 6 11 5 12
REMARK SMILES IDX 4 13 3 14 2 15 1 16
REMARK H PARENT
REMARK Flexibility Score: inf
ROOT
ATOM      1  C   UNL     1      21.328  29.317  51.035  1.00  0.00     0.000 C 
ENDROOT
BRANCH   1   2
ATOM      2  C   UNL     1      22.677  29.521  50.325  1.00  0.00     0.000 C 
BRANCH   2   3
ATOM      3  C   UNL     1      22.687  28.954  48.895  1.00  0.00     0.000 C 
BRANCH   3   4
ATOM      4  C   UNL     1      23.934  29.374  48.100  1.00  0.00     0.000 C 
BRANCH   4   5
ATOM      5  C   UNL     1      23.585  29.960  46.721  1.00  0.00     0.006 C 
BRANCH   5   6
ATOM      6  C   UNL     1      24.232  31.333  46.494  1.00  0.00     0.053 C 
BRANCH   6   7
ATOM      7  C   UNL     1      24.930  31.410  45.171  1.00  0.00     0.041 C 
ATOM      8  O   UNL     1      25.942  32.145  45.032  1.00  0.00    -0.550 OA
ATOM      9  O   UNL     1      24.445  30.693  44.085  1.00  0.00    -0.550 OA
ENDBRANCH   6   7
ENDBRANCH   5   6
ENDBRANCH   4   5
ENDBRANCH   3   4
ENDBRANCH   2   3
ENDBRANCH   1   2
BRANCH   1  10
ATOM     10  C   UNL     1      20.427  30.561  50.959  1.00  0.00     0.000 C 
BRANCH  10  11
ATOM     11  C   UNL     1      21.230  31.871  50.921  1.00  0.00    -0.000 C 
BRANCH  11  12
ATOM     12  C   UNL     1      20.750  32.831  49.822  1.00  0.00    -0.000 C 
BRANCH  12  13
ATOM     13  C   UNL     1      21.300  32.416  48.451  1.00  0.00    -0.000 C 
BRANCH  13  14
ATOM     14  C   UNL     1      20.163  32.086  47.478  1.00  0.00    -0.000 C 
BRANCH  14  15
ATOM     15  C   UNL     1      20.134  30.587  47.156  1.00  0.00    -0.003 C 
ATOM     16  C   UNL     1      18.852  29.938  47.672  1.00  0.00     0.004 C 
ENDBRANCH  14  15
ENDBRANCH  13  14
ENDBRANCH  12  13
ENDBRANCH  11  12
ENDBRANCH  10  11
ENDBRANCH   1  10
TORSDOF 12
ENDMDL
MODEL 3
REMARK VINA RESULT:    -2.850      3.071      4.924
REMARK INTER + INTRA:          -6.506
REMARK INTER:                  -4.630
REMARK INTRA:                  -1.875
REMARK UNBOUND:                -1.656
REMARK SMILES CCCCCCCCCCCCCC(=O)[O-]
REMARK SMILES IDX 8 1 9 2 10 3 11 4 12 5 13 6 14 7 15 8 16 9 7 10 6 11 5 12
REMARK SMILES IDX 4 13 3 14 2 15 1 16
REMARK H PARENT
REMARK Flexibility Score: inf
ROOT
ATOM      1  C   UNL     1      21.767  30.344  51.069  1.00  0.00     0.000 C 
ENDROOT
BRANCH   1   2
ATOM      2  C   UNL     1      20.755  29.231  50.748  1.00  0.00     0.000 C 
BRANCH   2   3
ATOM      3  C   UNL     1      21.431  27.936  50.264  1.00  0.00     0.000 C 
BRANCH   3   4
ATOM      4  C   UNL     1      22.948  27.930  50.514  1.00  0.00     0.000 C 
BRANCH   4   5
ATOM      5  C   UNL     1      23.569  26.533  50.344  1.00  0.00     0.006 C 
BRANCH   5   6
ATOM      6  C   UNL     1      24.626  26.501  49.232  1.00  0.00     0.053 C 
BRANCH   6   7
ATOM      7  C   UNL     1      24.132  25.783  48.013  1.00  0.00     0.041 C 
ATOM      8  O   UNL     1      23.226  26.292  47.303  1.00  0.00    -0.550 OA
ATOM      9  O   UNL     1      24.651  24.539  47.679  1.00  0.00    -0.550 OA
ENDBRANCH   6   7
ENDBRANCH   5   6
ENDBRANCH   4   5
ENDBRANCH   3   4
ENDBRANCH   2   3
ENDBRANCH   1   2
BRANCH   1  10
ATOM     10  C   UNL     1      21.156  31.750  50.946  1.00  0.00     0.000 C 
BRANCH  10  11
ATOM     11  C   UNL     1      20.402  31.953  49.622  1.00  0.00    -0.000 C 
BRANCH  11  12
ATOM     12  C   UNL     1      21.155  32.868  48.644  1.00  0.00    -0.000 C 
BRANCH  12  13
ATOM     13  C   UNL     1      22.030  32.046  47.688  1.00  0.00    -0.000 C 
BRANCH  13  14
ATOM     14  C   UNL     1      21.377  30.696  47.368  1.00  0.00    -0.000 C 
BRANCH  14  15
ATOM     15  C   UNL     1      22.433  29.657  46.971  1.00  0.00    -0.003 C 
ATOM     16  C   UNL     1      23.765  29.934  47.661  1.00  0.00     0.004 C 
ENDBRANCH  14  15
ENDBRANCH  13  14
ENDBRANCH  12  13
ENDBRANCH  11  12
ENDBRANCH  10  11
ENDBRANCH   1  10
TORSDOF 12
ENDMDL
MODEL 4
REMARK VINA RESULT:    -2.826      1.211      2.150
REMARK INTER + INTRA:          -6.464
REMARK INTER:                  -4.870
REMARK INTRA:                  -1.594
REMARK UNBOUND:                -1.656
REMARK SMILES CCCCCCCCCCCCCC(=O)[O-]
REMARK SMILES IDX 8 1 9 2 10 3 11 4 12 5 13 6 14 7 15 8 16 9 7 10 6 11 5 12
REMARK SMILES IDX 4 13 3 14 2 15 1 16
REMARK H PARENT
REMARK Flexibility Score: inf
ROOT
ATOM      1  C   UNL     1      22.908  27.292  47.636  1.00  0.00     0.000 C 
ENDROOT
BRANCH   1   2
ATOM      2  C   UNL     1      23.076  28.549  46.766  1.00  0.00     0.000 C 
BRANCH   2   3
ATOM      3  C   UNL     1      24.003  29.596  47.408  1.00  0.00     0.000 C 
BRANCH   3   4
ATOM      4  C   UNL     1      23.706  31.025  46.926  1.00  0.00     0.000 C 
BRANCH   4   5
ATOM      5  C   UNL     1      24.833  31.598  46.050  1.00  0.00     0.006 C 
BRANCH   5   6
ATOM      6  C   UNL     1      24.775  31.068  44.611  1.00  0.00     0.053 C 
BRANCH   6   7
ATOM      7  C   UNL     1      26.034  31.366  43.855  1.00  0.00     0.041 C 
ATOM      8  O   UNL     1      26.436  32.553  43.739  1.00  0.00    -0.550 OA
ATOM      9  O   UNL     1      26.746  30.336  43.254  1.00  0.00    -0.550 OA
ENDBRANCH   6   7
ENDBRANCH   5   6
ENDBRANCH   4   5
ENDBRANCH   3   4
ENDBRANCH   2   3
ENDBRANCH   1   2
BRANCH   1  10
ATOM     10  C   UNL     1      23.940  27.221  48.775  1.00  0.00     0.000 C 
BRANCH  10  11
ATOM     11  C   UNL     1      23.286  27.226  50.166  1.00  0.00    -0.000 C 
BRANCH  11  12
ATOM     12  C   UNL     1      21.917  27.924  50.177  1.00  0.00    -0.000 C 
BRANCH  12  13
ATOM     13  C   UNL     1      21.980  29.244  50.955  1.00  0.00    -0.000 C 
BRANCH  13  14
ATOM     14  C   UNL     1      21.693  30.438  50.038  1.00  0.00    -0.000 C 
BRANCH  14  15
ATOM     15  C   UNL     1      20.537  30.129  49.079  1.00  0.00    -0.003 C 
ATOM     16  C   UNL     1      20.242  31.318  48.170  1.00  0.00     0.004 C 
ENDBRANCH  14  15
ENDBRANCH  13  14
ENDBRANCH  12  13
ENDBRANCH  11  12
ENDBRANCH  10  11
ENDBRANCH   1  10
TORSDOF 12
ENDMDL
MODEL 5
REMARK VINA RESULT:    -2.815      1.457      3.415
REMARK INTER + INTRA:          -6.446
REMARK INTER:                  -4.812
REMARK INTRA:                  -1.634
REMARK UNBOUND:                -1.656
REMARK SMILES CCCCCCCCCCCCCC(=O)[O-]
REMARK SMILES IDX 8 1 9 2 10 3 11 4 12 5 13 6 14 7 15 8 16 9 7 10 6 11 5 12
REMARK SMILES IDX 4 13 3 14 2 15 1 16
REMARK H PARENT
REMARK Flexibility Score: inf
ROOT
ATOM      1  C   UNL     1      20.904  30.957  49.450  1.00  0.00     0.000 C 
ENDROOT
BRANCH   1   2
ATOM      2  C   UNL     1      21.228  32.296  48.767  1.00  0.00     0.000 C 
BRANCH   2   3
ATOM      3  C   UNL     1      21.941  32.117  47.415  1.00  0.00     0.000 C 
BRANCH   3   4
ATOM      4  C   UNL     1      22.350  30.659  47.151  1.00  0.00     0.000 C 
BRANCH   4   5
ATOM      5  C   UNL     1      23.875  30.478  47.077  1.00  0.00     0.006 C 
BRANCH   5   6
ATOM      6  C   UNL     1      24.564  31.645  46.358  1.00  0.00     0.053 C 
BRANCH   6   7
ATOM      7  C   UNL     1      24.506  31.495  44.868  1.00  0.00     0.041 C 
ATOM      8  O   UNL     1      24.097  32.446  44.152  1.00  0.00    -0.550 OA
ATOM      9  O   UNL     1      24.876  30.295  44.274  1.00  0.00    -0.550 OA
ENDBRANCH   6   7
ENDBRANCH   5   6
ENDBRANCH   4   5
ENDBRANCH   3   4
ENDBRANCH   2   3
ENDBRANCH   1   2
BRANCH   1  10
ATOM     10  C   UNL     1      21.732  30.730  50.726  1.00  0.00     0.000 C 
BRANCH  10  11
ATOM     11  C   UNL     1      22.296  29.303  50.818  1.00  0.00    -0.000 C 
BRANCH  11  12
ATOM     12  C   UNL     1      21.295  28.237  50.345  1.00  0.00    -0.000 C 
BRANCH  12  13
ATOM     13  C   UNL     1      22.025  27.004  49.798  1.00  0.00    -0.000 C 
BRANCH  13  14
ATOM     14  C   UNL     1      23.454  27.355  49.368  1.00  0.00    -0.000 C 
BRANCH  14  15
ATOM     15  C   UNL     1      23.750  26.827  47.960  1.00  0.00    -0.003 C 
ATOM     16  C   UNL     1      22.515  26.917  47.067  1.00  0.00     0.004 C 
ENDBRANCH  14  15
ENDBRANCH  13  14
ENDBRANCH  12  13
ENDBRANCH  11  12
ENDBRANCH  10  11
ENDBRANCH   1  10
TORSDOF 12
ENDMDL
MODEL 6
REMARK VINA RESULT:    -2.783     15.839     17.709
REMARK INTER + INTRA:          -6.391
REMARK INTER:                  -4.573
REMARK INTRA:                  -1.818
REMARK UNBOUND:                -1.656
REMARK SMILES CCCCCCCCCCCCCC(=O)[O-]
REMARK SMILES IDX 8 1 9 2 10 3 11 4 12 5 13 6 14 7 15 8 16 9 7 10 6 11 5 12
REMARK SMILES IDX 4 13 3 14 2 15 1 16
REMARK H PARENT
REMARK Flexibility Score: inf
ROOT
ATOM      1  C   UNL     1      16.631  28.239  34.922  1.00  0.00     0.000 C 
ENDROOT
BRANCH   1   2
ATOM      2  C   UNL     1      16.057  26.953  34.306  1.00  0.00     0.000 C 
BRANCH   2   3
ATOM      3  C   UNL     1      15.102  27.232  33.131  1.00  0.00     0.000 C 
BRANCH   3   4
ATOM      4  C   UNL     1      15.012  26.052  32.149  1.00  0.00     0.000 C 
BRANCH   4   5
ATOM      5  C   UNL     1      13.818  26.175  31.187  1.00  0.00     0.006 C 
BRANCH   5   6
ATOM      6  C   UNL     1      12.506  26.469  31.927  1.00  0.00     0.053 C 
BRANCH   6   7
ATOM      7  C   UNL     1      11.875  25.219  32.461  1.00  0.00     0.041 C 
ATOM      8  O   UNL     1      11.173  25.261  33.505  1.00  0.00    -0.550 OA
ATOM      9  O   UNL     1      12.087  24.004  31.823  1.00  0.00    -0.550 OA
ENDBRANCH   6   7
ENDBRANCH   5   6
ENDBRANCH   4   5
ENDBRANCH   3   4
ENDBRANCH   2   3
ENDBRANCH   1   2
BRANCH   1  10
ATOM     10  C   UNL     1      15.884  29.500  34.457  1.00  0.00     0.000 C 
BRANCH  10  11
ATOM     11  C   UNL     1      16.837  30.619  34.007  1.00  0.00    -0.000 C 
BRANCH  11  12
ATOM     12  C   UNL     1      17.905  30.128  33.017  1.00  0.00    -0.000 C 
BRANCH  12  13
ATOM     13  C   UNL     1      17.320  29.983  31.607  1.00  0.00    -0.000 C 
BRANCH  13  14
ATOM     14  C   UNL     1      17.671  28.619  31.003  1.00  0.00    -0.000 C 
BRANCH  14  15
ATOM     15  C   UNL     1      18.951  28.053  31.629  1.00  0.00    -0.003 C 
ATOM     16  C   UNL     1      18.794  26.572  31.962  1.00  0.00     0.004 C 
ENDBRANCH  14  15
ENDBRANCH  13  14
ENDBRANCH  12  13
ENDBRANCH  11  12
ENDBRANCH  10  11
ENDBRANCH   1  10
TORSDOF 12
ENDMDL
MODEL 7
REMARK VINA RESULT:    -2.726     13.602     15.392
REMARK INTER + INTRA:          -6.293
REMARK INTER:                  -3.992
REMARK INTRA:                  -2.302
REMARK UNBOUND:                -1.656
REMARK SMILES CCCCCCCCCCCCCC(=O)[O-]
REMARK SMILES IDX 8 1 9 2 10 3 11 4 12 5 13 6 14 7 15 8 16 9 7 10 6 11 5 12
REMARK SMILES IDX 4 13 3 14 2 15 1 16
REMARK H PARENT
REMARK Flexibility Score: inf
ROOT
ATOM      1  C   UNL     1      19.591  28.345  32.933  1.00  0.00     0.000 C 
ENDROOT
BRANCH   1   2
ATOM      2  C   UNL     1      19.583  28.900  31.500  1.00  0.00     0.000 C 
BRANCH   2   3
ATOM      3  C   UNL     1      18.161  29.165  30.974  1.00  0.00     0.000 C 
BRANCH   3   4
ATOM      4  C   UNL     1      17.724  30.627  31.162  1.00  0.00     0.000 C 
BRANCH   4   5
ATOM      5  C   UNL     1      18.860  31.624  30.876  1.00  0.00     0.006 C 
BRANCH   5   6
ATOM      6  C   UNL     1      19.065  32.616  32.029  1.00  0.00     0.053 C 
BRANCH   6   7
ATOM      7  C   UNL     1      20.517  32.834  32.326  1.00  0.00     0.041 C 
ATOM      8  O   UNL     1      20.894  33.894  32.890  1.00  0.00    -0.550 OA
ATOM      9  O   UNL     1      21.456  31.881  31.953  1.00  0.00    -0.550 OA
ENDBRANCH   6   7
ENDBRANCH   5   6
ENDBRANCH   4   5
ENDBRANCH   3   4
ENDBRANCH   2   3
ENDBRANCH   1   2
BRANCH   1  10
ATOM     10  C   UNL     1      19.802  29.443  33.990  1.00  0.00     0.000 C 
BRANCH  10  11
ATOM     11  C   UNL     1      18.681  29.475  35.040  1.00  0.00    -0.000 C 
BRANCH  11  12
ATOM     12  C   UNL     1      17.732  30.670  34.861  1.00  0.00    -0.000 C 
BRANCH  12  13
ATOM     13  C   UNL     1      16.309  30.197  34.537  1.00  0.00    -0.000 C 
BRANCH  13  14
ATOM     14  C   UNL     1      16.192  28.674  34.669  1.00  0.00    -0.000 C 
BRANCH  14  15
ATOM     15  C   UNL     1      15.697  28.046  33.360  1.00  0.00    -0.003 C 
ATOM     16  C   UNL     1      16.180  26.605  33.224  1.00  0.00     0.004 C 
ENDBRANCH  14  15
ENDBRANCH  13  14
ENDBRANCH  12  13
ENDBRANCH  11  12
ENDBRANCH  10  11
ENDBRANCH   1  10
TORSDOF 12
ENDMDL
MODEL 8
REMARK VINA RESULT:    -2.725      3.299      5.708
REMARK INTER + INTRA:          -6.293
REMARK INTER:                  -4.957
REMARK INTRA:                  -1.335
REMARK UNBOUND:                -1.656
REMARK SMILES CCCCCCCCCCCCCC(=O)[O-]
REMARK SMILES IDX 8 1 9 2 10 3 11 4 12 5 13 6 14 7 15 8 16 9 7 10 6 11 5 12
REMARK SMILES IDX 4 13 3 14 2 15 1 16
REMARK H PARENT
REMARK Flexibility Score: inf
ROOT
ATOM      1  C   UNL     1      21.230  30.191  49.293  1.00  0.00     0.000 C 
ENDROOT
BRANCH   1   2
ATOM      2  C   UNL     1      22.307  30.053  50.382  1.00  0.00     0.000 C 
BRANCH   2   3
ATOM      3  C   UNL     1      22.622  28.586  50.723  1.00  0.00     0.000 C 
BRANCH   3   4
ATOM      4  C   UNL     1      21.740  27.595  49.947  1.00  0.00     0.000 C 
BRANCH   4   5
ATOM      5  C   UNL     1      22.550  26.712  48.983  1.00  0.00     0.006 C 
BRANCH   5   6
ATOM      6  C   UNL     1      24.034  27.103  48.947  1.00  0.00     0.053 C 
BRANCH   6   7
ATOM      7  C   UNL     1      24.929  25.920  49.153  1.00  0.00     0.041 C 
ATOM      8  O   UNL     1      26.001  26.043  49.801  1.00  0.00    -0.550 OA
ATOM      9  O   UNL     1      24.593  24.688  48.606  1.00  0.00    -0.550 OA
ENDBRANCH   6   7
ENDBRANCH   5   6
ENDBRANCH   4   5
ENDBRANCH   3   4
ENDBRANCH   2   3
ENDBRANCH   1   2
BRANCH   1  10
ATOM     10  C   UNL     1      21.748  30.917  48.040  1.00  0.00     0.000 C 
BRANCH  10  11
ATOM     11  C   UNL     1      22.534  29.988  47.101  1.00  0.00    -0.000 C 
BRANCH  11  12
ATOM     12  C   UNL     1      24.031  30.331  47.041  1.00  0.00    -0.000 C 
BRANCH  12  13
ATOM     13  C   UNL     1      24.253  31.710  46.408  1.00  0.00    -0.000 C 
BRANCH  13  14
ATOM     14  C   UNL     1      25.454  31.692  45.455  1.00  0.00    -0.000 C 
BRANCH  14  15
ATOM     15  C   UNL     1      25.161  30.833  44.219  1.00  0.00    -0.003 C 
ATOM     16  C   UNL     1      26.393  30.714  43.327  1.00  0.00     0.004 C 
ENDBRANCH  14  15
ENDBRANCH  13  14
ENDBRANCH  12  13
ENDBRANCH  11  12
ENDBRANCH  10  11
ENDBRANCH   1  10
TORSDOF 12
ENDMDL
MODEL 9
REMARK VINA RESULT:    -2.707      3.176      5.886
REMARK INTER + INTRA:          -6.262
REMARK INTER:                  -4.771
REMARK INTRA:                  -1.491
REMARK UNBOUND:                -1.656
REMARK SMILES CCCCCCCCCCCCCC(=O)[O-]
REMARK SMILES IDX 8 1 9 2 10 3 11 4 12 5 13 6 14 7 15 8 16 9 7 10 6 11 5 12
REMARK SMILES IDX 4 13 3 14 2 15 1 16
REMARK H PARENT
REMARK Flexibility Score: inf
ROOT
ATOM      1  C   UNL     1      21.107  32.697  48.694  1.00  0.00     0.000 C 
ENDROOT
BRANCH   1   2
ATOM      2  C   UNL     1      20.367  32.386  50.006  1.00  0.00     0.000 C 
BRANCH   2   3
ATOM      3  C   UNL     1      21.263  31.681  51.040  1.00  0.00     0.000 C 
BRANCH   3   4
ATOM      4  C   UNL     1      21.286  30.155  50.860  1.00  0.00     0.000 C 
BRANCH   4   5
ATOM      5  C   UNL     1      22.627  29.645  50.305  1.00  0.00     0.006 C 
BRANCH   5   6
ATOM      6  C   UNL     1      22.437  28.568  49.229  1.00  0.00     0.053 C 
BRANCH   6   7
ATOM      7  C   UNL     1      22.677  27.191  49.768  1.00  0.00     0.041 C 
ATOM      8  O   UNL     1      23.839  26.832  50.092  1.00  0.00    -0.550 OA
ATOM      9  O   UNL     1      21.621  26.296  49.886  1.00  0.00    -0.550 OA
ENDBRANCH   6   7
ENDBRANCH   5   6
ENDBRANCH   4   5
ENDBRANCH   3   4
ENDBRANCH   2   3
ENDBRANCH   1   2
BRANCH   1  10
ATOM     10  C   UNL     1      20.680  31.770  47.543  1.00  0.00     0.000 C 
BRANCH  10  11
ATOM     11  C   UNL     1      21.820  31.501  46.547  1.00  0.00    -0.000 C 
BRANCH  11  12
ATOM     12  C   UNL     1      23.202  31.854  47.117  1.00  0.00    -0.000 C 
BRANCH  12  13
ATOM     13  C   UNL     1      24.262  30.849  46.648  1.00  0.00    -0.000 C 
BRANCH  13  14
ATOM     14  C   UNL     1      23.825  30.152  45.354  1.00  0.00    -0.000 C 
BRANCH  14  15
ATOM     15  C   UNL     1      24.804  30.450  44.212  1.00  0.00    -0.003 C 
ATOM     16  C   UNL     1      25.749  31.590  44.580  1.00  0.00     0.004 C 
ENDBRANCH  14  15
ENDBRANCH  13  14
ENDBRANCH  12  13
ENDBRANCH  11  12
ENDBRANCH  10  11
ENDBRANCH   1  10
TORSDOF 12
ENDMDL
