MODEL 1
REMARK VINA RESULT:    -6.621      0.000      0.000
REMARK INTER + INTRA:          -7.851
REMARK INTER:                  -7.782
REMARK INTRA:                  -0.069
REMARK UNBOUND:                -0.069
REMARK SMILES O=c1c(O)c(-c2ccc(O)cc2)oc2cc(O)cc(O)c12
REMARK SMILES IDX 5 1 3 2 2 3 1 4 21 5 19 6 18 7 16 8 15 9 14 10 13 11 6 12
REMARK SMILES IDX 7 13 8 14 9 15 12 16 11 17 10 18 4 20 20 22 17 24
REMARK H PARENT 10 19 4 21 20 23 17 25
REMARK Flexibility Score: inf
ROOT
ATOM      1  C   UNL     1      45.296  45.524   9.853  1.00  0.00     0.180 A 
ATOM      2  C   UNL     1      45.652  44.696  10.933  1.00  0.00     0.208 A 
ATOM      3  C   UNL     1      45.613  43.303  10.763  1.00  0.00     0.238 A 
ATOM      4  O   UNL     1      45.879  42.566  11.748  1.00  0.00    -0.285 OA
ATOM      5  C   UNL     1      45.238  42.756   9.512  1.00  0.00     0.111 A 
ATOM      6  C   UNL     1      45.203  41.359   9.216  1.00  0.00     0.134 A 
ATOM      7  C   UNL     1      44.690  40.927   7.986  1.00  0.00     0.093 A 
ATOM      8  C   UNL     1      44.272  41.839   7.019  1.00  0.00     0.123 A 
ATOM      9  C   UNL     1      44.358  43.209   7.275  1.00  0.00     0.094 A 
ATOM     10  C   UNL     1      44.830  43.670   8.506  1.00  0.00     0.146 A 
ATOM     11  O   UNL     1      44.886  44.981   8.714  1.00  0.00    -0.452 OA
ENDROOT
BRANCH   1  12
ATOM     12  C   UNL     1      45.336  47.002   9.948  1.00  0.00     0.021 A 
ATOM     13  C   UNL     1      46.512  47.682  10.316  1.00  0.00     0.016 A 
ATOM     14  C   UNL     1      46.532  49.078  10.375  1.00  0.00     0.047 A 
ATOM     15  C   UNL     1      45.386  49.813  10.055  1.00  0.00     0.115 A 
ATOM     16  C   UNL     1      44.195  47.748   9.608  1.00  0.00     0.016 A 
ATOM     17  C   UNL     1      44.218  49.144   9.668  1.00  0.00     0.047 A 
BRANCH  15  18
ATOM     18  O   UNL     1      45.420  51.204  10.120  1.00  0.00    -0.508 OA
ATOM     19  H   UNL     1      44.650  51.734  10.511  1.00  0.00     0.293 HD
ENDBRANCH  15  18
ENDBRANCH   1  12
BRANCH   2  20
ATOM     20  O   UNL     1      45.998  45.256  12.165  1.00  0.00    -0.502 OA
ATOM     21  H   UNL     1      46.472  46.148  12.244  1.00  0.00     0.293 HD
ENDBRANCH   2  20
BRANCH   6  22
ATOM     22  O   UNL     1      45.682  40.367  10.076  1.00  0.00    -0.507 OA
ATOM     23  H   UNL     1      45.217  40.062  10.918  1.00  0.00     0.293 HD
ENDBRANCH   6  22
BRANCH   8  24
ATOM     24  O   UNL     1      43.783  41.374   5.801  1.00  0.00    -0.508 OA
ATOM     25  H   UNL     1      44.396  41.205   5.013  1.00  0.00     0.293 HD
ENDBRANCH   8  24
TORSDOF 5
ENDMDL
MODEL 2
REMARK VINA RESULT:    -6.294      5.201      7.459
REMARK INTER + INTRA:          -7.467
REMARK INTER:                  -7.458
REMARK INTRA:                  -0.009
REMARK UNBOUND:                -0.069
REMARK SMILES O=c1c(O)c(-c2ccc(O)cc2)oc2cc(O)cc(O)c12
REMARK SMILES IDX 5 1 3 2 2 3 1 4 21 5 19 6 18 7 16 8 15 9 14 10 13 11 6 12
REMARK SMILES IDX 7 13 8 14 9 15 12 16 11 17 10 18 4 20 20 22 17 24
REMARK H PARENT 10 19 4 21 20 23 17 25
REMARK Flexibility Score: inf
ROOT
ATOM      1  C   UNL     1      45.035  39.067   9.622  1.00  0.00     0.180 A 
ATOM      2  C   UNL     1      44.240  37.989   9.192  1.00  0.00     0.208 A 
ATOM      3  C   UNL     1      43.436  38.150   8.051  1.00  0.00     0.238 A 
ATOM      4  O   UNL     1      42.685  37.202   7.702  1.00  0.00    -0.285 OA
ATOM      5  C   UNL     1      43.451  39.378   7.347  1.00  0.00     0.111 A 
ATOM      6  C   UNL     1      42.707  39.638   6.156  1.00  0.00     0.134 A 
ATOM      7  C   UNL     1      42.696  40.931   5.617  1.00  0.00     0.093 A 
ATOM      8  C   UNL     1      43.450  41.955   6.187  1.00  0.00     0.123 A 
ATOM      9  C   UNL     1      44.228  41.697   7.316  1.00  0.00     0.094 A 
ATOM     10  C   UNL     1      44.232  40.427   7.898  1.00  0.00     0.146 A 
ATOM     11  O   UNL     1      44.977  40.226   8.978  1.00  0.00    -0.452 OA
ENDROOT
BRANCH   1  12
ATOM     12  C   UNL     1      45.927  38.965  10.800  1.00  0.00     0.021 A 
ATOM     13  C   UNL     1      46.847  37.909  10.935  1.00  0.00     0.016 A 
ATOM     14  C   UNL     1      47.696  37.848  12.044  1.00  0.00     0.047 A 
ATOM     15  C   UNL     1      47.647  38.845  13.023  1.00  0.00     0.115 A 
ATOM     16  C   UNL     1      45.899  39.974  11.778  1.00  0.00     0.016 A 
ATOM     17  C   UNL     1      46.748  39.910  12.886  1.00  0.00     0.047 A 
BRANCH  15  18
ATOM     18  O   UNL     1      48.497  38.769  14.124  1.00  0.00    -0.508 OA
ATOM     19  H   UNL     1      48.702  39.584  14.691  1.00  0.00     0.293 HD
ENDBRANCH  15  18
ENDBRANCH   1  12
BRANCH   2  20
ATOM     20  O   UNL     1      44.224  36.794   9.915  1.00  0.00    -0.502 OA
ATOM     21  H   UNL     1      45.064  36.264  10.109  1.00  0.00     0.293 HD
ENDBRANCH   2  20
BRANCH   6  22
ATOM     22  O   UNL     1      41.992  38.663   5.454  1.00  0.00    -0.507 OA
ATOM     23  H   UNL     1      41.368  38.851   4.684  1.00  0.00     0.293 HD
ENDBRANCH   6  22
BRANCH   8  24
ATOM     24  O   UNL     1      43.428  43.225   5.615  1.00  0.00    -0.508 OA
ATOM     25  H   UNL     1      43.709  44.046   6.136  1.00  0.00     0.293 HD
ENDBRANCH   8  24
TORSDOF 5
ENDMDL
MODEL 3
REMARK VINA RESULT:    -6.289      3.573      8.331
REMARK INTER + INTRA:          -7.461
REMARK INTER:                  -7.489
REMARK INTRA:                   0.029
REMARK UNBOUND:                -0.069
REMARK SMILES O=c1c(O)c(-c2ccc(O)cc2)oc2cc(O)cc(O)c12
REMARK SMILES IDX 5 1 3 2 2 3 1 4 21 5 19 6 18 7 16 8 15 9 14 10 13 11 6 12
REMARK SMILES IDX 7 13 8 14 9 15 12 16 11 17 10 18 4 20 20 22 17 24
REMARK H PARENT 10 19 4 21 20 23 17 25
REMARK Flexibility Score: inf
ROOT
ATOM      1  C   UNL     1      45.348  38.975  10.144  1.00  0.00     0.180 A 
ATOM      2  C   UNL     1      45.773  39.828  11.179  1.00  0.00     0.208 A 
ATOM      3  C   UNL     1      45.723  41.217  10.978  1.00  0.00     0.238 A 
ATOM      4  O   UNL     1      46.155  41.974  11.886  1.00  0.00    -0.285 OA
ATOM      5  C   UNL     1      45.234  41.735   9.755  1.00  0.00     0.111 A 
ATOM      6  C   UNL     1      45.102  43.126   9.459  1.00  0.00     0.134 A 
ATOM      7  C   UNL     1      44.730  43.525   8.169  1.00  0.00     0.093 A 
ATOM      8  C   UNL     1      44.424  42.586   7.185  1.00  0.00     0.123 A 
ATOM      9  C   UNL     1      44.492  41.224   7.481  1.00  0.00     0.094 A 
ATOM     10  C   UNL     1      44.895  40.795   8.747  1.00  0.00     0.146 A 
ATOM     11  O   UNL     1      44.957  39.490   8.985  1.00  0.00    -0.452 OA
ENDROOT
BRANCH   1  12
ATOM     12  C   UNL     1      45.347  37.501  10.290  1.00  0.00     0.021 A 
ATOM     13  C   UNL     1      44.201  36.736  10.005  1.00  0.00     0.016 A 
ATOM     14  C   UNL     1      44.231  35.344  10.126  1.00  0.00     0.047 A 
ATOM     15  C   UNL     1      45.407  34.697  10.520  1.00  0.00     0.115 A 
ATOM     16  C   UNL     1      46.530  36.842  10.665  1.00  0.00     0.016 A 
ATOM     17  C   UNL     1      46.558  35.449  10.787  1.00  0.00     0.047 A 
BRANCH  15  18
ATOM     18  O   UNL     1      45.422  33.310  10.639  1.00  0.00    -0.508 OA
ATOM     19  H   UNL     1      45.632  32.856  11.520  1.00  0.00     0.293 HD
ENDBRANCH  15  18
ENDBRANCH   1  12
BRANCH   2  20
ATOM     20  O   UNL     1      46.272  39.295  12.370  1.00  0.00    -0.502 OA
ATOM     21  H   UNL     1      47.100  39.660  12.824  1.00  0.00     0.293 HD
ENDBRANCH   2  20
BRANCH   6  22
ATOM     22  O   UNL     1      45.295  44.145  10.396  1.00  0.00    -0.507 OA
ATOM     23  H   UNL     1      45.395  45.123  10.170  1.00  0.00     0.293 HD
ENDBRANCH   6  22
BRANCH   8  24
ATOM     24  O   UNL     1      44.042  43.019   5.917  1.00  0.00    -0.508 OA
ATOM     25  H   UNL     1      44.236  42.470   5.089  1.00  0.00     0.293 HD
ENDBRANCH   8  24
TORSDOF 5
ENDMDL
MODEL 4
REMARK VINA RESULT:    -6.257      5.108     10.557
REMARK INTER + INTRA:          -7.424
REMARK INTER:                  -7.294
REMARK INTRA:                  -0.129
REMARK UNBOUND:                -0.069
REMARK SMILES O=c1c(O)c(-c2ccc(O)cc2)oc2cc(O)cc(O)c12
REMARK SMILES IDX 5 1 3 2 2 3 1 4 21 5 19 6 18 7 16 8 15 9 14 10 13 11 6 12
REMARK SMILES IDX 7 13 8 14 9 15 12 16 11 17 10 18 4 20 20 22 17 24
REMARK H PARENT 10 19 4 21 20 23 17 25
REMARK Flexibility Score: inf
ROOT
ATOM      1  C   UNL     1      41.370  38.783   4.955  1.00  0.00     0.180 A 
ATOM      2  C   UNL     1      40.397  39.613   4.372  1.00  0.00     0.208 A 
ATOM      3  C   UNL     1      40.557  41.007   4.449  1.00  0.00     0.238 A 
ATOM      4  O   UNL     1      39.656  41.746   3.974  1.00  0.00    -0.285 OA
ATOM      5  C   UNL     1      41.696  41.550   5.091  1.00  0.00     0.111 A 
ATOM      6  C   UNL     1      41.980  42.946   5.193  1.00  0.00     0.134 A 
ATOM      7  C   UNL     1      43.068  43.374   5.964  1.00  0.00     0.093 A 
ATOM      8  C   UNL     1      43.917  42.459   6.583  1.00  0.00     0.123 A 
ATOM      9  C   UNL     1      43.683  41.090   6.441  1.00  0.00     0.094 A 
ATOM     10  C   UNL     1      42.585  40.633   5.709  1.00  0.00     0.146 A 
ATOM     11  O   UNL     1      42.392  39.323   5.607  1.00  0.00    -0.452 OA
ENDROOT
BRANCH   1  12
ATOM     12  C   UNL     1      41.283  37.305   4.893  1.00  0.00     0.021 A 
ATOM     13  C   UNL     1      41.295  36.620   3.664  1.00  0.00     0.016 A 
ATOM     14  C   UNL     1      41.236  35.224   3.631  1.00  0.00     0.047 A 
ATOM     15  C   UNL     1      41.179  34.494   4.822  1.00  0.00     0.115 A 
ATOM     16  C   UNL     1      41.246  36.564   6.086  1.00  0.00     0.016 A 
ATOM     17  C   UNL     1      41.187  35.167   6.051  1.00  0.00     0.047 A 
BRANCH  15  18
ATOM     18  O   UNL     1      41.119  33.104   4.775  1.00  0.00    -0.508 OA
ATOM     19  H   UNL     1      41.196  32.542   5.615  1.00  0.00     0.293 HD
ENDBRANCH  15  18
ENDBRANCH   1  12
BRANCH   2  20
ATOM     20  O   UNL     1      39.270  39.057   3.762  1.00  0.00    -0.502 OA
ATOM     21  H   UNL     1      38.841  39.460   2.938  1.00  0.00     0.293 HD
ENDBRANCH   2  20
BRANCH   6  22
ATOM     22  O   UNL     1      41.249  43.941   4.538  1.00  0.00    -0.507 OA
ATOM     23  H   UNL     1      40.896  43.868   3.595  1.00  0.00     0.293 HD
ENDBRANCH   6  22
BRANCH   8  24
ATOM     24  O   UNL     1      44.998  42.921   7.330  1.00  0.00    -0.508 OA
ATOM     25  H   UNL     1      45.953  42.706   7.068  1.00  0.00     0.293 HD
ENDBRANCH   8  24
TORSDOF 5
ENDMDL
MODEL 5
REMARK VINA RESULT:    -6.241      5.957      9.062
REMARK INTER + INTRA:          -7.405
REMARK INTER:                  -7.319
REMARK INTRA:                  -0.086
REMARK UNBOUND:                -0.069
REMARK SMILES O=c1c(O)c(-c2ccc(O)cc2)oc2cc(O)cc(O)c12
REMARK SMILES IDX 5 1 3 2 2 3 1 4 21 5 19 6 18 7 16 8 15 9 14 10 13 11 6 12
REMARK SMILES IDX 7 13 8 14 9 15 12 16 11 17 10 18 4 20 20 22 17 24
REMARK H PARENT 10 19 4 21 20 23 17 25
REMARK Flexibility Score: inf
ROOT
ATOM      1  C   UNL     1      51.594  47.324  12.078  1.00  0.00     0.180 A 
ATOM      2  C   UNL     1      51.976  48.470  12.798  1.00  0.00     0.208 A 
ATOM      3  C   UNL     1      51.002  49.434  13.108  1.00  0.00     0.238 A 
ATOM      4  O   UNL     1      51.358  50.483  13.704  1.00  0.00    -0.285 OA
ATOM      5  C   UNL     1      49.658  49.231  12.710  1.00  0.00     0.111 A 
ATOM      6  C   UNL     1      48.582  50.122  13.006  1.00  0.00     0.134 A 
ATOM      7  C   UNL     1      47.318  49.886  12.450  1.00  0.00     0.093 A 
ATOM      8  C   UNL     1      47.075  48.760  11.665  1.00  0.00     0.123 A 
ATOM      9  C   UNL     1      48.105  47.851  11.419  1.00  0.00     0.094 A 
ATOM     10  C   UNL     1      49.386  48.078  11.929  1.00  0.00     0.146 A 
ATOM     11  O   UNL     1      50.340  47.194  11.663  1.00  0.00    -0.452 OA
ENDROOT
BRANCH   1  12
ATOM     12  C   UNL     1      52.559  46.253  11.736  1.00  0.00     0.021 A 
ATOM     13  C   UNL     1      53.288  45.577  12.731  1.00  0.00     0.016 A 
ATOM     14  C   UNL     1      54.174  44.553  12.385  1.00  0.00     0.047 A 
ATOM     15  C   UNL     1      54.333  44.181  11.047  1.00  0.00     0.115 A 
ATOM     16  C   UNL     1      52.709  45.860  10.395  1.00  0.00     0.016 A 
ATOM     17  C   UNL     1      53.596  44.836  10.052  1.00  0.00     0.047 A 
BRANCH  15  18
ATOM     18  O   UNL     1      55.222  43.161  10.717  1.00  0.00    -0.508 OA
ATOM     19  H   UNL     1      56.135  43.092  11.151  1.00  0.00     0.293 HD
ENDBRANCH  15  18
ENDBRANCH   1  12
BRANCH   2  20
ATOM     20  O   UNL     1      53.311  48.662  13.161  1.00  0.00    -0.502 OA
ATOM     21  H   UNL     1      53.990  47.911  13.152  1.00  0.00     0.293 HD
ENDBRANCH   2  20
BRANCH   6  22
ATOM     22  O   UNL     1      48.695  51.227  13.855  1.00  0.00    -0.507 OA
ATOM     23  H   UNL     1      48.809  51.173  14.856  1.00  0.00     0.293 HD
ENDBRANCH   6  22
BRANCH   8  24
ATOM     24  O   UNL     1      45.802  48.549  11.142  1.00  0.00    -0.508 OA
ATOM     25  H   UNL     1      45.164  49.317  10.973  1.00  0.00     0.293 HD
ENDBRANCH   8  24
TORSDOF 5
ENDMDL
MODEL 6
REMARK VINA RESULT:    -6.127      3.777      9.102
REMARK INTER + INTRA:          -7.271
REMARK INTER:                  -7.148
REMARK INTRA:                  -0.123
REMARK UNBOUND:                -0.069
REMARK SMILES O=c1c(O)c(-c2ccc(O)cc2)oc2cc(O)cc(O)c12
REMARK SMILES IDX 5 1 3 2 2 3 1 4 21 5 19 6 18 7 16 8 15 9 14 10 13 11 6 12
REMARK SMILES IDX 7 13 8 14 9 15 12 16 11 17 10 18 4 20 20 22 17 24
REMARK H PARENT 10 19 4 21 20 23 17 25
REMARK Flexibility Score: inf
ROOT
ATOM      1  C   UNL     1      43.786  38.451   8.659  1.00  0.00     0.180 A 
ATOM      2  C   UNL     1      43.317  38.744   7.366  1.00  0.00     0.208 A 
ATOM      3  C   UNL     1      43.467  40.049   6.868  1.00  0.00     0.238 A 
ATOM      4  O   UNL     1      42.996  40.320   5.733  1.00  0.00    -0.285 OA
ATOM      5  C   UNL     1      44.099  41.037   7.661  1.00  0.00     0.111 A 
ATOM      6  C   UNL     1      44.339  42.380   7.241  1.00  0.00     0.134 A 
ATOM      7  C   UNL     1      44.854  43.308   8.155  1.00  0.00     0.093 A 
ATOM      8  C   UNL     1      45.197  42.927   9.452  1.00  0.00     0.123 A 
ATOM      9  C   UNL     1      45.021  41.602   9.854  1.00  0.00     0.094 A 
ATOM     10  C   UNL     1      44.476  40.662   8.977  1.00  0.00     0.146 A 
ATOM     11  O   UNL     1      44.315  39.415   9.402  1.00  0.00    -0.452 OA
ENDROOT
BRANCH   1  12
ATOM     12  C   UNL     1      43.687  37.093   9.243  1.00  0.00     0.021 A 
ATOM     13  C   UNL     1      44.836  36.351   9.574  1.00  0.00     0.016 A 
ATOM     14  C   UNL     1      44.717  35.081  10.147  1.00  0.00     0.047 A 
ATOM     15  C   UNL     1      43.453  34.543  10.409  1.00  0.00     0.115 A 
ATOM     16  C   UNL     1      42.421  36.553   9.528  1.00  0.00     0.016 A 
ATOM     17  C   UNL     1      42.305  35.283  10.101  1.00  0.00     0.047 A 
BRANCH  15  18
ATOM     18  O   UNL     1      43.350  33.276  10.978  1.00  0.00    -0.508 OA
ATOM     19  H   UNL     1      44.172  32.734  11.217  1.00  0.00     0.293 HD
ENDBRANCH  15  18
ENDBRANCH   1  12
BRANCH   2  20
ATOM     20  O   UNL     1      42.676  37.759   6.610  1.00  0.00    -0.502 OA
ATOM     21  H   UNL     1      42.556  36.810   6.941  1.00  0.00     0.293 HD
ENDBRANCH   2  20
BRANCH   6  22
ATOM     22  O   UNL     1      44.119  42.843   5.940  1.00  0.00    -0.507 OA
ATOM     23  H   UNL     1      43.255  42.734   5.430  1.00  0.00     0.293 HD
ENDBRANCH   6  22
BRANCH   8  24
ATOM     24  O   UNL     1      45.721  43.872  10.330  1.00  0.00    -0.508 OA
ATOM     25  H   UNL     1      45.516  44.859  10.232  1.00  0.00     0.293 HD
ENDBRANCH   8  24
TORSDOF 5
ENDMDL
MODEL 7
REMARK VINA RESULT:    -6.045      3.950      8.527
REMARK INTER + INTRA:          -7.174
REMARK INTER:                  -6.892
REMARK INTRA:                  -0.282
REMARK UNBOUND:                -0.069
REMARK SMILES O=c1c(O)c(-c2ccc(O)cc2)oc2cc(O)cc(O)c12
REMARK SMILES IDX 5 1 3 2 2 3 1 4 21 5 19 6 18 7 16 8 15 9 14 10 13 11 6 12
REMARK SMILES IDX 7 13 8 14 9 15 12 16 11 17 10 18 4 20 20 22 17 24
REMARK H PARENT 10 19 4 21 20 23 17 25
REMARK Flexibility Score: inf
ROOT
ATOM      1  C   UNL     1      44.904  38.507   9.881  1.00  0.00     0.180 A 
ATOM      2  C   UNL     1      44.144  37.977   8.822  1.00  0.00     0.208 A 
ATOM      3  C   UNL     1      43.742  38.830   7.781  1.00  0.00     0.238 A 
ATOM      4  O   UNL     1      43.017  38.363   6.864  1.00  0.00    -0.285 OA
ATOM      5  C   UNL     1      44.119  40.194   7.802  1.00  0.00     0.111 A 
ATOM      6  C   UNL     1      43.800  41.139   6.780  1.00  0.00     0.134 A 
ATOM      7  C   UNL     1      44.111  42.491   6.968  1.00  0.00     0.093 A 
ATOM      8  C   UNL     1      44.784  42.923   8.109  1.00  0.00     0.123 A 
ATOM      9  C   UNL     1      45.153  41.999   9.088  1.00  0.00     0.094 A 
ATOM     10  C   UNL     1      44.825  40.649   8.946  1.00  0.00     0.146 A 
ATOM     11  O   UNL     1      45.185  39.804   9.905  1.00  0.00    -0.452 OA
ENDROOT
BRANCH   1  12
ATOM     12  C   UNL     1      45.386  37.667  11.001  1.00  0.00     0.021 A 
ATOM     13  C   UNL     1      44.650  37.542  12.194  1.00  0.00     0.016 A 
ATOM     14  C   UNL     1      45.114  36.724  13.229  1.00  0.00     0.047 A 
ATOM     15  C   UNL     1      46.307  36.010  13.081  1.00  0.00     0.115 A 
ATOM     16  C   UNL     1      46.574  36.931  10.853  1.00  0.00     0.016 A 
ATOM     17  C   UNL     1      47.035  36.114  11.889  1.00  0.00     0.047 A 
BRANCH  15  18
ATOM     18  O   UNL     1      46.758  35.201  14.121  1.00  0.00    -0.508 OA
ATOM     19  H   UNL     1      46.670  34.192  14.083  1.00  0.00     0.293 HD
ENDBRANCH  15  18
ENDBRANCH   1  12
BRANCH   2  20
ATOM     20  O   UNL     1      43.765  36.633   8.832  1.00  0.00    -0.502 OA
ATOM     21  H   UNL     1      42.949  36.294   8.338  1.00  0.00     0.293 HD
ENDBRANCH   2  20
BRANCH   6  22
ATOM     22  O   UNL     1      43.210  40.798   5.559  1.00  0.00    -0.507 OA
ATOM     23  H   UNL     1      42.227  40.615   5.427  1.00  0.00     0.293 HD
ENDBRANCH   6  22
BRANCH   8  24
ATOM     24  O   UNL     1      45.092  44.274   8.256  1.00  0.00    -0.508 OA
ATOM     25  H   UNL     1      45.977  44.653   7.942  1.00  0.00     0.293 HD
ENDBRANCH   8  24
TORSDOF 5
ENDMDL
MODEL 8
REMARK VINA RESULT:    -5.954     11.140     13.244
REMARK INTER + INTRA:          -7.067
REMARK INTER:                  -7.364
REMARK INTRA:                   0.297
REMARK UNBOUND:                -0.069
REMARK SMILES O=c1c(O)c(-c2ccc(O)cc2)oc2cc(O)cc(O)c12
REMARK SMILES IDX 5 1 3 2 2 3 1 4 21 5 19 6 18 7 16 8 15 9 14 10 13 11 6 12
REMARK SMILES IDX 7 13 8 14 9 15 12 16 11 17 10 18 4 20 20 22 17 24
REMARK H PARENT 10 19 4 21 20 23 17 25
REMARK Flexibility Score: inf
ROOT
ATOM      1  C   UNL     1      51.498  51.150   1.391  1.00  0.00     0.180 A 
ATOM      2  C   UNL     1      52.247  50.974   0.214  1.00  0.00     0.208 A 
ATOM      3  C   UNL     1      53.634  50.777   0.314  1.00  0.00     0.238 A 
ATOM      4  O   UNL     1      54.308  50.674  -0.744  1.00  0.00    -0.285 OA
ATOM      5  C   UNL     1      54.251  50.742   1.588  1.00  0.00     0.111 A 
ATOM      6  C   UNL     1      55.642  50.509   1.809  1.00  0.00     0.134 A 
ATOM      7  C   UNL     1      56.165  50.627   3.103  1.00  0.00     0.093 A 
ATOM      8  C   UNL     1      55.339  50.903   4.191  1.00  0.00     0.123 A 
ATOM      9  C   UNL     1      53.968  51.074   3.995  1.00  0.00     0.094 A 
ATOM     10  C   UNL     1      53.422  50.999   2.712  1.00  0.00     0.146 A 
ATOM     11  O   UNL     1      52.114  51.178   2.567  1.00  0.00    -0.452 OA
ENDROOT
BRANCH   1  12
ATOM     12  C   UNL     1      50.029  51.337   1.368  1.00  0.00     0.021 A 
ATOM     13  C   UNL     1      49.387  51.974   0.290  1.00  0.00     0.016 A 
ATOM     14  C   UNL     1      47.996  52.117   0.280  1.00  0.00     0.047 A 
ATOM     15  C   UNL     1      47.229  51.617   1.336  1.00  0.00     0.115 A 
ATOM     16  C   UNL     1      49.249  50.819   2.417  1.00  0.00     0.016 A 
ATOM     17  C   UNL     1      47.859  50.965   2.404  1.00  0.00     0.047 A 
BRANCH  15  18
ATOM     18  O   UNL     1      45.845  51.769   1.313  1.00  0.00    -0.508 OA
ATOM     19  H   UNL     1      45.382  52.480   1.867  1.00  0.00     0.293 HD
ENDBRANCH  15  18
ENDBRANCH   1  12
BRANCH   2  20
ATOM     20  O   UNL     1      51.622  51.034  -1.034  1.00  0.00    -0.502 OA
ATOM     21  H   UNL     1      51.949  50.504  -1.832  1.00  0.00     0.293 HD
ENDBRANCH   2  20
BRANCH   6  22
ATOM     22  O   UNL     1      56.540  50.136   0.805  1.00  0.00    -0.507 OA
ATOM     23  H   UNL     1      56.882  49.198   0.660  1.00  0.00     0.293 HD
ENDBRANCH   6  22
BRANCH   8  24
ATOM     24  O   UNL     1      55.891  50.997   5.467  1.00  0.00    -0.508 OA
ATOM     25  H   UNL     1      56.770  51.472   5.631  1.00  0.00     0.293 HD
ENDBRANCH   8  24
TORSDOF 5
ENDMDL
MODEL 9
REMARK VINA RESULT:    -5.930      5.076     10.433
REMARK INTER + INTRA:          -7.039
REMARK INTER:                  -6.783
REMARK INTRA:                  -0.256
REMARK UNBOUND:                -0.069
REMARK SMILES O=c1c(O)c(-c2ccc(O)cc2)oc2cc(O)cc(O)c12
REMARK SMILES IDX 5 1 3 2 2 3 1 4 21 5 19 6 18 7 16 8 15 9 14 10 13 11 6 12
REMARK SMILES IDX 7 13 8 14 9 15 12 16 11 17 10 18 4 20 20 22 17 24
REMARK H PARENT 10 19 4 21 20 23 17 25
REMARK Flexibility Score: inf
ROOT
ATOM      1  C   UNL     1      41.452  38.446   5.460  1.00  0.00     0.180 A 
ATOM      2  C   UNL     1      41.127  39.637   4.787  1.00  0.00     0.208 A 
ATOM      3  C   UNL     1      41.817  40.815   5.118  1.00  0.00     0.238 A 
ATOM      4  O   UNL     1      41.486  41.889   4.552  1.00  0.00    -0.285 OA
ATOM      5  C   UNL     1      42.833  40.783   6.104  1.00  0.00     0.111 A 
ATOM      6  C   UNL     1      43.623  41.908   6.491  1.00  0.00     0.134 A 
ATOM      7  C   UNL     1      44.509  41.791   7.569  1.00  0.00     0.093 A 
ATOM      8  C   UNL     1      44.681  40.578   8.232  1.00  0.00     0.123 A 
ATOM      9  C   UNL     1      43.957  39.456   7.824  1.00  0.00     0.094 A 
ATOM     10  C   UNL     1      43.039  39.550   6.776  1.00  0.00     0.146 A 
ATOM     11  O   UNL     1      42.363  38.462   6.426  1.00  0.00    -0.452 OA
ENDROOT
BRANCH   1  12
ATOM     12  C   UNL     1      40.786  37.159   5.148  1.00  0.00     0.021 A 
ATOM     13  C   UNL     1      39.735  36.666   5.942  1.00  0.00     0.016 A 
ATOM     14  C   UNL     1      39.106  35.462   5.614  1.00  0.00     0.047 A 
ATOM     15  C   UNL     1      39.509  34.742   4.485  1.00  0.00     0.115 A 
ATOM     16  C   UNL     1      41.172  36.441   4.004  1.00  0.00     0.016 A 
ATOM     17  C   UNL     1      40.542  35.236   3.679  1.00  0.00     0.047 A 
BRANCH  15  18
ATOM     18  O   UNL     1      38.875  33.542   4.172  1.00  0.00    -0.508 OA
ATOM     19  H   UNL     1      39.387  32.759   3.783  1.00  0.00     0.293 HD
ENDBRANCH  15  18
ENDBRANCH   1  12
BRANCH   2  20
ATOM     20  O   UNL     1      40.107  39.651   3.833  1.00  0.00    -0.502 OA
ATOM     21  H   UNL     1      39.840  40.490   3.333  1.00  0.00     0.293 HD
ENDBRANCH   2  20
BRANCH   6  22
ATOM     22  O   UNL     1      43.596  43.142   5.835  1.00  0.00    -0.507 OA
ATOM     23  H   UNL     1      44.312  43.848   5.910  1.00  0.00     0.293 HD
ENDBRANCH   6  22
BRANCH   8  24
ATOM     24  O   UNL     1      45.583  40.494   9.290  1.00  0.00    -0.508 OA
ATOM     25  H   UNL     1      46.113  41.300   9.600  1.00  0.00     0.293 HD
ENDBRANCH   8  24
TORSDOF 5
ENDMDL
