MODEL 1
REMARK VINA RESULT:    -5.571      0.000      0.000
REMARK INTER + INTRA:          -6.670
REMARK INTER:                  -6.547
REMARK INTRA:                  -0.122
REMARK UNBOUND:                -0.122
REMARK SMILES O=C([O-])C=Cc1ccc(O)c(O)c1
REMARK SMILES IDX 6 1 13 2 7 3 11 4 8 5 9 6 5 7 4 8 2 9 1 10 3 11 12 12 10 14
REMARK H PARENT 12 13 10 15
REMARK Flexibility Score: inf
ROOT
ATOM      1  C   UNL     1      16.934   9.225 -21.248  1.00  0.00    -0.022 A 
ATOM      2  C   UNL     1      18.013   8.991 -20.373  1.00  0.00     0.058 A 
ATOM      3  C   UNL     1      16.937  10.390 -22.030  1.00  0.00     0.012 A 
ATOM      4  C   UNL     1      19.087   9.888 -20.298  1.00  0.00     0.157 A 
ATOM      5  C   UNL     1      18.005  11.286 -21.963  1.00  0.00     0.051 A 
ATOM      6  C   UNL     1      19.085  11.048 -21.108  1.00  0.00     0.157 A 
ENDROOT
BRANCH   1   7
ATOM      7  C   UNL     1      15.773   8.307 -21.347  1.00  0.00     0.010 C 
ATOM      8  C   UNL     1      15.300   7.590 -20.317  1.00  0.00     0.025 C 
BRANCH   8   9
ATOM      9  C   UNL     1      14.152   6.679 -20.455  1.00  0.00     0.064 C 
ATOM     10  O   UNL     1      14.302   5.499 -20.873  1.00  0.00    -0.545 OA
ATOM     11  O   UNL     1      12.881   7.125 -20.118  1.00  0.00    -0.545 OA
ENDBRANCH   8   9
ENDBRANCH   1   7
BRANCH   4  12
ATOM     12  O   UNL     1      20.122   9.592 -19.409  1.00  0.00    -0.504 OA
ATOM     13  H   UNL     1      19.980   9.235 -18.475  1.00  0.00     0.293 HD
ENDBRANCH   4  12
BRANCH   6  14
ATOM     14  O   UNL     1      20.125  11.981 -21.094  1.00  0.00    -0.504 OA
ATOM     15  H   UNL     1      20.139  12.801 -20.506  1.00  0.00     0.293 HD
ENDBRANCH   6  14
TORSDOF 4
ENDMDL
MODEL 2
REMARK VINA RESULT:    -5.045      2.038      2.804
REMARK INTER + INTRA:          -6.052
REMARK INTER:                  -5.928
REMARK INTRA:                  -0.124
REMARK UNBOUND:                -0.122
REMARK SMILES O=C([O-])C=Cc1ccc(O)c(O)c1
REMARK SMILES IDX 6 1 13 2 7 3 11 4 8 5 9 6 5 7 4 8 2 9 1 10 3 11 12 12 10 14
REMARK H PARENT 12 13 10 15
REMARK Flexibility Score: inf
ROOT
ATOM      1  C   UNL     1      17.706  10.915 -21.150  1.00  0.00    -0.022 A 
ATOM      2  C   UNL     1      17.076  11.969 -20.458  1.00  0.00     0.058 A 
ATOM      3  C   UNL     1      19.087  10.988 -21.383  1.00  0.00     0.012 A 
ATOM      4  C   UNL     1      17.815  13.062 -19.985  1.00  0.00     0.157 A 
ATOM      5  C   UNL     1      19.829  12.071 -20.912  1.00  0.00     0.051 A 
ATOM      6  C   UNL     1      19.211  13.111 -20.210  1.00  0.00     0.157 A 
ENDROOT
BRANCH   1   7
ATOM      7  C   UNL     1      16.957   9.747 -21.678  1.00  0.00     0.010 C 
ATOM      8  C   UNL     1      16.478   8.760 -20.907  1.00  0.00     0.025 C 
BRANCH   8   9
ATOM      9  C   UNL     1      15.750   7.609 -21.467  1.00  0.00     0.064 C 
ATOM     10  O   UNL     1      15.581   7.486 -22.710  1.00  0.00    -0.545 OA
ATOM     11  O   UNL     1      15.240   6.642 -20.611  1.00  0.00    -0.545 OA
ENDBRANCH   8   9
ENDBRANCH   1   7
BRANCH   4  12
ATOM     12  O   UNL     1      17.126  14.069 -19.308  1.00  0.00    -0.504 OA
ATOM     13  H   UNL     1      16.244  14.455 -19.613  1.00  0.00     0.293 HD
ENDBRANCH   4  12
BRANCH   6  14
ATOM     14  O   UNL     1      20.012  14.163 -19.760  1.00  0.00    -0.504 OA
ATOM     15  H   UNL     1      19.650  15.027 -19.384  1.00  0.00     0.293 HD
ENDBRANCH   6  14
TORSDOF 4
ENDMDL
MODEL 3
REMARK VINA RESULT:    -4.974     15.775     16.849
REMARK INTER + INTRA:          -5.969
REMARK INTER:                  -5.833
REMARK INTRA:                  -0.136
REMARK UNBOUND:                -0.122
REMARK SMILES O=C([O-])C=Cc1ccc(O)c(O)c1
REMARK SMILES IDX 6 1 13 2 7 3 11 4 8 5 9 6 5 7 4 8 2 9 1 10 3 11 12 12 10 14
REMARK H PARENT 12 13 10 15
REMARK Flexibility Score: inf
ROOT
ATOM      1  C   UNL     1       7.230  -2.946 -27.152  1.00  0.00    -0.022 A 
ATOM      2  C   UNL     1       7.352  -3.276 -25.789  1.00  0.00     0.058 A 
ATOM      3  C   UNL     1       8.372  -2.993 -27.965  1.00  0.00     0.012 A 
ATOM      4  C   UNL     1       8.584  -3.670 -25.250  1.00  0.00     0.157 A 
ATOM      5  C   UNL     1       9.602  -3.388 -27.437  1.00  0.00     0.051 A 
ATOM      6  C   UNL     1       9.723  -3.732 -26.087  1.00  0.00     0.157 A 
ENDROOT
BRANCH   1   7
ATOM      7  C   UNL     1       5.946  -2.512 -27.758  1.00  0.00     0.010 C 
ATOM      8  C   UNL     1       5.784  -1.350 -28.405  1.00  0.00     0.025 C 
BRANCH   8   9
ATOM      9  C   UNL     1       4.492  -0.945 -28.983  1.00  0.00     0.064 C 
ATOM     10  O   UNL     1       3.703  -0.190 -28.353  1.00  0.00    -0.545 OA
ATOM     11  O   UNL     1       4.134  -1.403 -30.244  1.00  0.00    -0.545 OA
ENDBRANCH   8   9
ENDBRANCH   1   7
BRANCH   4  12
ATOM     12  O   UNL     1       8.631  -3.982 -23.890  1.00  0.00    -0.504 OA
ATOM     13  H   UNL     1       9.486  -4.129 -23.373  1.00  0.00     0.293 HD
ENDBRANCH   4  12
BRANCH   6  14
ATOM     14  O   UNL     1      10.981  -4.124 -25.623  1.00  0.00    -0.504 OA
ATOM     15  H   UNL     1      11.342  -3.897 -24.708  1.00  0.00     0.293 HD
ENDBRANCH   6  14
TORSDOF 4
ENDMDL
MODEL 4
REMARK VINA RESULT:    -4.928      2.249      6.014
REMARK INTER + INTRA:          -5.915
REMARK INTER:                  -5.785
REMARK INTRA:                  -0.129
REMARK UNBOUND:                -0.122
REMARK SMILES O=C([O-])C=Cc1ccc(O)c(O)c1
REMARK SMILES IDX 6 1 13 2 7 3 11 4 8 5 9 6 5 7 4 8 2 9 1 10 3 11 12 12 10 14
REMARK H PARENT 12 13 10 15
REMARK Flexibility Score: inf
ROOT
ATOM      1  C   UNL     1      17.502  10.378 -20.690  1.00  0.00    -0.022 A 
ATOM      2  C   UNL     1      16.703  10.154 -21.829  1.00  0.00     0.058 A 
ATOM      3  C   UNL     1      17.516   9.413 -19.673  1.00  0.00     0.012 A 
ATOM      4  C   UNL     1      15.954   8.978 -21.962  1.00  0.00     0.157 A 
ATOM      5  C   UNL     1      16.775   8.238 -19.800  1.00  0.00     0.051 A 
ATOM      6  C   UNL     1      15.994   8.005 -20.936  1.00  0.00     0.157 A 
ENDROOT
BRANCH   1   7
ATOM      7  C   UNL     1      18.299  11.616 -20.506  1.00  0.00     0.010 C 
ATOM      8  C   UNL     1      17.819  12.734 -19.942  1.00  0.00     0.025 C 
BRANCH   8   9
ATOM      9  C   UNL     1      18.636  13.949 -19.785  1.00  0.00     0.064 C 
ATOM     10  O   UNL     1      19.839  13.883 -19.415  1.00  0.00    -0.545 OA
ATOM     11  O   UNL     1      18.072  15.190 -20.049  1.00  0.00    -0.545 OA
ENDBRANCH   8   9
ENDBRANCH   1   7
BRANCH   4  12
ATOM     12  O   UNL     1      15.185   8.823 -23.117  1.00  0.00    -0.504 OA
ATOM     13  H   UNL     1      14.431   9.440 -23.382  1.00  0.00     0.293 HD
ENDBRANCH   4  12
BRANCH   6  14
ATOM     14  O   UNL     1      15.282   6.805 -21.005  1.00  0.00    -0.504 OA
ATOM     15  H   UNL     1      15.448   6.088 -21.695  1.00  0.00     0.293 HD
ENDBRANCH   6  14
TORSDOF 4
ENDMDL
MODEL 5
REMARK VINA RESULT:    -4.907     15.771     16.898
REMARK INTER + INTRA:          -5.890
REMARK INTER:                  -5.767
REMARK INTRA:                  -0.123
REMARK UNBOUND:                -0.122
REMARK SMILES O=C([O-])C=Cc1ccc(O)c(O)c1
REMARK SMILES IDX 6 1 13 2 7 3 11 4 8 5 9 6 5 7 4 8 2 9 1 10 3 11 12 12 10 14
REMARK H PARENT 12 13 10 15
REMARK Flexibility Score: inf
ROOT
ATOM      1  C   UNL     1       7.327  -2.928 -27.336  1.00  0.00    -0.022 A 
ATOM      2  C   UNL     1       8.444  -3.273 -28.121  1.00  0.00     0.058 A 
ATOM      3  C   UNL     1       7.427  -3.018 -25.940  1.00  0.00     0.012 A 
ATOM      4  C   UNL     1       9.647  -3.676 -27.525  1.00  0.00     0.157 A 
ATOM      5  C   UNL     1       8.622  -3.415 -25.338  1.00  0.00     0.051 A 
ATOM      6  C   UNL     1       9.738  -3.742 -26.115  1.00  0.00     0.157 A 
ENDROOT
BRANCH   1   7
ATOM      7  C   UNL     1       6.032  -2.510 -27.929  1.00  0.00     0.010 C 
ATOM      8  C   UNL     1       5.756  -1.253 -28.303  1.00  0.00     0.025 C 
BRANCH   8   9
ATOM      9  C   UNL     1       4.456  -0.871 -28.877  1.00  0.00     0.064 C 
ATOM     10  O   UNL     1       3.664  -0.114 -28.253  1.00  0.00    -0.545 OA
ATOM     11  O   UNL     1       4.093  -1.353 -30.128  1.00  0.00    -0.545 OA
ENDBRANCH   8   9
ENDBRANCH   1   7
BRANCH   4  12
ATOM     12  O   UNL     1      10.712  -4.002 -28.365  1.00  0.00    -0.504 OA
ATOM     13  H   UNL     1      10.605  -4.411 -29.282  1.00  0.00     0.293 HD
ENDBRANCH   4  12
BRANCH   6  14
ATOM     14  O   UNL     1      10.906  -4.125 -25.451  1.00  0.00    -0.504 OA
ATOM     15  H   UNL     1      11.352  -3.576 -24.731  1.00  0.00     0.293 HD
ENDBRANCH   6  14
TORSDOF 4
ENDMDL
MODEL 6
REMARK VINA RESULT:    -4.427     15.793     18.626
REMARK INTER + INTRA:          -5.326
REMARK INTER:                  -5.202
REMARK INTRA:                  -0.123
REMARK UNBOUND:                -0.122
REMARK SMILES O=C([O-])C=Cc1ccc(O)c(O)c1
REMARK SMILES IDX 6 1 13 2 7 3 11 4 8 5 9 6 5 7 4 8 2 9 1 10 3 11 12 12 10 14
REMARK H PARENT 12 13 10 15
REMARK Flexibility Score: inf
ROOT
ATOM      1  C   UNL     1       5.795  -2.321 -28.529  1.00  0.00    -0.022 A 
ATOM      2  C   UNL     1       4.703  -3.199 -28.391  1.00  0.00     0.058 A 
ATOM      3  C   UNL     1       5.855  -1.487 -29.655  1.00  0.00     0.012 A 
ATOM      4  C   UNL     1       3.677  -3.228 -29.346  1.00  0.00     0.157 A 
ATOM      5  C   UNL     1       4.836  -1.507 -30.607  1.00  0.00     0.051 A 
ATOM      6  C   UNL     1       3.742  -2.366 -30.466  1.00  0.00     0.157 A 
ENDROOT
BRANCH   1   7
ATOM      7  C   UNL     1       6.907  -2.270 -27.547  1.00  0.00     0.010 C 
ATOM      8  C   UNL     1       7.010  -3.094 -26.495  1.00  0.00     0.025 C 
BRANCH   8   9
ATOM      9  C   UNL     1       8.121  -3.008 -25.534  1.00  0.00     0.064 C 
ATOM     10  O   UNL     1       7.910  -2.996 -24.292  1.00  0.00    -0.545 OA
ATOM     11  O   UNL     1       9.426  -2.936 -26.003  1.00  0.00    -0.545 OA
ENDBRANCH   8   9
ENDBRANCH   1   7
BRANCH   4  12
ATOM     12  O   UNL     1       2.625  -4.124 -29.145  1.00  0.00    -0.504 OA
ATOM     13  H   UNL     1       2.120  -4.579 -29.892  1.00  0.00     0.293 HD
ENDBRANCH   4  12
BRANCH   6  14
ATOM     14  O   UNL     1       2.752  -2.332 -31.451  1.00  0.00    -0.504 OA
ATOM     15  H   UNL     1       1.766  -2.237 -31.258  1.00  0.00     0.293 HD
ENDBRANCH   6  14
TORSDOF 4
ENDMDL
MODEL 7
REMARK VINA RESULT:    -4.405     15.343     16.661
REMARK INTER + INTRA:          -5.299
REMARK INTER:                  -5.174
REMARK INTRA:                  -0.125
REMARK UNBOUND:                -0.122
REMARK SMILES O=C([O-])C=Cc1ccc(O)c(O)c1
REMARK SMILES IDX 6 1 13 2 7 3 11 4 8 5 9 6 5 7 4 8 2 9 1 10 3 11 12 12 10 14
REMARK H PARENT 12 13 10 15
REMARK Flexibility Score: inf
ROOT
ATOM      1  C   UNL     1       1.022   8.051 -16.416  1.00  0.00    -0.022 A 
ATOM      2  C   UNL     1       2.304   8.314 -15.895  1.00  0.00     0.058 A 
ATOM      3  C   UNL     1       0.063   9.075 -16.403  1.00  0.00     0.012 A 
ATOM      4  C   UNL     1       2.632   9.581 -15.395  1.00  0.00     0.157 A 
ATOM      5  C   UNL     1       0.383  10.340 -15.909  1.00  0.00     0.051 A 
ATOM      6  C   UNL     1       1.660  10.609 -15.407  1.00  0.00     0.157 A 
ENDROOT
BRANCH   1   7
ATOM      7  C   UNL     1       0.632   6.720 -16.943  1.00  0.00     0.010 C 
ATOM      8  C   UNL     1       0.575   5.610 -16.193  1.00  0.00     0.025 C 
BRANCH   8   9
ATOM      9  C   UNL     1       0.195   4.302 -16.753  1.00  0.00     0.064 C 
ATOM     10  O   UNL     1      -0.125   3.340 -16.004  1.00  0.00    -0.545 OA
ATOM     11  O   UNL     1       0.190   4.123 -18.130  1.00  0.00    -0.545 OA
ENDBRANCH   8   9
ENDBRANCH   1   7
BRANCH   4  12
ATOM     12  O   UNL     1       3.921   9.770 -14.894  1.00  0.00    -0.504 OA
ATOM     13  H   UNL     1       4.697  10.108 -15.445  1.00  0.00     0.293 HD
ENDBRANCH   4  12
BRANCH   6  14
ATOM     14  O   UNL     1       1.917  11.898 -14.933  1.00  0.00    -0.504 OA
ATOM     15  H   UNL     1       1.922  12.150 -13.956  1.00  0.00     0.293 HD
ENDBRANCH   6  14
TORSDOF 4
ENDMDL
