MODEL 1
REMARK VINA RESULT:    -5.523      0.000      0.000
REMARK INTER + INTRA:          -6.468
REMARK INTER:                  -6.330
REMARK INTRA:                  -0.138
REMARK UNBOUND:                -0.138
REMARK SMILES O=C([O-])C=Cc1ccc(O)cc1
REMARK SMILES IDX 6 1 7 2 12 3 8 4 11 5 9 6 5 7 4 8 2 9 1 10 3 11 10 12
REMARK H PARENT 10 13
REMARK Flexibility Score: inf
ROOT
ATOM      1  C   UNL     1     -33.512  11.601 -35.572  1.00  0.00    -0.025 A 
ATOM      2  C   UNL     1     -33.303  11.967 -36.917  1.00  0.00     0.012 A 
ATOM      3  C   UNL     1     -34.045  10.331 -35.290  1.00  0.00     0.012 A 
ATOM      4  C   UNL     1     -33.599  11.069 -37.949  1.00  0.00     0.047 A 
ATOM      5  C   UNL     1     -34.339   9.436 -36.323  1.00  0.00     0.047 A 
ATOM      6  C   UNL     1     -34.114   9.804 -37.656  1.00  0.00     0.115 A 
ENDROOT
BRANCH   1   7
ATOM      7  C   UNL     1     -33.226  12.518 -34.441  1.00  0.00     0.010 C 
ATOM      8  C   UNL     1     -32.316  12.266 -33.489  1.00  0.00     0.025 C 
BRANCH   8   9
ATOM      9  C   UNL     1     -32.074  13.202 -32.379  1.00  0.00     0.064 C 
ATOM     10  O   UNL     1     -31.532  14.313 -32.611  1.00  0.00    -0.545 OA
ATOM     11  O   UNL     1     -32.435  12.878 -31.076  1.00  0.00    -0.545 OA
ENDBRANCH   8   9
ENDBRANCH   1   7
BRANCH   6  12
ATOM     12  O   UNL     1     -34.404   8.922 -38.695  1.00  0.00    -0.508 OA
ATOM     13  H   UNL     1     -34.067   9.086 -39.637  1.00  0.00     0.293 HD
ENDBRANCH   6  12
TORSDOF 3
ENDMDL
MODEL 2
REMARK VINA RESULT:    -5.488      0.176      1.407
REMARK INTER + INTRA:          -6.427
REMARK INTER:                  -6.292
REMARK INTRA:                  -0.136
REMARK UNBOUND:                -0.138
REMARK SMILES O=C([O-])C=Cc1ccc(O)cc1
REMARK SMILES IDX 6 1 7 2 12 3 8 4 11 5 9 6 5 7 4 8 2 9 1 10 3 11 10 12
REMARK H PARENT 10 13
REMARK Flexibility Score: inf
ROOT
ATOM      1  C   UNL     1     -33.497  11.630 -35.543  1.00  0.00    -0.025 A 
ATOM      2  C   UNL     1     -33.926  10.301 -35.350  1.00  0.00     0.012 A 
ATOM      3  C   UNL     1     -33.265  12.084 -36.853  1.00  0.00     0.012 A 
ATOM      4  C   UNL     1     -34.139   9.459 -36.447  1.00  0.00     0.047 A 
ATOM      5  C   UNL     1     -33.481  11.240 -37.947  1.00  0.00     0.047 A 
ATOM      6  C   UNL     1     -33.920   9.926 -37.745  1.00  0.00     0.115 A 
ENDROOT
BRANCH   1   7
ATOM      7  C   UNL     1     -33.245  12.560 -34.415  1.00  0.00     0.010 C 
ATOM      8  C   UNL     1     -32.364  12.320 -33.433  1.00  0.00     0.025 C 
BRANCH   8   9
ATOM      9  C   UNL     1     -32.156  13.268 -32.327  1.00  0.00     0.064 C 
ATOM     10  O   UNL     1     -31.641  14.392 -32.561  1.00  0.00    -0.545 OA
ATOM     11  O   UNL     1     -32.519  12.942 -31.025  1.00  0.00    -0.545 OA
ENDBRANCH   8   9
ENDBRANCH   1   7
BRANCH   6  12
ATOM     12  O   UNL     1     -34.138   9.075 -38.828  1.00  0.00    -0.508 OA
ATOM     13  H   UNL     1     -33.395   8.844 -39.476  1.00  0.00     0.293 HD
ENDBRANCH   6  12
TORSDOF 3
ENDMDL
MODEL 3
REMARK VINA RESULT:    -5.375      1.558      5.903
REMARK INTER + INTRA:          -6.299
REMARK INTER:                  -6.152
REMARK INTRA:                  -0.147
REMARK UNBOUND:                -0.138
REMARK SMILES O=C([O-])C=Cc1ccc(O)cc1
REMARK SMILES IDX 6 1 7 2 12 3 8 4 11 5 9 6 5 7 4 8 2 9 1 10 3 11 10 12
REMARK H PARENT 10 13
REMARK Flexibility Score: inf
ROOT
ATOM      1  C   UNL     1     -33.097  10.972 -36.162  1.00  0.00    -0.025 A 
ATOM      2  C   UNL     1     -32.280  10.229 -35.286  1.00  0.00     0.012 A 
ATOM      3  C   UNL     1     -33.634  12.192 -35.717  1.00  0.00     0.012 A 
ATOM      4  C   UNL     1     -31.991  10.713 -34.005  1.00  0.00     0.047 A 
ATOM      5  C   UNL     1     -33.342  12.674 -34.437  1.00  0.00     0.047 A 
ATOM      6  C   UNL     1     -32.518  11.934 -33.579  1.00  0.00     0.115 A 
ENDROOT
BRANCH   1   7
ATOM      7  C   UNL     1     -33.443  10.499 -37.525  1.00  0.00     0.010 C 
ATOM      8  C   UNL     1     -33.629  11.315 -38.572  1.00  0.00     0.025 C 
BRANCH   8   9
ATOM      9  C   UNL     1     -33.983  10.800 -39.905  1.00  0.00     0.064 C 
ATOM     10  O   UNL     1     -33.275   9.904 -40.432  1.00  0.00    -0.545 OA
ATOM     11  O   UNL     1     -35.089  11.288 -40.592  1.00  0.00    -0.545 OA
ENDBRANCH   8   9
ENDBRANCH   1   7
BRANCH   6  12
ATOM     12  O   UNL     1     -32.220  12.403 -32.301  1.00  0.00    -0.508 OA
ATOM     13  H   UNL     1     -32.948  12.723 -31.672  1.00  0.00     0.293 HD
ENDBRANCH   6  12
TORSDOF 3
ENDMDL
MODEL 4
REMARK VINA RESULT:    -5.321      2.004      2.910
REMARK INTER + INTRA:          -6.236
REMARK INTER:                  -6.096
REMARK INTRA:                  -0.140
REMARK UNBOUND:                -0.138
REMARK SMILES O=C([O-])C=Cc1ccc(O)cc1
REMARK SMILES IDX 6 1 7 2 12 3 8 4 11 5 9 6 5 7 4 8 2 9 1 10 3 11 10 12
REMARK H PARENT 10 13
REMARK Flexibility Score: inf
ROOT
ATOM      1  C   UNL     1     -33.542  11.444 -37.715  1.00  0.00    -0.025 A 
ATOM      2  C   UNL     1     -33.731  10.193 -38.337  1.00  0.00     0.012 A 
ATOM      3  C   UNL     1     -33.947  12.607 -38.394  1.00  0.00     0.012 A 
ATOM      4  C   UNL     1     -34.335  10.113 -39.596  1.00  0.00     0.047 A 
ATOM      5  C   UNL     1     -34.551  12.522 -39.652  1.00  0.00     0.047 A 
ATOM      6  C   UNL     1     -34.748  11.274 -40.255  1.00  0.00     0.115 A 
ENDROOT
BRANCH   1   7
ATOM      7  C   UNL     1     -32.897  11.586 -36.387  1.00  0.00     0.010 C 
ATOM      8  C   UNL     1     -33.507  12.107 -35.313  1.00  0.00     0.025 C 
BRANCH   8   9
ATOM      9  C   UNL     1     -32.823  12.239 -34.017  1.00  0.00     0.064 C 
ATOM     10  O   UNL     1     -32.003  11.355 -33.656  1.00  0.00    -0.545 OA
ATOM     11  O   UNL     1     -33.066  13.324 -33.184  1.00  0.00    -0.545 OA
ENDBRANCH   8   9
ENDBRANCH   1   7
BRANCH   6  12
ATOM     12  O   UNL     1     -35.348  11.177 -41.509  1.00  0.00    -0.508 OA
ATOM     13  H   UNL     1     -36.298  10.841 -41.615  1.00  0.00     0.293 HD
ENDBRANCH   6  12
TORSDOF 3
ENDMDL
MODEL 5
REMARK VINA RESULT:    -5.320      1.585      5.868
REMARK INTER + INTRA:          -6.235
REMARK INTER:                  -6.093
REMARK INTRA:                  -0.142
REMARK UNBOUND:                -0.138
REMARK SMILES O=C([O-])C=Cc1ccc(O)cc1
REMARK SMILES IDX 6 1 7 2 12 3 8 4 11 5 9 6 5 7 4 8 2 9 1 10 3 11 10 12
REMARK H PARENT 10 13
REMARK Flexibility Score: inf
ROOT
ATOM      1  C   UNL     1     -33.044  10.927 -36.274  1.00  0.00    -0.025 A 
ATOM      2  C   UNL     1     -33.603  12.146 -35.837  1.00  0.00     0.012 A 
ATOM      3  C   UNL     1     -32.215  10.209 -35.394  1.00  0.00     0.012 A 
ATOM      4  C   UNL     1     -33.354  12.616 -34.543  1.00  0.00     0.047 A 
ATOM      5  C   UNL     1     -31.970  10.681 -34.101  1.00  0.00     0.047 A 
ATOM      6  C   UNL     1     -32.541  11.886 -33.673  1.00  0.00     0.115 A 
ENDROOT
BRANCH   1   7
ATOM      7  C   UNL     1     -33.266  10.390 -37.638  1.00  0.00     0.010 C 
ATOM      8  C   UNL     1     -33.674  11.134 -38.675  1.00  0.00     0.025 C 
BRANCH   8   9
ATOM      9  C   UNL     1     -33.892  10.555 -40.011  1.00  0.00     0.064 C 
ATOM     10  O   UNL     1     -33.017   9.801 -40.510  1.00  0.00    -0.545 OA
ATOM     11  O   UNL     1     -35.051  10.825 -40.730  1.00  0.00    -0.545 OA
ENDBRANCH   8   9
ENDBRANCH   1   7
BRANCH   6  12
ATOM     12  O   UNL     1     -32.304  12.367 -32.387  1.00  0.00    -0.508 OA
ATOM     13  H   UNL     1     -31.524  12.982 -32.188  1.00  0.00     0.293 HD
ENDBRANCH   6  12
TORSDOF 3
ENDMDL
MODEL 6
REMARK VINA RESULT:    -5.119      2.093      6.224
REMARK INTER + INTRA:          -6.005
REMARK INTER:                  -5.870
REMARK INTRA:                  -0.136
REMARK UNBOUND:                -0.138
REMARK SMILES O=C([O-])C=Cc1ccc(O)cc1
REMARK SMILES IDX 6 1 7 2 12 3 8 4 11 5 9 6 5 7 4 8 2 9 1 10 3 11 10 12
REMARK H PARENT 10 13
REMARK Flexibility Score: inf
ROOT
ATOM      1  C   UNL     1     -33.169  11.093 -37.316  1.00  0.00    -0.025 A 
ATOM      2  C   UNL     1     -32.471  10.033 -36.701  1.00  0.00     0.012 A 
ATOM      3  C   UNL     1     -33.577  12.183 -36.528  1.00  0.00     0.012 A 
ATOM      4  C   UNL     1     -32.171  10.081 -35.336  1.00  0.00     0.047 A 
ATOM      5  C   UNL     1     -33.273  12.228 -35.163  1.00  0.00     0.047 A 
ATOM      6  C   UNL     1     -32.568  11.177 -34.565  1.00  0.00     0.115 A 
ENDROOT
BRANCH   1   7
ATOM      7  C   UNL     1     -33.523  11.087 -38.757  1.00  0.00     0.010 C 
ATOM      8  C   UNL     1     -34.215  10.105 -39.350  1.00  0.00     0.025 C 
BRANCH   8   9
ATOM      9  C   UNL     1     -34.533  10.137 -40.787  1.00  0.00     0.064 C 
ATOM     10  O   UNL     1     -34.055   9.256 -41.548  1.00  0.00    -0.545 OA
ATOM     11  O   UNL     1     -35.355  11.124 -41.319  1.00  0.00    -0.545 OA
ENDBRANCH   8   9
ENDBRANCH   1   7
BRANCH   6  12
ATOM     12  O   UNL     1     -32.260  11.209 -33.206  1.00  0.00    -0.508 OA
ATOM     13  H   UNL     1     -32.980  11.332 -32.504  1.00  0.00     0.293 HD
ENDBRANCH   6  12
TORSDOF 3
ENDMDL
MODEL 7
REMARK VINA RESULT:    -3.854      3.839      5.591
REMARK INTER + INTRA:          -4.555
REMARK INTER:                  -4.420
REMARK INTRA:                  -0.135
REMARK UNBOUND:                -0.138
REMARK SMILES O=C([O-])C=Cc1ccc(O)cc1
REMARK SMILES IDX 6 1 7 2 12 3 8 4 11 5 9 6 5 7 4 8 2 9 1 10 3 11 10 12
REMARK H PARENT 10 13
REMARK Flexibility Score: inf
ROOT
ATOM      1  C   UNL     1     -34.615  10.153 -40.353  1.00  0.00    -0.025 A 
ATOM      2  C   UNL     1     -35.251  11.359 -40.713  1.00  0.00     0.012 A 
ATOM      3  C   UNL     1     -34.695   9.057 -41.230  1.00  0.00     0.012 A 
ATOM      4  C   UNL     1     -35.927  11.466 -41.933  1.00  0.00     0.047 A 
ATOM      5  C   UNL     1     -35.370   9.169 -42.450  1.00  0.00     0.047 A 
ATOM      6  C   UNL     1     -35.986  10.375 -42.803  1.00  0.00     0.115 A 
ENDROOT
BRANCH   1   7
ATOM      7  C   UNL     1     -33.895   9.982 -39.067  1.00  0.00     0.010 C 
ATOM      8  C   UNL     1     -32.892  10.774 -38.663  1.00  0.00     0.025 C 
BRANCH   8   9
ATOM      9  C   UNL     1     -32.199  10.559 -37.383  1.00  0.00     0.064 C 
ATOM     10  O   UNL     1     -32.796  10.812 -36.304  1.00  0.00    -0.545 OA
ATOM     11  O   UNL     1     -30.895  10.079 -37.344  1.00  0.00    -0.545 OA
ENDBRANCH   8   9
ENDBRANCH   1   7
BRANCH   6  12
ATOM     12  O   UNL     1     -36.663  10.499 -44.015  1.00  0.00    -0.508 OA
ATOM     13  H   UNL     1     -36.554  11.319 -44.601  1.00  0.00     0.293 HD
ENDBRANCH   6  12
TORSDOF 3
ENDMDL
MODEL 8
REMARK VINA RESULT:    -3.646     18.453     20.850
REMARK INTER + INTRA:          -4.316
REMARK INTER:                  -4.183
REMARK INTRA:                  -0.134
REMARK UNBOUND:                -0.138
REMARK SMILES O=C([O-])C=Cc1ccc(O)cc1
REMARK SMILES IDX 6 1 7 2 12 3 8 4 11 5 9 6 5 7 4 8 2 9 1 10 3 11 10 12
REMARK H PARENT 10 13
REMARK Flexibility Score: inf
ROOT
ATOM      1  C   UNL     1     -25.033  27.374 -25.303  1.00  0.00    -0.025 A 
ATOM      2  C   UNL     1     -25.980  28.090 -24.541  1.00  0.00     0.012 A 
ATOM      3  C   UNL     1     -25.474  26.300 -26.095  1.00  0.00     0.012 A 
ATOM      4  C   UNL     1     -27.336  27.749 -24.596  1.00  0.00     0.047 A 
ATOM      5  C   UNL     1     -26.830  25.964 -26.149  1.00  0.00     0.047 A 
ATOM      6  C   UNL     1     -27.764  26.690 -25.399  1.00  0.00     0.115 A 
ENDROOT
BRANCH   1   7
ATOM      7  C   UNL     1     -23.583  27.686 -25.272  1.00  0.00     0.010 C 
ATOM      8  C   UNL     1     -22.993  28.567 -26.092  1.00  0.00     0.025 C 
BRANCH   8   9
ATOM      9  C   UNL     1     -21.547  28.836 -26.032  1.00  0.00     0.064 C 
ATOM     10  O   UNL     1     -20.907  29.025 -27.099  1.00  0.00    -0.545 OA
ATOM     11  O   UNL     1     -20.875  28.884 -24.817  1.00  0.00    -0.545 OA
ENDBRANCH   8   9
ENDBRANCH   1   7
BRANCH   6  12
ATOM     12  O   UNL     1     -29.119  26.364 -25.443  1.00  0.00    -0.508 OA
ATOM     13  H   UNL     1     -29.547  25.788 -24.728  1.00  0.00     0.293 HD
ENDBRANCH   6  12
TORSDOF 3
ENDMDL
MODEL 9
REMARK VINA RESULT:    -3.419     14.659     17.226
REMARK INTER + INTRA:          -4.057
REMARK INTER:                  -3.923
REMARK INTRA:                  -0.134
REMARK UNBOUND:                -0.138
REMARK SMILES O=C([O-])C=Cc1ccc(O)cc1
REMARK SMILES IDX 6 1 7 2 12 3 8 4 11 5 9 6 5 7 4 8 2 9 1 10 3 11 10 12
REMARK H PARENT 10 13
REMARK Flexibility Score: inf
ROOT
ATOM      1  C   UNL     1     -24.625  25.863 -34.716  1.00  0.00    -0.025 A 
ATOM      2  C   UNL     1     -23.993  26.119 -35.950  1.00  0.00     0.012 A 
ATOM      3  C   UNL     1     -24.347  26.704 -33.625  1.00  0.00     0.012 A 
ATOM      4  C   UNL     1     -23.125  27.207 -36.088  1.00  0.00     0.047 A 
ATOM      5  C   UNL     1     -23.479  27.791 -33.767  1.00  0.00     0.047 A 
ATOM      6  C   UNL     1     -22.867  28.045 -35.001  1.00  0.00     0.115 A 
ENDROOT
BRANCH   1   7
ATOM      7  C   UNL     1     -25.545  24.717 -34.513  1.00  0.00     0.010 C 
ATOM      8  C   UNL     1     -26.723  24.586 -35.139  1.00  0.00     0.025 C 
BRANCH   8   9
ATOM      9  C   UNL     1     -27.609  23.436 -34.896  1.00  0.00     0.064 C 
ATOM     10  O   UNL     1     -28.015  22.750 -35.870  1.00  0.00    -0.545 OA
ATOM     11  O   UNL     1     -28.006  23.094 -33.609  1.00  0.00    -0.545 OA
ENDBRANCH   8   9
ENDBRANCH   1   7
BRANCH   6  12
ATOM     12  O   UNL     1     -22.000  29.125 -35.155  1.00  0.00    -0.508 OA
ATOM     13  H   UNL     1     -21.951  29.644 -36.024  1.00  0.00     0.293 HD
ENDBRANCH   6  12
TORSDOF 3
ENDMDL
