MODEL 1
REMARK VINA RESULT:    -1.609      0.000      0.000
REMARK INTER + INTRA:          -4.230
REMARK INTER:                  -2.550
REMARK INTRA:                  -1.680
REMARK UNBOUND:                -1.680
REMARK SMILES CCCCCCCCCCCC(=O)[O-]
REMARK SMILES IDX 7 1 8 2 9 3 10 4 11 5 12 6 13 7 14 8 6 9 5 10 4 11 3 12 2 13
REMARK SMILES IDX 1 14
REMARK H PARENT
REMARK Flexibility Score: inf
ROOT
ATOM      1  C   UNL     1     116.509  17.611  27.360  1.00  0.00     0.000 C 
ENDROOT
BRANCH   1   2
ATOM      2  C   UNL     1     115.597  17.492  26.130  1.00  0.00     0.000 C 
BRANCH   2   3
ATOM      3  C   UNL     1     116.206  16.589  25.036  1.00  0.00     0.000 C 
BRANCH   3   4
ATOM      4  C   UNL     1     115.580  15.185  24.978  1.00  0.00     0.006 C 
BRANCH   4   5
ATOM      5  C   UNL     1     116.594  14.066  25.242  1.00  0.00     0.053 C 
BRANCH   5   6
ATOM      6  C   UNL     1     115.988  12.731  24.946  1.00  0.00     0.041 C 
ATOM      7  O   UNL     1     114.900  12.396  25.483  1.00  0.00    -0.550 OA
ATOM      8  O   UNL     1     116.601  11.875  24.040  1.00  0.00    -0.550 OA
ENDBRANCH   5   6
ENDBRANCH   4   5
ENDBRANCH   3   4
ENDBRANCH   2   3
ENDBRANCH   1   2
BRANCH   1   9
ATOM      9  C   UNL     1     117.910  17.055  27.062  1.00  0.00     0.000 C 
BRANCH   9  10
ATOM     10  C   UNL     1     118.356  15.991  28.076  1.00  0.00    -0.000 C 
BRANCH  10  11
ATOM     11  C   UNL     1     117.190  15.467  28.934  1.00  0.00    -0.000 C 
BRANCH  11  12
ATOM     12  C   UNL     1     117.038  13.940  28.854  1.00  0.00    -0.000 C 
BRANCH  12  13
ATOM     13  C   UNL     1     115.568  13.490  28.843  1.00  0.00    -0.003 C 
ATOM     14  C   UNL     1     114.636  14.664  28.565  1.00  0.00     0.004 C 
ENDBRANCH  12  13
ENDBRANCH  11  12
ENDBRANCH  10  11
ENDBRANCH   9  10
ENDBRANCH   1   9
TORSDOF 10
ENDMDL
MODEL 2
REMARK VINA RESULT:    -1.606      2.080      4.874
REMARK INTER + INTRA:          -4.225
REMARK INTER:                  -2.802
REMARK INTRA:                  -1.423
REMARK UNBOUND:                -1.680
REMARK SMILES CCCCCCCCCCCC(=O)[O-]
REMARK SMILES IDX 7 1 8 2 9 3 10 4 11 5 12 6 13 7 14 8 6 9 5 10 4 11 3 12 2 13
REMARK SMILES IDX 1 14
REMARK H PARENT
REMARK Flexibility Score: inf
ROOT
ATOM      1  C   UNL     1     115.483  15.363  24.959  1.00  0.00     0.000 C 
ENDROOT
BRANCH   1   2
ATOM      2  C   UNL     1     116.917  15.073  25.428  1.00  0.00     0.000 C 
BRANCH   2   3
ATOM      3  C   UNL     1     117.365  16.023  26.559  1.00  0.00     0.000 C 
BRANCH   3   4
ATOM      4  C   UNL     1     116.806  15.640  27.941  1.00  0.00     0.006 C 
BRANCH   4   5
ATOM      5  C   UNL     1     117.075  14.178  28.311  1.00  0.00     0.053 C 
BRANCH   5   6
ATOM      6  C   UNL     1     115.791  13.464  28.591  1.00  0.00     0.041 C 
ATOM      7  O   UNL     1     114.698  14.087  28.549  1.00  0.00    -0.550 OA
ATOM      8  O   UNL     1     115.796  12.100  28.849  1.00  0.00    -0.550 OA
ENDBRANCH   5   6
ENDBRANCH   4   5
ENDBRANCH   3   4
ENDBRANCH   2   3
ENDBRANCH   1   2
BRANCH   1   9
ATOM      9  C   UNL     1     114.629  14.086  24.977  1.00  0.00     0.000 C 
BRANCH   9  10
ATOM     10  C   UNL     1     115.475  12.804  25.013  1.00  0.00    -0.000 C 
BRANCH  10  11
ATOM     11  C   UNL     1     115.197  11.878  23.817  1.00  0.00    -0.000 C 
BRANCH  11  12
ATOM     12  C   UNL     1     115.600  12.511  22.475  1.00  0.00    -0.000 C 
BRANCH  12  13
ATOM     13  C   UNL     1     117.122  12.641  22.314  1.00  0.00    -0.003 C 
ATOM     14  C   UNL     1     117.511  14.055  21.894  1.00  0.00     0.004 C 
ENDBRANCH  12  13
ENDBRANCH  11  12
ENDBRANCH  10  11
ENDBRANCH   9  10
ENDBRANCH   1   9
TORSDOF 10
ENDMDL
MODEL 3
REMARK VINA RESULT:    -1.532      1.927      2.938
REMARK INTER + INTRA:          -4.108
REMARK INTER:                  -2.895
REMARK INTRA:                  -1.213
REMARK UNBOUND:                -1.680
REMARK SMILES CCCCCCCCCCCC(=O)[O-]
REMARK SMILES IDX 7 1 8 2 9 3 10 4 11 5 12 6 13 7 14 8 6 9 5 10 4 11 3 12 2 13
REMARK SMILES IDX 1 14
REMARK H PARENT
REMARK Flexibility Score: inf
ROOT
ATOM      1  C   UNL     1     115.836  15.471  25.044  1.00  0.00     0.000 C 
ENDROOT
BRANCH   1   2
ATOM      2  C   UNL     1     115.190  14.088  24.877  1.00  0.00     0.000 C 
BRANCH   2   3
ATOM      3  C   UNL     1     116.182  12.941  25.167  1.00  0.00     0.000 C 
BRANCH   3   4
ATOM      4  C   UNL     1     116.323  11.941  24.007  1.00  0.00     0.006 C 
BRANCH   4   5
ATOM      5  C   UNL     1     116.945  12.564  22.753  1.00  0.00     0.053 C 
BRANCH   5   6
ATOM      6  C   UNL     1     115.993  12.485  21.602  1.00  0.00     0.041 C 
ATOM      7  O   UNL     1     116.422  12.535  20.419  1.00  0.00    -0.550 OA
ATOM      8  O   UNL     1     114.635  12.309  21.834  1.00  0.00    -0.550 OA
ENDBRANCH   5   6
ENDBRANCH   4   5
ENDBRANCH   3   4
ENDBRANCH   2   3
ENDBRANCH   1   2
BRANCH   1   9
ATOM      9  C   UNL     1     117.184  15.365  25.774  1.00  0.00     0.000 C 
BRANCH   9  10
ATOM     10  C   UNL     1     117.120  15.880  27.220  1.00  0.00    -0.000 C 
BRANCH  10  11
ATOM     11  C   UNL     1     117.424  14.780  28.252  1.00  0.00    -0.000 C 
BRANCH  11  12
ATOM     12  C   UNL     1     116.165  14.302  28.994  1.00  0.00    -0.000 C 
BRANCH  12  13
ATOM     13  C   UNL     1     115.993  12.776  28.948  1.00  0.00    -0.003 C 
ATOM     14  C   UNL     1     114.593  12.395  28.476  1.00  0.00     0.004 C 
ENDBRANCH  12  13
ENDBRANCH  11  12
ENDBRANCH  10  11
ENDBRANCH   9  10
ENDBRANCH   1   9
TORSDOF 10
ENDMDL
MODEL 4
REMARK VINA RESULT:    -1.510      2.701      5.393
REMARK INTER + INTRA:          -4.072
REMARK INTER:                  -2.784
REMARK INTRA:                  -1.288
REMARK UNBOUND:                -1.680
REMARK SMILES CCCCCCCCCCCC(=O)[O-]
REMARK SMILES IDX 7 1 8 2 9 3 10 4 11 5 12 6 13 7 14 8 6 9 5 10 4 11 3 12 2 13
REMARK SMILES IDX 1 14
REMARK H PARENT
REMARK Flexibility Score: inf
ROOT
ATOM      1  C   UNL     1     115.149  12.781  22.170  1.00  0.00     0.000 C 
ENDROOT
BRANCH   1   2
ATOM      2  C   UNL     1     115.900  12.045  23.290  1.00  0.00     0.000 C 
BRANCH   2   3
ATOM      3  C   UNL     1     115.410  12.463  24.694  1.00  0.00     0.000 C 
BRANCH   3   4
ATOM      4  C   UNL     1     116.343  13.464  25.398  1.00  0.00     0.006 C 
BRANCH   4   5
ATOM      5  C   UNL     1     115.696  14.126  26.619  1.00  0.00     0.053 C 
BRANCH   5   6
ATOM      6  C   UNL     1     116.681  14.233  27.739  1.00  0.00     0.041 C 
ATOM      7  O   UNL     1     116.669  13.392  28.676  1.00  0.00    -0.550 OA
ATOM      8  O   UNL     1     117.646  15.232  27.724  1.00  0.00    -0.550 OA
ENDBRANCH   5   6
ENDBRANCH   4   5
ENDBRANCH   3   4
ENDBRANCH   2   3
ENDBRANCH   1   2
BRANCH   1   9
ATOM      9  C   UNL     1     115.912  14.040  21.732  1.00  0.00     0.000 C 
BRANCH   9  10
ATOM     10  C   UNL     1     117.435  13.893  21.873  1.00  0.00    -0.000 C 
BRANCH  10  11
ATOM     11  C   UNL     1     118.108  15.179  22.382  1.00  0.00    -0.000 C 
BRANCH  11  12
ATOM     12  C   UNL     1     117.091  16.240  22.831  1.00  0.00    -0.000 C 
BRANCH  12  13
ATOM     13  C   UNL     1     117.368  16.767  24.248  1.00  0.00    -0.003 C 
ATOM     14  C   UNL     1     118.825  16.547  24.640  1.00  0.00     0.004 C 
ENDBRANCH  12  13
ENDBRANCH  11  12
ENDBRANCH  10  11
ENDBRANCH   9  10
ENDBRANCH   1   9
TORSDOF 10
ENDMDL
MODEL 5
REMARK VINA RESULT:    -1.507      3.217      4.991
REMARK INTER + INTRA:          -4.069
REMARK INTER:                  -2.628
REMARK INTRA:                  -1.441
REMARK UNBOUND:                -1.680
REMARK SMILES CCCCCCCCCCCC(=O)[O-]
REMARK SMILES IDX 7 1 8 2 9 3 10 4 11 5 12 6 13 7 14 8 6 9 5 10 4 11 3 12 2 13
REMARK SMILES IDX 1 14
REMARK H PARENT
REMARK Flexibility Score: inf
ROOT
ATOM      1  C   UNL     1     119.229  17.551  22.977  1.00  0.00     0.000 C 
ENDROOT
BRANCH   1   2
ATOM      2  C   UNL     1     118.347  17.571  24.234  1.00  0.00     0.000 C 
BRANCH   2   3
ATOM      3  C   UNL     1     118.676  16.411  25.198  1.00  0.00     0.000 C 
BRANCH   3   4
ATOM      4  C   UNL     1     117.581  16.151  26.246  1.00  0.00     0.006 C 
BRANCH   4   5
ATOM      5  C   UNL     1     116.801  14.857  25.988  1.00  0.00     0.053 C 
BRANCH   5   6
ATOM      6  C   UNL     1     116.475  14.177  27.280  1.00  0.00     0.041 C 
ATOM      7  O   UNL     1     115.417  13.504  27.393  1.00  0.00    -0.550 OA
ATOM      8  O   UNL     1     117.364  14.246  28.345  1.00  0.00    -0.550 OA
ENDBRANCH   5   6
ENDBRANCH   4   5
ENDBRANCH   3   4
ENDBRANCH   2   3
ENDBRANCH   1   2
BRANCH   1   9
ATOM      9  C   UNL     1     119.878  16.172  22.782  1.00  0.00     0.000 C 
BRANCH   9  10
ATOM     10  C   UNL     1     119.681  15.616  21.364  1.00  0.00    -0.000 C 
BRANCH  10  11
ATOM     11  C   UNL     1     118.246  15.116  21.119  1.00  0.00    -0.000 C 
BRANCH  11  12
ATOM     12  C   UNL     1     117.759  14.160  22.220  1.00  0.00    -0.000 C 
BRANCH  12  13
ATOM     13  C   UNL     1     116.242  14.244  22.450  1.00  0.00    -0.003 C 
ATOM     14  C   UNL     1     115.752  15.685  22.363  1.00  0.00     0.004 C 
ENDBRANCH  12  13
ENDBRANCH  11  12
ENDBRANCH  10  11
ENDBRANCH   9  10
ENDBRANCH   1   9
TORSDOF 10
ENDMDL
MODEL 6
REMARK VINA RESULT:    -1.500      2.897      5.024
REMARK INTER + INTRA:          -4.057
REMARK INTER:                  -2.460
REMARK INTRA:                  -1.597
REMARK UNBOUND:                -1.680
REMARK SMILES CCCCCCCCCCCC(=O)[O-]
REMARK SMILES IDX 7 1 8 2 9 3 10 4 11 5 12 6 13 7 14 8 6 9 5 10 4 11 3 12 2 13
REMARK SMILES IDX 1 14
REMARK H PARENT
REMARK Flexibility Score: inf
ROOT
ATOM      1  C   UNL     1     113.322  14.910  27.686  1.00  0.00     0.000 C 
ENDROOT
BRANCH   1   2
ATOM      2  C   UNL     1     114.707  15.319  28.210  1.00  0.00     0.000 C 
BRANCH   2   3
ATOM      3  C   UNL     1     115.530  14.105  28.693  1.00  0.00     0.000 C 
BRANCH   3   4
ATOM      4  C   UNL     1     117.025  14.197  28.342  1.00  0.00     0.006 C 
BRANCH   4   5
ATOM      5  C   UNL     1     117.347  15.360  27.397  1.00  0.00     0.053 C 
BRANCH   5   6
ATOM      6  C   UNL     1     118.453  16.198  27.957  1.00  0.00     0.041 C 
ATOM      7  O   UNL     1     118.876  15.991  29.125  1.00  0.00    -0.550 OA
ATOM      8  O   UNL     1     119.051  17.175  27.172  1.00  0.00    -0.550 OA
ENDBRANCH   5   6
ENDBRANCH   4   5
ENDBRANCH   3   4
ENDBRANCH   2   3
ENDBRANCH   1   2
BRANCH   1   9
ATOM      9  C   UNL     1     113.174  13.382  27.655  1.00  0.00     0.000 C 
BRANCH   9  10
ATOM     10  C   UNL     1     112.491  12.876  26.375  1.00  0.00    -0.000 C 
BRANCH  10  11
ATOM     11  C   UNL     1     113.440  12.864  25.164  1.00  0.00    -0.000 C 
BRANCH  11  12
ATOM     12  C   UNL     1     114.802  12.229  25.488  1.00  0.00    -0.000 C 
BRANCH  12  13
ATOM     13  C   UNL     1     115.983  13.044  24.938  1.00  0.00    -0.003 C 
ATOM     14  C   UNL     1     115.512  14.378  24.370  1.00  0.00     0.004 C 
ENDBRANCH  12  13
ENDBRANCH  11  12
ENDBRANCH  10  11
ENDBRANCH   9  10
ENDBRANCH   1   9
TORSDOF 10
ENDMDL
MODEL 7
REMARK VINA RESULT:    -1.489      2.725      5.218
REMARK INTER + INTRA:          -4.040
REMARK INTER:                  -3.095
REMARK INTRA:                  -0.945
REMARK UNBOUND:                -1.680
REMARK SMILES CCCCCCCCCCCC(=O)[O-]
REMARK SMILES IDX 7 1 8 2 9 3 10 4 11 5 12 6 13 7 14 8 6 9 5 10 4 11 3 12 2 13
REMARK SMILES IDX 1 14
REMARK H PARENT
REMARK Flexibility Score: inf
ROOT
ATOM      1  C   UNL     1     116.050  13.043  23.126  1.00  0.00     0.000 C 
ENDROOT
BRANCH   1   2
ATOM      2  C   UNL     1     116.260  12.473  24.537  1.00  0.00     0.000 C 
BRANCH   2   3
ATOM      3  C   UNL     1     115.015  12.656  25.432  1.00  0.00     0.000 C 
BRANCH   3   4
ATOM      4  C   UNL     1     115.353  13.004  26.892  1.00  0.00     0.006 C 
BRANCH   4   5
ATOM      5  C   UNL     1     116.350  14.161  27.016  1.00  0.00     0.053 C 
BRANCH   5   6
ATOM      6  C   UNL     1     117.001  14.148  28.363  1.00  0.00     0.041 C 
ATOM      7  O   UNL     1     117.498  15.204  28.836  1.00  0.00    -0.550 OA
ATOM      8  O   UNL     1     117.015  12.982  29.117  1.00  0.00    -0.550 OA
ENDBRANCH   5   6
ENDBRANCH   4   5
ENDBRANCH   3   4
ENDBRANCH   2   3
ENDBRANCH   1   2
BRANCH   1   9
ATOM      9  C   UNL     1     116.994  14.225  22.862  1.00  0.00     0.000 C 
BRANCH   9  10
ATOM     10  C   UNL     1     116.398  15.572  23.301  1.00  0.00    -0.000 C 
BRANCH  10  11
ATOM     11  C   UNL     1     117.478  16.625  23.604  1.00  0.00    -0.000 C 
BRANCH  11  12
ATOM     12  C   UNL     1     118.401  16.208  24.760  1.00  0.00    -0.000 C 
BRANCH  12  13
ATOM     13  C   UNL     1     119.775  16.893  24.699  1.00  0.00    -0.003 C 
ATOM     14  C   UNL     1     120.570  16.423  23.485  1.00  0.00     0.004 C 
ENDBRANCH  12  13
ENDBRANCH  11  12
ENDBRANCH  10  11
ENDBRANCH   9  10
ENDBRANCH   1   9
TORSDOF 10
ENDMDL
MODEL 8
REMARK VINA RESULT:    -1.454      2.647      4.921
REMARK INTER + INTRA:          -3.983
REMARK INTER:                  -2.345
REMARK INTRA:                  -1.639
REMARK UNBOUND:                -1.680
REMARK SMILES CCCCCCCCCCCC(=O)[O-]
REMARK SMILES IDX 7 1 8 2 9 3 10 4 11 5 12 6 13 7 14 8 6 9 5 10 4 11 3 12 2 13
REMARK SMILES IDX 1 14
REMARK H PARENT
REMARK Flexibility Score: inf
ROOT
ATOM      1  C   UNL     1     116.991  15.129  22.718  1.00  0.00     0.000 C 
ENDROOT
BRANCH   1   2
ATOM      2  C   UNL     1     116.985  15.061  24.253  1.00  0.00     0.000 C 
BRANCH   2   3
ATOM      3  C   UNL     1     115.715  15.697  24.860  1.00  0.00     0.000 C 
BRANCH   3   4
ATOM      4  C   UNL     1     115.227  14.995  26.139  1.00  0.00     0.006 C 
BRANCH   4   5
ATOM      5  C   UNL     1     116.141  13.845  26.576  1.00  0.00     0.053 C 
BRANCH   5   6
ATOM      6  C   UNL     1     116.759  14.144  27.905  1.00  0.00     0.041 C 
ATOM      7  O   UNL     1     116.459  13.453  28.913  1.00  0.00    -0.550 OA
ATOM      8  O   UNL     1     117.703  15.156  28.020  1.00  0.00    -0.550 OA
ENDBRANCH   5   6
ENDBRANCH   4   5
ENDBRANCH   3   4
ENDBRANCH   2   3
ENDBRANCH   1   2
BRANCH   1   9
ATOM      9  C   UNL     1     116.840  13.728  22.104  1.00  0.00     0.000 C 
BRANCH   9  10
ATOM     10  C   UNL     1     116.996  12.605  23.141  1.00  0.00    -0.000 C 
BRANCH  10  11
ATOM     11  C   UNL     1     115.671  11.875  23.425  1.00  0.00    -0.000 C 
BRANCH  11  12
ATOM     12  C   UNL     1     114.529  12.348  22.510  1.00  0.00    -0.000 C 
BRANCH  12  13
ATOM     13  C   UNL     1     113.356  12.958  23.293  1.00  0.00    -0.003 C 
ATOM     14  C   UNL     1     113.060  14.378  22.821  1.00  0.00     0.004 C 
ENDBRANCH  12  13
ENDBRANCH  11  12
ENDBRANCH  10  11
ENDBRANCH   9  10
ENDBRANCH   1   9
TORSDOF 10
ENDMDL
MODEL 9
REMARK VINA RESULT:    -0.351      1.525      3.284
REMARK INTER + INTRA:          -2.237
REMARK INTER:                  -0.917
REMARK INTRA:                  -1.319
REMARK UNBOUND:                -1.680
REMARK SMILES CCCCCCCCCCCC(=O)[O-]
REMARK SMILES IDX 7 1 8 2 9 3 10 4 11 5 12 6 13 7 14 8 6 9 5 10 4 11 3 12 2 13
REMARK SMILES IDX 1 14
REMARK H PARENT
REMARK Flexibility Score: inf
ROOT
ATOM      1  C   UNL     1     117.775  15.259  28.199  1.00  0.00     0.000 C 
ENDROOT
BRANCH   1   2
ATOM      2  C   UNL     1     116.357  15.838  28.079  1.00  0.00     0.000 C 
BRANCH   2   3
ATOM      3  C   UNL     1     115.551  15.176  26.940  1.00  0.00     0.000 C 
BRANCH   3   4
ATOM      4  C   UNL     1     116.205  13.898  26.385  1.00  0.00     0.006 C 
BRANCH   4   5
ATOM      5  C   UNL     1     115.193  12.782  26.105  1.00  0.00     0.053 C 
BRANCH   5   6
ATOM      6  C   UNL     1     115.369  12.253  24.717  1.00  0.00     0.041 C 
ATOM      7  O   UNL     1     114.370  11.875  24.051  1.00  0.00    -0.550 OA
ATOM      8  O   UNL     1     116.632  12.222  24.140  1.00  0.00    -0.550 OA
ENDBRANCH   5   6
ENDBRANCH   4   5
ENDBRANCH   3   4
ENDBRANCH   2   3
ENDBRANCH   1   2
BRANCH   1   9
ATOM      9  C   UNL     1     118.823  16.379  28.270  1.00  0.00     0.000 C 
BRANCH   9  10
ATOM     10  C   UNL     1     118.854  17.246  27.003  1.00  0.00    -0.000 C 
BRANCH  10  11
ATOM     11  C   UNL     1     119.134  16.425  25.731  1.00  0.00    -0.000 C 
BRANCH  11  12
ATOM     12  C   UNL     1     118.072  16.644  24.642  1.00  0.00    -0.000 C 
BRANCH  12  13
ATOM     13  C   UNL     1     117.539  18.085  24.614  1.00  0.00    -0.003 C 
ATOM     14  C   UNL     1     116.018  18.110  24.727  1.00  0.00     0.004 C 
ENDBRANCH  12  13
ENDBRANCH  11  12
ENDBRANCH  10  11
ENDBRANCH   9  10
ENDBRANCH   1   9
TORSDOF 10
ENDMDL
