MODEL 1
REMARK VINA RESULT:    -5.630      0.000      0.000
REMARK INTER + INTRA:         -15.165
REMARK INTER:                 -12.212
REMARK INTRA:                  -2.953
REMARK UNBOUND:                -2.953
REMARK SMILES CCCCCCCCCCCCCCCCCCCCCC(=O)[O-]
REMARK SMILES IDX 12 1 11 2 10 3 9 4 8 5 7 6 6 7 5 8 4 9 3 10 2 11 1 12 13 13
REMARK SMILES IDX 14 14 15 15 16 16 17 17 18 18 19 19 20 20 21 21 22 22 23 23
REMARK SMILES IDX 24 24
REMARK H PARENT
REMARK Flexibility Score: inf
ROOT
ATOM      1  C   UNL     1      10.571  47.074   5.914  1.00  0.00     0.000 C 
ENDROOT
BRANCH   1   2
ATOM      2  C   UNL     1       9.865  46.403   7.103  1.00  0.00     0.000 C 
BRANCH   2   3
ATOM      3  C   UNL     1      10.366  44.967   7.300  1.00  0.00     0.000 C 
BRANCH   3   4
ATOM      4  C   UNL     1      10.903  44.762   8.724  1.00  0.00    -0.000 C 
BRANCH   4   5
ATOM      5  C   UNL     1      12.433  44.908   8.813  1.00  0.00    -0.000 C 
BRANCH   5   6
ATOM      6  C   UNL     1      13.238  43.878   7.992  1.00  0.00    -0.000 C 
BRANCH   6   7
ATOM      7  C   UNL     1      14.281  43.077   8.793  1.00  0.00    -0.000 C 
BRANCH   7   8
ATOM      8  C   UNL     1      14.832  41.826   8.077  1.00  0.00    -0.000 C 
BRANCH   8   9
ATOM      9  C   UNL     1      16.080  41.219   8.752  1.00  0.00    -0.000 C 
BRANCH   9  10
ATOM     10  C   UNL     1      15.860  39.764   9.202  1.00  0.00    -0.000 C 
BRANCH  10  11
ATOM     11  C   UNL     1      14.847  39.651  10.354  1.00  0.00    -0.003 C 
ATOM     12  C   UNL     1      13.576  38.901   9.953  1.00  0.00     0.004 C 
ENDBRANCH  10  11
ENDBRANCH   9  10
ENDBRANCH   8   9
ENDBRANCH   7   8
ENDBRANCH   6   7
ENDBRANCH   5   6
ENDBRANCH   4   5
ENDBRANCH   3   4
ENDBRANCH   2   3
ENDBRANCH   1   2
BRANCH   1  13
ATOM     13  C   UNL     1      12.009  47.518   6.254  1.00  0.00     0.000 C 
BRANCH  13  14
ATOM     14  C   UNL     1      13.088  46.898   5.345  1.00  0.00     0.000 C 
BRANCH  14  15
ATOM     15  C   UNL     1      12.551  46.145   4.117  1.00  0.00     0.000 C 
BRANCH  15  16
ATOM     16  C   UNL     1      12.810  44.632   4.183  1.00  0.00     0.000 C 
BRANCH  16  17
ATOM     17  C   UNL     1      14.229  44.340   4.690  1.00  0.00     0.000 C 
BRANCH  17  18
ATOM     18  C   UNL     1      15.103  43.650   3.619  1.00  0.00     0.000 C 
BRANCH  18  19
ATOM     19  C   UNL     1      16.572  43.479   4.039  1.00  0.00     0.000 C 
BRANCH  19  20
ATOM     20  C   UNL     1      16.729  43.042   5.504  1.00  0.00     0.006 C 
BRANCH  20  21
ATOM     21  C   UNL     1      17.791  43.867   6.243  1.00  0.00     0.053 C 
BRANCH  21  22
ATOM     22  C   UNL     1      17.188  44.697   7.335  1.00  0.00     0.041 C 
ATOM     23  O   UNL     1      16.406  45.642   7.053  1.00  0.00    -0.550 OA
ATOM     24  O   UNL     1      17.516  44.446   8.661  1.00  0.00    -0.550 OA
ENDBRANCH  21  22
ENDBRANCH  20  21
ENDBRANCH  19  20
ENDBRANCH  18  19
ENDBRANCH  17  18
ENDBRANCH  16  17
ENDBRANCH  15  16
ENDBRANCH  14  15
ENDBRANCH  13  14
ENDBRANCH   1  13
TORSDOF 20
ENDMDL
MODEL 2
REMARK VINA RESULT:    -5.415      3.164      5.943
REMARK INTER + INTRA:         -14.700
REMARK INTER:                 -11.071
REMARK INTRA:                  -3.629
REMARK UNBOUND:                -2.953
REMARK SMILES CCCCCCCCCCCCCCCCCCCCCC(=O)[O-]
REMARK SMILES IDX 12 1 11 2 10 3 9 4 8 5 7 6 6 7 5 8 4 9 3 10 2 11 1 12 13 13
REMARK SMILES IDX 14 14 15 15 16 16 17 17 18 18 19 19 20 20 21 21 22 22 23 23
REMARK SMILES IDX 24 24
REMARK H PARENT
REMARK Flexibility Score: inf
ROOT
ATOM      1  C   UNL     1      12.649  43.839   4.917  1.00  0.00     0.000 C 
ENDROOT
BRANCH   1   2
ATOM      2  C   UNL     1      13.950  43.021   4.893  1.00  0.00     0.000 C 
BRANCH   2   3
ATOM      3  C   UNL     1      14.773  43.335   3.637  1.00  0.00     0.000 C 
BRANCH   3   4
ATOM      4  C   UNL     1      16.212  43.724   4.005  1.00  0.00    -0.000 C 
BRANCH   4   5
ATOM      5  C   UNL     1      16.694  43.069   5.312  1.00  0.00    -0.000 C 
BRANCH   5   6
ATOM      6  C   UNL     1      17.361  44.031   6.319  1.00  0.00    -0.000 C 
BRANCH   6   7
ATOM      7  C   UNL     1      16.423  45.086   6.934  1.00  0.00    -0.000 C 
BRANCH   7   8
ATOM      8  C   UNL     1      16.417  45.133   8.476  1.00  0.00    -0.000 C 
BRANCH   8   9
ATOM      9  C   UNL     1      16.078  43.782   9.140  1.00  0.00    -0.000 C 
BRANCH   9  10
ATOM     10  C   UNL     1      14.717  43.225   8.686  1.00  0.00    -0.000 C 
BRANCH  10  11
ATOM     11  C   UNL     1      14.745  41.701   8.476  1.00  0.00    -0.003 C 
ATOM     12  C   UNL     1      16.150  41.112   8.610  1.00  0.00     0.004 C 
ENDBRANCH  10  11
ENDBRANCH   9  10
ENDBRANCH   8   9
ENDBRANCH   7   8
ENDBRANCH   6   7
ENDBRANCH   5   6
ENDBRANCH   4   5
ENDBRANCH   3   4
ENDBRANCH   2   3
ENDBRANCH   1   2
BRANCH   1  13
ATOM     13  C   UNL     1      12.593  44.897   3.796  1.00  0.00     0.000 C 
BRANCH  13  14
ATOM     14  C   UNL     1      12.399  46.339   4.303  1.00  0.00     0.000 C 
BRANCH  14  15
ATOM     15  C   UNL     1      13.344  46.762   5.440  1.00  0.00     0.000 C 
BRANCH  15  16
ATOM     16  C   UNL     1      12.597  47.157   6.723  1.00  0.00     0.000 C 
BRANCH  16  17
ATOM     17  C   UNL     1      12.758  46.082   7.806  1.00  0.00     0.000 C 
BRANCH  17  18
ATOM     18  C   UNL     1      11.400  45.615   8.374  1.00  0.00     0.000 C 
BRANCH  18  19
ATOM     19  C   UNL     1      10.285  45.534   7.318  1.00  0.00     0.000 C 
BRANCH  19  20
ATOM     20  C   UNL     1       9.755  44.106   7.115  1.00  0.00     0.006 C 
BRANCH  20  21
ATOM     21  C   UNL     1       8.609  43.772   8.080  1.00  0.00     0.053 C 
BRANCH  21  22
ATOM     22  C   UNL     1       7.363  44.535   7.747  1.00  0.00     0.041 C 
ATOM     23  O   UNL     1       6.980  45.475   8.492  1.00  0.00    -0.550 OA
ATOM     24  O   UNL     1       6.609  44.186   6.635  1.00  0.00    -0.550 OA
ENDBRANCH  21  22
ENDBRANCH  20  21
ENDBRANCH  19  20
ENDBRANCH  18  19
ENDBRANCH  17  18
ENDBRANCH  16  17
ENDBRANCH  15  16
ENDBRANCH  14  15
ENDBRANCH  13  14
ENDBRANCH   1  13
TORSDOF 20
ENDMDL
MODEL 3
REMARK VINA RESULT:    -5.402      2.052      4.866
REMARK INTER + INTRA:         -14.670
REMARK INTER:                 -11.377
REMARK INTRA:                  -3.293
REMARK UNBOUND:                -2.953
REMARK SMILES CCCCCCCCCCCCCCCCCCCCCC(=O)[O-]
REMARK SMILES IDX 12 1 11 2 10 3 9 4 8 5 7 6 6 7 5 8 4 9 3 10 2 11 1 12 13 13
REMARK SMILES IDX 14 14 15 15 16 16 17 17 18 18 19 19 20 20 21 21 22 22 23 23
REMARK SMILES IDX 24 24
REMARK H PARENT
REMARK Flexibility Score: inf
ROOT
ATOM      1  C   UNL     1      11.889  43.618   6.017  1.00  0.00     0.000 C 
ENDROOT
BRANCH   1   2
ATOM      2  C   UNL     1      12.752  44.092   7.196  1.00  0.00     0.000 C 
BRANCH   2   3
ATOM      3  C   UNL     1      12.272  45.453   7.716  1.00  0.00     0.000 C 
BRANCH   3   4
ATOM      4  C   UNL     1      12.914  46.602   6.924  1.00  0.00    -0.000 C 
BRANCH   4   5
ATOM      5  C   UNL     1      11.876  47.510   6.240  1.00  0.00    -0.000 C 
BRANCH   5   6
ATOM      6  C   UNL     1      10.472  46.891   6.074  1.00  0.00    -0.000 C 
BRANCH   6   7
ATOM      7  C   UNL     1       9.378  47.504   6.969  1.00  0.00    -0.000 C 
BRANCH   7   8
ATOM      8  C   UNL     1       8.714  46.518   7.953  1.00  0.00    -0.000 C 
BRANCH   8   9
ATOM      9  C   UNL     1       8.265  45.193   7.300  1.00  0.00    -0.000 C 
BRANCH   9  10
ATOM     10  C   UNL     1       8.824  43.956   8.027  1.00  0.00    -0.000 C 
BRANCH  10  11
ATOM     11  C   UNL     1       9.231  44.261   9.479  1.00  0.00    -0.003 C 
ATOM     12  C   UNL     1       8.344  43.549  10.502  1.00  0.00     0.004 C 
ENDBRANCH  10  11
ENDBRANCH   9  10
ENDBRANCH   8   9
ENDBRANCH   7   8
ENDBRANCH   6   7
ENDBRANCH   5   6
ENDBRANCH   4   5
ENDBRANCH   3   4
ENDBRANCH   2   3
ENDBRANCH   1   2
BRANCH   1  13
ATOM     13  C   UNL     1      12.561  42.489   5.207  1.00  0.00     0.000 C 
BRANCH  13  14
ATOM     14  C   UNL     1      12.709  42.798   3.704  1.00  0.00     0.000 C 
BRANCH  14  15
ATOM     15  C   UNL     1      14.079  43.358   3.287  1.00  0.00     0.000 C 
BRANCH  15  16
ATOM     16  C   UNL     1      14.287  44.816   3.724  1.00  0.00     0.000 C 
BRANCH  16  17
ATOM     17  C   UNL     1      15.460  44.933   4.707  1.00  0.00     0.000 C 
BRANCH  17  18
ATOM     18  C   UNL     1      16.584  43.920   4.399  1.00  0.00     0.000 C 
BRANCH  18  19
ATOM     19  C   UNL     1      17.114  43.190   5.645  1.00  0.00     0.000 C 
BRANCH  19  20
ATOM     20  C   UNL     1      15.996  42.563   6.492  1.00  0.00     0.006 C 
BRANCH  20  21
ATOM     21  C   UNL     1      16.370  42.487   7.979  1.00  0.00     0.053 C 
BRANCH  21  22
ATOM     22  C   UNL     1      15.645  41.376   8.676  1.00  0.00     0.041 C 
ATOM     23  O   UNL     1      14.439  41.520   9.008  1.00  0.00    -0.550 OA
ATOM     24  O   UNL     1      16.311  40.199   8.990  1.00  0.00    -0.550 OA
ENDBRANCH  21  22
ENDBRANCH  20  21
ENDBRANCH  19  20
ENDBRANCH  18  19
ENDBRANCH  17  18
ENDBRANCH  16  17
ENDBRANCH  15  16
ENDBRANCH  14  15
ENDBRANCH  13  14
ENDBRANCH   1  13
TORSDOF 20
ENDMDL
MODEL 4
REMARK VINA RESULT:    -5.363      2.871      6.069
REMARK INTER + INTRA:         -14.586
REMARK INTER:                 -10.815
REMARK INTRA:                  -3.771
REMARK UNBOUND:                -2.953
REMARK SMILES CCCCCCCCCCCCCCCCCCCCCC(=O)[O-]
REMARK SMILES IDX 12 1 11 2 10 3 9 4 8 5 7 6 6 7 5 8 4 9 3 10 2 11 1 12 13 13
REMARK SMILES IDX 14 14 15 15 16 16 17 17 18 18 19 19 20 20 21 21 22 22 23 23
REMARK SMILES IDX 24 24
REMARK H PARENT
REMARK Flexibility Score: inf
ROOT
ATOM      1  C   UNL     1      14.019  45.121   3.740  1.00  0.00     0.000 C 
ENDROOT
BRANCH   1   2
ATOM      2  C   UNL     1      15.150  44.090   3.604  1.00  0.00     0.000 C 
BRANCH   2   3
ATOM      3  C   UNL     1      16.396  44.536   4.380  1.00  0.00     0.000 C 
BRANCH   3   4
ATOM      4  C   UNL     1      17.087  43.338   5.049  1.00  0.00    -0.000 C 
BRANCH   4   5
ATOM      5  C   UNL     1      17.562  43.645   6.480  1.00  0.00    -0.000 C 
BRANCH   5   6
ATOM      6  C   UNL     1      17.070  44.988   7.060  1.00  0.00    -0.000 C 
BRANCH   6   7
ATOM      7  C   UNL     1      15.971  44.874   8.132  1.00  0.00    -0.000 C 
BRANCH   7   8
ATOM      8  C   UNL     1      15.531  43.432   8.463  1.00  0.00    -0.000 C 
BRANCH   8   9
ATOM      9  C   UNL     1      14.072  43.120   8.071  1.00  0.00    -0.000 C 
BRANCH   9  10
ATOM     10  C   UNL     1      13.950  42.552   6.645  1.00  0.00    -0.000 C 
BRANCH  10  11
ATOM     11  C   UNL     1      12.571  42.820   6.020  1.00  0.00    -0.003 C 
ATOM     12  C   UNL     1      12.292  41.939   4.802  1.00  0.00     0.004 C 
ENDBRANCH  10  11
ENDBRANCH   9  10
ENDBRANCH   8   9
ENDBRANCH   7   8
ENDBRANCH   6   7
ENDBRANCH   5   6
ENDBRANCH   4   5
ENDBRANCH   3   4
ENDBRANCH   2   3
ENDBRANCH   1   2
BRANCH   1  13
ATOM     13  C   UNL     1      14.146  45.975   5.019  1.00  0.00     0.000 C 
BRANCH  13  14
ATOM     14  C   UNL     1      13.128  47.129   5.107  1.00  0.00     0.000 C 
BRANCH  14  15
ATOM     15  C   UNL     1      12.010  46.933   6.145  1.00  0.00     0.000 C 
BRANCH  15  16
ATOM     16  C   UNL     1      12.510  46.288   7.447  1.00  0.00     0.000 C 
BRANCH  16  17
ATOM     17  C   UNL     1      11.345  45.686   8.245  1.00  0.00     0.000 C 
BRANCH  17  18
ATOM     18  C   UNL     1      10.109  45.412   7.359  1.00  0.00     0.000 C 
BRANCH  18  19
ATOM     19  C   UNL     1       9.400  44.086   7.684  1.00  0.00     0.000 C 
BRANCH  19  20
ATOM     20  C   UNL     1       8.201  44.264   8.628  1.00  0.00     0.006 C 
BRANCH  20  21
ATOM     21  C   UNL     1       8.402  43.535   9.963  1.00  0.00     0.053 C 
BRANCH  21  22
ATOM     22  C   UNL     1       9.090  44.404  10.971  1.00  0.00     0.041 C 
ATOM     23  O   UNL     1       8.536  45.458  11.379  1.00  0.00    -0.550 OA
ATOM     24  O   UNL     1      10.356  44.068  11.433  1.00  0.00    -0.550 OA
ENDBRANCH  21  22
ENDBRANCH  20  21
ENDBRANCH  19  20
ENDBRANCH  18  19
ENDBRANCH  17  18
ENDBRANCH  16  17
ENDBRANCH  15  16
ENDBRANCH  14  15
ENDBRANCH  13  14
ENDBRANCH   1  13
TORSDOF 20
ENDMDL
MODEL 5
REMARK VINA RESULT:    -5.335      2.295      4.349
REMARK INTER + INTRA:         -14.526
REMARK INTER:                 -11.208
REMARK INTRA:                  -3.318
REMARK UNBOUND:                -2.953
REMARK SMILES CCCCCCCCCCCCCCCCCCCCCC(=O)[O-]
REMARK SMILES IDX 12 1 11 2 10 3 9 4 8 5 7 6 6 7 5 8 4 9 3 10 2 11 1 12 13 13
REMARK SMILES IDX 14 14 15 15 16 16 17 17 18 18 19 19 20 20 21 21 22 22 23 23
REMARK SMILES IDX 24 24
REMARK H PARENT
REMARK Flexibility Score: inf
ROOT
ATOM      1  C   UNL     1      13.343  43.999   7.543  1.00  0.00     0.000 C 
ENDROOT
BRANCH   1   2
ATOM      2  C   UNL     1      13.733  45.436   7.162  1.00  0.00     0.000 C 
BRANCH   2   3
ATOM      3  C   UNL     1      12.643  46.430   7.579  1.00  0.00     0.000 C 
BRANCH   3   4
ATOM      4  C   UNL     1      12.130  47.226   6.370  1.00  0.00    -0.000 C 
BRANCH   4   5
ATOM      5  C   UNL     1      10.596  47.217   6.255  1.00  0.00    -0.000 C 
BRANCH   5   6
ATOM      6  C   UNL     1       9.848  46.721   7.512  1.00  0.00    -0.000 C 
BRANCH   6   7
ATOM      7  C   UNL     1       8.981  45.466   7.303  1.00  0.00    -0.000 C 
BRANCH   7   8
ATOM      8  C   UNL     1       9.482  44.200   8.030  1.00  0.00    -0.000 C 
BRANCH   8   9
ATOM      9  C   UNL     1      10.117  44.482   9.407  1.00  0.00    -0.000 C 
BRANCH   9  10
ATOM     10  C   UNL     1       9.075  44.877  10.470  1.00  0.00    -0.000 C 
BRANCH  10  11
ATOM     11  C   UNL     1       8.917  43.808  11.564  1.00  0.00    -0.003 C 
ATOM     12  C   UNL     1       7.590  43.054  11.466  1.00  0.00     0.004 C 
ENDBRANCH  10  11
ENDBRANCH   9  10
ENDBRANCH   8   9
ENDBRANCH   7   8
ENDBRANCH   6   7
ENDBRANCH   5   6
ENDBRANCH   4   5
ENDBRANCH   3   4
ENDBRANCH   2   3
ENDBRANCH   1   2
BRANCH   1  13
ATOM     13  C   UNL     1      13.091  43.107   6.309  1.00  0.00     0.000 C 
BRANCH  13  14
ATOM     14  C   UNL     1      12.171  43.747   5.250  1.00  0.00     0.000 C 
BRANCH  14  15
ATOM     15  C   UNL     1      12.471  43.342   3.797  1.00  0.00     0.000 C 
BRANCH  15  16
ATOM     16  C   UNL     1      13.975  43.322   3.481  1.00  0.00     0.000 C 
BRANCH  16  17
ATOM     17  C   UNL     1      14.560  44.741   3.503  1.00  0.00     0.000 C 
BRANCH  17  18
ATOM     18  C   UNL     1      15.875  44.819   4.310  1.00  0.00     0.000 C 
BRANCH  18  19
ATOM     19  C   UNL     1      16.625  43.479   4.397  1.00  0.00     0.000 C 
BRANCH  19  20
ATOM     20  C   UNL     1      17.546  43.388   5.624  1.00  0.00     0.006 C 
BRANCH  20  21
ATOM     21  C   UNL     1      17.205  44.444   6.684  1.00  0.00     0.053 C 
BRANCH  21  22
ATOM     22  C   UNL     1      17.078  43.839   8.049  1.00  0.00     0.041 C 
ATOM     23  O   UNL     1      17.444  42.651   8.250  1.00  0.00    -0.550 OA
ATOM     24  O   UNL     1      16.525  44.575   9.088  1.00  0.00    -0.550 OA
ENDBRANCH  21  22
ENDBRANCH  20  21
ENDBRANCH  19  20
ENDBRANCH  18  19
ENDBRANCH  17  18
ENDBRANCH  16  17
ENDBRANCH  15  16
ENDBRANCH  14  15
ENDBRANCH  13  14
ENDBRANCH   1  13
TORSDOF 20
ENDMDL
MODEL 6
REMARK VINA RESULT:    -5.325      3.234      6.687
REMARK INTER + INTRA:         -14.504
REMARK INTER:                 -12.008
REMARK INTRA:                  -2.496
REMARK UNBOUND:                -2.953
REMARK SMILES CCCCCCCCCCCCCCCCCCCCCC(=O)[O-]
REMARK SMILES IDX 12 1 11 2 10 3 9 4 8 5 7 6 6 7 5 8 4 9 3 10 2 11 1 12 13 13
REMARK SMILES IDX 14 14 15 15 16 16 17 17 18 18 19 19 20 20 21 21 22 22 23 23
REMARK SMILES IDX 24 24
REMARK H PARENT
REMARK Flexibility Score: inf
ROOT
ATOM      1  C   UNL     1      12.713  46.226   7.455  1.00  0.00     0.000 C 
ENDROOT
BRANCH   1   2
ATOM      2  C   UNL     1      13.651  46.166   6.240  1.00  0.00     0.000 C 
BRANCH   2   3
ATOM      3  C   UNL     1      12.987  46.779   5.001  1.00  0.00     0.000 C 
BRANCH   3   4
ATOM      4  C   UNL     1      12.600  45.692   3.988  1.00  0.00    -0.000 C 
BRANCH   4   5
ATOM      5  C   UNL     1      12.852  44.268   4.513  1.00  0.00    -0.000 C 
BRANCH   5   6
ATOM      6  C   UNL     1      13.811  43.413   3.657  1.00  0.00    -0.000 C 
BRANCH   6   7
ATOM      7  C   UNL     1      15.119  44.114   3.246  1.00  0.00    -0.000 C 
BRANCH   7   8
ATOM      8  C   UNL     1      16.073  44.447   4.411  1.00  0.00    -0.000 C 
BRANCH   8   9
ATOM      9  C   UNL     1      16.765  43.211   5.024  1.00  0.00    -0.000 C 
BRANCH   9  10
ATOM     10  C   UNL     1      17.521  43.540   6.324  1.00  0.00    -0.000 C 
BRANCH  10  11
ATOM     11  C   UNL     1      17.157  44.926   6.882  1.00  0.00    -0.003 C 
ATOM     12  C   UNL     1      17.128  44.958   8.411  1.00  0.00     0.004 C 
ENDBRANCH  10  11
ENDBRANCH   9  10
ENDBRANCH   8   9
ENDBRANCH   7   8
ENDBRANCH   6   7
ENDBRANCH   5   6
ENDBRANCH   4   5
ENDBRANCH   3   4
ENDBRANCH   2   3
ENDBRANCH   1   2
BRANCH   1  13
ATOM     13  C   UNL     1      13.000  45.109   8.481  1.00  0.00     0.000 C 
BRANCH  13  14
ATOM     14  C   UNL     1      13.617  43.837   7.866  1.00  0.00     0.000 C 
BRANCH  14  15
ATOM     15  C   UNL     1      14.314  42.902   8.869  1.00  0.00     0.000 C 
BRANCH  15  16
ATOM     16  C   UNL     1      14.984  41.696   8.194  1.00  0.00     0.000 C 
BRANCH  16  17
ATOM     17  C   UNL     1      15.275  40.586   9.214  1.00  0.00     0.000 C 
BRANCH  17  18
ATOM     18  C   UNL     1      14.118  39.568   9.317  1.00  0.00     0.000 C 
BRANCH  18  19
ATOM     19  C   UNL     1      14.039  38.861  10.680  1.00  0.00     0.000 C 
BRANCH  19  20
ATOM     20  C   UNL     1      12.932  37.796  10.738  1.00  0.00     0.006 C 
BRANCH  20  21
ATOM     21  C   UNL     1      12.833  37.139  12.121  1.00  0.00     0.053 C 
BRANCH  21  22
ATOM     22  C   UNL     1      13.870  36.073  12.304  1.00  0.00     0.041 C 
ATOM     23  O   UNL     1      14.973  36.351  12.843  1.00  0.00    -0.550 OA
ATOM     24  O   UNL     1      13.630  34.783  11.849  1.00  0.00    -0.550 OA
ENDBRANCH  21  22
ENDBRANCH  20  21
ENDBRANCH  19  20
ENDBRANCH  18  19
ENDBRANCH  17  18
ENDBRANCH  16  17
ENDBRANCH  15  16
ENDBRANCH  14  15
ENDBRANCH  13  14
ENDBRANCH   1  13
TORSDOF 20
ENDMDL
MODEL 7
REMARK VINA RESULT:    -5.289      3.776      8.039
REMARK INTER + INTRA:         -14.425
REMARK INTER:                 -12.165
REMARK INTRA:                  -2.260
REMARK UNBOUND:                -2.953
REMARK SMILES CCCCCCCCCCCCCCCCCCCCCC(=O)[O-]
REMARK SMILES IDX 12 1 11 2 10 3 9 4 8 5 7 6 6 7 5 8 4 9 3 10 2 11 1 12 13 13
REMARK SMILES IDX 14 14 15 15 16 16 17 17 18 18 19 19 20 20 21 21 22 22 23 23
REMARK SMILES IDX 24 24
REMARK H PARENT
REMARK Flexibility Score: inf
ROOT
ATOM      1  C   UNL     1      16.578  44.841   8.271  1.00  0.00     0.000 C 
ENDROOT
BRANCH   1   2
ATOM      2  C   UNL     1      17.116  45.037   6.845  1.00  0.00     0.000 C 
BRANCH   2   3
ATOM      3  C   UNL     1      17.756  43.747   6.317  1.00  0.00     0.000 C 
BRANCH   3   4
ATOM      4  C   UNL     1      17.123  43.324   4.984  1.00  0.00    -0.000 C 
BRANCH   4   5
ATOM      5  C   UNL     1      16.024  44.291   4.509  1.00  0.00    -0.000 C 
BRANCH   5   6
ATOM      6  C   UNL     1      15.020  43.696   3.498  1.00  0.00    -0.000 C 
BRANCH   6   7
ATOM      7  C   UNL     1      13.600  43.466   4.047  1.00  0.00    -0.000 C 
BRANCH   7   8
ATOM      8  C   UNL     1      13.523  43.206   5.565  1.00  0.00    -0.000 C 
BRANCH   8   9
ATOM      9  C   UNL     1      12.489  44.087   6.298  1.00  0.00    -0.000 C 
BRANCH   9  10
ATOM     10  C   UNL     1      12.881  44.367   7.760  1.00  0.00    -0.000 C 
BRANCH  10  11
ATOM     11  C   UNL     1      12.991  45.871   8.062  1.00  0.00    -0.003 C 
ATOM     12  C   UNL     1      12.733  46.742   6.831  1.00  0.00     0.004 C 
ENDBRANCH  10  11
ENDBRANCH   9  10
ENDBRANCH   8   9
ENDBRANCH   7   8
ENDBRANCH   6   7
ENDBRANCH   5   6
ENDBRANCH   4   5
ENDBRANCH   3   4
ENDBRANCH   2   3
ENDBRANCH   1   2
BRANCH   1  13
ATOM     13  C   UNL     1      16.927  43.454   8.850  1.00  0.00     0.000 C 
BRANCH  13  14
ATOM     14  C   UNL     1      15.713  42.518   9.011  1.00  0.00     0.000 C 
BRANCH  14  15
ATOM     15  C   UNL     1      15.890  41.114   8.408  1.00  0.00     0.000 C 
BRANCH  15  16
ATOM     16  C   UNL     1      15.701  39.993   9.442  1.00  0.00     0.000 C 
BRANCH  16  17
ATOM     17  C   UNL     1      14.215  39.650   9.615  1.00  0.00     0.000 C 
BRANCH  17  18
ATOM     18  C   UNL     1      13.965  38.728  10.828  1.00  0.00     0.000 C 
BRANCH  18  19
ATOM     19  C   UNL     1      12.778  37.768  10.639  1.00  0.00     0.000 C 
BRANCH  19  20
ATOM     20  C   UNL     1      12.065  37.430  11.958  1.00  0.00     0.006 C 
BRANCH  20  21
ATOM     21  C   UNL     1      12.911  36.516  12.854  1.00  0.00     0.053 C 
BRANCH  21  22
ATOM     22  C   UNL     1      12.843  35.086  12.411  1.00  0.00     0.041 C 
ATOM     23  O   UNL     1      13.836  34.549  11.855  1.00  0.00    -0.550 OA
ATOM     24  O   UNL     1      11.671  34.360  12.581  1.00  0.00    -0.550 OA
ENDBRANCH  21  22
ENDBRANCH  20  21
ENDBRANCH  19  20
ENDBRANCH  18  19
ENDBRANCH  17  18
ENDBRANCH  16  17
ENDBRANCH  15  16
ENDBRANCH  14  15
ENDBRANCH  13  14
ENDBRANCH   1  13
TORSDOF 20
ENDMDL
MODEL 8
REMARK VINA RESULT:    -5.278      2.456      6.395
REMARK INTER + INTRA:         -14.401
REMARK INTER:                 -10.820
REMARK INTRA:                  -3.581
REMARK UNBOUND:                -2.953
REMARK SMILES CCCCCCCCCCCCCCCCCCCCCC(=O)[O-]
REMARK SMILES IDX 12 1 11 2 10 3 9 4 8 5 7 6 6 7 5 8 4 9 3 10 2 11 1 12 13 13
REMARK SMILES IDX 14 14 15 15 16 16 17 17 18 18 19 19 20 20 21 21 22 22 23 23
REMARK SMILES IDX 24 24
REMARK H PARENT
REMARK Flexibility Score: inf
ROOT
ATOM      1  C   UNL     1      13.978  43.072   8.397  1.00  0.00     0.000 C 
ENDROOT
BRANCH   1   2
ATOM      2  C   UNL     1      14.606  41.924   7.592  1.00  0.00     0.000 C 
BRANCH   2   3
ATOM      3  C   UNL     1      16.008  41.588   8.116  1.00  0.00     0.000 C 
BRANCH   3   4
ATOM      4  C   UNL     1      16.759  42.859   8.538  1.00  0.00    -0.000 C 
BRANCH   4   5
ATOM      5  C   UNL     1      17.672  43.410   7.428  1.00  0.00    -0.000 C 
BRANCH   5   6
ATOM      6  C   UNL     1      17.297  44.814   6.907  1.00  0.00    -0.000 C 
BRANCH   6   7
ATOM      7  C   UNL     1      16.335  44.829   5.705  1.00  0.00    -0.000 C 
BRANCH   7   8
ATOM      8  C   UNL     1      16.462  43.619   4.755  1.00  0.00    -0.000 C 
BRANCH   8   9
ATOM      9  C   UNL     1      15.293  43.485   3.756  1.00  0.00    -0.000 C 
BRANCH   9  10
ATOM     10  C   UNL     1      14.431  44.758   3.680  1.00  0.00    -0.000 C 
BRANCH  10  11
ATOM     11  C   UNL     1      12.937  44.471   3.911  1.00  0.00    -0.003 C 
ATOM     12  C   UNL     1      12.584  42.995   3.730  1.00  0.00     0.004 C 
ENDBRANCH  10  11
ENDBRANCH   9  10
ENDBRANCH   8   9
ENDBRANCH   7   8
ENDBRANCH   6   7
ENDBRANCH   5   6
ENDBRANCH   4   5
ENDBRANCH   3   4
ENDBRANCH   2   3
ENDBRANCH   1   2
BRANCH   1  13
ATOM     13  C   UNL     1      13.178  44.049   7.510  1.00  0.00     0.000 C 
BRANCH  13  14
ATOM     14  C   UNL     1      13.632  45.517   7.626  1.00  0.00     0.000 C 
BRANCH  14  15
ATOM     15  C   UNL     1      12.493  46.545   7.726  1.00  0.00     0.000 C 
BRANCH  15  16
ATOM     16  C   UNL     1      12.158  47.199   6.377  1.00  0.00     0.000 C 
BRANCH  16  17
ATOM     17  C   UNL     1      10.739  46.827   5.923  1.00  0.00     0.000 C 
BRANCH  17  18
ATOM     18  C   UNL     1       9.665  47.268   6.941  1.00  0.00     0.000 C 
BRANCH  18  19
ATOM     19  C   UNL     1       8.718  46.134   7.368  1.00  0.00     0.000 C 
BRANCH  19  20
ATOM     20  C   UNL     1       9.403  44.759   7.391  1.00  0.00     0.006 C 
BRANCH  20  21
ATOM     21  C   UNL     1       8.958  43.911   8.590  1.00  0.00     0.053 C 
BRANCH  21  22
ATOM     22  C   UNL     1       9.559  44.404   9.871  1.00  0.00     0.041 C 
ATOM     23  O   UNL     1       8.843  45.007  10.713  1.00  0.00    -0.550 OA
ATOM     24  O   UNL     1      10.914  44.228  10.119  1.00  0.00    -0.550 OA
ENDBRANCH  21  22
ENDBRANCH  20  21
ENDBRANCH  19  20
ENDBRANCH  18  19
ENDBRANCH  17  18
ENDBRANCH  16  17
ENDBRANCH  15  16
ENDBRANCH  14  15
ENDBRANCH  13  14
ENDBRANCH   1  13
TORSDOF 20
ENDMDL
MODEL 9
REMARK VINA RESULT:    -5.210      2.250      5.342
REMARK INTER + INTRA:         -14.255
REMARK INTER:                 -10.429
REMARK INTRA:                  -3.827
REMARK UNBOUND:                -2.953
REMARK SMILES CCCCCCCCCCCCCCCCCCCCCC(=O)[O-]
REMARK SMILES IDX 12 1 11 2 10 3 9 4 8 5 7 6 6 7 5 8 4 9 3 10 2 11 1 12 13 13
REMARK SMILES IDX 14 14 15 15 16 16 17 17 18 18 19 19 20 20 21 21 22 22 23 23
REMARK SMILES IDX 24 24
REMARK H PARENT
REMARK Flexibility Score: inf
ROOT
ATOM      1  C   UNL     1      11.968  46.505   6.958  1.00  0.00     0.000 C 
ENDROOT
BRANCH   1   2
ATOM      2  C   UNL     1      10.955  45.461   6.462  1.00  0.00     0.000 C 
BRANCH   2   3
ATOM      3  C   UNL     1      10.667  44.417   7.548  1.00  0.00     0.000 C 
BRANCH   3   4
ATOM      4  C   UNL     1      11.190  44.884   8.915  1.00  0.00    -0.000 C 
BRANCH   4   5
ATOM      5  C   UNL     1      10.254  44.503  10.076  1.00  0.00    -0.000 C 
BRANCH   5   6
ATOM      6  C   UNL     1       8.970  43.752   9.662  1.00  0.00    -0.000 C 
BRANCH   6   7
ATOM      7  C   UNL     1       7.672  44.278  10.304  1.00  0.00    -0.000 C 
BRANCH   7   8
ATOM      8  C   UNL     1       6.839  45.220   9.410  1.00  0.00    -0.000 C 
BRANCH   8   9
ATOM      9  C   UNL     1       6.964  44.920   7.901  1.00  0.00    -0.000 C 
BRANCH   9  10
ATOM     10  C   UNL     1       7.400  46.152   7.087  1.00  0.00    -0.000 C 
BRANCH  10  11
ATOM     11  C   UNL     1       8.109  47.208   7.952  1.00  0.00    -0.003 C 
ATOM     12  C   UNL     1       7.489  48.599   7.812  1.00  0.00     0.004 C 
ENDBRANCH  10  11
ENDBRANCH   9  10
ENDBRANCH   8   9
ENDBRANCH   7   8
ENDBRANCH   6   7
ENDBRANCH   5   6
ENDBRANCH   4   5
ENDBRANCH   3   4
ENDBRANCH   2   3
ENDBRANCH   1   2
BRANCH   1  13
ATOM     13  C   UNL     1      12.826  47.087   5.815  1.00  0.00     0.000 C 
BRANCH  13  14
ATOM     14  C   UNL     1      12.646  46.364   4.466  1.00  0.00     0.000 C 
BRANCH  14  15
ATOM     15  C   UNL     1      13.882  45.593   3.971  1.00  0.00     0.000 C 
BRANCH  15  16
ATOM     16  C   UNL     1      13.691  44.069   4.011  1.00  0.00     0.000 C 
BRANCH  16  17
ATOM     17  C   UNL     1      14.609  43.428   5.062  1.00  0.00     0.000 C 
BRANCH  17  18
ATOM     18  C   UNL     1      13.836  42.994   6.327  1.00  0.00     0.000 C 
BRANCH  18  19
ATOM     19  C   UNL     1      14.417  43.566   7.631  1.00  0.00     0.000 C 
BRANCH  19  20
ATOM     20  C   UNL     1      15.239  44.845   7.410  1.00  0.00     0.006 C 
BRANCH  20  21
ATOM     21  C   UNL     1      16.568  44.819   8.177  1.00  0.00     0.053 C 
BRANCH  21  22
ATOM     22  C   UNL     1      17.467  43.723   7.691  1.00  0.00     0.041 C 
ATOM     23  O   UNL     1      17.866  42.833   8.487  1.00  0.00    -0.550 OA
ATOM     24  O   UNL     1      17.891  43.704   6.369  1.00  0.00    -0.550 OA
ENDBRANCH  21  22
ENDBRANCH  20  21
ENDBRANCH  19  20
ENDBRANCH  18  19
ENDBRANCH  17  18
ENDBRANCH  16  17
ENDBRANCH  15  16
ENDBRANCH  14  15
ENDBRANCH  13  14
ENDBRANCH   1  13
TORSDOF 20
ENDMDL
