MODEL 1
REMARK VINA RESULT:    -6.221      0.000      0.000
REMARK INTER + INTRA:          -7.435
REMARK INTER:                  -7.312
REMARK INTRA:                  -0.123
REMARK UNBOUND:                -0.123
REMARK SMILES O=C([O-])C=Cc1ccc(O)c(O)c1
REMARK SMILES IDX 6 1 13 2 7 3 11 4 8 5 9 6 5 7 4 8 2 9 1 10 3 11 12 12 10 14
REMARK H PARENT 12 13 10 15
REMARK Flexibility Score: inf
ROOT
ATOM      1  C   UNL     1     -32.242  -3.369 -18.057  1.00  0.00    -0.022 A 
ATOM      2  C   UNL     1     -32.966  -2.796 -19.122  1.00  0.00     0.058 A 
ATOM      3  C   UNL     1     -30.839  -3.335 -18.097  1.00  0.00     0.012 A 
ATOM      4  C   UNL     1     -32.296  -2.223 -20.214  1.00  0.00     0.157 A 
ATOM      5  C   UNL     1     -30.172  -2.767 -19.185  1.00  0.00     0.051 A 
ATOM      6  C   UNL     1     -30.892  -2.214 -20.246  1.00  0.00     0.157 A 
ENDROOT
BRANCH   1   7
ATOM      7  C   UNL     1     -32.905  -3.975 -16.876  1.00  0.00     0.010 C 
ATOM      8  C   UNL     1     -34.228  -4.163 -16.779  1.00  0.00     0.025 C 
BRANCH   8   9
ATOM      9  C   UNL     1     -34.840  -4.779 -15.592  1.00  0.00     0.064 C 
ATOM     10  O   UNL     1     -34.740  -4.207 -14.475  1.00  0.00    -0.545 OA
ATOM     11  O   UNL     1     -35.527  -5.985 -15.682  1.00  0.00    -0.545 OA
ENDBRANCH   8   9
ENDBRANCH   1   7
BRANCH   4  12
ATOM     12  O   UNL     1     -33.021  -1.662 -21.265  1.00  0.00    -0.504 OA
ATOM     13  H   UNL     1     -33.122  -0.658 -21.364  1.00  0.00     0.293 HD
ENDBRANCH   4  12
BRANCH   6  14
ATOM     14  O   UNL     1     -30.199  -1.656 -21.319  1.00  0.00    -0.504 OA
ATOM     15  H   UNL     1     -30.231  -0.665 -21.525  1.00  0.00     0.293 HD
ENDBRANCH   6  14
TORSDOF 4
ENDMDL
MODEL 2
REMARK VINA RESULT:    -5.446      1.520      2.108
REMARK INTER + INTRA:          -6.525
REMARK INTER:                  -6.387
REMARK INTRA:                  -0.138
REMARK UNBOUND:                -0.123
REMARK SMILES O=C([O-])C=Cc1ccc(O)c(O)c1
REMARK SMILES IDX 6 1 13 2 7 3 11 4 8 5 9 6 5 7 4 8 2 9 1 10 3 11 12 12 10 14
REMARK H PARENT 12 13 10 15
REMARK Flexibility Score: inf
ROOT
ATOM      1  C   UNL     1     -34.024  -4.072 -17.685  1.00  0.00    -0.022 A 
ATOM      2  C   UNL     1     -34.189  -3.321 -18.867  1.00  0.00     0.058 A 
ATOM      3  C   UNL     1     -32.752  -4.135 -17.095  1.00  0.00     0.012 A 
ATOM      4  C   UNL     1     -33.095  -2.669 -19.456  1.00  0.00     0.157 A 
ATOM      5  C   UNL     1     -31.663  -3.488 -17.683  1.00  0.00     0.051 A 
ATOM      6  C   UNL     1     -31.826  -2.758 -18.862  1.00  0.00     0.157 A 
ENDROOT
BRANCH   1   7
ATOM      7  C   UNL     1     -35.152  -4.768 -17.018  1.00  0.00     0.010 C 
ATOM      8  C   UNL     1     -35.181  -6.088 -16.788  1.00  0.00     0.025 C 
BRANCH   8   9
ATOM      9  C   UNL     1     -36.317  -6.735 -16.113  1.00  0.00     0.064 C 
ATOM     10  O   UNL     1     -37.211  -6.023 -15.584  1.00  0.00    -0.545 OA
ATOM     11  O   UNL     1     -36.419  -8.119 -16.046  1.00  0.00    -0.545 OA
ENDBRANCH   8   9
ENDBRANCH   1   7
BRANCH   4  12
ATOM     12  O   UNL     1     -33.266  -1.932 -20.627  1.00  0.00    -0.504 OA
ATOM     13  H   UNL     1     -34.184  -1.780 -21.031  1.00  0.00     0.293 HD
ENDBRANCH   4  12
BRANCH   6  14
ATOM     14  O   UNL     1     -30.719  -2.125 -19.427  1.00  0.00    -0.504 OA
ATOM     15  H   UNL     1     -30.617  -1.118 -19.426  1.00  0.00     0.293 HD
ENDBRANCH   6  14
TORSDOF 4
ENDMDL
MODEL 3
REMARK VINA RESULT:    -5.442      2.452      3.607
REMARK INTER + INTRA:          -6.520
REMARK INTER:                  -6.395
REMARK INTRA:                  -0.125
REMARK UNBOUND:                -0.123
REMARK SMILES O=C([O-])C=Cc1ccc(O)c(O)c1
REMARK SMILES IDX 6 1 13 2 7 3 11 4 8 5 9 6 5 7 4 8 2 9 1 10 3 11 12 12 10 14
REMARK H PARENT 12 13 10 15
REMARK Flexibility Score: inf
ROOT
ATOM      1  C   UNL     1     -35.032  -4.785 -16.916  1.00  0.00    -0.022 A 
ATOM      2  C   UNL     1     -35.960  -4.020 -17.651  1.00  0.00     0.058 A 
ATOM      3  C   UNL     1     -33.668  -4.682 -17.232  1.00  0.00     0.012 A 
ATOM      4  C   UNL     1     -35.529  -3.188 -18.696  1.00  0.00     0.157 A 
ATOM      5  C   UNL     1     -33.239  -3.856 -18.272  1.00  0.00     0.051 A 
ATOM      6  C   UNL     1     -34.162  -3.110 -19.009  1.00  0.00     0.157 A 
ENDROOT
BRANCH   1   7
ATOM      7  C   UNL     1     -35.437  -5.670 -15.796  1.00  0.00     0.010 C 
ATOM      8  C   UNL     1     -36.217  -6.749 -15.944  1.00  0.00     0.025 C 
BRANCH   8   9
ATOM      9  C   UNL     1     -36.584  -7.605 -14.804  1.00  0.00     0.064 C 
ATOM     10  O   UNL     1     -36.828  -8.825 -14.998  1.00  0.00    -0.545 OA
ATOM     11  O   UNL     1     -36.668  -7.089 -13.516  1.00  0.00    -0.545 OA
ENDBRANCH   8   9
ENDBRANCH   1   7
BRANCH   4  12
ATOM     12  O   UNL     1     -36.454  -2.437 -19.420  1.00  0.00    -0.504 OA
ATOM     13  H   UNL     1     -36.873  -2.789 -20.273  1.00  0.00     0.293 HD
ENDBRANCH   4  12
BRANCH   6  14
ATOM     14  O   UNL     1     -33.705  -2.295 -20.044  1.00  0.00    -0.504 OA
ATOM     15  H   UNL     1     -33.676  -2.611 -21.005  1.00  0.00     0.293 HD
ENDBRANCH   6  14
TORSDOF 4
ENDMDL
MODEL 4
REMARK VINA RESULT:    -5.441      3.064      4.387
REMARK INTER + INTRA:          -6.519
REMARK INTER:                  -6.391
REMARK INTRA:                  -0.128
REMARK UNBOUND:                -0.123
REMARK SMILES O=C([O-])C=Cc1ccc(O)c(O)c1
REMARK SMILES IDX 6 1 13 2 7 3 11 4 8 5 9 6 5 7 4 8 2 9 1 10 3 11 12 12 10 14
REMARK H PARENT 12 13 10 15
REMARK Flexibility Score: inf
ROOT
ATOM      1  C   UNL     1     -35.507  -5.724 -17.178  1.00  0.00    -0.022 A 
ATOM      2  C   UNL     1     -34.131  -5.428 -17.264  1.00  0.00     0.058 A 
ATOM      3  C   UNL     1     -36.411  -4.967 -17.939  1.00  0.00     0.012 A 
ATOM      4  C   UNL     1     -33.678  -4.378 -18.077  1.00  0.00     0.157 A 
ATOM      5  C   UNL     1     -35.960  -3.922 -18.747  1.00  0.00     0.051 A 
ATOM      6  C   UNL     1     -34.598  -3.620 -18.818  1.00  0.00     0.157 A 
ENDROOT
BRANCH   1   7
ATOM      7  C   UNL     1     -36.034  -6.831 -16.342  1.00  0.00     0.010 C 
ATOM      8  C   UNL     1     -36.390  -6.689 -15.058  1.00  0.00     0.025 C 
BRANCH   8   9
ATOM      9  C   UNL     1     -36.920  -7.814 -14.270  1.00  0.00     0.064 C 
ATOM     10  O   UNL     1     -37.872  -8.498 -14.727  1.00  0.00    -0.545 OA
ATOM     11  O   UNL     1     -36.386  -8.133 -13.026  1.00  0.00    -0.545 OA
ENDBRANCH   8   9
ENDBRANCH   1   7
BRANCH   4  12
ATOM     12  O   UNL     1     -32.315  -4.089 -18.153  1.00  0.00    -0.504 OA
ATOM     13  H   UNL     1     -31.804  -3.723 -17.358  1.00  0.00     0.293 HD
ENDBRANCH   4  12
BRANCH   6  14
ATOM     14  O   UNL     1     -34.177  -2.568 -19.632  1.00  0.00    -0.504 OA
ATOM     15  H   UNL     1     -33.809  -1.706 -19.250  1.00  0.00     0.293 HD
ENDBRANCH   6  14
TORSDOF 4
ENDMDL
MODEL 5
REMARK VINA RESULT:    -5.403      4.090      8.533
REMARK INTER + INTRA:          -6.474
REMARK INTER:                  -6.345
REMARK INTRA:                  -0.129
REMARK UNBOUND:                -0.123
REMARK SMILES O=C([O-])C=Cc1ccc(O)c(O)c1
REMARK SMILES IDX 6 1 13 2 7 3 11 4 8 5 9 6 5 7 4 8 2 9 1 10 3 11 12 12 10 14
REMARK H PARENT 12 13 10 15
REMARK Flexibility Score: inf
ROOT
ATOM      1  C   UNL     1     -37.021  -6.676 -14.787  1.00  0.00    -0.022 A 
ATOM      2  C   UNL     1     -38.341  -6.185 -14.736  1.00  0.00     0.058 A 
ATOM      3  C   UNL     1     -36.759  -7.967 -14.303  1.00  0.00     0.012 A 
ATOM      4  C   UNL     1     -39.372  -6.966 -14.188  1.00  0.00     0.157 A 
ATOM      5  C   UNL     1     -37.783  -8.743 -13.756  1.00  0.00     0.051 A 
ATOM      6  C   UNL     1     -39.088  -8.249 -13.693  1.00  0.00     0.157 A 
ENDROOT
BRANCH   1   7
ATOM      7  C   UNL     1     -35.901  -5.893 -15.367  1.00  0.00     0.010 C 
ATOM      8  C   UNL     1     -35.381  -6.124 -16.580  1.00  0.00     0.025 C 
BRANCH   8   9
ATOM      9  C   UNL     1     -34.277  -5.315 -17.119  1.00  0.00     0.064 C 
ATOM     10  O   UNL     1     -34.504  -4.142 -17.516  1.00  0.00    -0.545 OA
ATOM     11  O   UNL     1     -32.986  -5.824 -17.200  1.00  0.00    -0.545 OA
ENDBRANCH   8   9
ENDBRANCH   1   7
BRANCH   4  12
ATOM     12  O   UNL     1     -40.674  -6.471 -14.138  1.00  0.00    -0.504 OA
ATOM     13  H   UNL     1     -41.176  -6.380 -13.262  1.00  0.00     0.293 HD
ENDBRANCH   4  12
BRANCH   6  14
ATOM     14  O   UNL     1     -40.090  -9.045 -13.139  1.00  0.00    -0.504 OA
ATOM     15  H   UNL     1     -40.473  -9.845 -13.628  1.00  0.00     0.293 HD
ENDBRANCH   6  14
TORSDOF 4
ENDMDL
MODEL 6
REMARK VINA RESULT:    -5.220      2.428      3.398
REMARK INTER + INTRA:          -6.259
REMARK INTER:                  -6.136
REMARK INTRA:                  -0.124
REMARK UNBOUND:                -0.123
REMARK SMILES O=C([O-])C=Cc1ccc(O)c(O)c1
REMARK SMILES IDX 6 1 13 2 7 3 11 4 8 5 9 6 5 7 4 8 2 9 1 10 3 11 12 12 10 14
REMARK H PARENT 12 13 10 15
REMARK Flexibility Score: inf
ROOT
ATOM      1  C   UNL     1     -33.564  -4.447 -17.357  1.00  0.00    -0.022 A 
ATOM      2  C   UNL     1     -32.476  -5.156 -16.809  1.00  0.00     0.058 A 
ATOM      3  C   UNL     1     -33.306  -3.329 -18.166  1.00  0.00     0.012 A 
ATOM      4  C   UNL     1     -31.158  -4.737 -17.049  1.00  0.00     0.157 A 
ATOM      5  C   UNL     1     -31.994  -2.911 -18.403  1.00  0.00     0.051 A 
ATOM      6  C   UNL     1     -30.918  -3.607 -17.847  1.00  0.00     0.157 A 
ENDROOT
BRANCH   1   7
ATOM      7  C   UNL     1     -34.974  -4.857 -17.142  1.00  0.00     0.010 C 
ATOM      8  C   UNL     1     -35.338  -6.069 -16.701  1.00  0.00     0.025 C 
BRANCH   8   9
ATOM      9  C   UNL     1     -36.749  -6.428 -16.491  1.00  0.00     0.064 C 
ATOM     10  O   UNL     1     -37.036  -7.435 -15.792  1.00  0.00    -0.545 OA
ATOM     11  O   UNL     1     -37.773  -5.675 -17.054  1.00  0.00    -0.545 OA
ENDBRANCH   8   9
ENDBRANCH   1   7
BRANCH   4  12
ATOM     12  O   UNL     1     -30.088  -5.443 -16.501  1.00  0.00    -0.504 OA
ATOM     13  H   UNL     1     -29.681  -5.184 -15.609  1.00  0.00     0.293 HD
ENDBRANCH   4  12
BRANCH   6  14
ATOM     14  O   UNL     1     -29.620  -3.164 -18.099  1.00  0.00    -0.504 OA
ATOM     15  H   UNL     1     -29.265  -3.046 -19.039  1.00  0.00     0.293 HD
ENDBRANCH   6  14
TORSDOF 4
ENDMDL
MODEL 7
REMARK VINA RESULT:    -5.161      3.440      7.773
REMARK INTER + INTRA:          -6.190
REMARK INTER:                  -6.064
REMARK INTRA:                  -0.126
REMARK UNBOUND:                -0.123
REMARK SMILES O=C([O-])C=Cc1ccc(O)c(O)c1
REMARK SMILES IDX 6 1 13 2 7 3 11 4 8 5 9 6 5 7 4 8 2 9 1 10 3 11 12 12 10 14
REMARK H PARENT 12 13 10 15
REMARK Flexibility Score: inf
ROOT
ATOM      1  C   UNL     1     -36.445  -6.103 -15.439  1.00  0.00    -0.022 A 
ATOM      2  C   UNL     1     -37.543  -6.748 -16.045  1.00  0.00     0.058 A 
ATOM      3  C   UNL     1     -36.051  -6.503 -14.153  1.00  0.00     0.012 A 
ATOM      4  C   UNL     1     -38.244  -7.755 -15.364  1.00  0.00     0.157 A 
ATOM      5  C   UNL     1     -36.749  -7.504 -13.474  1.00  0.00     0.051 A 
ATOM      6  C   UNL     1     -37.846  -8.131 -14.071  1.00  0.00     0.157 A 
ENDROOT
BRANCH   1   7
ATOM      7  C   UNL     1     -35.666  -5.041 -16.123  1.00  0.00     0.010 C 
ATOM      8  C   UNL     1     -34.573  -5.279 -16.861  1.00  0.00     0.025 C 
BRANCH   8   9
ATOM      9  C   UNL     1     -33.837  -4.194 -17.531  1.00  0.00     0.064 C 
ATOM     10  O   UNL     1     -32.615  -4.027 -17.280  1.00  0.00    -0.545 OA
ATOM     11  O   UNL     1     -34.470  -3.349 -18.435  1.00  0.00    -0.545 OA
ENDBRANCH   8   9
ENDBRANCH   1   7
BRANCH   4  12
ATOM     12  O   UNL     1     -39.330  -8.384 -15.970  1.00  0.00    -0.504 OA
ATOM     13  H   UNL     1     -40.115  -8.728 -15.428  1.00  0.00     0.293 HD
ENDBRANCH   4  12
BRANCH   6  14
ATOM     14  O   UNL     1     -38.526  -9.125 -13.368  1.00  0.00    -0.504 OA
ATOM     15  H   UNL     1     -38.180  -9.497 -12.492  1.00  0.00     0.293 HD
ENDBRANCH   6  14
TORSDOF 4
ENDMDL
MODEL 8
REMARK VINA RESULT:    -5.090      2.006      6.745
REMARK INTER + INTRA:          -6.107
REMARK INTER:                  -5.982
REMARK INTRA:                  -0.125
REMARK UNBOUND:                -0.123
REMARK SMILES O=C([O-])C=Cc1ccc(O)c(O)c1
REMARK SMILES IDX 6 1 13 2 7 3 11 4 8 5 9 6 5 7 4 8 2 9 1 10 3 11 12 12 10 14
REMARK H PARENT 12 13 10 15
REMARK Flexibility Score: inf
ROOT
ATOM      1  C   UNL     1     -34.987  -4.853 -16.287  1.00  0.00    -0.022 A 
ATOM      2  C   UNL     1     -35.014  -4.622 -14.897  1.00  0.00     0.058 A 
ATOM      3  C   UNL     1     -35.647  -5.981 -16.799  1.00  0.00     0.012 A 
ATOM      4  C   UNL     1     -35.670  -5.518 -14.038  1.00  0.00     0.157 A 
ATOM      5  C   UNL     1     -36.298  -6.874 -15.945  1.00  0.00     0.051 A 
ATOM      6  C   UNL     1     -36.310  -6.651 -14.566  1.00  0.00     0.157 A 
ENDROOT
BRANCH   1   7
ATOM      7  C   UNL     1     -34.318  -3.930 -17.237  1.00  0.00     0.010 C 
ATOM      8  C   UNL     1     -32.997  -3.920 -17.460  1.00  0.00     0.025 C 
BRANCH   8   9
ATOM      9  C   UNL     1     -32.378  -2.992 -18.420  1.00  0.00     0.064 C 
ATOM     10  O   UNL     1     -31.354  -2.342 -18.083  1.00  0.00    -0.545 OA
ATOM     11  O   UNL     1     -32.905  -2.821 -19.695  1.00  0.00    -0.545 OA
ENDBRANCH   8   9
ENDBRANCH   1   7
BRANCH   4  12
ATOM     12  O   UNL     1     -35.689  -5.283 -12.663  1.00  0.00    -0.504 OA
ATOM     13  H   UNL     1     -36.211  -5.878 -12.030  1.00  0.00     0.293 HD
ENDBRANCH   4  12
BRANCH   6  14
ATOM     14  O   UNL     1     -36.966  -7.560 -13.736  1.00  0.00    -0.504 OA
ATOM     15  H   UNL     1     -36.625  -8.503 -13.597  1.00  0.00     0.293 HD
ENDBRANCH   6  14
TORSDOF 4
ENDMDL
MODEL 9
REMARK VINA RESULT:    -5.029      2.106      3.262
REMARK INTER + INTRA:          -6.035
REMARK INTER:                  -5.904
REMARK INTRA:                  -0.131
REMARK UNBOUND:                -0.123
REMARK SMILES O=C([O-])C=Cc1ccc(O)c(O)c1
REMARK SMILES IDX 6 1 13 2 7 3 11 4 8 5 9 6 5 7 4 8 2 9 1 10 3 11 12 12 10 14
REMARK H PARENT 12 13 10 15
REMARK Flexibility Score: inf
ROOT
ATOM      1  C   UNL     1     -34.038  -4.224 -16.291  1.00  0.00    -0.022 A 
ATOM      2  C   UNL     1     -32.663  -4.525 -16.365  1.00  0.00     0.058 A 
ATOM      3  C   UNL     1     -34.638  -3.534 -17.355  1.00  0.00     0.012 A 
ATOM      4  C   UNL     1     -31.902  -4.118 -17.472  1.00  0.00     0.157 A 
ATOM      5  C   UNL     1     -33.882  -3.128 -18.457  1.00  0.00     0.051 A 
ATOM      6  C   UNL     1     -32.516  -3.413 -18.520  1.00  0.00     0.157 A 
ENDROOT
BRANCH   1   7
ATOM      7  C   UNL     1     -34.886  -4.642 -15.147  1.00  0.00     0.010 C 
ATOM      8  C   UNL     1     -35.624  -5.761 -15.137  1.00  0.00     0.025 C 
BRANCH   8   9
ATOM      9  C   UNL     1     -36.442  -6.141 -13.974  1.00  0.00     0.064 C 
ATOM     10  O   UNL     1     -37.264  -5.316 -13.497  1.00  0.00    -0.545 OA
ATOM     11  O   UNL     1     -36.321  -7.397 -13.392  1.00  0.00    -0.545 OA
ENDBRANCH   8   9
ENDBRANCH   1   7
BRANCH   4  12
ATOM     12  O   UNL     1     -30.542  -4.417 -17.535  1.00  0.00    -0.504 OA
ATOM     13  H   UNL     1     -30.109  -5.065 -16.887  1.00  0.00     0.293 HD
ENDBRANCH   4  12
BRANCH   6  14
ATOM     14  O   UNL     1     -31.785  -2.993 -19.631  1.00  0.00    -0.504 OA
ATOM     15  H   UNL     1     -32.167  -2.353 -20.316  1.00  0.00     0.293 HD
ENDBRANCH   6  14
TORSDOF 4
ENDMDL
