MODEL 1
REMARK VINA RESULT:    -5.720      0.000      0.000
REMARK INTER + INTRA:          -6.854
REMARK INTER:                  -6.723
REMARK INTRA:                  -0.131
REMARK UNBOUND:                -0.131
REMARK SMILES O=C([O-])C=Cc1ccc(O)c(O)c1
REMARK SMILES IDX 6 1 13 2 7 3 11 4 8 5 9 6 5 7 4 8 2 9 1 10 3 11 12 12 10 14
REMARK H PARENT 12 13 10 15
REMARK Flexibility Score: inf
ROOT
ATOM      1  C   UNL     1      -3.997  61.146 -13.060  1.00  0.00    -0.022 A 
ATOM      2  C   UNL     1      -5.180  61.803 -12.688  1.00  0.00     0.058 A 
ATOM      3  C   UNL     1      -4.030  60.250 -14.143  1.00  0.00     0.012 A 
ATOM      4  C   UNL     1      -6.374  61.599 -13.392  1.00  0.00     0.157 A 
ATOM      5  C   UNL     1      -5.216  60.040 -14.850  1.00  0.00     0.051 A 
ATOM      6  C   UNL     1      -6.392  60.708 -14.490  1.00  0.00     0.157 A 
ENDROOT
BRANCH   1   7
ATOM      7  C   UNL     1      -2.766  61.396 -12.268  1.00  0.00     0.010 C 
ATOM      8  C   UNL     1      -2.453  62.586 -11.735  1.00  0.00     0.025 C 
BRANCH   8   9
ATOM      9  C   UNL     1      -1.228  62.795 -10.945  1.00  0.00     0.064 C 
ATOM     10  O   UNL     1      -0.215  62.062 -11.104  1.00  0.00    -0.545 OA
ATOM     11  O   UNL     1      -1.187  63.818 -10.007  1.00  0.00    -0.545 OA
ENDBRANCH   8   9
ENDBRANCH   1   7
BRANCH   4  12
ATOM     12  O   UNL     1      -7.508  62.295 -12.968  1.00  0.00    -0.504 OA
ATOM     13  H   UNL     1      -8.432  62.153 -13.347  1.00  0.00     0.293 HD
ENDBRANCH   4  12
BRANCH   6  14
ATOM     14  O   UNL     1      -7.542  60.455 -15.240  1.00  0.00    -0.504 OA
ATOM     15  H   UNL     1      -7.983  61.135 -15.842  1.00  0.00     0.293 HD
ENDBRANCH   6  14
TORSDOF 4
ENDMDL
MODEL 2
REMARK VINA RESULT:    -5.688     12.489     13.369
REMARK INTER + INTRA:          -6.817
REMARK INTER:                  -6.686
REMARK INTRA:                  -0.131
REMARK UNBOUND:                -0.131
REMARK SMILES O=C([O-])C=Cc1ccc(O)c(O)c1
REMARK SMILES IDX 6 1 13 2 7 3 11 4 8 5 9 6 5 7 4 8 2 9 1 10 3 11 12 12 10 14
REMARK H PARENT 12 13 10 15
REMARK Flexibility Score: inf
ROOT
ATOM      1  C   UNL     1      -4.264  68.220 -24.157  1.00  0.00    -0.022 A 
ATOM      2  C   UNL     1      -3.264  67.510 -24.839  1.00  0.00     0.058 A 
ATOM      3  C   UNL     1      -5.367  68.704 -24.882  1.00  0.00     0.012 A 
ATOM      4  C   UNL     1      -3.364  67.259 -26.214  1.00  0.00     0.157 A 
ATOM      5  C   UNL     1      -5.475  68.458 -26.253  1.00  0.00     0.051 A 
ATOM      6  C   UNL     1      -4.486  67.736 -26.930  1.00  0.00     0.157 A 
ENDROOT
BRANCH   1   7
ATOM      7  C   UNL     1      -4.096  68.463 -22.702  1.00  0.00     0.010 C 
ATOM      8  C   UNL     1      -5.026  68.164 -21.784  1.00  0.00     0.025 C 
BRANCH   8   9
ATOM      9  C   UNL     1      -4.819  68.409 -20.347  1.00  0.00     0.064 C 
ATOM     10  O   UNL     1      -3.746  68.911 -19.918  1.00  0.00    -0.545 OA
ATOM     11  O   UNL     1      -5.825  68.082 -19.447  1.00  0.00    -0.545 OA
ENDBRANCH   8   9
ENDBRANCH   1   7
BRANCH   4  12
ATOM     12  O   UNL     1      -2.333  66.538 -26.821  1.00  0.00    -0.504 OA
ATOM     13  H   UNL     1      -2.415  65.576 -27.117  1.00  0.00     0.293 HD
ENDBRANCH   4  12
BRANCH   6  14
ATOM     14  O   UNL     1      -4.656  67.523 -28.299  1.00  0.00    -0.504 OA
ATOM     15  H   UNL     1      -5.031  68.212 -28.935  1.00  0.00     0.293 HD
ENDBRANCH   6  14
TORSDOF 4
ENDMDL
MODEL 3
REMARK VINA RESULT:    -5.616     10.411     11.751
REMARK INTER + INTRA:          -6.733
REMARK INTER:                  -6.602
REMARK INTRA:                  -0.131
REMARK UNBOUND:                -0.131
REMARK SMILES O=C([O-])C=Cc1ccc(O)c(O)c1
REMARK SMILES IDX 6 1 13 2 7 3 11 4 8 5 9 6 5 7 4 8 2 9 1 10 3 11 12 12 10 14
REMARK H PARENT 12 13 10 15
REMARK Flexibility Score: inf
ROOT
ATOM      1  C   UNL     1      -3.334  68.471 -20.069  1.00  0.00    -0.022 A 
ATOM      2  C   UNL     1      -2.859  68.070 -21.327  1.00  0.00     0.058 A 
ATOM      3  C   UNL     1      -2.460  69.140 -19.194  1.00  0.00     0.012 A 
ATOM      4  C   UNL     1      -1.545  68.350 -21.727  1.00  0.00     0.157 A 
ATOM      5  C   UNL     1      -1.149  69.423 -19.585  1.00  0.00     0.051 A 
ATOM      6  C   UNL     1      -0.680  69.038 -20.846  1.00  0.00     0.157 A 
ENDROOT
BRANCH   1   7
ATOM      7  C   UNL     1      -4.732  68.135 -19.698  1.00  0.00     0.010 C 
ATOM      8  C   UNL     1      -5.779  68.294 -20.521  1.00  0.00     0.025 C 
BRANCH   8   9
ATOM      9  C   UNL     1      -7.152  67.939 -20.123  1.00  0.00     0.064 C 
ATOM     10  O   UNL     1      -7.432  67.655 -18.928  1.00  0.00    -0.545 OA
ATOM     11  O   UNL     1      -8.156  67.917 -21.082  1.00  0.00    -0.545 OA
ENDBRANCH   8   9
ENDBRANCH   1   7
BRANCH   4  12
ATOM     12  O   UNL     1      -1.147  67.927 -22.998  1.00  0.00    -0.504 OA
ATOM     13  H   UNL     1      -1.703  67.333 -23.595  1.00  0.00     0.293 HD
ENDBRANCH   4  12
BRANCH   6  14
ATOM     14  O   UNL     1       0.640  69.355 -21.175  1.00  0.00    -0.504 OA
ATOM     15  H   UNL     1       0.961  70.290 -21.379  1.00  0.00     0.293 HD
ENDBRANCH   6  14
TORSDOF 4
ENDMDL
MODEL 4
REMARK VINA RESULT:    -5.608      1.068      1.986
REMARK INTER + INTRA:          -6.723
REMARK INTER:                  -6.592
REMARK INTRA:                  -0.131
REMARK UNBOUND:                -0.131
REMARK SMILES O=C([O-])C=Cc1ccc(O)c(O)c1
REMARK SMILES IDX 6 1 13 2 7 3 11 4 8 5 9 6 5 7 4 8 2 9 1 10 3 11 12 12 10 14
REMARK H PARENT 12 13 10 15
REMARK Flexibility Score: inf
ROOT
ATOM      1  C   UNL     1      -4.117  61.255 -13.164  1.00  0.00    -0.022 A 
ATOM      2  C   UNL     1      -3.859  60.820 -14.473  1.00  0.00     0.058 A 
ATOM      3  C   UNL     1      -5.453  61.383 -12.743  1.00  0.00     0.012 A 
ATOM      4  C   UNL     1      -4.903  60.492 -15.347  1.00  0.00     0.157 A 
ATOM      5  C   UNL     1      -6.501  61.057 -13.608  1.00  0.00     0.051 A 
ATOM      6  C   UNL     1      -6.242  60.609 -14.907  1.00  0.00     0.157 A 
ENDROOT
BRANCH   1   7
ATOM      7  C   UNL     1      -2.968  61.598 -12.289  1.00  0.00     0.010 C 
ATOM      8  C   UNL     1      -2.686  62.845 -11.886  1.00  0.00     0.025 C 
BRANCH   8   9
ATOM      9  C   UNL     1      -1.543  63.148 -11.008  1.00  0.00     0.064 C 
ATOM     10  O   UNL     1      -0.512  62.423 -11.006  1.00  0.00    -0.545 OA
ATOM     11  O   UNL     1      -1.601  64.251 -10.167  1.00  0.00    -0.545 OA
ENDBRANCH   8   9
ENDBRANCH   1   7
BRANCH   4  12
ATOM     12  O   UNL     1      -4.567  60.059 -16.632  1.00  0.00    -0.504 OA
ATOM     13  H   UNL     1      -5.223  59.647 -17.279  1.00  0.00     0.293 HD
ENDBRANCH   4  12
BRANCH   6  14
ATOM     14  O   UNL     1      -7.335  60.297 -15.719  1.00  0.00    -0.504 OA
ATOM     15  H   UNL     1      -7.705  59.365 -15.833  1.00  0.00     0.293 HD
ENDBRANCH   6  14
TORSDOF 4
ENDMDL
MODEL 5
REMARK VINA RESULT:    -5.593     14.292     16.164
REMARK INTER + INTRA:          -6.705
REMARK INTER:                  -6.572
REMARK INTRA:                  -0.133
REMARK UNBOUND:                -0.131
REMARK SMILES O=C([O-])C=Cc1ccc(O)c(O)c1
REMARK SMILES IDX 6 1 13 2 7 3 11 4 8 5 9 6 5 7 4 8 2 9 1 10 3 11 12 12 10 14
REMARK H PARENT 12 13 10 15
REMARK Flexibility Score: inf
ROOT
ATOM      1  C   UNL     1      -5.150  68.563 -25.876  1.00  0.00    -0.022 A 
ATOM      2  C   UNL     1      -4.175  67.787 -26.522  1.00  0.00     0.058 A 
ATOM      3  C   UNL     1      -4.970  68.887 -24.519  1.00  0.00     0.012 A 
ATOM      4  C   UNL     1      -3.025  67.358 -25.845  1.00  0.00     0.157 A 
ATOM      5  C   UNL     1      -3.826  68.464 -23.837  1.00  0.00     0.051 A 
ATOM      6  C   UNL     1      -2.846  67.704 -24.486  1.00  0.00     0.157 A 
ENDROOT
BRANCH   1   7
ATOM      7  C   UNL     1      -6.351  68.977 -26.643  1.00  0.00     0.010 C 
ATOM      8  C   UNL     1      -6.623  68.555 -27.886  1.00  0.00     0.025 C 
BRANCH   8   9
ATOM      9  C   UNL     1      -7.831  68.978 -28.613  1.00  0.00     0.064 C 
ATOM     10  O   UNL     1      -8.042  70.191 -28.878  1.00  0.00    -0.545 OA
ATOM     11  O   UNL     1      -8.755  68.023 -29.015  1.00  0.00    -0.545 OA
ENDBRANCH   8   9
ENDBRANCH   1   7
BRANCH   4  12
ATOM     12  O   UNL     1      -2.096  66.597 -26.558  1.00  0.00    -0.504 OA
ATOM     13  H   UNL     1      -1.718  66.862 -27.455  1.00  0.00     0.293 HD
ENDBRANCH   4  12
BRANCH   6  14
ATOM     14  O   UNL     1      -1.727  67.317 -23.748  1.00  0.00    -0.504 OA
ATOM     15  H   UNL     1      -1.270  66.421 -23.844  1.00  0.00     0.293 HD
ENDBRANCH   6  14
TORSDOF 4
ENDMDL
MODEL 6
REMARK VINA RESULT:    -5.585     10.493     10.860
REMARK INTER + INTRA:          -6.696
REMARK INTER:                  -6.566
REMARK INTRA:                  -0.129
REMARK UNBOUND:                -0.131
REMARK SMILES O=C([O-])C=Cc1ccc(O)c(O)c1
REMARK SMILES IDX 6 1 13 2 7 3 11 4 8 5 9 6 5 7 4 8 2 9 1 10 3 11 12 12 10 14
REMARK H PARENT 12 13 10 15
REMARK Flexibility Score: inf
ROOT
ATOM      1  C   UNL     1      -5.926  68.254 -20.942  1.00  0.00    -0.022 A 
ATOM      2  C   UNL     1      -7.016  69.138 -20.895  1.00  0.00     0.058 A 
ATOM      3  C   UNL     1      -5.948  67.199 -21.871  1.00  0.00     0.012 A 
ATOM      4  C   UNL     1      -8.101  68.996 -21.770  1.00  0.00     0.157 A 
ATOM      5  C   UNL     1      -7.026  67.051 -22.747  1.00  0.00     0.051 A 
ATOM      6  C   UNL     1      -8.105  67.941 -22.711  1.00  0.00     0.157 A 
ENDROOT
BRANCH   1   7
ATOM      7  C   UNL     1      -4.811  68.450 -19.981  1.00  0.00     0.010 C 
ATOM      8  C   UNL     1      -3.525  68.550 -20.344  1.00  0.00     0.025 C 
BRANCH   8   9
ATOM      9  C   UNL     1      -2.445  68.756 -19.364  1.00  0.00     0.064 C 
ATOM     10  O   UNL     1      -2.486  68.216 -18.226  1.00  0.00    -0.545 OA
ATOM     11  O   UNL     1      -1.362  69.558 -19.698  1.00  0.00    -0.545 OA
ENDBRANCH   8   9
ENDBRANCH   1   7
BRANCH   4  12
ATOM     12  O   UNL     1      -9.145  69.919 -21.668  1.00  0.00    -0.504 OA
ATOM     13  H   UNL     1      -9.827  70.082 -22.394  1.00  0.00     0.293 HD
ENDBRANCH   4  12
BRANCH   6  14
ATOM     14  O   UNL     1      -9.148  67.738 -23.616  1.00  0.00    -0.504 OA
ATOM     15  H   UNL     1      -9.051  67.825 -24.617  1.00  0.00     0.293 HD
ENDBRANCH   6  14
TORSDOF 4
ENDMDL
MODEL 7
REMARK VINA RESULT:    -5.450     10.391     11.580
REMARK INTER + INTRA:          -6.537
REMARK INTER:                  -6.403
REMARK INTRA:                  -0.134
REMARK UNBOUND:                -0.131
REMARK SMILES O=C([O-])C=Cc1ccc(O)c(O)c1
REMARK SMILES IDX 6 1 13 2 7 3 11 4 8 5 9 6 5 7 4 8 2 9 1 10 3 11 12 12 10 14
REMARK H PARENT 12 13 10 15
REMARK Flexibility Score: inf
ROOT
ATOM      1  C   UNL     1      -5.524  66.964 -21.657  1.00  0.00    -0.022 A 
ATOM      2  C   UNL     1      -6.112  68.220 -21.437  1.00  0.00     0.058 A 
ATOM      3  C   UNL     1      -5.758  65.933 -20.730  1.00  0.00     0.012 A 
ATOM      4  C   UNL     1      -6.941  68.448 -20.331  1.00  0.00     0.157 A 
ATOM      5  C   UNL     1      -6.584  66.152 -19.624  1.00  0.00     0.051 A 
ATOM      6  C   UNL     1      -7.182  67.399 -19.414  1.00  0.00     0.157 A 
ENDROOT
BRANCH   1   7
ATOM      7  C   UNL     1      -4.647  66.788 -22.842  1.00  0.00     0.010 C 
ATOM      8  C   UNL     1      -4.393  67.759 -23.731  1.00  0.00     0.025 C 
BRANCH   8   9
ATOM      9  C   UNL     1      -3.507  67.552 -24.889  1.00  0.00     0.064 C 
ATOM     10  O   UNL     1      -2.381  67.003 -24.758  1.00  0.00    -0.545 OA
ATOM     11  O   UNL     1      -3.919  67.969 -26.147  1.00  0.00    -0.545 OA
ENDBRANCH   8   9
ENDBRANCH   1   7
BRANCH   4  12
ATOM     12  O   UNL     1      -7.496  69.721 -20.184  1.00  0.00    -0.504 OA
ATOM     13  H   UNL     1      -8.339  69.912 -19.662  1.00  0.00     0.293 HD
ENDBRANCH   4  12
BRANCH   6  14
ATOM     14  O   UNL     1      -7.998  67.550 -18.290  1.00  0.00    -0.504 OA
ATOM     15  H   UNL     1      -7.872  68.271 -17.595  1.00  0.00     0.293 HD
ENDBRANCH   6  14
TORSDOF 4
ENDMDL
MODEL 8
REMARK VINA RESULT:    -5.448      3.315      4.252
REMARK INTER + INTRA:          -6.535
REMARK INTER:                  -6.405
REMARK INTRA:                  -0.129
REMARK UNBOUND:                -0.131
REMARK SMILES O=C([O-])C=Cc1ccc(O)c(O)c1
REMARK SMILES IDX 6 1 13 2 7 3 11 4 8 5 9 6 5 7 4 8 2 9 1 10 3 11 12 12 10 14
REMARK H PARENT 12 13 10 15
REMARK Flexibility Score: inf
ROOT
ATOM      1  C   UNL     1      -3.968  61.438 -14.243  1.00  0.00    -0.022 A 
ATOM      2  C   UNL     1      -5.233  61.999 -14.010  1.00  0.00     0.058 A 
ATOM      3  C   UNL     1      -3.536  60.377 -13.427  1.00  0.00     0.012 A 
ATOM      4  C   UNL     1      -6.072  61.503 -13.002  1.00  0.00     0.157 A 
ATOM      5  C   UNL     1      -4.365  59.876 -12.421  1.00  0.00     0.051 A 
ATOM      6  C   UNL     1      -5.633  60.425 -12.199  1.00  0.00     0.157 A 
ENDROOT
BRANCH   1   7
ATOM      7  C   UNL     1      -3.122  62.016 -15.317  1.00  0.00     0.010 C 
ATOM      8  C   UNL     1      -3.587  62.360 -16.526  1.00  0.00     0.025 C 
BRANCH   8   9
ATOM      9  C   UNL     1      -2.720  62.942 -17.565  1.00  0.00     0.064 C 
ATOM     10  O   UNL     1      -1.560  62.497 -17.771  1.00  0.00    -0.545 OA
ATOM     11  O   UNL     1      -3.190  64.000 -18.332  1.00  0.00    -0.545 OA
ENDBRANCH   8   9
ENDBRANCH   1   7
BRANCH   4  12
ATOM     12  O   UNL     1      -7.319  62.108 -12.836  1.00  0.00    -0.504 OA
ATOM     13  H   UNL     1      -7.682  62.419 -11.947  1.00  0.00     0.293 HD
ENDBRANCH   4  12
BRANCH   6  14
ATOM     14  O   UNL     1      -6.412  59.875 -11.180  1.00  0.00    -0.504 OA
ATOM     15  H   UNL     1      -6.043  59.308 -10.431  1.00  0.00     0.293 HD
ENDBRANCH   6  14
TORSDOF 4
ENDMDL
