MODEL 1
REMARK VINA RESULT:    -6.469      0.000      0.000
REMARK INTER + INTRA:          -7.867
REMARK INTER:                  -7.604
REMARK INTRA:                  -0.263
REMARK UNBOUND:                -0.263
REMARK SMILES O=c1cc(-c2ccc(O)c(O)c2)oc2cc(O)cc(O)c12
REMARK SMILES IDX 4 1 3 2 2 3 1 4 21 5 19 6 18 7 16 8 15 9 14 10 13 11 5 12
REMARK SMILES IDX 6 13 7 14 8 15 12 16 10 17 9 18 11 20 20 22 17 24
REMARK H PARENT 9 19 11 21 20 23 17 25
REMARK Flexibility Score: inf
ROOT
ATOM      1  C   UNL     1     199.921 190.311 198.108  1.00  0.00     0.138 A 
ATOM      2  C   UNL     1     201.136 190.098 198.779  1.00  0.00     0.100 A 
ATOM      3  C   UNL     1     201.136 189.941 200.167  1.00  0.00     0.197 A 
ATOM      4  O   UNL     1     202.232 189.751 200.760  1.00  0.00    -0.289 OA
ATOM      5  C   UNL     1     199.919 190.002 200.873  1.00  0.00     0.107 A 
ATOM      6  C   UNL     1     199.830 189.853 202.277  1.00  0.00     0.134 A 
ATOM      7  C   UNL     1     198.579 189.931 202.907  1.00  0.00     0.093 A 
ATOM      8  C   UNL     1     197.419 190.158 202.162  1.00  0.00     0.123 A 
ATOM      9  C   UNL     1     197.501 190.307 200.774  1.00  0.00     0.094 A 
ATOM     10  C   UNL     1     198.738 190.231 200.127  1.00  0.00     0.146 A 
ATOM     11  O   UNL     1     198.789 190.373 198.807  1.00  0.00    -0.456 OA
ENDROOT
BRANCH   1  12
ATOM     12  C   UNL     1     199.860 190.486 196.635  1.00  0.00     0.021 A 
ATOM     13  C   UNL     1     199.417 189.454 195.785  1.00  0.00     0.016 A 
ATOM     14  C   UNL     1     199.362 189.650 194.403  1.00  0.00     0.051 A 
ATOM     15  C   UNL     1     199.737 190.879 193.846  1.00  0.00     0.157 A 
ATOM     16  C   UNL     1     200.222 191.722 196.069  1.00  0.00     0.062 A 
ATOM     17  C   UNL     1     200.167 191.920 194.685  1.00  0.00     0.158 A 
BRANCH  15  18
ATOM     18  O   UNL     1     199.680 191.070 192.467  1.00  0.00    -0.504 OA
ATOM     19  H   UNL     1     200.252 190.527 191.831  1.00  0.00     0.293 HD
ENDBRANCH  15  18
BRANCH  17  20
ATOM     20  O   UNL     1     200.544 193.157 194.163  1.00  0.00    -0.504 OA
ATOM     21  H   UNL     1     201.453 193.311 193.745  1.00  0.00     0.293 HD
ENDBRANCH  17  20
ENDBRANCH   1  12
BRANCH   6  22
ATOM     22  O   UNL     1     200.971 189.625 203.049  1.00  0.00    -0.507 OA
ATOM     23  H   UNL     1     201.872 189.436 202.624  1.00  0.00     0.293 HD
ENDBRANCH   6  22
BRANCH   8  24
ATOM     24  O   UNL     1     196.189 190.233 202.813  1.00  0.00    -0.508 OA
ATOM     25  H   UNL     1     195.674 189.400 203.071  1.00  0.00     0.293 HD
ENDBRANCH   8  24
TORSDOF 5
ENDMDL
MODEL 2
REMARK VINA RESULT:    -6.336     14.669     15.689
REMARK INTER + INTRA:          -7.711
REMARK INTER:                  -7.448
REMARK INTRA:                  -0.263
REMARK UNBOUND:                -0.263
REMARK SMILES O=c1cc(-c2ccc(O)c(O)c2)oc2cc(O)cc(O)c12
REMARK SMILES IDX 4 1 3 2 2 3 1 4 21 5 19 6 18 7 16 8 15 9 14 10 13 11 5 12
REMARK SMILES IDX 6 13 7 14 8 15 12 16 10 17 9 18 11 20 20 22 17 24
REMARK H PARENT 9 19 11 21 20 23 17 25
REMARK Flexibility Score: inf
ROOT
ATOM      1  C   UNL     1     195.385 205.424 198.434  1.00  0.00     0.138 A 
ATOM      2  C   UNL     1     194.182 205.582 199.141  1.00  0.00     0.100 A 
ATOM      3  C   UNL     1     194.214 205.706 200.531  1.00  0.00     0.197 A 
ATOM      4  O   UNL     1     193.129 205.847 201.157  1.00  0.00    -0.289 OA
ATOM      5  C   UNL     1     195.451 205.668 201.204  1.00  0.00     0.107 A 
ATOM      6  C   UNL     1     195.572 205.786 202.609  1.00  0.00     0.134 A 
ATOM      7  C   UNL     1     196.842 205.733 203.205  1.00  0.00     0.093 A 
ATOM      8  C   UNL     1     197.988 205.562 202.424  1.00  0.00     0.123 A 
ATOM      9  C   UNL     1     197.874 205.443 201.035  1.00  0.00     0.094 A 
ATOM     10  C   UNL     1     196.619 205.495 200.423  1.00  0.00     0.146 A 
ATOM     11  O   UNL     1     196.537 205.381 199.101  1.00  0.00    -0.456 OA
ENDROOT
BRANCH   1  12
ATOM     12  C   UNL     1     195.412 205.286 196.956  1.00  0.00     0.021 A 
ATOM     13  C   UNL     1     195.719 206.374 196.117  1.00  0.00     0.016 A 
ATOM     14  C   UNL     1     195.746 206.212 194.729  1.00  0.00     0.051 A 
ATOM     15  C   UNL     1     195.478 204.964 194.156  1.00  0.00     0.157 A 
ATOM     16  C   UNL     1     195.157 204.031 196.373  1.00  0.00     0.062 A 
ATOM     17  C   UNL     1     195.183 203.868 194.983  1.00  0.00     0.158 A 
BRANCH  15  18
ATOM     18  O   UNL     1     195.505 204.807 192.771  1.00  0.00    -0.504 OA
ATOM     19  H   UNL     1     194.655 204.791 192.221  1.00  0.00     0.293 HD
ENDBRANCH  15  18
BRANCH  17  20
ATOM     20  O   UNL     1     194.915 202.609 194.445  1.00  0.00    -0.504 OA
ATOM     21  H   UNL     1     194.625 202.487 193.482  1.00  0.00     0.293 HD
ENDBRANCH  17  20
ENDBRANCH   1  12
BRANCH   6  22
ATOM     22  O   UNL     1     194.446 205.959 203.415  1.00  0.00    -0.507 OA
ATOM     23  H   UNL     1     193.745 205.233 203.513  1.00  0.00     0.293 HD
ENDBRANCH   6  22
BRANCH   8  24
ATOM     24  O   UNL     1     199.237 205.511 203.041  1.00  0.00    -0.508 OA
ATOM     25  H   UNL     1     199.912 204.791 202.812  1.00  0.00     0.293 HD
ENDBRANCH   8  24
TORSDOF 5
ENDMDL
MODEL 3
REMARK VINA RESULT:    -6.236     13.819     14.750
REMARK INTER + INTRA:          -7.593
REMARK INTER:                  -7.300
REMARK INTRA:                  -0.292
REMARK UNBOUND:                -0.263
REMARK SMILES O=c1cc(-c2ccc(O)c(O)c2)oc2cc(O)cc(O)c12
REMARK SMILES IDX 4 1 3 2 2 3 1 4 21 5 19 6 18 7 16 8 15 9 14 10 13 11 5 12
REMARK SMILES IDX 6 13 7 14 8 15 12 16 10 17 9 18 11 20 20 22 17 24
REMARK H PARENT 9 19 11 21 20 23 17 25
REMARK Flexibility Score: inf
ROOT
ATOM      1  C   UNL     1     196.460 204.018 198.942  1.00  0.00     0.138 A 
ATOM      2  C   UNL     1     196.803 203.682 200.262  1.00  0.00     0.100 A 
ATOM      3  C   UNL     1     196.015 204.146 201.317  1.00  0.00     0.197 A 
ATOM      4  O   UNL     1     196.331 203.840 202.497  1.00  0.00    -0.289 OA
ATOM      5  C   UNL     1     194.889 204.948 201.041  1.00  0.00     0.107 A 
ATOM      6  C   UNL     1     194.038 205.459 202.050  1.00  0.00     0.134 A 
ATOM      7  C   UNL     1     192.939 206.255 201.693  1.00  0.00     0.093 A 
ATOM      8  C   UNL     1     192.678 206.551 200.353  1.00  0.00     0.123 A 
ATOM      9  C   UNL     1     193.516 206.049 199.353  1.00  0.00     0.094 A 
ATOM     10  C   UNL     1     194.616 205.253 199.687  1.00  0.00     0.146 A 
ATOM     11  O   UNL     1     195.396 204.786 198.718  1.00  0.00    -0.456 OA
ENDROOT
BRANCH   1  12
ATOM     12  C   UNL     1     197.263 203.553 197.782  1.00  0.00     0.021 A 
ATOM     13  C   UNL     1     197.670 202.212 197.654  1.00  0.00     0.016 A 
ATOM     14  C   UNL     1     198.416 201.801 196.546  1.00  0.00     0.051 A 
ATOM     15  C   UNL     1     198.761 202.717 195.545  1.00  0.00     0.157 A 
ATOM     16  C   UNL     1     197.601 204.465 196.766  1.00  0.00     0.062 A 
ATOM     17  C   UNL     1     198.349 204.055 195.656  1.00  0.00     0.158 A 
BRANCH  15  18
ATOM     18  O   UNL     1     199.506 202.303 194.443  1.00  0.00    -0.504 OA
ATOM     19  H   UNL     1     200.136 201.511 194.493  1.00  0.00     0.293 HD
ENDBRANCH  15  18
BRANCH  17  20
ATOM     20  O   UNL     1     198.672 204.992 194.674  1.00  0.00    -0.504 OA
ATOM     21  H   UNL     1     198.266 204.962 193.747  1.00  0.00     0.293 HD
ENDBRANCH  17  20
ENDBRANCH   1  12
BRANCH   6  22
ATOM     22  O   UNL     1     194.274 205.181 203.397  1.00  0.00    -0.507 OA
ATOM     23  H   UNL     1     194.911 205.739 203.953  1.00  0.00     0.293 HD
ENDBRANCH   6  22
BRANCH   8  24
ATOM     24  O   UNL     1     191.580 207.345 200.027  1.00  0.00    -0.508 OA
ATOM     25  H   UNL     1     190.702 207.267 200.526  1.00  0.00     0.293 HD
ENDBRANCH   8  24
TORSDOF 5
ENDMDL
MODEL 4
REMARK VINA RESULT:    -6.216      1.947      2.605
REMARK INTER + INTRA:          -7.569
REMARK INTER:                  -7.277
REMARK INTRA:                  -0.292
REMARK UNBOUND:                -0.263
REMARK SMILES O=c1cc(-c2ccc(O)c(O)c2)oc2cc(O)cc(O)c12
REMARK SMILES IDX 4 1 3 2 2 3 1 4 21 5 19 6 18 7 16 8 15 9 14 10 13 11 5 12
REMARK SMILES IDX 6 13 7 14 8 15 12 16 10 17 9 18 11 20 20 22 17 24
REMARK H PARENT 9 19 11 21 20 23 17 25
REMARK Flexibility Score: inf
ROOT
ATOM      1  C   UNL     1     198.690 191.090 197.700  1.00  0.00     0.138 A 
ATOM      2  C   UNL     1     198.231 192.359 198.087  1.00  0.00     0.100 A 
ATOM      3  C   UNL     1     197.698 192.537 199.365  1.00  0.00     0.197 A 
ATOM      4  O   UNL     1     197.288 193.680 199.703  1.00  0.00    -0.289 OA
ATOM      5  C   UNL     1     197.626 191.440 200.246  1.00  0.00     0.107 A 
ATOM      6  C   UNL     1     197.101 191.533 201.557  1.00  0.00     0.134 A 
ATOM      7  C   UNL     1     197.059 190.391 202.372  1.00  0.00     0.093 A 
ATOM      8  C   UNL     1     197.528 189.163 201.901  1.00  0.00     0.123 A 
ATOM      9  C   UNL     1     198.047 189.065 200.606  1.00  0.00     0.094 A 
ATOM     10  C   UNL     1     198.099 190.190 199.779  1.00  0.00     0.146 A 
ATOM     11  O   UNL     1     198.598 190.072 198.553  1.00  0.00    -0.456 OA
ENDROOT
BRANCH   1  12
ATOM     12  C   UNL     1     199.266 190.842 196.353  1.00  0.00     0.021 A 
ATOM     13  C   UNL     1     199.357 189.544 195.815  1.00  0.00     0.016 A 
ATOM     14  C   UNL     1     199.894 189.342 194.541  1.00  0.00     0.051 A 
ATOM     15  C   UNL     1     200.340 190.429 193.780  1.00  0.00     0.157 A 
ATOM     16  C   UNL     1     199.703 191.930 195.577  1.00  0.00     0.062 A 
ATOM     17  C   UNL     1     200.242 191.730 194.301  1.00  0.00     0.158 A 
BRANCH  15  18
ATOM     18  O   UNL     1     200.876 190.223 192.510  1.00  0.00    -0.504 OA
ATOM     19  H   UNL     1     200.284 190.059 191.704  1.00  0.00     0.293 HD
ENDBRANCH  15  18
BRANCH  17  20
ATOM     20  O   UNL     1     200.674 192.835 193.567  1.00  0.00    -0.504 OA
ATOM     21  H   UNL     1     201.435 192.774 192.901  1.00  0.00     0.293 HD
ENDBRANCH  17  20
ENDBRANCH   1  12
BRANCH   6  22
ATOM     22  O   UNL     1     196.625 192.747 202.055  1.00  0.00    -0.507 OA
ATOM     23  H   UNL     1     197.166 193.305 202.705  1.00  0.00     0.293 HD
ENDBRANCH   6  22
BRANCH   8  24
ATOM     24  O   UNL     1     197.474 188.044 202.730  1.00  0.00    -0.508 OA
ATOM     25  H   UNL     1     196.643 187.468 202.790  1.00  0.00     0.293 HD
ENDBRANCH   8  24
TORSDOF 5
ENDMDL
MODEL 5
REMARK VINA RESULT:    -6.216      1.326      2.886
REMARK INTER + INTRA:          -7.569
REMARK INTER:                  -7.304
REMARK INTRA:                  -0.264
REMARK UNBOUND:                -0.263
REMARK SMILES O=c1cc(-c2ccc(O)c(O)c2)oc2cc(O)cc(O)c12
REMARK SMILES IDX 4 1 3 2 2 3 1 4 21 5 19 6 18 7 16 8 15 9 14 10 13 11 5 12
REMARK SMILES IDX 6 13 7 14 8 15 12 16 10 17 9 18 11 20 20 22 17 24
REMARK H PARENT 9 19 11 21 20 23 17 25
REMARK Flexibility Score: inf
ROOT
ATOM      1  C   UNL     1     199.828 190.392 197.693  1.00  0.00     0.138 A 
ATOM      2  C   UNL     1     198.701 190.539 198.518  1.00  0.00     0.100 A 
ATOM      3  C   UNL     1     198.826 190.339 199.894  1.00  0.00     0.197 A 
ATOM      4  O   UNL     1     197.809 190.473 200.626  1.00  0.00    -0.289 OA
ATOM      5  C   UNL     1     200.080 189.990 200.434  1.00  0.00     0.107 A 
ATOM      6  C   UNL     1     200.294 189.771 201.815  1.00  0.00     0.134 A 
ATOM      7  C   UNL     1     201.573 189.421 202.274  1.00  0.00     0.093 A 
ATOM      8  C   UNL     1     202.638 189.284 201.380  1.00  0.00     0.123 A 
ATOM      9  C   UNL     1     202.432 189.500 200.013  1.00  0.00     0.094 A 
ATOM     10  C   UNL     1     201.166 189.850 199.537  1.00  0.00     0.146 A 
ATOM     11  O   UNL     1     200.996 190.052 198.234  1.00  0.00    -0.456 OA
ENDROOT
BRANCH   1  12
ATOM     12  C   UNL     1     199.754 190.591 196.223  1.00  0.00     0.021 A 
ATOM     13  C   UNL     1     199.222 189.606 195.369  1.00  0.00     0.016 A 
ATOM     14  C   UNL     1     199.156 189.824 193.990  1.00  0.00     0.051 A 
ATOM     15  C   UNL     1     199.610 191.029 193.442  1.00  0.00     0.157 A 
ATOM     16  C   UNL     1     200.196 191.804 195.665  1.00  0.00     0.062 A 
ATOM     17  C   UNL     1     200.132 192.024 194.284  1.00  0.00     0.158 A 
BRANCH  15  18
ATOM     18  O   UNL     1     199.543 191.243 192.066  1.00  0.00    -0.504 OA
ATOM     19  H   UNL     1     199.247 190.513 191.428  1.00  0.00     0.293 HD
ENDBRANCH  15  18
BRANCH  17  20
ATOM     20  O   UNL     1     200.589 193.238 193.770  1.00  0.00    -0.504 OA
ATOM     21  H   UNL     1     200.030 194.082 193.806  1.00  0.00     0.293 HD
ENDBRANCH  17  20
ENDBRANCH   1  12
BRANCH   6  22
ATOM     22  O   UNL     1     199.250 189.899 202.733  1.00  0.00    -0.507 OA
ATOM     23  H   UNL     1     199.174 189.294 203.542  1.00  0.00     0.293 HD
ENDBRANCH   6  22
BRANCH   8  24
ATOM     24  O   UNL     1     203.898 188.935 201.861  1.00  0.00    -0.508 OA
ATOM     25  H   UNL     1     204.026 188.575 202.800  1.00  0.00     0.293 HD
ENDBRANCH   8  24
TORSDOF 5
ENDMDL
MODEL 6
REMARK VINA RESULT:    -6.204      4.925      7.531
REMARK INTER + INTRA:          -7.555
REMARK INTER:                  -7.289
REMARK INTRA:                  -0.266
REMARK UNBOUND:                -0.263
REMARK SMILES O=c1cc(-c2ccc(O)c(O)c2)oc2cc(O)cc(O)c12
REMARK SMILES IDX 4 1 3 2 2 3 1 4 21 5 19 6 18 7 16 8 15 9 14 10 13 11 5 12
REMARK SMILES IDX 6 13 7 14 8 15 12 16 10 17 9 18 11 20 20 22 17 24
REMARK H PARENT 9 19 11 21 20 23 17 25
REMARK Flexibility Score: inf
ROOT
ATOM      1  C   UNL     1     197.994 194.884 197.019  1.00  0.00     0.138 A 
ATOM      2  C   UNL     1     197.569 193.855 197.874  1.00  0.00     0.100 A 
ATOM      3  C   UNL     1     197.861 192.529 197.551  1.00  0.00     0.197 A 
ATOM      4  O   UNL     1     197.475 191.612 198.325  1.00  0.00    -0.289 OA
ATOM      5  C   UNL     1     198.575 192.243 196.371  1.00  0.00     0.107 A 
ATOM      6  C   UNL     1     198.913 190.928 195.970  1.00  0.00     0.134 A 
ATOM      7  C   UNL     1     199.622 190.726 194.776  1.00  0.00     0.093 A 
ATOM      8  C   UNL     1     199.996 191.809 193.977  1.00  0.00     0.123 A 
ATOM      9  C   UNL     1     199.664 193.111 194.369  1.00  0.00     0.094 A 
ATOM     10  C   UNL     1     198.959 193.333 195.555  1.00  0.00     0.146 A 
ATOM     11  O   UNL     1     198.657 194.579 195.906  1.00  0.00    -0.456 OA
ENDROOT
BRANCH   1  12
ATOM     12  C   UNL     1     197.710 196.313 197.311  1.00  0.00     0.021 A 
ATOM     13  C   UNL     1     198.744 197.239 197.548  1.00  0.00     0.016 A 
ATOM     14  C   UNL     1     198.448 198.579 197.812  1.00  0.00     0.051 A 
ATOM     15  C   UNL     1     197.119 199.019 197.834  1.00  0.00     0.157 A 
ATOM     16  C   UNL     1     196.379 196.766 197.321  1.00  0.00     0.062 A 
ATOM     17  C   UNL     1     196.080 198.108 197.586  1.00  0.00     0.158 A 
BRANCH  15  18
ATOM     18  O   UNL     1     196.828 200.356 198.097  1.00  0.00    -0.504 OA
ATOM     19  H   UNL     1     197.143 200.812 198.946  1.00  0.00     0.293 HD
ENDBRANCH  15  18
BRANCH  17  20
ATOM     20  O   UNL     1     194.746 198.515 197.596  1.00  0.00    -0.504 OA
ATOM     21  H   UNL     1     194.453 199.408 197.220  1.00  0.00     0.293 HD
ENDBRANCH  17  20
ENDBRANCH   1  12
BRANCH   6  22
ATOM     22  O   UNL     1     198.553 189.826 196.747  1.00  0.00    -0.507 OA
ATOM     23  H   UNL     1     198.415 189.902 197.748  1.00  0.00     0.293 HD
ENDBRANCH   6  22
BRANCH   8  24
ATOM     24  O   UNL     1     200.698 191.581 192.796  1.00  0.00    -0.508 OA
ATOM     25  H   UNL     1     201.634 191.192 192.802  1.00  0.00     0.293 HD
ENDBRANCH   8  24
TORSDOF 5
ENDMDL
MODEL 7
REMARK VINA RESULT:    -6.182      2.552      3.887
REMARK INTER + INTRA:          -7.529
REMARK INTER:                  -7.245
REMARK INTRA:                  -0.284
REMARK UNBOUND:                -0.263
REMARK SMILES O=c1cc(-c2ccc(O)c(O)c2)oc2cc(O)cc(O)c12
REMARK SMILES IDX 4 1 3 2 2 3 1 4 21 5 19 6 18 7 16 8 15 9 14 10 13 11 5 12
REMARK SMILES IDX 6 13 7 14 8 15 12 16 10 17 9 18 11 20 20 22 17 24
REMARK H PARENT 9 19 11 21 20 23 17 25
REMARK Flexibility Score: inf
ROOT
ATOM      1  C   UNL     1     198.679 191.702 198.836  1.00  0.00     0.138 A 
ATOM      2  C   UNL     1     198.240 192.034 200.128  1.00  0.00     0.100 A 
ATOM      3  C   UNL     1     198.963 191.586 201.236  1.00  0.00     0.197 A 
ATOM      4  O   UNL     1     198.560 191.889 202.391  1.00  0.00    -0.289 OA
ATOM      5  C   UNL     1     200.120 190.806 201.040  1.00  0.00     0.107 A 
ATOM      6  C   UNL     1     200.909 190.313 202.106  1.00  0.00     0.134 A 
ATOM      7  C   UNL     1     202.045 189.537 201.829  1.00  0.00     0.093 A 
ATOM      8  C   UNL     1     202.403 189.245 200.511  1.00  0.00     0.123 A 
ATOM      9  C   UNL     1     201.626 189.729 199.454  1.00  0.00     0.094 A 
ATOM     10  C   UNL     1     200.492 190.504 199.709  1.00  0.00     0.146 A 
ATOM     11  O   UNL     1     199.770 190.954 198.687  1.00  0.00    -0.456 OA
ENDROOT
BRANCH   1  12
ATOM     12  C   UNL     1     197.950 192.149 197.622  1.00  0.00     0.021 A 
ATOM     13  C   UNL     1     197.679 193.510 197.381  1.00  0.00     0.016 A 
ATOM     14  C   UNL     1     196.999 193.902 196.225  1.00  0.00     0.051 A 
ATOM     15  C   UNL     1     196.586 192.948 195.288  1.00  0.00     0.157 A 
ATOM     16  C   UNL     1     197.544 191.198 196.669  1.00  0.00     0.062 A 
ATOM     17  C   UNL     1     196.862 191.589 195.511  1.00  0.00     0.158 A 
BRANCH  15  18
ATOM     18  O   UNL     1     195.907 193.344 194.137  1.00  0.00    -0.504 OA
ATOM     19  H   UNL     1     194.984 192.990 193.916  1.00  0.00     0.293 HD
ENDBRANCH  15  18
BRANCH  17  20
ATOM     20  O   UNL     1     196.468 190.614 194.595  1.00  0.00    -0.504 OA
ATOM     21  H   UNL     1     196.332 189.647 194.864  1.00  0.00     0.293 HD
ENDBRANCH  17  20
ENDBRANCH   1  12
BRANCH   6  22
ATOM     22  O   UNL     1     200.577 190.588 203.434  1.00  0.00    -0.507 OA
ATOM     23  H   UNL     1     200.903 190.006 204.197  1.00  0.00     0.293 HD
ENDBRANCH   6  22
BRANCH   8  24
ATOM     24  O   UNL     1     203.536 188.471 200.263  1.00  0.00    -0.508 OA
ATOM     25  H   UNL     1     204.349 188.856 199.798  1.00  0.00     0.293 HD
ENDBRANCH   8  24
TORSDOF 5
ENDMDL
MODEL 8
REMARK VINA RESULT:    -6.168     14.173     15.350
REMARK INTER + INTRA:          -7.512
REMARK INTER:                  -7.209
REMARK INTRA:                  -0.304
REMARK UNBOUND:                -0.263
REMARK SMILES O=c1cc(-c2ccc(O)c(O)c2)oc2cc(O)cc(O)c12
REMARK SMILES IDX 4 1 3 2 2 3 1 4 21 5 19 6 18 7 16 8 15 9 14 10 13 11 5 12
REMARK SMILES IDX 6 13 7 14 8 15 12 16 10 17 9 18 11 20 20 22 17 24
REMARK H PARENT 9 19 11 21 20 23 17 25
REMARK Flexibility Score: inf
ROOT
ATOM      1  C   UNL     1     196.135 205.495 197.318  1.00  0.00     0.138 A 
ATOM      2  C   UNL     1     195.771 206.673 197.989  1.00  0.00     0.100 A 
ATOM      3  C   UNL     1     196.157 206.855 199.319  1.00  0.00     0.197 A 
ATOM      4  O   UNL     1     195.825 207.916 199.912  1.00  0.00    -0.289 OA
ATOM      5  C   UNL     1     196.904 205.851 199.968  1.00  0.00     0.107 A 
ATOM      6  C   UNL     1     197.335 205.955 201.312  1.00  0.00     0.134 A 
ATOM      7  C   UNL     1     198.071 204.909 201.888  1.00  0.00     0.093 A 
ATOM      8  C   UNL     1     198.381 203.764 201.149  1.00  0.00     0.123 A 
ATOM      9  C   UNL     1     197.956 203.656 199.821  1.00  0.00     0.094 A 
ATOM     10  C   UNL     1     197.223 204.688 199.228  1.00  0.00     0.146 A 
ATOM     11  O   UNL     1     196.832 204.562 197.964  1.00  0.00    -0.456 OA
ENDROOT
BRANCH   1  12
ATOM     12  C   UNL     1     195.751 205.247 195.905  1.00  0.00     0.021 A 
ATOM     13  C   UNL     1     195.689 206.291 194.962  1.00  0.00     0.016 A 
ATOM     14  C   UNL     1     195.334 206.027 193.636  1.00  0.00     0.051 A 
ATOM     15  C   UNL     1     195.044 204.720 193.228  1.00  0.00     0.157 A 
ATOM     16  C   UNL     1     195.472 203.935 195.483  1.00  0.00     0.062 A 
ATOM     17  C   UNL     1     195.115 203.669 194.156  1.00  0.00     0.158 A 
BRANCH  15  18
ATOM     18  O   UNL     1     194.689 204.462 191.905  1.00  0.00    -0.504 OA
ATOM     19  H   UNL     1     194.166 203.633 191.647  1.00  0.00     0.293 HD
ENDBRANCH  15  18
BRANCH  17  20
ATOM     20  O   UNL     1     194.837 202.355 193.781  1.00  0.00    -0.504 OA
ATOM     21  H   UNL     1     194.040 202.118 193.202  1.00  0.00     0.293 HD
ENDBRANCH  17  20
ENDBRANCH   1  12
BRANCH   6  22
ATOM     22  O   UNL     1     197.042 207.086 202.075  1.00  0.00    -0.507 OA
ATOM     23  H   UNL     1     196.236 207.120 202.689  1.00  0.00     0.293 HD
ENDBRANCH   6  22
BRANCH   8  24
ATOM     24  O   UNL     1     199.112 202.739 201.746  1.00  0.00    -0.508 OA
ATOM     25  H   UNL     1     198.668 202.046 202.338  1.00  0.00     0.293 HD
ENDBRANCH   8  24
TORSDOF 5
ENDMDL
MODEL 9
REMARK VINA RESULT:    -6.086     10.132     12.555
REMARK INTER + INTRA:          -7.417
REMARK INTER:                  -7.148
REMARK INTRA:                  -0.269
REMARK UNBOUND:                -0.263
REMARK SMILES O=c1cc(-c2ccc(O)c(O)c2)oc2cc(O)cc(O)c12
REMARK SMILES IDX 4 1 3 2 2 3 1 4 21 5 19 6 18 7 16 8 15 9 14 10 13 11 5 12
REMARK SMILES IDX 6 13 7 14 8 15 12 16 10 17 9 18 11 20 20 22 17 24
REMARK H PARENT 9 19 11 21 20 23 17 25
REMARK Flexibility Score: inf
ROOT
ATOM      1  C   UNL     1     197.412 200.737 196.905  1.00  0.00     0.138 A 
ATOM      2  C   UNL     1     197.810 201.785 197.751  1.00  0.00     0.100 A 
ATOM      3  C   UNL     1     197.508 203.103 197.402  1.00  0.00     0.197 A 
ATOM      4  O   UNL     1     197.870 204.036 198.168  1.00  0.00    -0.289 OA
ATOM      5  C   UNL     1     196.811 203.362 196.205  1.00  0.00     0.107 A 
ATOM      6  C   UNL     1     196.466 204.666 195.778  1.00  0.00     0.134 A 
ATOM      7  C   UNL     1     195.775 204.841 194.569  1.00  0.00     0.093 A 
ATOM      8  C   UNL     1     195.428 203.741 193.781  1.00  0.00     0.123 A 
ATOM      9  C   UNL     1     195.768 202.450 194.198  1.00  0.00     0.094 A 
ATOM     10  C   UNL     1     196.454 202.254 195.400  1.00  0.00     0.146 A 
ATOM     11  O   UNL     1     196.764 201.018 195.776  1.00  0.00    -0.456 OA
ENDROOT
BRANCH   1  12
ATOM     12  C   UNL     1     197.707 199.317 197.224  1.00  0.00     0.021 A 
ATOM     13  C   UNL     1     196.692 198.342 197.264  1.00  0.00     0.016 A 
ATOM     14  C   UNL     1     197.000 197.011 197.558  1.00  0.00     0.051 A 
ATOM     15  C   UNL     1     198.323 196.629 197.808  1.00  0.00     0.157 A 
ATOM     16  C   UNL     1     199.035 198.923 197.463  1.00  0.00     0.062 A 
ATOM     17  C   UNL     1     199.346 197.591 197.758  1.00  0.00     0.158 A 
BRANCH  15  18
ATOM     18  O   UNL     1     198.626 195.301 198.101  1.00  0.00    -0.504 OA
ATOM     19  H   UNL     1     198.440 194.555 197.442  1.00  0.00     0.293 HD
ENDBRANCH  15  18
BRANCH  17  20
ATOM     20  O   UNL     1     200.675 197.243 197.998  1.00  0.00    -0.504 OA
ATOM     21  H   UNL     1     201.046 197.150 198.936  1.00  0.00     0.293 HD
ENDBRANCH  17  20
ENDBRANCH   1  12
BRANCH   6  22
ATOM     22  O   UNL     1     196.799 205.784 196.543  1.00  0.00    -0.507 OA
ATOM     23  H   UNL     1     196.489 205.885 197.503  1.00  0.00     0.293 HD
ENDBRANCH   6  22
BRANCH   8  24
ATOM     24  O   UNL     1     194.743 203.943 192.584  1.00  0.00    -0.508 OA
ATOM     25  H   UNL     1     195.235 204.101 191.712  1.00  0.00     0.293 HD
ENDBRANCH   8  24
TORSDOF 5
ENDMDL
