MODEL 1
REMARK VINA RESULT:    -3.853      0.000      0.000
REMARK INTER + INTRA:          -9.821
REMARK INTER:                  -7.456
REMARK INTRA:                  -2.364
REMARK UNBOUND:                -2.364
REMARK SMILES CCCCCCCCCCCCCCCCCC(=O)[O-]
REMARK SMILES IDX 10 1 11 2 12 3 13 4 14 5 15 6 16 7 17 8 18 9 19 10 20 11
REMARK SMILES IDX 9 12 8 13 7 14 6 15 5 16 4 17 3 18 2 19 1 20
REMARK H PARENT
REMARK Flexibility Score: inf
ROOT
ATOM      1  C   UNL     1       1.573  -8.913   3.967  1.00  0.00     0.000 C 
ENDROOT
BRANCH   1   2
ATOM      2  C   UNL     1       1.294  -7.658   4.810  1.00  0.00     0.000 C 
BRANCH   2   3
ATOM      3  C   UNL     1       2.555  -6.818   5.062  1.00  0.00     0.000 C 
BRANCH   3   4
ATOM      4  C   UNL     1       2.898  -6.778   6.556  1.00  0.00     0.000 C 
BRANCH   4   5
ATOM      5  C   UNL     1       3.352  -5.372   6.979  1.00  0.00     0.000 C 
BRANCH   5   6
ATOM      6  C   UNL     1       3.245  -4.348   5.838  1.00  0.00     0.000 C 
BRANCH   6   7
ATOM      7  C   UNL     1       3.258  -2.895   6.343  1.00  0.00     0.006 C 
BRANCH   7   8
ATOM      8  C   UNL     1       4.653  -2.263   6.252  1.00  0.00     0.053 C 
BRANCH   8   9
ATOM      9  C   UNL     1       5.001  -1.890   4.842  1.00  0.00     0.041 C 
ATOM     10  O   UNL     1       6.193  -1.963   4.443  1.00  0.00    -0.550 OA
ATOM     11  O   UNL     1       4.002  -1.496   3.962  1.00  0.00    -0.550 OA
ENDBRANCH   8   9
ENDBRANCH   7   8
ENDBRANCH   6   7
ENDBRANCH   5   6
ENDBRANCH   4   5
ENDBRANCH   3   4
ENDBRANCH   2   3
ENDBRANCH   1   2
BRANCH   1  12
ATOM     12  C   UNL     1       2.939  -9.546   4.286  1.00  0.00     0.000 C 
BRANCH  12  13
ATOM     13  C   UNL     1       3.807  -9.739   3.031  1.00  0.00    -0.000 C 
BRANCH  13  14
ATOM     14  C   UNL     1       5.218  -9.151   3.190  1.00  0.00    -0.000 C 
BRANCH  14  15
ATOM     15  C   UNL     1       5.697  -9.261   4.642  1.00  0.00    -0.000 C 
BRANCH  15  16
ATOM     16  C   UNL     1       6.304  -7.936   5.124  1.00  0.00    -0.000 C 
BRANCH  16  17
ATOM     17  C   UNL     1       6.012  -6.804   4.128  1.00  0.00    -0.000 C 
BRANCH  17  18
ATOM     18  C   UNL     1       6.579  -5.451   4.588  1.00  0.00    -0.000 C 
BRANCH  18  19
ATOM     19  C   UNL     1       7.806  -5.018   3.772  1.00  0.00    -0.003 C 
ATOM     20  C   UNL     1       7.866  -5.757   2.437  1.00  0.00     0.004 C 
ENDBRANCH  18  19
ENDBRANCH  17  18
ENDBRANCH  16  17
ENDBRANCH  15  16
ENDBRANCH  14  15
ENDBRANCH  13  14
ENDBRANCH  12  13
ENDBRANCH   1  12
TORSDOF 16
ENDMDL
MODEL 2
REMARK VINA RESULT:    -3.759      3.207      6.291
REMARK INTER + INTRA:          -9.640
REMARK INTER:                  -7.546
REMARK INTRA:                  -2.094
REMARK UNBOUND:                -2.364
REMARK SMILES CCCCCCCCCCCCCCCCCC(=O)[O-]
REMARK SMILES IDX 10 1 11 2 12 3 13 4 14 5 15 6 16 7 17 8 18 9 19 10 20 11
REMARK SMILES IDX 9 12 8 13 7 14 6 15 5 16 4 17 3 18 2 19 1 20
REMARK H PARENT
REMARK Flexibility Score: inf
ROOT
ATOM      1  C   UNL     1       6.337  -7.217   3.647  1.00  0.00     0.000 C 
ENDROOT
BRANCH   1   2
ATOM      2  C   UNL     1       6.272  -7.933   5.006  1.00  0.00     0.000 C 
BRANCH   2   3
ATOM      3  C   UNL     1       4.850  -8.379   5.376  1.00  0.00     0.000 C 
BRANCH   3   4
ATOM      4  C   UNL     1       3.861  -8.049   4.251  1.00  0.00     0.000 C 
BRANCH   4   5
ATOM      5  C   UNL     1       3.166  -9.320   3.739  1.00  0.00     0.000 C 
BRANCH   5   6
ATOM      6  C   UNL     1       1.634  -9.226   3.811  1.00  0.00     0.000 C 
BRANCH   6   7
ATOM      7  C   UNL     1       1.146  -8.461   5.054  1.00  0.00     0.006 C 
BRANCH   7   8
ATOM      8  C   UNL     1       0.125  -7.371   4.699  1.00  0.00     0.053 C 
BRANCH   8   9
ATOM      9  C   UNL     1      -1.235  -7.947   4.445  1.00  0.00     0.041 C 
ATOM     10  O   UNL     1      -1.816  -7.740   3.349  1.00  0.00    -0.550 OA
ATOM     11  O   UNL     1      -1.842  -8.742   5.409  1.00  0.00    -0.550 OA
ENDBRANCH   8   9
ENDBRANCH   7   8
ENDBRANCH   6   7
ENDBRANCH   5   6
ENDBRANCH   4   5
ENDBRANCH   3   4
ENDBRANCH   2   3
ENDBRANCH   1   2
BRANCH   1  12
ATOM     12  C   UNL     1       7.315  -6.029   3.652  1.00  0.00     0.000 C 
BRANCH  12  13
ATOM     13  C   UNL     1       7.076  -5.073   4.832  1.00  0.00    -0.000 C 
BRANCH  13  14
ATOM     14  C   UNL     1       6.369  -3.775   4.410  1.00  0.00    -0.000 C 
BRANCH  14  15
ATOM     15  C   UNL     1       5.221  -3.439   5.370  1.00  0.00    -0.000 C 
BRANCH  15  16
ATOM     16  C   UNL     1       4.812  -4.669   6.191  1.00  0.00    -0.000 C 
BRANCH  16  17
ATOM     17  C   UNL     1       3.340  -5.030   5.945  1.00  0.00    -0.000 C 
BRANCH  17  18
ATOM     18  C   UNL     1       2.374  -3.937   6.430  1.00  0.00    -0.000 C 
BRANCH  18  19
ATOM     19  C   UNL     1       1.079  -3.886   5.606  1.00  0.00    -0.003 C 
ATOM     20  C   UNL     1      -0.149  -3.890   6.514  1.00  0.00     0.004 C 
ENDBRANCH  18  19
ENDBRANCH  17  18
ENDBRANCH  16  17
ENDBRANCH  15  16
ENDBRANCH  14  15
ENDBRANCH  13  14
ENDBRANCH  12  13
ENDBRANCH   1  12
TORSDOF 16
ENDMDL
MODEL 3
REMARK VINA RESULT:    -3.688      3.078      3.871
REMARK INTER + INTRA:          -9.502
REMARK INTER:                  -7.071
REMARK INTRA:                  -2.430
REMARK UNBOUND:                -2.364
REMARK SMILES CCCCCCCCCCCCCCCCCC(=O)[O-]
REMARK SMILES IDX 10 1 11 2 12 3 13 4 14 5 15 6 16 7 17 8 18 9 19 10 20 11
REMARK SMILES IDX 9 12 8 13 7 14 6 15 5 16 4 17 3 18 2 19 1 20
REMARK H PARENT
REMARK Flexibility Score: inf
ROOT
ATOM      1  C   UNL     1       1.330  -7.748   4.756  1.00  0.00     0.000 C 
ENDROOT
BRANCH   1   2
ATOM      2  C   UNL     1       1.764  -7.949   6.217  1.00  0.00     0.000 C 
BRANCH   2   3
ATOM      3  C   UNL     1       2.736  -6.863   6.704  1.00  0.00     0.000 C 
BRANCH   3   4
ATOM      4  C   UNL     1       2.854  -5.732   5.674  1.00  0.00     0.000 C 
BRANCH   4   5
ATOM      5  C   UNL     1       2.346  -4.403   6.255  1.00  0.00     0.000 C 
BRANCH   5   6
ATOM      6  C   UNL     1       1.053  -3.920   5.580  1.00  0.00     0.000 C 
BRANCH   6   7
ATOM      7  C   UNL     1      -0.121  -3.798   6.567  1.00  0.00     0.006 C 
BRANCH   7   8
ATOM      8  C   UNL     1      -0.587  -5.165   7.085  1.00  0.00     0.053 C 
BRANCH   8   9
ATOM      9  C   UNL     1      -1.795  -5.655   6.346  1.00  0.00     0.041 C 
ATOM     10  O   UNL     1      -1.930  -6.881   6.093  1.00  0.00    -0.550 OA
ATOM     11  O   UNL     1      -2.788  -4.760   5.968  1.00  0.00    -0.550 OA
ENDBRANCH   8   9
ENDBRANCH   7   8
ENDBRANCH   6   7
ENDBRANCH   5   6
ENDBRANCH   4   5
ENDBRANCH   3   4
ENDBRANCH   2   3
ENDBRANCH   1   2
BRANCH   1  12
ATOM     12  C   UNL     1       1.443  -9.037   3.924  1.00  0.00     0.000 C 
BRANCH  12  13
ATOM     13  C   UNL     1       2.706  -9.847   4.259  1.00  0.00    -0.000 C 
BRANCH  13  14
ATOM     14  C   UNL     1       3.764  -9.784   3.146  1.00  0.00    -0.000 C 
BRANCH  14  15
ATOM     15  C   UNL     1       4.858  -8.765   3.488  1.00  0.00    -0.000 C 
BRANCH  15  16
ATOM     16  C   UNL     1       5.212  -8.816   4.980  1.00  0.00    -0.000 C 
BRANCH  16  17
ATOM     17  C   UNL     1       6.186  -7.688   5.353  1.00  0.00    -0.000 C 
BRANCH  17  18
ATOM     18  C   UNL     1       6.350  -6.652   4.229  1.00  0.00    -0.000 C 
BRANCH  18  19
ATOM     19  C   UNL     1       7.822  -6.384   3.884  1.00  0.00    -0.003 C 
ATOM     20  C   UNL     1       7.943  -5.535   2.621  1.00  0.00     0.004 C 
ENDBRANCH  18  19
ENDBRANCH  17  18
ENDBRANCH  16  17
ENDBRANCH  15  16
ENDBRANCH  14  15
ENDBRANCH  13  14
ENDBRANCH  12  13
ENDBRANCH   1  12
TORSDOF 16
ENDMDL
MODEL 4
REMARK VINA RESULT:    -3.640      1.727      4.902
REMARK INTER + INTRA:          -9.410
REMARK INTER:                  -7.324
REMARK INTRA:                  -2.086
REMARK UNBOUND:                -2.364
REMARK SMILES CCCCCCCCCCCCCCCCCC(=O)[O-]
REMARK SMILES IDX 10 1 11 2 12 3 13 4 14 5 15 6 16 7 17 8 18 9 19 10 20 11
REMARK SMILES IDX 9 12 8 13 7 14 6 15 5 16 4 17 3 18 2 19 1 20
REMARK H PARENT
REMARK Flexibility Score: inf
ROOT
ATOM      1  C   UNL     1       2.258  -7.900   4.378  1.00  0.00     0.000 C 
ENDROOT
BRANCH   1   2
ATOM      2  C   UNL     1       2.597  -9.400   4.400  1.00  0.00     0.000 C 
BRANCH   2   3
ATOM      3  C   UNL     1       3.468  -9.830   3.210  1.00  0.00     0.000 C 
BRANCH   3   4
ATOM      4  C   UNL     1       4.820  -9.105   3.230  1.00  0.00     0.000 C 
BRANCH   4   5
ATOM      5  C   UNL     1       5.529  -9.299   4.579  1.00  0.00     0.000 C 
BRANCH   5   6
ATOM      6  C   UNL     1       6.561  -8.198   4.868  1.00  0.00     0.000 C 
BRANCH   6   7
ATOM      7  C   UNL     1       6.526  -7.065   3.826  1.00  0.00     0.006 C 
BRANCH   7   8
ATOM      8  C   UNL     1       7.610  -6.010   4.083  1.00  0.00     0.053 C 
BRANCH   8   9
ATOM      9  C   UNL     1       8.116  -5.413   2.804  1.00  0.00     0.041 C 
ATOM     10  O   UNL     1       7.805  -5.927   1.698  1.00  0.00    -0.550 OA
ATOM     11  O   UNL     1       8.900  -4.267   2.835  1.00  0.00    -0.550 OA
ENDBRANCH   8   9
ENDBRANCH   7   8
ENDBRANCH   6   7
ENDBRANCH   5   6
ENDBRANCH   4   5
ENDBRANCH   3   4
ENDBRANCH   2   3
ENDBRANCH   1   2
BRANCH   1  12
ATOM     12  C   UNL     1       2.568  -7.205   5.715  1.00  0.00     0.000 C 
BRANCH  12  13
ATOM     13  C   UNL     1       3.551  -6.033   5.557  1.00  0.00    -0.000 C 
BRANCH  13  14
ATOM     14  C   UNL     1       3.419  -4.993   6.681  1.00  0.00    -0.000 C 
BRANCH  14  15
ATOM     15  C   UNL     1       2.422  -3.894   6.295  1.00  0.00    -0.000 C 
BRANCH  15  16
ATOM     16  C   UNL     1       2.703  -2.598   7.067  1.00  0.00    -0.000 C 
BRANCH  16  17
ATOM     17  C   UNL     1       4.133  -2.102   6.807  1.00  0.00    -0.000 C 
BRANCH  17  18
ATOM     18  C   UNL     1       4.235  -1.219   5.553  1.00  0.00    -0.000 C 
BRANCH  18  19
ATOM     19  C   UNL     1       4.880  -1.950   4.367  1.00  0.00    -0.003 C 
ATOM     20  C   UNL     1       5.905  -2.975   4.846  1.00  0.00     0.004 C 
ENDBRANCH  18  19
ENDBRANCH  17  18
ENDBRANCH  16  17
ENDBRANCH  15  16
ENDBRANCH  14  15
ENDBRANCH  13  14
ENDBRANCH  12  13
ENDBRANCH   1  12
TORSDOF 16
ENDMDL
MODEL 5
REMARK VINA RESULT:    -3.566      1.660      4.992
REMARK INTER + INTRA:          -9.266
REMARK INTER:                  -6.775
REMARK INTRA:                  -2.491
REMARK UNBOUND:                -2.364
REMARK SMILES CCCCCCCCCCCCCCCCCC(=O)[O-]
REMARK SMILES IDX 10 1 11 2 12 3 13 4 14 5 15 6 16 7 17 8 18 9 19 10 20 11
REMARK SMILES IDX 9 12 8 13 7 14 6 15 5 16 4 17 3 18 2 19 1 20
REMARK H PARENT
REMARK Flexibility Score: inf
ROOT
ATOM      1  C   UNL     1       1.512  -8.965   3.960  1.00  0.00     0.000 C 
ENDROOT
BRANCH   1   2
ATOM      2  C   UNL     1       2.730  -9.866   4.220  1.00  0.00     0.000 C 
BRANCH   2   3
ATOM      3  C   UNL     1       3.843  -9.677   3.178  1.00  0.00     0.000 C 
BRANCH   3   4
ATOM      4  C   UNL     1       5.211 -10.054   3.762  1.00  0.00     0.000 C 
BRANCH   4   5
ATOM      5  C   UNL     1       5.840  -8.865   4.503  1.00  0.00     0.000 C 
BRANCH   5   6
ATOM      6  C   UNL     1       5.969  -7.617   3.616  1.00  0.00     0.000 C 
BRANCH   6   7
ATOM      7  C   UNL     1       6.702  -6.462   4.320  1.00  0.00     0.006 C 
BRANCH   7   8
ATOM      8  C   UNL     1       7.931  -5.990   3.531  1.00  0.00     0.053 C 
BRANCH   8   9
ATOM      9  C   UNL     1       8.117  -4.506   3.630  1.00  0.00     0.041 C 
ATOM     10  O   UNL     1       7.234  -3.792   4.173  1.00  0.00    -0.550 OA
ATOM     11  O   UNL     1       9.282  -3.919   3.153  1.00  0.00    -0.550 OA
ENDBRANCH   8   9
ENDBRANCH   7   8
ENDBRANCH   6   7
ENDBRANCH   5   6
ENDBRANCH   4   5
ENDBRANCH   3   4
ENDBRANCH   2   3
ENDBRANCH   1   2
BRANCH   1  12
ATOM     12  C   UNL     1       1.418  -7.797   4.956  1.00  0.00     0.000 C 
BRANCH  12  13
ATOM     13  C   UNL     1       2.215  -8.056   6.246  1.00  0.00    -0.000 C 
BRANCH  13  14
ATOM     14  C   UNL     1       3.195  -6.920   6.576  1.00  0.00    -0.000 C 
BRANCH  14  15
ATOM     15  C   UNL     1       3.246  -5.893   5.439  1.00  0.00    -0.000 C 
BRANCH  15  16
ATOM     16  C   UNL     1       3.797  -4.549   5.934  1.00  0.00    -0.000 C 
BRANCH  16  17
ATOM     17  C   UNL     1       2.656  -3.595   6.318  1.00  0.00    -0.000 C 
BRANCH  17  18
ATOM     18  C   UNL     1       1.376  -3.844   5.504  1.00  0.00    -0.000 C 
BRANCH  18  19
ATOM     19  C   UNL     1       0.108  -3.790   6.368  1.00  0.00    -0.003 C 
ATOM     20  C   UNL     1      -0.054  -5.069   7.185  1.00  0.00     0.004 C 
ENDBRANCH  18  19
ENDBRANCH  17  18
ENDBRANCH  16  17
ENDBRANCH  15  16
ENDBRANCH  14  15
ENDBRANCH  13  14
ENDBRANCH  12  13
ENDBRANCH   1  12
TORSDOF 16
ENDMDL
MODEL 6
REMARK VINA RESULT:    -3.553      3.279      5.874
REMARK INTER + INTRA:          -9.241
REMARK INTER:                  -7.608
REMARK INTRA:                  -1.633
REMARK UNBOUND:                -2.364
REMARK SMILES CCCCCCCCCCCCCCCCCC(=O)[O-]
REMARK SMILES IDX 10 1 11 2 12 3 13 4 14 5 15 6 16 7 17 8 18 9 19 10 20 11
REMARK SMILES IDX 9 12 8 13 7 14 6 15 5 16 4 17 3 18 2 19 1 20
REMARK H PARENT
REMARK Flexibility Score: inf
ROOT
ATOM      1  C   UNL     1       5.162  -2.219   4.576  1.00  0.00     0.000 C 
ENDROOT
BRANCH   1   2
ATOM      2  C   UNL     1       3.703  -2.244   5.058  1.00  0.00     0.000 C 
BRANCH   2   3
ATOM      3  C   UNL     1       3.574  -2.042   6.576  1.00  0.00     0.000 C 
BRANCH   3   4
ATOM      4  C   UNL     1       2.308  -2.719   7.114  1.00  0.00     0.000 C 
BRANCH   4   5
ATOM      5  C   UNL     1       2.111  -4.103   6.478  1.00  0.00     0.000 C 
BRANCH   5   6
ATOM      6  C   UNL     1       0.745  -4.247   5.788  1.00  0.00     0.000 C 
BRANCH   6   7
ATOM      7  C   UNL     1      -0.375  -3.494   6.527  1.00  0.00     0.006 C 
BRANCH   7   8
ATOM      8  C   UNL     1      -1.228  -4.431   7.393  1.00  0.00     0.053 C 
BRANCH   8   9
ATOM      9  C   UNL     1      -2.254  -5.158   6.577  1.00  0.00     0.041 C 
ATOM     10  O   UNL     1      -3.440  -4.738   6.530  1.00  0.00    -0.550 OA
ATOM     11  O   UNL     1      -1.890  -6.278   5.841  1.00  0.00    -0.550 OA
ENDBRANCH   8   9
ENDBRANCH   7   8
ENDBRANCH   6   7
ENDBRANCH   5   6
ENDBRANCH   4   5
ENDBRANCH   3   4
ENDBRANCH   2   3
ENDBRANCH   1   2
BRANCH   1  12
ATOM     12  C   UNL     1       6.061  -3.187   5.365  1.00  0.00     0.000 C 
BRANCH  12  13
ATOM     13  C   UNL     1       6.606  -4.329   4.491  1.00  0.00    -0.000 C 
BRANCH  13  14
ATOM     14  C   UNL     1       6.486  -5.703   5.170  1.00  0.00    -0.000 C 
BRANCH  14  15
ATOM     15  C   UNL     1       5.065  -6.261   5.031  1.00  0.00    -0.000 C 
BRANCH  15  16
ATOM     16  C   UNL     1       5.083  -7.669   4.421  1.00  0.00    -0.000 C 
BRANCH  16  17
ATOM     17  C   UNL     1       3.655  -8.201   4.225  1.00  0.00    -0.000 C 
BRANCH  17  18
ATOM     18  C   UNL     1       2.591  -7.283   4.846  1.00  0.00    -0.000 C 
BRANCH  18  19
ATOM     19  C   UNL     1       1.161  -7.788   4.603  1.00  0.00    -0.003 C 
ATOM     20  C   UNL     1       1.171  -9.154   3.922  1.00  0.00     0.004 C 
ENDBRANCH  18  19
ENDBRANCH  17  18
ENDBRANCH  16  17
ENDBRANCH  15  16
ENDBRANCH  14  15
ENDBRANCH  13  14
ENDBRANCH  12  13
ENDBRANCH   1  12
TORSDOF 16
ENDMDL
MODEL 7
REMARK VINA RESULT:    -3.548      3.614      4.593
REMARK INTER + INTRA:          -9.232
REMARK INTER:                  -7.834
REMARK INTRA:                  -1.398
REMARK UNBOUND:                -2.364
REMARK SMILES CCCCCCCCCCCCCCCCCC(=O)[O-]
REMARK SMILES IDX 10 1 11 2 12 3 13 4 14 5 15 6 16 7 17 8 18 9 19 10 20 11
REMARK SMILES IDX 9 12 8 13 7 14 6 15 5 16 4 17 3 18 2 19 1 20
REMARK H PARENT
REMARK Flexibility Score: inf
ROOT
ATOM      1  C   UNL     1       3.160  -8.710   4.912  1.00  0.00     0.000 C 
ENDROOT
BRANCH   1   2
ATOM      2  C   UNL     1       1.981  -7.740   4.733  1.00  0.00     0.000 C 
BRANCH   2   3
ATOM      3  C   UNL     1       2.102  -6.488   5.615  1.00  0.00     0.000 C 
BRANCH   3   4
ATOM      4  C   UNL     1       0.816  -5.655   5.564  1.00  0.00     0.000 C 
BRANCH   4   5
ATOM      5  C   UNL     1       1.128  -4.153   5.650  1.00  0.00     0.000 C 
BRANCH   5   6
ATOM      6  C   UNL     1       0.237  -3.421   6.665  1.00  0.00     0.000 C 
BRANCH   6   7
ATOM      7  C   UNL     1      -1.126  -4.108   6.862  1.00  0.00     0.006 C 
BRANCH   7   8
ATOM      8  C   UNL     1      -2.259  -3.096   7.077  1.00  0.00     0.053 C 
BRANCH   8   9
ATOM      9  C   UNL     1      -3.340  -3.247   6.050  1.00  0.00     0.041 C 
ATOM     10  O   UNL     1      -3.438  -4.312   5.386  1.00  0.00    -0.550 OA
ATOM     11  O   UNL     1      -4.258  -2.225   5.853  1.00  0.00    -0.550 OA
ENDBRANCH   8   9
ENDBRANCH   7   8
ENDBRANCH   6   7
ENDBRANCH   5   6
ENDBRANCH   4   5
ENDBRANCH   3   4
ENDBRANCH   2   3
ENDBRANCH   1   2
BRANCH   1  12
ATOM     12  C   UNL     1       3.723  -9.210   3.570  1.00  0.00     0.000 C 
BRANCH  12  13
ATOM     13  C   UNL     1       5.160  -8.724   3.316  1.00  0.00    -0.000 C 
BRANCH  13  14
ATOM     14  C   UNL     1       5.608  -7.648   4.317  1.00  0.00    -0.000 C 
BRANCH  14  15
ATOM     15  C   UNL     1       6.722  -6.778   3.723  1.00  0.00    -0.000 C 
BRANCH  15  16
ATOM     16  C   UNL     1       6.779  -5.408   4.413  1.00  0.00    -0.000 C 
BRANCH  16  17
ATOM     17  C   UNL     1       5.640  -5.259   5.432  1.00  0.00    -0.000 C 
BRANCH  17  18
ATOM     18  C   UNL     1       5.570  -3.848   6.039  1.00  0.00    -0.000 C 
BRANCH  18  19
ATOM     19  C   UNL     1       4.440  -3.002   5.434  1.00  0.00    -0.003 C 
ATOM     20  C   UNL     1       4.986  -2.000   4.421  1.00  0.00     0.004 C 
ENDBRANCH  18  19
ENDBRANCH  17  18
ENDBRANCH  16  17
ENDBRANCH  15  16
ENDBRANCH  14  15
ENDBRANCH  13  14
ENDBRANCH  12  13
ENDBRANCH   1  12
TORSDOF 16
ENDMDL
MODEL 8
REMARK VINA RESULT:    -3.548      1.418      2.161
REMARK INTER + INTRA:          -9.230
REMARK INTER:                  -7.081
REMARK INTRA:                  -2.149
REMARK UNBOUND:                -2.364
REMARK SMILES CCCCCCCCCCCCCCCCCC(=O)[O-]
REMARK SMILES IDX 10 1 11 2 12 3 13 4 14 5 15 6 16 7 17 8 18 9 19 10 20 11
REMARK SMILES IDX 9 12 8 13 7 14 6 15 5 16 4 17 3 18 2 19 1 20
REMARK H PARENT
REMARK Flexibility Score: inf
ROOT
ATOM      1  C   UNL     1       1.084  -8.957   4.021  1.00  0.00     0.000 C 
ENDROOT
BRANCH   1   2
ATOM      2  C   UNL     1       0.271  -7.776   4.576  1.00  0.00     0.000 C 
BRANCH   2   3
ATOM      3  C   UNL     1       1.157  -6.683   5.193  1.00  0.00     0.000 C 
BRANCH   3   4
ATOM      4  C   UNL     1       0.521  -6.115   6.468  1.00  0.00     0.000 C 
BRANCH   4   5
ATOM      5  C   UNL     1       0.581  -4.580   6.477  1.00  0.00     0.000 C 
BRANCH   5   6
ATOM      6  C   UNL     1       1.658  -4.026   5.533  1.00  0.00     0.000 C 
BRANCH   6   7
ATOM      7  C   UNL     1       2.586  -3.010   6.223  1.00  0.00     0.006 C 
BRANCH   7   8
ATOM      8  C   UNL     1       4.008  -3.041   5.647  1.00  0.00     0.053 C 
BRANCH   8   9
ATOM      9  C   UNL     1       4.339  -1.772   4.920  1.00  0.00     0.041 C 
ATOM     10  O   UNL     1       4.823  -1.815   3.760  1.00  0.00    -0.550 OA
ATOM     11  O   UNL     1       4.077  -0.544   5.514  1.00  0.00    -0.550 OA
ENDBRANCH   8   9
ENDBRANCH   7   8
ENDBRANCH   6   7
ENDBRANCH   5   6
ENDBRANCH   4   5
ENDBRANCH   3   4
ENDBRANCH   2   3
ENDBRANCH   1   2
BRANCH   1  12
ATOM     12  C   UNL     1       2.601  -8.707   4.075  1.00  0.00     0.000 C 
BRANCH  12  13
ATOM     13  C   UNL     1       3.397  -9.730   3.247  1.00  0.00    -0.000 C 
BRANCH  13  14
ATOM     14  C   UNL     1       4.886  -9.368   3.130  1.00  0.00    -0.000 C 
BRANCH  14  15
ATOM     15  C   UNL     1       5.654  -9.796   4.387  1.00  0.00    -0.000 C 
BRANCH  15  16
ATOM     16  C   UNL     1       6.310  -8.589   5.070  1.00  0.00    -0.000 C 
BRANCH  16  17
ATOM     17  C   UNL     1       5.920  -7.281   4.367  1.00  0.00    -0.000 C 
BRANCH  17  18
ATOM     18  C   UNL     1       5.029  -6.382   5.240  1.00  0.00    -0.000 C 
BRANCH  18  19
ATOM     19  C   UNL     1       5.290  -6.573   6.741  1.00  0.00    -0.003 C 
ATOM     20  C   UNL     1       4.042  -6.252   7.560  1.00  0.00     0.004 C 
ENDBRANCH  18  19
ENDBRANCH  17  18
ENDBRANCH  16  17
ENDBRANCH  15  16
ENDBRANCH  14  15
ENDBRANCH  13  14
ENDBRANCH  12  13
ENDBRANCH   1  12
TORSDOF 16
ENDMDL
MODEL 9
REMARK VINA RESULT:    -3.488      3.105      5.718
REMARK INTER + INTRA:          -9.115
REMARK INTER:                  -6.610
REMARK INTRA:                  -2.505
REMARK UNBOUND:                -2.364
REMARK SMILES CCCCCCCCCCCCCCCCCC(=O)[O-]
REMARK SMILES IDX 10 1 11 2 12 3 13 4 14 5 15 6 16 7 17 8 18 9 19 10 20 11
REMARK SMILES IDX 9 12 8 13 7 14 6 15 5 16 4 17 3 18 2 19 1 20
REMARK H PARENT
REMARK Flexibility Score: inf
ROOT
ATOM      1  C   UNL     1       6.115  -7.312   3.930  1.00  0.00     0.000 C 
ENDROOT
BRANCH   1   2
ATOM      2  C   UNL     1       5.564  -8.732   4.140  1.00  0.00     0.000 C 
BRANCH   2   3
ATOM      3  C   UNL     1       4.894  -9.301   2.880  1.00  0.00     0.000 C 
BRANCH   3   4
ATOM      4  C   UNL     1       3.472  -9.787   3.187  1.00  0.00     0.000 C 
BRANCH   4   5
ATOM      5  C   UNL     1       3.269  -9.975   4.698  1.00  0.00     0.000 C 
BRANCH   5   6
ATOM      6  C   UNL     1       1.939  -9.385   5.193  1.00  0.00     0.000 C 
BRANCH   6   7
ATOM      7  C   UNL     1       1.420  -8.252   4.289  1.00  0.00     0.006 C 
BRANCH   7   8
ATOM      8  C   UNL     1       0.549  -7.250   5.060  1.00  0.00     0.053 C 
BRANCH   8   9
ATOM      9  C   UNL     1      -0.912  -7.502   4.837  1.00  0.00     0.041 C 
ATOM     10  O   UNL     1      -1.743  -7.257   5.750  1.00  0.00    -0.550 OA
ATOM     11  O   UNL     1      -1.356  -7.974   3.609  1.00  0.00    -0.550 OA
ENDBRANCH   8   9
ENDBRANCH   7   8
ENDBRANCH   6   7
ENDBRANCH   5   6
ENDBRANCH   4   5
ENDBRANCH   3   4
ENDBRANCH   2   3
ENDBRANCH   1   2
BRANCH   1  12
ATOM     12  C   UNL     1       5.793  -6.374   5.106  1.00  0.00     0.000 C 
BRANCH  12  13
ATOM     13  C   UNL     1       4.288  -6.316   5.418  1.00  0.00    -0.000 C 
BRANCH  13  14
ATOM     14  C   UNL     1       3.964  -6.740   6.860  1.00  0.00    -0.000 C 
BRANCH  14  15
ATOM     15  C   UNL     1       2.851  -5.867   7.451  1.00  0.00    -0.000 C 
BRANCH  15  16
ATOM     16  C   UNL     1       3.332  -4.425   7.656  1.00  0.00    -0.000 C 
BRANCH  16  17
ATOM     17  C   UNL     1       2.401  -3.429   6.950  1.00  0.00    -0.000 C 
BRANCH  17  18
ATOM     18  C   UNL     1       2.993  -2.894   5.636  1.00  0.00    -0.000 C 
BRANCH  18  19
ATOM     19  C   UNL     1       4.501  -2.620   5.737  1.00  0.00    -0.003 C 
ATOM     20  C   UNL     1       5.065  -2.157   4.397  1.00  0.00     0.004 C 
ENDBRANCH  18  19
ENDBRANCH  17  18
ENDBRANCH  16  17
ENDBRANCH  15  16
ENDBRANCH  14  15
ENDBRANCH  13  14
ENDBRANCH  12  13
ENDBRANCH   1  12
TORSDOF 16
ENDMDL
