MODEL 1
REMARK VINA RESULT:    -7.680      0.000      0.000
REMARK INTER + INTRA:          -8.341
REMARK INTER:                  -8.354
REMARK INTRA:                   0.013
REMARK UNBOUND:                 0.013
REMARK SMILES COc1cc2ccc(=O)oc2cc1O
REMARK SMILES IDX 3 1 13 2 12 3 11 4 5 5 4 6 6 7 7 8 8 9 9 10 10 11 2 12 1 13
REMARK SMILES IDX 14 14
REMARK H PARENT 14 15
REMARK Flexibility Score: inf
ROOT
ATOM      1  C   UNL     1      34.229  26.381  20.634  1.00  0.00     0.161 A 
ATOM      2  C   UNL     1      33.687  27.658  20.389  1.00  0.00     0.161 A 
ATOM      3  C   UNL     1      33.267  28.010  19.100  1.00  0.00     0.098 A 
ATOM      4  C   UNL     1      33.381  27.101  18.047  1.00  0.00     0.142 A 
ATOM      5  C   UNL     1      33.923  25.820  18.282  1.00  0.00     0.022 A 
ATOM      6  C   UNL     1      34.344  25.464  19.570  1.00  0.00     0.062 A 
ATOM      7  C   UNL     1      34.024  24.932  17.206  1.00  0.00     0.019 A 
ATOM      8  C   UNL     1      33.591  25.334  15.943  1.00  0.00     0.094 A 
ATOM      9  C   UNL     1      33.064  26.620  15.785  1.00  0.00     0.336 A 
ATOM     10  O   UNL     1      32.668  27.002  14.653  1.00  0.00    -0.246 OA
ATOM     11  O   UNL     1      32.979  27.445  16.825  1.00  0.00    -0.423 OA
ENDROOT
BRANCH   1  12
ATOM     12  O   UNL     1      34.640  26.061  21.937  1.00  0.00    -0.493 OA
ATOM     13  C   UNL     1      35.863  26.490  22.529  1.00  0.00     0.278 C 
ENDBRANCH   1  12
BRANCH   2  14
ATOM     14  O   UNL     1      33.557  28.593  21.415  1.00  0.00    -0.504 OA
ATOM     15  H   UNL     1      34.196  29.372  21.522  1.00  0.00     0.293 HD
ENDBRANCH   2  14
TORSDOF 2
ENDMDL
MODEL 2
REMARK VINA RESULT:    -7.317      1.369      5.424
REMARK INTER + INTRA:          -7.946
REMARK INTER:                  -7.901
REMARK INTRA:                  -0.045
REMARK UNBOUND:                 0.013
REMARK SMILES COc1cc2ccc(=O)oc2cc1O
REMARK SMILES IDX 3 1 13 2 12 3 11 4 5 5 4 6 6 7 7 8 8 9 9 10 10 11 2 12 1 13
REMARK SMILES IDX 14 14
REMARK H PARENT 14 15
REMARK Flexibility Score: inf
ROOT
ATOM      1  C   UNL     1      33.348  26.423  17.525  1.00  0.00     0.161 A 
ATOM      2  C   UNL     1      33.952  25.173  17.766  1.00  0.00     0.161 A 
ATOM      3  C   UNL     1      34.429  24.856  19.044  1.00  0.00     0.098 A 
ATOM      4  C   UNL     1      34.311  25.772  20.090  1.00  0.00     0.142 A 
ATOM      5  C   UNL     1      33.708  27.026  19.859  1.00  0.00     0.022 A 
ATOM      6  C   UNL     1      33.230  27.348  18.582  1.00  0.00     0.062 A 
ATOM      7  C   UNL     1      33.606  27.922  20.928  1.00  0.00     0.019 A 
ATOM      8  C   UNL     1      34.097  27.556  22.180  1.00  0.00     0.094 A 
ATOM      9  C   UNL     1      34.683  26.295  22.335  1.00  0.00     0.336 A 
ATOM     10  O   UNL     1      35.133  25.944  23.457  1.00  0.00    -0.246 OA
ATOM     11  O   UNL     1      34.768  25.460  21.301  1.00  0.00    -0.423 OA
ENDROOT
BRANCH   1  12
ATOM     12  O   UNL     1      32.880  26.709  16.233  1.00  0.00    -0.493 OA
ATOM     13  C   UNL     1      32.811  28.015  15.668  1.00  0.00     0.278 C 
ENDBRANCH   1  12
BRANCH   2  14
ATOM     14  O   UNL     1      34.087  24.231  16.746  1.00  0.00    -0.504 OA
ATOM     15  H   UNL     1      33.312  23.965  16.150  1.00  0.00     0.293 HD
ENDBRANCH   2  14
TORSDOF 2
ENDMDL
MODEL 3
REMARK VINA RESULT:    -7.223      1.455      2.062
REMARK INTER + INTRA:          -7.843
REMARK INTER:                  -7.798
REMARK INTRA:                  -0.046
REMARK UNBOUND:                 0.013
REMARK SMILES COc1cc2ccc(=O)oc2cc1O
REMARK SMILES IDX 3 1 13 2 12 3 11 4 5 5 4 6 6 7 7 8 8 9 9 10 10 11 2 12 1 13
REMARK SMILES IDX 14 14
REMARK H PARENT 14 15
REMARK Flexibility Score: inf
ROOT
ATOM      1  C   UNL     1      34.546  24.603  19.774  1.00  0.00     0.161 A 
ATOM      2  C   UNL     1      34.315  25.875  20.334  1.00  0.00     0.161 A 
ATOM      3  C   UNL     1      33.852  26.924  19.531  1.00  0.00     0.098 A 
ATOM      4  C   UNL     1      33.615  26.722  18.170  1.00  0.00     0.142 A 
ATOM      5  C   UNL     1      33.845  25.452  17.600  1.00  0.00     0.022 A 
ATOM      6  C   UNL     1      34.308  24.399  18.400  1.00  0.00     0.062 A 
ATOM      7  C   UNL     1      33.599  25.281  16.234  1.00  0.00     0.019 A 
ATOM      8  C   UNL     1      33.138  26.360  15.480  1.00  0.00     0.094 A 
ATOM      9  C   UNL     1      32.934  27.591  16.114  1.00  0.00     0.336 A 
ATOM     10  O   UNL     1      32.519  28.577  15.451  1.00  0.00    -0.246 OA
ATOM     11  O   UNL     1      33.176  27.727  17.415  1.00  0.00    -0.423 OA
ENDROOT
BRANCH   1  12
ATOM     12  O   UNL     1      35.010  23.572  20.607  1.00  0.00    -0.493 OA
ATOM     13  C   UNL     1      34.725  22.189  20.419  1.00  0.00     0.278 C 
ENDBRANCH   1  12
BRANCH   2  14
ATOM     14  O   UNL     1      34.539  26.115  21.689  1.00  0.00    -0.504 OA
ATOM     15  H   UNL     1      35.455  26.020  22.111  1.00  0.00     0.293 HD
ENDBRANCH   2  14
TORSDOF 2
ENDMDL
MODEL 4
REMARK VINA RESULT:    -7.166      1.228      2.389
REMARK INTER + INTRA:          -7.781
REMARK INTER:                  -7.738
REMARK INTRA:                  -0.043
REMARK UNBOUND:                 0.013
REMARK SMILES COc1cc2ccc(=O)oc2cc1O
REMARK SMILES IDX 3 1 13 2 12 3 11 4 5 5 4 6 6 7 7 8 8 9 9 10 10 11 2 12 1 13
REMARK SMILES IDX 14 14
REMARK H PARENT 14 15
REMARK Flexibility Score: inf
ROOT
ATOM      1  C   UNL     1      34.106  26.498  20.529  1.00  0.00     0.161 A 
ATOM      2  C   UNL     1      34.446  25.331  19.817  1.00  0.00     0.161 A 
ATOM      3  C   UNL     1      34.215  25.255  18.438  1.00  0.00     0.098 A 
ATOM      4  C   UNL     1      33.648  26.333  17.756  1.00  0.00     0.142 A 
ATOM      5  C   UNL     1      33.303  27.505  18.460  1.00  0.00     0.022 A 
ATOM      6  C   UNL     1      33.532  27.586  19.840  1.00  0.00     0.062 A 
ATOM      7  C   UNL     1      32.736  28.567  17.748  1.00  0.00     0.019 A 
ATOM      8  C   UNL     1      32.528  28.439  16.376  1.00  0.00     0.094 A 
ATOM      9  C   UNL     1      32.894  27.246  15.744  1.00  0.00     0.336 A 
ATOM     10  O   UNL     1      32.715  27.110  14.505  1.00  0.00    -0.246 OA
ATOM     11  O   UNL     1      33.432  26.251  16.444  1.00  0.00    -0.423 OA
ENDROOT
BRANCH   1  12
ATOM     12  O   UNL     1      34.350  26.541  21.911  1.00  0.00    -0.493 OA
ATOM     13  C   UNL     1      34.043  27.649  22.753  1.00  0.00     0.278 C 
ENDBRANCH   1  12
BRANCH   2  14
ATOM     14  O   UNL     1      35.015  24.234  20.463  1.00  0.00    -0.504 OA
ATOM     15  H   UNL     1      35.156  23.346  19.998  1.00  0.00     0.293 HD
ENDBRANCH   2  14
TORSDOF 2
ENDMDL
MODEL 5
REMARK VINA RESULT:    -7.156      1.159      4.967
REMARK INTER + INTRA:          -7.771
REMARK INTER:                  -7.728
REMARK INTRA:                  -0.043
REMARK UNBOUND:                 0.013
REMARK SMILES COc1cc2ccc(=O)oc2cc1O
REMARK SMILES IDX 3 1 13 2 12 3 11 4 5 5 4 6 6 7 7 8 8 9 9 10 10 11 2 12 1 13
REMARK SMILES IDX 14 14
REMARK H PARENT 14 15
REMARK Flexibility Score: inf
ROOT
ATOM      1  C   UNL     1      33.251  26.989  17.693  1.00  0.00     0.161 A 
ATOM      2  C   UNL     1      32.706  28.162  18.251  1.00  0.00     0.161 A 
ATOM      3  C   UNL     1      32.845  28.422  19.619  1.00  0.00     0.098 A 
ATOM      4  C   UNL     1      33.524  27.524  20.445  1.00  0.00     0.142 A 
ATOM      5  C   UNL     1      34.073  26.346  19.896  1.00  0.00     0.022 A 
ATOM      6  C   UNL     1      33.936  26.082  18.527  1.00  0.00     0.062 A 
ATOM      7  C   UNL     1      34.747  25.466  20.749  1.00  0.00     0.019 A 
ATOM      8  C   UNL     1      34.857  25.774  22.104  1.00  0.00     0.094 A 
ATOM      9  C   UNL     1      34.287  26.960  22.577  1.00  0.00     0.336 A 
ATOM     10  O   UNL     1      34.374  27.257  23.798  1.00  0.00    -0.246 OA
ATOM     11  O   UNL     1      33.650  27.781  21.745  1.00  0.00    -0.423 OA
ENDROOT
BRANCH   1  12
ATOM     12  O   UNL     1      33.094  26.758  16.317  1.00  0.00    -0.493 OA
ATOM     13  C   UNL     1      33.616  25.630  15.621  1.00  0.00     0.278 C 
ENDBRANCH   1  12
BRANCH   2  14
ATOM     14  O   UNL     1      32.021  29.083  17.459  1.00  0.00    -0.504 OA
ATOM     15  H   UNL     1      32.306  30.053  17.387  1.00  0.00     0.293 HD
ENDBRANCH   2  14
TORSDOF 2
ENDMDL
MODEL 6
REMARK VINA RESULT:    -7.095      1.873      5.066
REMARK INTER + INTRA:          -7.705
REMARK INTER:                  -7.658
REMARK INTRA:                  -0.047
REMARK UNBOUND:                 0.013
REMARK SMILES COc1cc2ccc(=O)oc2cc1O
REMARK SMILES IDX 3 1 13 2 12 3 11 4 5 5 4 6 6 7 7 8 8 9 9 10 10 11 2 12 1 13
REMARK SMILES IDX 14 14
REMARK H PARENT 14 15
REMARK Flexibility Score: inf
ROOT
ATOM      1  C   UNL     1      32.860  27.858  16.683  1.00  0.00     0.161 A 
ATOM      2  C   UNL     1      33.098  26.659  15.982  1.00  0.00     0.161 A 
ATOM      3  C   UNL     1      33.604  25.540  16.654  1.00  0.00     0.098 A 
ATOM      4  C   UNL     1      33.878  25.599  18.021  1.00  0.00     0.142 A 
ATOM      5  C   UNL     1      33.644  26.794  18.731  1.00  0.00     0.022 A 
ATOM      6  C   UNL     1      33.137  27.918  18.064  1.00  0.00     0.062 A 
ATOM      7  C   UNL     1      33.929  26.822  20.101  1.00  0.00     0.019 A 
ATOM      8  C   UNL     1      34.431  25.679  20.720  1.00  0.00     0.094 A 
ATOM      9  C   UNL     1      34.638  24.528  19.951  1.00  0.00     0.336 A 
ATOM     10  O   UNL     1      35.092  23.485  20.491  1.00  0.00    -0.246 OA
ATOM     11  O   UNL     1      34.359  24.528  18.650  1.00  0.00    -0.423 OA
ENDROOT
BRANCH   1  12
ATOM     12  O   UNL     1      32.352  28.962  15.980  1.00  0.00    -0.493 OA
ATOM     13  C   UNL     1      31.452  29.923  16.524  1.00  0.00     0.278 C 
ENDBRANCH   1  12
BRANCH   2  14
ATOM     14  O   UNL     1      32.837  26.561  14.616  1.00  0.00    -0.504 OA
ATOM     15  H   UNL     1      31.935  26.799  14.220  1.00  0.00     0.293 HD
ENDBRANCH   2  14
TORSDOF 2
ENDMDL
MODEL 7
REMARK VINA RESULT:    -7.013      2.146      3.047
REMARK INTER + INTRA:          -7.616
REMARK INTER:                  -7.551
REMARK INTRA:                  -0.064
REMARK UNBOUND:                 0.013
REMARK SMILES COc1cc2ccc(=O)oc2cc1O
REMARK SMILES IDX 3 1 13 2 12 3 11 4 5 5 4 6 6 7 7 8 8 9 9 10 10 11 2 12 1 13
REMARK SMILES IDX 14 14
REMARK H PARENT 14 15
REMARK Flexibility Score: inf
ROOT
ATOM      1  C   UNL     1      34.409  27.668  21.212  1.00  0.00     0.161 A 
ATOM      2  C   UNL     1      35.155  26.559  21.657  1.00  0.00     0.161 A 
ATOM      3  C   UNL     1      35.135  25.361  20.933  1.00  0.00     0.098 A 
ATOM      4  C   UNL     1      34.376  25.252  19.766  1.00  0.00     0.142 A 
ATOM      5  C   UNL     1      33.625  26.357  19.314  1.00  0.00     0.022 A 
ATOM      6  C   UNL     1      33.643  27.558  20.035  1.00  0.00     0.062 A 
ATOM      7  C   UNL     1      32.875  26.217  18.141  1.00  0.00     0.019 A 
ATOM      8  C   UNL     1      32.890  25.001  17.459  1.00  0.00     0.094 A 
ATOM      9  C   UNL     1      33.659  23.949  17.968  1.00  0.00     0.336 A 
ATOM     10  O   UNL     1      33.686  22.843  17.367  1.00  0.00    -0.246 OA
ATOM     11  O   UNL     1      34.364  24.108  19.085  1.00  0.00    -0.423 OA
ENDROOT
BRANCH   1  12
ATOM     12  O   UNL     1      34.451  28.855  21.962  1.00  0.00    -0.493 OA
ATOM     13  C   UNL     1      35.305  29.960  21.679  1.00  0.00     0.278 C 
ENDBRANCH   1  12
BRANCH   2  14
ATOM     14  O   UNL     1      35.925  26.629  22.817  1.00  0.00    -0.504 OA
ATOM     15  H   UNL     1      36.916  26.841  22.797  1.00  0.00     0.293 HD
ENDBRANCH   2  14
TORSDOF 2
ENDMDL
MODEL 8
REMARK VINA RESULT:    -6.760      1.736      4.561
REMARK INTER + INTRA:          -7.340
REMARK INTER:                  -7.296
REMARK INTRA:                  -0.044
REMARK UNBOUND:                 0.013
REMARK SMILES COc1cc2ccc(=O)oc2cc1O
REMARK SMILES IDX 3 1 13 2 12 3 11 4 5 5 4 6 6 7 7 8 8 9 9 10 10 11 2 12 1 13
REMARK SMILES IDX 14 14
REMARK H PARENT 14 15
REMARK Flexibility Score: inf
ROOT
ATOM      1  C   UNL     1      33.653  24.668  17.762  1.00  0.00     0.161 A 
ATOM      2  C   UNL     1      33.217  25.750  16.972  1.00  0.00     0.161 A 
ATOM      3  C   UNL     1      33.179  27.042  17.507  1.00  0.00     0.098 A 
ATOM      4  C   UNL     1      33.571  27.273  18.827  1.00  0.00     0.142 A 
ATOM      5  C   UNL     1      34.009  26.197  19.626  1.00  0.00     0.022 A 
ATOM      6  C   UNL     1      34.048  24.901  19.095  1.00  0.00     0.062 A 
ATOM      7  C   UNL     1      34.395  26.460  20.945  1.00  0.00     0.019 A 
ATOM      8  C   UNL     1      34.337  27.767  21.428  1.00  0.00     0.094 A 
ATOM      9  C   UNL     1      33.893  28.784  20.577  1.00  0.00     0.336 A 
ATOM     10  O   UNL     1      33.833  29.971  20.994  1.00  0.00    -0.246 OA
ATOM     11  O   UNL     1      33.531  28.507  19.327  1.00  0.00    -0.423 OA
ENDROOT
BRANCH   1  12
ATOM     12  O   UNL     1      33.679  23.384  17.194  1.00  0.00    -0.493 OA
ATOM     13  C   UNL     1      33.694  22.170  17.940  1.00  0.00     0.278 C 
ENDBRANCH   1  12
BRANCH   2  14
ATOM     14  O   UNL     1      32.818  25.559  15.649  1.00  0.00    -0.504 OA
ATOM     15  H   UNL     1      32.423  26.306  15.090  1.00  0.00     0.293 HD
ENDBRANCH   2  14
TORSDOF 2
ENDMDL
MODEL 9
REMARK VINA RESULT:    -6.392      1.505      2.057
REMARK INTER + INTRA:          -6.939
REMARK INTER:                  -6.890
REMARK INTRA:                  -0.049
REMARK UNBOUND:                 0.013
REMARK SMILES COc1cc2ccc(=O)oc2cc1O
REMARK SMILES IDX 3 1 13 2 12 3 11 4 5 5 4 6 6 7 7 8 8 9 9 10 10 11 2 12 1 13
REMARK SMILES IDX 14 14
REMARK H PARENT 14 15
REMARK Flexibility Score: inf
ROOT
ATOM      1  C   UNL     1      34.690  27.165  22.231  1.00  0.00     0.161 A 
ATOM      2  C   UNL     1      34.463  28.544  22.053  1.00  0.00     0.161 A 
ATOM      3  C   UNL     1      33.963  29.023  20.837  1.00  0.00     0.098 A 
ATOM      4  C   UNL     1      33.683  28.143  19.790  1.00  0.00     0.142 A 
ATOM      5  C   UNL     1      33.908  26.761  19.959  1.00  0.00     0.022 A 
ATOM      6  C   UNL     1      34.409  26.276  21.174  1.00  0.00     0.062 A 
ATOM      7  C   UNL     1      33.618  25.904  18.891  1.00  0.00     0.019 A 
ATOM      8  C   UNL     1      33.121  26.435  17.702  1.00  0.00     0.094 A 
ATOM      9  C   UNL     1      32.924  27.817  17.607  1.00  0.00     0.336 A 
ATOM     10  O   UNL     1      32.476  28.316  16.542  1.00  0.00    -0.246 OA
ATOM     11  O   UNL     1      33.207  28.610  18.637  1.00  0.00    -0.423 OA
ENDROOT
BRANCH   1  12
ATOM     12  O   UNL     1      35.194  26.716  23.463  1.00  0.00    -0.493 OA
ATOM     13  C   UNL     1      34.722  25.566  24.159  1.00  0.00     0.278 C 
ENDBRANCH   1  12
BRANCH   2  14
ATOM     14  O   UNL     1      34.730  29.454  23.075  1.00  0.00    -0.504 OA
ATOM     15  H   UNL     1      35.298  30.280  22.929  1.00  0.00     0.293 HD
ENDBRANCH   2  14
TORSDOF 2
ENDMDL
