MODEL 1
REMARK VINA RESULT:    -6.746      0.000      0.000
REMARK INTER + INTRA:          -8.225
REMARK INTER:                  -7.929
REMARK INTRA:                  -0.296
REMARK UNBOUND:                -0.296
REMARK SMILES O=c1cc(-c2ccc(O)c(O)c2)oc2cc(O)cc(O)c12
REMARK SMILES IDX 4 1 3 2 2 3 1 4 21 5 19 6 18 7 16 8 15 9 14 10 13 11 5 12
REMARK SMILES IDX 6 13 7 14 8 15 12 16 10 17 9 18 11 20 20 22 17 24
REMARK H PARENT 9 19 11 21 20 23 17 25
REMARK Flexibility Score: inf
ROOT
ATOM      1  C   UNL     1      -1.992 -22.206  -6.369  1.00  0.00     0.138 A 
ATOM      2  C   UNL     1      -3.333 -22.200  -6.778  1.00  0.00     0.100 A 
ATOM      3  C   UNL     1      -3.708 -21.466  -7.904  1.00  0.00     0.197 A 
ATOM      4  O   UNL     1      -4.907 -21.530  -8.281  1.00  0.00    -0.289 OA
ATOM      5  C   UNL     1      -2.739 -20.710  -8.606  1.00  0.00     0.107 A 
ATOM      6  C   UNL     1      -3.014 -19.893  -9.743  1.00  0.00     0.134 A 
ATOM      7  C   UNL     1      -1.954 -19.284 -10.427  1.00  0.00     0.093 A 
ATOM      8  C   UNL     1      -0.637 -19.413  -9.977  1.00  0.00     0.123 A 
ATOM      9  C   UNL     1      -0.366 -20.164  -8.836  1.00  0.00     0.094 A 
ATOM     10  C   UNL     1      -1.396 -20.813  -8.153  1.00  0.00     0.146 A 
ATOM     11  O   UNL     1      -1.092 -21.532  -7.078  1.00  0.00    -0.456 OA
ENDROOT
BRANCH   1  12
ATOM     12  C   UNL     1      -1.539 -22.969  -5.178  1.00  0.00     0.021 A 
ATOM     13  C   UNL     1      -2.270 -22.962  -3.974  1.00  0.00     0.016 A 
ATOM     14  C   UNL     1      -1.813 -23.681  -2.865  1.00  0.00     0.051 A 
ATOM     15  C   UNL     1      -0.620 -24.408  -2.935  1.00  0.00     0.157 A 
ATOM     16  C   UNL     1      -0.334 -23.691  -5.235  1.00  0.00     0.062 A 
ATOM     17  C   UNL     1       0.124 -24.412  -4.126  1.00  0.00     0.158 A 
BRANCH  15  18
ATOM     18  O   UNL     1      -0.170 -25.125  -1.827  1.00  0.00    -0.504 OA
ATOM     19  H   UNL     1       0.612 -25.766  -1.893  1.00  0.00     0.293 HD
ENDBRANCH  15  18
BRANCH  17  20
ATOM     20  O   UNL     1       1.319 -25.124  -4.228  1.00  0.00    -0.504 OA
ATOM     21  H   UNL     1       1.490 -25.782  -4.979  1.00  0.00     0.293 HD
ENDBRANCH  17  20
ENDBRANCH   1  12
BRANCH   6  22
ATOM     22  O   UNL     1      -4.300 -19.629 -10.224  1.00  0.00    -0.507 OA
ATOM     23  H   UNL     1      -5.013 -20.326 -10.373  1.00  0.00     0.293 HD
ENDBRANCH   6  22
BRANCH   8  24
ATOM     24  O   UNL     1       0.408 -18.789 -10.654  1.00  0.00    -0.508 OA
ATOM     25  H   UNL     1       0.603 -18.988 -11.629  1.00  0.00     0.293 HD
ENDBRANCH   8  24
TORSDOF 5
ENDMDL
MODEL 2
REMARK VINA RESULT:    -6.717     12.561     14.994
REMARK INTER + INTRA:          -8.191
REMARK INTER:                  -7.917
REMARK INTRA:                  -0.274
REMARK UNBOUND:                -0.296
REMARK SMILES O=c1cc(-c2ccc(O)c(O)c2)oc2cc(O)cc(O)c12
REMARK SMILES IDX 4 1 3 2 2 3 1 4 21 5 19 6 18 7 16 8 15 9 14 10 13 11 5 12
REMARK SMILES IDX 6 13 7 14 8 15 12 16 10 17 9 18 11 20 20 22 17 24
REMARK H PARENT 9 19 11 21 20 23 17 25
REMARK Flexibility Score: inf
ROOT
ATOM      1  C   UNL     1       9.906 -13.460  -5.847  1.00  0.00     0.138 A 
ATOM      2  C   UNL     1      10.887 -13.100  -6.782  1.00  0.00     0.100 A 
ATOM      3  C   UNL     1      11.301 -14.026  -7.740  1.00  0.00     0.197 A 
ATOM      4  O   UNL     1      12.137 -13.654  -8.602  1.00  0.00    -0.289 OA
ATOM      5  C   UNL     1      10.752 -15.331  -7.740  1.00  0.00     0.107 A 
ATOM      6  C   UNL     1      11.128 -16.370  -8.643  1.00  0.00     0.134 A 
ATOM      7  C   UNL     1      10.431 -17.585  -8.625  1.00  0.00     0.093 A 
ATOM      8  C   UNL     1       9.414 -17.819  -7.695  1.00  0.00     0.123 A 
ATOM      9  C   UNL     1       9.077 -16.830  -6.774  1.00  0.00     0.094 A 
ATOM     10  C   UNL     1       9.729 -15.594  -6.790  1.00  0.00     0.146 A 
ATOM     11  O   UNL     1       9.367 -14.673  -5.904  1.00  0.00    -0.456 OA
ENDROOT
BRANCH   1  12
ATOM     12  C   UNL     1       9.430 -12.513  -4.806  1.00  0.00     0.021 A 
ATOM     13  C   UNL     1       9.281 -12.906  -3.463  1.00  0.00     0.016 A 
ATOM     14  C   UNL     1       8.820 -11.997  -2.506  1.00  0.00     0.051 A 
ATOM     15  C   UNL     1       8.492 -10.687  -2.874  1.00  0.00     0.157 A 
ATOM     16  C   UNL     1       9.086 -11.200  -5.170  1.00  0.00     0.062 A 
ATOM     17  C   UNL     1       8.625 -10.287  -4.214  1.00  0.00     0.158 A 
BRANCH  15  18
ATOM     18  O   UNL     1       8.035  -9.784  -1.916  1.00  0.00    -0.504 OA
ATOM     19  H   UNL     1       8.552  -9.607  -1.063  1.00  0.00     0.293 HD
ENDBRANCH  15  18
BRANCH  17  20
ATOM     20  O   UNL     1       8.304  -8.990  -4.614  1.00  0.00    -0.504 OA
ATOM     21  H   UNL     1       7.747  -8.805  -5.439  1.00  0.00     0.293 HD
ENDBRANCH  17  20
ENDBRANCH   1  12
BRANCH   6  22
ATOM     22  O   UNL     1      12.185 -16.270  -9.553  1.00  0.00    -0.507 OA
ATOM     23  H   UNL     1      13.042 -15.766  -9.387  1.00  0.00     0.293 HD
ENDBRANCH   6  22
BRANCH   8  24
ATOM     24  O   UNL     1       8.738 -19.036  -7.674  1.00  0.00    -0.508 OA
ATOM     25  H   UNL     1       9.230 -19.914  -7.557  1.00  0.00     0.293 HD
ENDBRANCH   8  24
TORSDOF 5
ENDMDL
MODEL 3
REMARK VINA RESULT:    -6.652      2.339      6.876
REMARK INTER + INTRA:          -8.115
REMARK INTER:                  -7.817
REMARK INTRA:                  -0.298
REMARK UNBOUND:                -0.296
REMARK SMILES O=c1cc(-c2ccc(O)c(O)c2)oc2cc(O)cc(O)c12
REMARK SMILES IDX 4 1 3 2 2 3 1 4 21 5 19 6 18 7 16 8 15 9 14 10 13 11 5 12
REMARK SMILES IDX 6 13 7 14 8 15 12 16 10 17 9 18 11 20 20 22 17 24
REMARK H PARENT 9 19 11 21 20 23 17 25
REMARK Flexibility Score: inf
ROOT
ATOM      1  C   UNL     1      -2.508 -20.301  -7.102  1.00  0.00     0.138 A 
ATOM      2  C   UNL     1      -1.885 -19.202  -6.493  1.00  0.00     0.100 A 
ATOM      3  C   UNL     1      -0.863 -19.414  -5.566  1.00  0.00     0.197 A 
ATOM      4  O   UNL     1      -0.283 -18.407  -5.084  1.00  0.00    -0.289 OA
ATOM      5  C   UNL     1      -0.486 -20.734  -5.224  1.00  0.00     0.107 A 
ATOM      6  C   UNL     1       0.513 -21.070  -4.263  1.00  0.00     0.134 A 
ATOM      7  C   UNL     1       0.885 -22.410  -4.093  1.00  0.00     0.093 A 
ATOM      8  C   UNL     1       0.249 -23.430  -4.807  1.00  0.00     0.123 A 
ATOM      9  C   UNL     1      -0.766 -23.116  -5.707  1.00  0.00     0.094 A 
ATOM     10  C   UNL     1      -1.134 -21.786  -5.925  1.00  0.00     0.146 A 
ATOM     11  O   UNL     1      -2.097 -21.529  -6.804  1.00  0.00    -0.456 OA
ENDROOT
BRANCH   1  12
ATOM     12  C   UNL     1      -3.600 -20.133  -8.094  1.00  0.00     0.021 A 
ATOM     13  C   UNL     1      -4.618 -19.177  -7.918  1.00  0.00     0.016 A 
ATOM     14  C   UNL     1      -5.640 -19.048  -8.863  1.00  0.00     0.051 A 
ATOM     15  C   UNL     1      -5.669 -19.875  -9.992  1.00  0.00     0.157 A 
ATOM     16  C   UNL     1      -3.644 -20.969  -9.224  1.00  0.00     0.062 A 
ATOM     17  C   UNL     1      -4.665 -20.841 -10.172  1.00  0.00     0.158 A 
BRANCH  15  18
ATOM     18  O   UNL     1      -6.689 -19.742 -10.933  1.00  0.00    -0.504 OA
ATOM     19  H   UNL     1      -6.555 -20.011 -11.900  1.00  0.00     0.293 HD
ENDBRANCH  15  18
BRANCH  17  20
ATOM     20  O   UNL     1      -4.666 -21.683 -11.284  1.00  0.00    -0.504 OA
ATOM     21  H   UNL     1      -4.327 -21.378 -12.189  1.00  0.00     0.293 HD
ENDBRANCH  17  20
ENDBRANCH   1  12
BRANCH   6  22
ATOM     22  O   UNL     1       1.150 -20.137  -3.439  1.00  0.00    -0.507 OA
ATOM     23  H   UNL     1       1.549 -20.344  -2.536  1.00  0.00     0.293 HD
ENDBRANCH   6  22
BRANCH   8  24
ATOM     24  O   UNL     1       0.614 -24.761  -4.619  1.00  0.00    -0.508 OA
ATOM     25  H   UNL     1       0.947 -25.333  -5.386  1.00  0.00     0.293 HD
ENDBRANCH   8  24
TORSDOF 5
ENDMDL
MODEL 4
REMARK VINA RESULT:    -6.651      2.705      6.809
REMARK INTER + INTRA:          -8.114
REMARK INTER:                  -7.844
REMARK INTRA:                  -0.270
REMARK UNBOUND:                -0.296
REMARK SMILES O=c1cc(-c2ccc(O)c(O)c2)oc2cc(O)cc(O)c12
REMARK SMILES IDX 4 1 3 2 2 3 1 4 21 5 19 6 18 7 16 8 15 9 14 10 13 11 5 12
REMARK SMILES IDX 6 13 7 14 8 15 12 16 10 17 9 18 11 20 20 22 17 24
REMARK H PARENT 9 19 11 21 20 23 17 25
REMARK Flexibility Score: inf
ROOT
ATOM      1  C   UNL     1      -0.854 -20.769  -6.720  1.00  0.00     0.138 A 
ATOM      2  C   UNL     1      -0.718 -19.538  -6.064  1.00  0.00     0.100 A 
ATOM      3  C   UNL     1       0.163 -19.421  -4.988  1.00  0.00     0.197 A 
ATOM      4  O   UNL     1       0.308 -18.289  -4.460  1.00  0.00    -0.289 OA
ATOM      5  C   UNL     1       0.890 -20.553  -4.549  1.00  0.00     0.107 A 
ATOM      6  C   UNL     1       1.786 -20.563  -3.439  1.00  0.00     0.134 A 
ATOM      7  C   UNL     1       2.539 -21.713  -3.170  1.00  0.00     0.093 A 
ATOM      8  C   UNL     1       2.382 -22.872  -3.934  1.00  0.00     0.123 A 
ATOM      9  C   UNL     1       1.470 -22.890  -4.986  1.00  0.00     0.094 A 
ATOM     10  C   UNL     1       0.730 -21.748  -5.302  1.00  0.00     0.146 A 
ATOM     11  O   UNL     1      -0.118 -21.803  -6.323  1.00  0.00    -0.456 OA
ENDROOT
BRANCH   1  12
ATOM     12  C   UNL     1      -1.777 -20.948  -7.869  1.00  0.00     0.021 A 
ATOM     13  C   UNL     1      -1.452 -20.485  -9.158  1.00  0.00     0.016 A 
ATOM     14  C   UNL     1      -2.345 -20.658 -10.219  1.00  0.00     0.051 A 
ATOM     15  C   UNL     1      -3.579 -21.287 -10.011  1.00  0.00     0.157 A 
ATOM     16  C   UNL     1      -3.024 -21.566  -7.666  1.00  0.00     0.062 A 
ATOM     17  C   UNL     1      -3.919 -21.741  -8.727  1.00  0.00     0.158 A 
BRANCH  15  18
ATOM     18  O   UNL     1      -4.466 -21.459 -11.072  1.00  0.00    -0.504 OA
ATOM     19  H   UNL     1      -4.504 -20.802 -11.843  1.00  0.00     0.293 HD
ENDBRANCH  15  18
BRANCH  17  20
ATOM     20  O   UNL     1      -5.141 -22.369  -8.485  1.00  0.00    -0.504 OA
ATOM     21  H   UNL     1      -5.301 -22.934  -7.660  1.00  0.00     0.293 HD
ENDBRANCH  17  20
ENDBRANCH   1  12
BRANCH   6  22
ATOM     22  O   UNL     1       1.954 -19.488  -2.561  1.00  0.00    -0.507 OA
ATOM     23  H   UNL     1       1.712 -18.531  -2.769  1.00  0.00     0.293 HD
ENDBRANCH   6  22
BRANCH   8  24
ATOM     24  O   UNL     1       3.124 -24.016  -3.648  1.00  0.00    -0.508 OA
ATOM     25  H   UNL     1       4.136 -23.995  -3.606  1.00  0.00     0.293 HD
ENDBRANCH   8  24
TORSDOF 5
ENDMDL
MODEL 5
REMARK VINA RESULT:    -6.526      1.771      6.850
REMARK INTER + INTRA:          -7.967
REMARK INTER:                  -7.652
REMARK INTRA:                  -0.315
REMARK UNBOUND:                -0.296
REMARK SMILES O=c1cc(-c2ccc(O)c(O)c2)oc2cc(O)cc(O)c12
REMARK SMILES IDX 4 1 3 2 2 3 1 4 21 5 19 6 18 7 16 8 15 9 14 10 13 11 5 12
REMARK SMILES IDX 6 13 7 14 8 15 12 16 10 17 9 18 11 20 20 22 17 24
REMARK H PARENT 9 19 11 21 20 23 17 25
REMARK Flexibility Score: inf
ROOT
ATOM      1  C   UNL     1      -1.104 -21.421  -6.570  1.00  0.00     0.138 A 
ATOM      2  C   UNL     1      -2.197 -21.614  -5.714  1.00  0.00     0.100 A 
ATOM      3  C   UNL     1      -2.039 -22.367  -4.550  1.00  0.00     0.197 A 
ATOM      4  O   UNL     1      -3.022 -22.471  -3.773  1.00  0.00    -0.289 OA
ATOM      5  C   UNL     1      -0.785 -22.955  -4.258  1.00  0.00     0.107 A 
ATOM      6  C   UNL     1      -0.518 -23.775  -3.122  1.00  0.00     0.134 A 
ATOM      7  C   UNL     1       0.792 -24.205  -2.874  1.00  0.00     0.093 A 
ATOM      8  C   UNL     1       1.831 -23.895  -3.755  1.00  0.00     0.123 A 
ATOM      9  C   UNL     1       1.569 -23.141  -4.896  1.00  0.00     0.094 A 
ATOM     10  C   UNL     1       0.281 -22.667  -5.152  1.00  0.00     0.146 A 
ATOM     11  O   UNL     1       0.077 -21.937  -6.244  1.00  0.00    -0.456 OA
ENDROOT
BRANCH   1  12
ATOM     12  C   UNL     1      -1.217 -20.629  -7.822  1.00  0.00     0.021 A 
ATOM     13  C   UNL     1      -2.339 -19.822  -8.086  1.00  0.00     0.016 A 
ATOM     14  C   UNL     1      -2.424 -19.096  -9.278  1.00  0.00     0.051 A 
ATOM     15  C   UNL     1      -1.397 -19.170 -10.227  1.00  0.00     0.157 A 
ATOM     16  C   UNL     1      -0.196 -20.708  -8.785  1.00  0.00     0.062 A 
ATOM     17  C   UNL     1      -0.278 -19.982  -9.979  1.00  0.00     0.158 A 
BRANCH  15  18
ATOM     18  O   UNL     1      -1.485 -18.443 -11.413  1.00  0.00    -0.504 OA
ATOM     19  H   UNL     1      -1.159 -18.824 -12.293  1.00  0.00     0.293 HD
ENDBRANCH  15  18
BRANCH  17  20
ATOM     20  O   UNL     1       0.761 -20.080 -10.904  1.00  0.00    -0.504 OA
ATOM     21  H   UNL     1       1.584 -19.491 -10.853  1.00  0.00     0.293 HD
ENDBRANCH  17  20
ENDBRANCH   1  12
BRANCH   6  22
ATOM     22  O   UNL     1      -1.498 -24.213  -2.226  1.00  0.00    -0.507 OA
ATOM     23  H   UNL     1      -1.409 -24.197  -1.222  1.00  0.00     0.293 HD
ENDBRANCH   6  22
BRANCH   8  24
ATOM     24  O   UNL     1       3.127 -24.342  -3.509  1.00  0.00    -0.508 OA
ATOM     25  H   UNL     1       3.340 -25.328  -3.411  1.00  0.00     0.293 HD
ENDBRANCH   8  24
TORSDOF 5
ENDMDL
MODEL 6
REMARK VINA RESULT:    -6.468      3.751      4.683
REMARK INTER + INTRA:          -7.898
REMARK INTER:                  -7.636
REMARK INTRA:                  -0.262
REMARK UNBOUND:                -0.296
REMARK SMILES O=c1cc(-c2ccc(O)c(O)c2)oc2cc(O)cc(O)c12
REMARK SMILES IDX 4 1 3 2 2 3 1 4 21 5 19 6 18 7 16 8 15 9 14 10 13 11 5 12
REMARK SMILES IDX 6 13 7 14 8 15 12 16 10 17 9 18 11 20 20 22 17 24
REMARK H PARENT 9 19 11 21 20 23 17 25
REMARK Flexibility Score: inf
ROOT
ATOM      1  C   UNL     1      -1.007 -19.474  -5.927  1.00  0.00     0.138 A 
ATOM      2  C   UNL     1      -0.269 -20.121  -6.928  1.00  0.00     0.100 A 
ATOM      3  C   UNL     1      -0.870 -20.407  -8.154  1.00  0.00     0.197 A 
ATOM      4  O   UNL     1      -0.164 -20.932  -9.053  1.00  0.00    -0.289 OA
ATOM      5  C   UNL     1      -2.229 -20.072  -8.367  1.00  0.00     0.107 A 
ATOM      6  C   UNL     1      -2.957 -20.353  -9.561  1.00  0.00     0.134 A 
ATOM      7  C   UNL     1      -4.264 -19.868  -9.702  1.00  0.00     0.093 A 
ATOM      8  C   UNL     1      -4.888 -19.168  -8.666  1.00  0.00     0.123 A 
ATOM      9  C   UNL     1      -4.204 -18.937  -7.476  1.00  0.00     0.094 A 
ATOM     10  C   UNL     1      -2.887 -19.375  -7.318  1.00  0.00     0.146 A 
ATOM     11  O   UNL     1      -2.265 -19.121  -6.172  1.00  0.00    -0.456 OA
ENDROOT
BRANCH   1  12
ATOM     12  C   UNL     1      -0.417 -19.146  -4.604  1.00  0.00     0.021 A 
ATOM     13  C   UNL     1      -0.638 -19.957  -3.475  1.00  0.00     0.016 A 
ATOM     14  C   UNL     1      -0.078 -19.618  -2.240  1.00  0.00     0.051 A 
ATOM     15  C   UNL     1       0.702 -18.464  -2.108  1.00  0.00     0.157 A 
ATOM     16  C   UNL     1       0.356 -17.981  -4.461  1.00  0.00     0.062 A 
ATOM     17  C   UNL     1       0.918 -17.640  -3.225  1.00  0.00     0.158 A 
BRANCH  15  18
ATOM     18  O   UNL     1       1.259 -18.131  -0.875  1.00  0.00    -0.504 OA
ATOM     19  H   UNL     1       1.070 -17.240  -0.431  1.00  0.00     0.293 HD
ENDBRANCH  15  18
BRANCH  17  20
ATOM     20  O   UNL     1       1.688 -16.481  -3.128  1.00  0.00    -0.504 OA
ATOM     21  H   UNL     1       2.699 -16.501  -3.180  1.00  0.00     0.293 HD
ENDBRANCH  17  20
ENDBRANCH   1  12
BRANCH   6  22
ATOM     22  O   UNL     1      -2.457 -21.116 -10.620  1.00  0.00    -0.507 OA
ATOM     23  H   UNL     1      -1.497 -21.408 -10.718  1.00  0.00     0.293 HD
ENDBRANCH   6  22
BRANCH   8  24
ATOM     24  O   UNL     1      -6.194 -18.704  -8.809  1.00  0.00    -0.508 OA
ATOM     25  H   UNL     1      -6.911 -19.266  -9.253  1.00  0.00     0.293 HD
ENDBRANCH   8  24
TORSDOF 5
ENDMDL
MODEL 7
REMARK VINA RESULT:    -6.436      3.521      6.711
REMARK INTER + INTRA:          -7.860
REMARK INTER:                  -7.595
REMARK INTRA:                  -0.266
REMARK UNBOUND:                -0.296
REMARK SMILES O=c1cc(-c2ccc(O)c(O)c2)oc2cc(O)cc(O)c12
REMARK SMILES IDX 4 1 3 2 2 3 1 4 21 5 19 6 18 7 16 8 15 9 14 10 13 11 5 12
REMARK SMILES IDX 6 13 7 14 8 15 12 16 10 17 9 18 11 20 20 22 17 24
REMARK H PARENT 9 19 11 21 20 23 17 25
REMARK Flexibility Score: inf
ROOT
ATOM      1  C   UNL     1      -0.819 -20.690  -6.496  1.00  0.00     0.138 A 
ATOM      2  C   UNL     1      -0.145 -21.756  -5.884  1.00  0.00     0.100 A 
ATOM      3  C   UNL     1       0.663 -21.515  -4.772  1.00  0.00     0.197 A 
ATOM      4  O   UNL     1       1.205 -22.500  -4.208  1.00  0.00    -0.289 OA
ATOM      5  C   UNL     1       0.821 -20.194  -4.291  1.00  0.00     0.107 A 
ATOM      6  C   UNL     1       1.651 -19.824  -3.190  1.00  0.00     0.134 A 
ATOM      7  C   UNL     1       1.637 -18.502  -2.729  1.00  0.00     0.093 A 
ATOM      8  C   UNL     1       0.869 -17.524  -3.368  1.00  0.00     0.123 A 
ATOM      9  C   UNL     1       0.098 -17.864  -4.477  1.00  0.00     0.094 A 
ATOM     10  C   UNL     1       0.063 -19.182  -4.939  1.00  0.00     0.146 A 
ATOM     11  O   UNL     1      -0.697 -19.467  -5.990  1.00  0.00    -0.456 OA
ENDROOT
BRANCH   1  12
ATOM     12  C   UNL     1      -1.690 -20.890  -7.682  1.00  0.00     0.021 A 
ATOM     13  C   UNL     1      -1.298 -20.469  -8.967  1.00  0.00     0.016 A 
ATOM     14  C   UNL     1      -2.143 -20.661 -10.064  1.00  0.00     0.051 A 
ATOM     15  C   UNL     1      -3.394 -21.265  -9.896  1.00  0.00     0.157 A 
ATOM     16  C   UNL     1      -2.954 -21.484  -7.520  1.00  0.00     0.062 A 
ATOM     17  C   UNL     1      -3.802 -21.677  -8.617  1.00  0.00     0.158 A 
BRANCH  15  18
ATOM     18  O   UNL     1      -4.234 -21.456 -10.993  1.00  0.00    -0.504 OA
ATOM     19  H   UNL     1      -5.143 -21.893 -10.895  1.00  0.00     0.293 HD
ENDBRANCH  15  18
BRANCH  17  20
ATOM     20  O   UNL     1      -5.044 -22.280  -8.415  1.00  0.00    -0.504 OA
ATOM     21  H   UNL     1      -5.532 -22.766  -9.158  1.00  0.00     0.293 HD
ENDBRANCH  17  20
ENDBRANCH   1  12
BRANCH   6  22
ATOM     22  O   UNL     1       2.519 -20.703  -2.536  1.00  0.00    -0.507 OA
ATOM     23  H   UNL     1       3.117 -21.372  -2.996  1.00  0.00     0.293 HD
ENDBRANCH   6  22
BRANCH   8  24
ATOM     24  O   UNL     1       0.874 -16.207  -2.912  1.00  0.00    -0.508 OA
ATOM     25  H   UNL     1       0.853 -15.988  -1.923  1.00  0.00     0.293 HD
ENDBRANCH   8  24
TORSDOF 5
ENDMDL
MODEL 8
REMARK VINA RESULT:    -6.352      1.266      2.813
REMARK INTER + INTRA:          -7.762
REMARK INTER:                  -7.468
REMARK INTRA:                  -0.294
REMARK UNBOUND:                -0.296
REMARK SMILES O=c1cc(-c2ccc(O)c(O)c2)oc2cc(O)cc(O)c12
REMARK SMILES IDX 4 1 3 2 2 3 1 4 21 5 19 6 18 7 16 8 15 9 14 10 13 11 5 12
REMARK SMILES IDX 6 13 7 14 8 15 12 16 10 17 9 18 11 20 20 22 17 24
REMARK H PARENT 9 19 11 21 20 23 17 25
REMARK Flexibility Score: inf
ROOT
ATOM      1  C   UNL     1      -1.526 -21.961  -6.367  1.00  0.00     0.138 A 
ATOM      2  C   UNL     1      -0.636 -21.369  -7.275  1.00  0.00     0.100 A 
ATOM      3  C   UNL     1      -1.134 -20.595  -8.324  1.00  0.00     0.197 A 
ATOM      4  O   UNL     1      -0.308 -20.027  -9.085  1.00  0.00    -0.289 OA
ATOM      5  C   UNL     1      -2.531 -20.440  -8.483  1.00  0.00     0.107 A 
ATOM      6  C   UNL     1      -3.152 -19.708  -9.539  1.00  0.00     0.134 A 
ATOM      7  C   UNL     1      -4.541 -19.524  -9.527  1.00  0.00     0.093 A 
ATOM      8  C   UNL     1      -5.335 -20.099  -8.531  1.00  0.00     0.123 A 
ATOM      9  C   UNL     1      -4.743 -20.861  -7.527  1.00  0.00     0.094 A 
ATOM     10  C   UNL     1      -3.357 -21.032  -7.490  1.00  0.00     0.146 A 
ATOM     11  O   UNL     1      -2.832 -21.754  -6.507  1.00  0.00    -0.456 OA
ENDROOT
BRANCH   1  12
ATOM     12  C   UNL     1      -1.051 -22.794  -5.233  1.00  0.00     0.021 A 
ATOM     13  C   UNL     1      -1.922 -23.214  -4.210  1.00  0.00     0.016 A 
ATOM     14  C   UNL     1      -1.445 -23.989  -3.149  1.00  0.00     0.051 A 
ATOM     15  C   UNL     1      -0.094 -24.350  -3.086  1.00  0.00     0.157 A 
ATOM     16  C   UNL     1       0.307 -23.150  -5.156  1.00  0.00     0.062 A 
ATOM     17  C   UNL     1       0.786 -23.927  -4.095  1.00  0.00     0.158 A 
BRANCH  15  18
ATOM     18  O   UNL     1       0.376 -25.125  -2.027  1.00  0.00    -0.504 OA
ATOM     19  H   UNL     1      -0.257 -25.573  -1.375  1.00  0.00     0.293 HD
ENDBRANCH  15  18
BRANCH  17  20
ATOM     20  O   UNL     1       2.138 -24.267  -4.062  1.00  0.00    -0.504 OA
ATOM     21  H   UNL     1       2.756 -23.942  -3.328  1.00  0.00     0.293 HD
ENDBRANCH  17  20
ENDBRANCH   1  12
BRANCH   6  22
ATOM     22  O   UNL     1      -2.461 -19.166 -10.626  1.00  0.00    -0.507 OA
ATOM     23  H   UNL     1      -2.681 -18.287 -11.068  1.00  0.00     0.293 HD
ENDBRANCH   6  22
BRANCH   8  24
ATOM     24  O   UNL     1      -6.717 -19.924  -8.537  1.00  0.00    -0.508 OA
ATOM     25  H   UNL     1      -7.298 -20.312  -9.271  1.00  0.00     0.293 HD
ENDBRANCH   8  24
TORSDOF 5
ENDMDL
