MODEL 1
REMARK VINA RESULT:    -6.705      0.000      0.000
REMARK INTER + INTRA:          -8.070
REMARK INTER:                  -7.881
REMARK INTRA:                  -0.190
REMARK UNBOUND:                -0.190
REMARK SMILES O=c1c(O)c(-c2ccc(O)cc2)oc2cc(O)cc(O)c12
REMARK SMILES IDX 5 1 3 2 2 3 1 4 21 5 19 6 18 7 16 8 15 9 14 10 13 11 6 12
REMARK SMILES IDX 7 13 8 14 9 15 12 16 11 17 10 18 4 20 20 22 17 24
REMARK H PARENT 10 19 4 21 20 23 17 25
REMARK Flexibility Score: inf
ROOT
ATOM      1  C   UNL     1     -18.769  -4.045  16.857  1.00  0.00     0.180 A 
ATOM      2  C   UNL     1     -18.145  -3.249  15.880  1.00  0.00     0.208 A 
ATOM      3  C   UNL     1     -17.394  -3.873  14.871  1.00  0.00     0.238 A 
ATOM      4  O   UNL     1     -16.884  -3.160  13.968  1.00  0.00    -0.285 OA
ATOM      5  C   UNL     1     -17.262  -5.283  14.862  1.00  0.00     0.111 A 
ATOM      6  C   UNL     1     -16.492  -6.018  13.911  1.00  0.00     0.134 A 
ATOM      7  C   UNL     1     -16.538  -7.417  13.918  1.00  0.00     0.093 A 
ATOM      8  C   UNL     1     -17.276  -8.109  14.882  1.00  0.00     0.123 A 
ATOM      9  C   UNL     1     -17.983  -7.400  15.851  1.00  0.00     0.094 A 
ATOM     10  C   UNL     1     -17.985  -6.003  15.848  1.00  0.00     0.146 A 
ATOM     11  O   UNL     1     -18.681  -5.368  16.783  1.00  0.00    -0.452 OA
ENDROOT
BRANCH   1  12
ATOM     12  C   UNL     1     -19.556  -3.459  17.965  1.00  0.00     0.021 A 
ATOM     13  C   UNL     1     -19.021  -3.449  19.265  1.00  0.00     0.016 A 
ATOM     14  C   UNL     1     -19.739  -2.881  20.322  1.00  0.00     0.047 A 
ATOM     15  C   UNL     1     -20.990  -2.302  20.092  1.00  0.00     0.115 A 
ATOM     16  C   UNL     1     -20.808  -2.856  17.737  1.00  0.00     0.016 A 
ATOM     17  C   UNL     1     -21.522  -2.288  18.796  1.00  0.00     0.047 A 
BRANCH  15  18
ATOM     18  O   UNL     1     -21.694  -1.738  21.155  1.00  0.00    -0.508 OA
ATOM     19  H   UNL     1     -22.518  -2.185  21.541  1.00  0.00     0.293 HD
ENDBRANCH  15  18
ENDBRANCH   1  12
BRANCH   2  20
ATOM     20  O   UNL     1     -18.307  -1.861  15.895  1.00  0.00    -0.502 OA
ATOM     21  H   UNL     1     -18.485  -1.325  15.056  1.00  0.00     0.293 HD
ENDBRANCH   2  20
BRANCH   6  22
ATOM     22  O   UNL     1     -15.650  -5.426  12.964  1.00  0.00    -0.507 OA
ATOM     23  H   UNL     1     -15.617  -5.678  11.988  1.00  0.00     0.293 HD
ENDBRANCH   6  22
BRANCH   8  24
ATOM     24  O   UNL     1     -17.304  -9.502  14.892  1.00  0.00    -0.508 OA
ATOM     25  H   UNL     1     -16.932 -10.033  15.671  1.00  0.00     0.293 HD
ENDBRANCH   8  24
TORSDOF 5
ENDMDL
MODEL 2
REMARK VINA RESULT:    -6.495      8.246     12.711
REMARK INTER + INTRA:          -7.823
REMARK INTER:                  -7.566
REMARK INTRA:                  -0.257
REMARK UNBOUND:                -0.190
REMARK SMILES O=c1c(O)c(-c2ccc(O)cc2)oc2cc(O)cc(O)c12
REMARK SMILES IDX 5 1 3 2 2 3 1 4 21 5 19 6 18 7 16 8 15 9 14 10 13 11 6 12
REMARK SMILES IDX 7 13 8 14 9 15 12 16 11 17 10 18 4 20 20 22 17 24
REMARK H PARENT 10 19 4 21 20 23 17 25
REMARK Flexibility Score: inf
ROOT
ATOM      1  C   UNL     1     -10.034  -5.714   8.471  1.00  0.00     0.180 A 
ATOM      2  C   UNL     1     -10.001  -7.119   8.527  1.00  0.00     0.208 A 
ATOM      3  C   UNL     1     -10.865  -7.785   9.411  1.00  0.00     0.238 A 
ATOM      4  O   UNL     1     -10.871  -9.044   9.417  1.00  0.00    -0.285 OA
ATOM      5  C   UNL     1     -11.737  -7.039  10.239  1.00  0.00     0.111 A 
ATOM      6  C   UNL     1     -12.626  -7.608  11.200  1.00  0.00     0.134 A 
ATOM      7  C   UNL     1     -13.537  -6.784  11.872  1.00  0.00     0.093 A 
ATOM      8  C   UNL     1     -13.547  -5.402  11.665  1.00  0.00     0.123 A 
ATOM      9  C   UNL     1     -12.643  -4.830  10.773  1.00  0.00     0.094 A 
ATOM     10  C   UNL     1     -11.746  -5.631  10.061  1.00  0.00     0.146 A 
ATOM     11  O   UNL     1     -10.909  -5.046   9.213  1.00  0.00    -0.452 OA
ENDROOT
BRANCH   1  12
ATOM     12  C   UNL     1      -9.137  -4.940   7.582  1.00  0.00     0.021 A 
ATOM     13  C   UNL     1      -9.464  -4.797   6.223  1.00  0.00     0.016 A 
ATOM     14  C   UNL     1      -8.643  -4.052   5.371  1.00  0.00     0.047 A 
ATOM     15  C   UNL     1      -7.495  -3.428   5.869  1.00  0.00     0.115 A 
ATOM     16  C   UNL     1      -7.991  -4.293   8.080  1.00  0.00     0.016 A 
ATOM     17  C   UNL     1      -7.173  -3.548   7.227  1.00  0.00     0.047 A 
BRANCH  15  18
ATOM     18  O   UNL     1      -6.686  -2.688   5.009  1.00  0.00    -0.508 OA
ATOM     19  H   UNL     1      -6.950  -1.760   4.701  1.00  0.00     0.293 HD
ENDBRANCH  15  18
ENDBRANCH   1  12
BRANCH   2  20
ATOM     20  O   UNL     1      -9.148  -7.836   7.684  1.00  0.00    -0.502 OA
ATOM     21  H   UNL     1      -8.820  -7.467   6.800  1.00  0.00     0.293 HD
ENDBRANCH   2  20
BRANCH   6  22
ATOM     22  O   UNL     1     -12.635  -8.962  11.549  1.00  0.00    -0.507 OA
ATOM     23  H   UNL     1     -12.507  -9.724  10.900  1.00  0.00     0.293 HD
ENDBRANCH   6  22
BRANCH   8  24
ATOM     24  O   UNL     1     -14.446  -4.587  12.349  1.00  0.00    -0.508 OA
ATOM     25  H   UNL     1     -14.695  -4.767  13.315  1.00  0.00     0.293 HD
ENDBRANCH   8  24
TORSDOF 5
ENDMDL
MODEL 3
REMARK VINA RESULT:    -6.411     10.709     14.196
REMARK INTER + INTRA:          -7.725
REMARK INTER:                  -7.645
REMARK INTRA:                  -0.079
REMARK UNBOUND:                -0.190
REMARK SMILES O=c1c(O)c(-c2ccc(O)cc2)oc2cc(O)cc(O)c12
REMARK SMILES IDX 5 1 3 2 2 3 1 4 21 5 19 6 18 7 16 8 15 9 14 10 13 11 6 12
REMARK SMILES IDX 7 13 8 14 9 15 12 16 11 17 10 18 4 20 20 22 17 24
REMARK H PARENT 10 19 4 21 20 23 17 25
REMARK Flexibility Score: inf
ROOT
ATOM      1  C   UNL     1      -8.163  -5.845   9.021  1.00  0.00     0.180 A 
ATOM      2  C   UNL     1      -9.414  -5.348   9.426  1.00  0.00     0.208 A 
ATOM      3  C   UNL     1      -9.568  -4.882  10.742  1.00  0.00     0.238 A 
ATOM      4  O   UNL     1     -10.674  -4.387  11.083  1.00  0.00    -0.285 OA
ATOM      5  C   UNL     1      -8.474  -4.934  11.640  1.00  0.00     0.111 A 
ATOM      6  C   UNL     1      -8.529  -4.526  13.006  1.00  0.00     0.134 A 
ATOM      7  C   UNL     1      -7.353  -4.500  13.766  1.00  0.00     0.093 A 
ATOM      8  C   UNL     1      -6.137  -4.927  13.228  1.00  0.00     0.123 A 
ATOM      9  C   UNL     1      -6.085  -5.383  11.912  1.00  0.00     0.094 A 
ATOM     10  C   UNL     1      -7.235  -5.388  11.118  1.00  0.00     0.146 A 
ATOM     11  O   UNL     1      -7.140  -5.820   9.867  1.00  0.00    -0.452 OA
ENDROOT
BRANCH   1  12
ATOM     12  C   UNL     1      -7.930  -6.377   7.659  1.00  0.00     0.021 A 
ATOM     13  C   UNL     1      -8.069  -5.524   6.550  1.00  0.00     0.016 A 
ATOM     14  C   UNL     1      -7.832  -6.000   5.257  1.00  0.00     0.047 A 
ATOM     15  C   UNL     1      -7.439  -7.326   5.056  1.00  0.00     0.115 A 
ATOM     16  C   UNL     1      -7.515  -7.705   7.451  1.00  0.00     0.016 A 
ATOM     17  C   UNL     1      -7.278  -8.178   6.157  1.00  0.00     0.047 A 
BRANCH  15  18
ATOM     18  O   UNL     1      -7.206  -7.787   3.762  1.00  0.00    -0.508 OA
ATOM     19  H   UNL     1      -7.881  -8.366   3.276  1.00  0.00     0.293 HD
ENDBRANCH  15  18
ENDBRANCH   1  12
BRANCH   2  20
ATOM     20  O   UNL     1     -10.474  -5.285   8.517  1.00  0.00    -0.502 OA
ATOM     21  H   UNL     1     -10.507  -4.605   7.768  1.00  0.00     0.293 HD
ENDBRANCH   2  20
BRANCH   6  22
ATOM     22  O   UNL     1      -9.707  -4.168  13.668  1.00  0.00    -0.507 OA
ATOM     23  H   UNL     1     -10.159  -4.723  14.379  1.00  0.00     0.293 HD
ENDBRANCH   6  22
BRANCH   8  24
ATOM     24  O   UNL     1      -4.974  -4.912  13.995  1.00  0.00    -0.508 OA
ATOM     25  H   UNL     1      -4.354  -4.111  14.001  1.00  0.00     0.293 HD
ENDBRANCH   8  24
TORSDOF 5
ENDMDL
MODEL 4
REMARK VINA RESULT:    -6.402     12.688     14.447
REMARK INTER + INTRA:          -7.714
REMARK INTER:                  -8.173
REMARK INTRA:                   0.459
REMARK UNBOUND:                -0.190
REMARK SMILES O=c1c(O)c(-c2ccc(O)cc2)oc2cc(O)cc(O)c12
REMARK SMILES IDX 5 1 3 2 2 3 1 4 21 5 19 6 18 7 16 8 15 9 14 10 13 11 6 12
REMARK SMILES IDX 7 13 8 14 9 15 12 16 11 17 10 18 4 20 20 22 17 24
REMARK H PARENT 10 19 4 21 20 23 17 25
REMARK Flexibility Score: inf
ROOT
ATOM      1  C   UNL     1      -7.402  -6.029   9.107  1.00  0.00     0.180 A 
ATOM      2  C   UNL     1      -7.614  -7.419   9.142  1.00  0.00     0.208 A 
ATOM      3  C   UNL     1      -7.466  -8.099  10.362  1.00  0.00     0.238 A 
ATOM      4  O   UNL     1      -7.711  -9.333  10.399  1.00  0.00    -0.285 OA
ATOM      5  C   UNL     1      -7.092  -7.385  11.526  1.00  0.00     0.111 A 
ATOM      6  C   UNL     1      -6.875  -7.979  12.805  1.00  0.00     0.134 A 
ATOM      7  C   UNL     1      -6.635  -7.160  13.915  1.00  0.00     0.093 A 
ATOM      8  C   UNL     1      -6.541  -5.773  13.780  1.00  0.00     0.123 A 
ATOM      9  C   UNL     1      -6.692  -5.188  12.524  1.00  0.00     0.094 A 
ATOM     10  C   UNL     1      -6.968  -5.977  11.404  1.00  0.00     0.146 A 
ATOM     11  O   UNL     1      -7.116  -5.378  10.228  1.00  0.00    -0.452 OA
ENDROOT
BRANCH   1  12
ATOM     12  C   UNL     1      -7.515  -5.247   7.855  1.00  0.00     0.021 A 
ATOM     13  C   UNL     1      -6.951  -3.961   7.789  1.00  0.00     0.016 A 
ATOM     14  C   UNL     1      -7.026  -3.214   6.610  1.00  0.00     0.047 A 
ATOM     15  C   UNL     1      -7.651  -3.746   5.478  1.00  0.00     0.115 A 
ATOM     16  C   UNL     1      -8.124  -5.785   6.706  1.00  0.00     0.016 A 
ATOM     17  C   UNL     1      -8.197  -5.036   5.528  1.00  0.00     0.047 A 
BRANCH  15  18
ATOM     18  O   UNL     1      -7.719  -2.991   4.309  1.00  0.00    -0.508 OA
ATOM     19  H   UNL     1      -7.009  -3.063   3.590  1.00  0.00     0.293 HD
ENDBRANCH  15  18
ENDBRANCH   1  12
BRANCH   2  20
ATOM     20  O   UNL     1      -8.005  -8.100   7.987  1.00  0.00    -0.502 OA
ATOM     21  H   UNL     1      -7.488  -8.889   7.619  1.00  0.00     0.293 HD
ENDBRANCH   2  20
BRANCH   6  22
ATOM     22  O   UNL     1      -6.856  -9.358  13.032  1.00  0.00    -0.507 OA
ATOM     23  H   UNL     1      -6.094  -9.972  12.784  1.00  0.00     0.293 HD
ENDBRANCH   6  22
BRANCH   8  24
ATOM     24  O   UNL     1      -6.286  -4.966  14.887  1.00  0.00    -0.508 OA
ATOM     25  H   UNL     1      -6.505  -5.273  15.827  1.00  0.00     0.293 HD
ENDBRANCH   8  24
TORSDOF 5
ENDMDL
MODEL 5
REMARK VINA RESULT:    -6.224     12.082     14.003
REMARK INTER + INTRA:          -7.506
REMARK INTER:                  -7.215
REMARK INTRA:                  -0.291
REMARK UNBOUND:                -0.190
REMARK SMILES O=c1c(O)c(-c2ccc(O)cc2)oc2cc(O)cc(O)c12
REMARK SMILES IDX 5 1 3 2 2 3 1 4 21 5 19 6 18 7 16 8 15 9 14 10 13 11 6 12
REMARK SMILES IDX 7 13 8 14 9 15 12 16 11 17 10 18 4 20 20 22 17 24
REMARK H PARENT 10 19 4 21 20 23 17 25
REMARK Flexibility Score: inf
ROOT
ATOM      1  C   UNL     1      -6.986  -5.711  10.089  1.00  0.00     0.180 A 
ATOM      2  C   UNL     1      -7.020  -7.067   9.716  1.00  0.00     0.208 A 
ATOM      3  C   UNL     1      -7.272  -7.397   8.375  1.00  0.00     0.238 A 
ATOM      4  O   UNL     1      -7.247  -8.609   8.036  1.00  0.00    -0.285 OA
ATOM      5  C   UNL     1      -7.505  -6.370   7.428  1.00  0.00     0.111 A 
ATOM      6  C   UNL     1      -7.810  -6.592   6.052  1.00  0.00     0.134 A 
ATOM      7  C   UNL     1      -7.893  -5.501   5.178  1.00  0.00     0.093 A 
ATOM      8  C   UNL     1      -7.744  -4.193   5.643  1.00  0.00     0.123 A 
ATOM      9  C   UNL     1      -7.504  -3.963   6.997  1.00  0.00     0.094 A 
ATOM     10  C   UNL     1      -7.382  -5.033   7.886  1.00  0.00     0.146 A 
ATOM     11  O   UNL     1      -7.143  -4.770   9.165  1.00  0.00    -0.452 OA
ENDROOT
BRANCH   1  12
ATOM     12  C   UNL     1      -6.750  -5.285  11.487  1.00  0.00     0.021 A 
ATOM     13  C   UNL     1      -5.465  -4.871  11.877  1.00  0.00     0.016 A 
ATOM     14  C   UNL     1      -5.225  -4.444  13.186  1.00  0.00     0.047 A 
ATOM     15  C   UNL     1      -6.267  -4.409  14.117  1.00  0.00     0.115 A 
ATOM     16  C   UNL     1      -7.799  -5.228  12.423  1.00  0.00     0.016 A 
ATOM     17  C   UNL     1      -7.557  -4.799  13.731  1.00  0.00     0.047 A 
BRANCH  15  18
ATOM     18  O   UNL     1      -6.015  -3.980  15.419  1.00  0.00    -0.508 OA
ATOM     19  H   UNL     1      -6.400  -3.114  15.776  1.00  0.00     0.293 HD
ENDBRANCH  15  18
ENDBRANCH   1  12
BRANCH   2  20
ATOM     20  O   UNL     1      -6.765  -8.063  10.662  1.00  0.00    -0.502 OA
ATOM     21  H   UNL     1      -5.845  -8.219  11.054  1.00  0.00     0.293 HD
ENDBRANCH   2  20
BRANCH   6  22
ATOM     22  O   UNL     1      -8.068  -7.852   5.503  1.00  0.00    -0.507 OA
ATOM     23  H   UNL     1      -7.644  -8.713   5.814  1.00  0.00     0.293 HD
ENDBRANCH   6  22
BRANCH   8  24
ATOM     24  O   UNL     1      -7.842  -3.111   4.770  1.00  0.00    -0.508 OA
ATOM     25  H   UNL     1      -7.236  -2.304   4.856  1.00  0.00     0.293 HD
ENDBRANCH   8  24
TORSDOF 5
ENDMDL
MODEL 6
REMARK VINA RESULT:    -6.193      8.323     12.880
REMARK INTER + INTRA:          -7.469
REMARK INTER:                  -7.214
REMARK INTRA:                  -0.255
REMARK UNBOUND:                -0.190
REMARK SMILES O=c1c(O)c(-c2ccc(O)cc2)oc2cc(O)cc(O)c12
REMARK SMILES IDX 5 1 3 2 2 3 1 4 21 5 19 6 18 7 16 8 15 9 14 10 13 11 6 12
REMARK SMILES IDX 7 13 8 14 9 15 12 16 11 17 10 18 4 20 20 22 17 24
REMARK H PARENT 10 19 4 21 20 23 17 25
REMARK Flexibility Score: inf
ROOT
ATOM      1  C   UNL     1      -9.570  -5.476   9.032  1.00  0.00     0.180 A 
ATOM      2  C   UNL     1      -8.763  -5.305  10.170  1.00  0.00     0.208 A 
ATOM      3  C   UNL     1      -9.366  -4.939  11.384  1.00  0.00     0.238 A 
ATOM      4  O   UNL     1      -8.646  -4.841  12.412  1.00  0.00    -0.285 OA
ATOM      5  C   UNL     1     -10.766  -4.732  11.440  1.00  0.00     0.111 A 
ATOM      6  C   UNL     1     -11.477  -4.320  12.607  1.00  0.00     0.134 A 
ATOM      7  C   UNL     1     -12.876  -4.273  12.582  1.00  0.00     0.093 A 
ATOM      8  C   UNL     1     -13.586  -4.560  11.414  1.00  0.00     0.123 A 
ATOM      9  C   UNL     1     -12.897  -4.906  10.253  1.00  0.00     0.094 A 
ATOM     10  C   UNL     1     -11.503  -4.996  10.257  1.00  0.00     0.146 A 
ATOM     11  O   UNL     1     -10.887  -5.339   9.132  1.00  0.00    -0.452 OA
ENDROOT
BRANCH   1  12
ATOM     12  C   UNL     1      -9.004  -5.837   7.712  1.00  0.00     0.021 A 
ATOM     13  C   UNL     1      -8.769  -4.830   6.761  1.00  0.00     0.016 A 
ATOM     14  C   UNL     1      -8.215  -5.146   5.517  1.00  0.00     0.047 A 
ATOM     15  C   UNL     1      -7.875  -6.467   5.213  1.00  0.00     0.115 A 
ATOM     16  C   UNL     1      -8.641  -7.162   7.408  1.00  0.00     0.016 A 
ATOM     17  C   UNL     1      -8.086  -7.475   6.163  1.00  0.00     0.047 A 
BRANCH  15  18
ATOM     18  O   UNL     1      -7.323  -6.768   3.969  1.00  0.00    -0.508 OA
ATOM     19  H   UNL     1      -7.757  -7.438   3.345  1.00  0.00     0.293 HD
ENDBRANCH  15  18
ENDBRANCH   1  12
BRANCH   2  20
ATOM     20  O   UNL     1      -7.386  -5.536  10.098  1.00  0.00    -0.502 OA
ATOM     21  H   UNL     1      -6.729  -4.821   9.812  1.00  0.00     0.293 HD
ENDBRANCH   2  20
BRANCH   6  22
ATOM     22  O   UNL     1     -10.860  -3.923  13.797  1.00  0.00    -0.507 OA
ATOM     23  H   UNL     1     -10.880  -4.448  14.659  1.00  0.00     0.293 HD
ENDBRANCH   6  22
BRANCH   8  24
ATOM     24  O   UNL     1     -14.978  -4.496  11.394  1.00  0.00    -0.508 OA
ATOM     25  H   UNL     1     -15.467  -3.610  11.436  1.00  0.00     0.293 HD
ENDBRANCH   8  24
TORSDOF 5
ENDMDL
MODEL 7
REMARK VINA RESULT:    -6.186      3.717      5.431
REMARK INTER + INTRA:          -7.461
REMARK INTER:                  -7.351
REMARK INTRA:                  -0.110
REMARK UNBOUND:                -0.190
REMARK SMILES O=c1c(O)c(-c2ccc(O)cc2)oc2cc(O)cc(O)c12
REMARK SMILES IDX 5 1 3 2 2 3 1 4 21 5 19 6 18 7 16 8 15 9 14 10 13 11 6 12
REMARK SMILES IDX 7 13 8 14 9 15 12 16 11 17 10 18 4 20 20 22 17 24
REMARK H PARENT 10 19 4 21 20 23 17 25
REMARK Flexibility Score: inf
ROOT
ATOM      1  C   UNL     1     -20.889  -2.295  17.533  1.00  0.00     0.180 A 
ATOM      2  C   UNL     1     -19.691  -2.454  16.815  1.00  0.00     0.208 A 
ATOM      3  C   UNL     1     -19.660  -2.102  15.456  1.00  0.00     0.238 A 
ATOM      4  O   UNL     1     -18.570  -2.195  14.833  1.00  0.00    -0.285 OA
ATOM      5  C   UNL     1     -20.830  -1.613  14.828  1.00  0.00     0.111 A 
ATOM      6  C   UNL     1     -20.924  -1.265  13.448  1.00  0.00     0.134 A 
ATOM      7  C   UNL     1     -22.094  -0.668  12.963  1.00  0.00     0.093 A 
ATOM      8  C   UNL     1     -23.197  -0.466  13.795  1.00  0.00     0.123 A 
ATOM      9  C   UNL     1     -23.137  -0.858  15.131  1.00  0.00     0.094 A 
ATOM     10  C   UNL     1     -21.970  -1.423  15.652  1.00  0.00     0.146 A 
ATOM     11  O   UNL     1     -21.952  -1.772  16.933  1.00  0.00    -0.452 OA
ENDROOT
BRANCH   1  12
ATOM     12  C   UNL     1     -21.007  -2.666  18.962  1.00  0.00     0.021 A 
ATOM     13  C   UNL     1     -21.412  -1.699  19.897  1.00  0.00     0.016 A 
ATOM     14  C   UNL     1     -21.551  -2.034  21.247  1.00  0.00     0.047 A 
ATOM     15  C   UNL     1     -21.303  -3.341  21.677  1.00  0.00     0.115 A 
ATOM     16  C   UNL     1     -20.778  -3.984  19.398  1.00  0.00     0.016 A 
ATOM     17  C   UNL     1     -20.919  -4.317  20.748  1.00  0.00     0.047 A 
BRANCH  15  18
ATOM     18  O   UNL     1     -21.446  -3.661  23.026  1.00  0.00    -0.508 OA
ATOM     19  H   UNL     1     -21.451  -2.945  23.743  1.00  0.00     0.293 HD
ENDBRANCH  15  18
ENDBRANCH   1  12
BRANCH   2  20
ATOM     20  O   UNL     1     -18.541  -2.917  17.460  1.00  0.00    -0.502 OA
ATOM     21  H   UNL     1     -18.064  -3.765  17.179  1.00  0.00     0.293 HD
ENDBRANCH   2  20
BRANCH   6  22
ATOM     22  O   UNL     1     -19.914  -1.508  12.512  1.00  0.00    -0.507 OA
ATOM     23  H   UNL     1     -19.292  -0.805  12.141  1.00  0.00     0.293 HD
ENDBRANCH   6  22
BRANCH   8  24
ATOM     24  O   UNL     1     -24.364   0.114  13.302  1.00  0.00    -0.508 OA
ATOM     25  H   UNL     1     -24.453   1.117  13.197  1.00  0.00     0.293 HD
ENDBRANCH   8  24
TORSDOF 5
ENDMDL
MODEL 8
REMARK VINA RESULT:    -6.146      7.993     11.168
REMARK INTER + INTRA:          -7.413
REMARK INTER:                  -7.124
REMARK INTRA:                  -0.289
REMARK UNBOUND:                -0.190
REMARK SMILES O=c1c(O)c(-c2ccc(O)cc2)oc2cc(O)cc(O)c12
REMARK SMILES IDX 5 1 3 2 2 3 1 4 21 5 19 6 18 7 16 8 15 9 14 10 13 11 6 12
REMARK SMILES IDX 7 13 8 14 9 15 12 16 11 17 10 18 4 20 20 22 17 24
REMARK H PARENT 10 19 4 21 20 23 17 25
REMARK Flexibility Score: inf
ROOT
ATOM      1  C   UNL     1     -11.111  -5.589   9.699  1.00  0.00     0.180 A 
ATOM      2  C   UNL     1     -10.816  -6.942   9.942  1.00  0.00     0.208 A 
ATOM      3  C   UNL     1      -9.955  -7.619   9.064  1.00  0.00     0.238 A 
ATOM      4  O   UNL     1      -9.652  -8.815   9.318  1.00  0.00    -0.285 OA
ATOM      5  C   UNL     1      -9.414  -6.941   7.946  1.00  0.00     0.111 A 
ATOM      6  C   UNL     1      -8.564  -7.541   6.969  1.00  0.00     0.134 A 
ATOM      7  C   UNL     1      -7.982  -6.743   5.976  1.00  0.00     0.093 A 
ATOM      8  C   UNL     1      -8.271  -5.379   5.887  1.00  0.00     0.123 A 
ATOM      9  C   UNL     1      -9.147  -4.797   6.800  1.00  0.00     0.094 A 
ATOM     10  C   UNL     1      -9.715  -5.560   7.823  1.00  0.00     0.146 A 
ATOM     11  O   UNL     1     -10.536  -4.963   8.679  1.00  0.00    -0.452 OA
ENDROOT
BRANCH   1  12
ATOM     12  C   UNL     1     -12.028  -4.814  10.566  1.00  0.00     0.021 A 
ATOM     13  C   UNL     1     -11.497  -3.959  11.547  1.00  0.00     0.016 A 
ATOM     14  C   UNL     1     -12.345  -3.202  12.360  1.00  0.00     0.047 A 
ATOM     15  C   UNL     1     -13.731  -3.277  12.195  1.00  0.00     0.115 A 
ATOM     16  C   UNL     1     -13.424  -4.870  10.391  1.00  0.00     0.016 A 
ATOM     17  C   UNL     1     -14.269  -4.111  11.206  1.00  0.00     0.047 A 
BRANCH  15  18
ATOM     18  O   UNL     1     -14.565  -2.516  13.013  1.00  0.00    -0.508 OA
ATOM     19  H   UNL     1     -15.316  -1.956  12.629  1.00  0.00     0.293 HD
ENDBRANCH  15  18
ENDBRANCH   1  12
BRANCH   2  20
ATOM     20  O   UNL     1     -11.343  -7.585  11.066  1.00  0.00    -0.502 OA
ATOM     21  H   UNL     1     -10.926  -8.419  11.461  1.00  0.00     0.293 HD
ENDBRANCH   2  20
BRANCH   6  22
ATOM     22  O   UNL     1      -8.284  -8.910   6.913  1.00  0.00    -0.507 OA
ATOM     23  H   UNL     1      -7.390  -9.304   6.662  1.00  0.00     0.293 HD
ENDBRANCH   6  22
BRANCH   8  24
ATOM     24  O   UNL     1      -7.700  -4.595   4.887  1.00  0.00    -0.508 OA
ATOM     25  H   UNL     1      -7.399  -4.997   4.007  1.00  0.00     0.293 HD
ENDBRANCH   8  24
TORSDOF 5
ENDMDL
MODEL 9
REMARK VINA RESULT:    -6.138      3.676      4.946
REMARK INTER + INTRA:          -7.404
REMARK INTER:                  -7.234
REMARK INTRA:                  -0.171
REMARK UNBOUND:                -0.190
REMARK SMILES O=c1c(O)c(-c2ccc(O)cc2)oc2cc(O)cc(O)c12
REMARK SMILES IDX 5 1 3 2 2 3 1 4 21 5 19 6 18 7 16 8 15 9 14 10 13 11 6 12
REMARK SMILES IDX 7 13 8 14 9 15 12 16 11 17 10 18 4 20 20 22 17 24
REMARK H PARENT 10 19 4 21 20 23 17 25
REMARK Flexibility Score: inf
ROOT
ATOM      1  C   UNL     1     -21.206  -2.163  17.585  1.00  0.00     0.180 A 
ATOM      2  C   UNL     1     -22.344  -1.817  16.836  1.00  0.00     0.208 A 
ATOM      3  C   UNL     1     -22.190  -1.473  15.483  1.00  0.00     0.238 A 
ATOM      4  O   UNL     1     -23.218  -1.217  14.803  1.00  0.00    -0.285 OA
ATOM      5  C   UNL     1     -20.899  -1.461  14.902  1.00  0.00     0.111 A 
ATOM      6  C   UNL     1     -20.622  -1.088  13.553  1.00  0.00     0.134 A 
ATOM      7  C   UNL     1     -19.325  -1.239  13.047  1.00  0.00     0.093 A 
ATOM      8  C   UNL     1     -18.282  -1.688  13.861  1.00  0.00     0.123 A 
ATOM      9  C   UNL     1     -18.531  -1.997  15.197  1.00  0.00     0.094 A 
ATOM     10  C   UNL     1     -19.822  -1.891  15.720  1.00  0.00     0.146 A 
ATOM     11  O   UNL     1     -20.017  -2.206  16.994  1.00  0.00    -0.452 OA
ENDROOT
BRANCH   1  12
ATOM     12  C   UNL     1     -21.285  -2.514  19.021  1.00  0.00     0.021 A 
ATOM     13  C   UNL     1     -20.914  -3.804  19.440  1.00  0.00     0.016 A 
ATOM     14  C   UNL     1     -20.960  -4.149  20.794  1.00  0.00     0.047 A 
ATOM     15  C   UNL     1     -21.361  -3.209  21.747  1.00  0.00     0.115 A 
ATOM     16  C   UNL     1     -21.669  -1.566  19.988  1.00  0.00     0.016 A 
ATOM     17  C   UNL     1     -21.713  -1.914  21.341  1.00  0.00     0.047 A 
BRANCH  15  18
ATOM     18  O   UNL     1     -21.402  -3.566  23.093  1.00  0.00    -0.508 OA
ATOM     19  H   UNL     1     -20.772  -3.154  23.770  1.00  0.00     0.293 HD
ENDBRANCH  15  18
ENDBRANCH   1  12
BRANCH   2  20
ATOM     20  O   UNL     1     -23.612  -1.857  17.423  1.00  0.00    -0.502 OA
ATOM     21  H   UNL     1     -24.246  -1.069  17.402  1.00  0.00     0.293 HD
ENDBRANCH   2  20
BRANCH   6  22
ATOM     22  O   UNL     1     -21.571  -0.543  12.683  1.00  0.00    -0.507 OA
ATOM     23  H   UNL     1     -21.630  -0.746  11.696  1.00  0.00     0.293 HD
ENDBRANCH   6  22
BRANCH   8  24
ATOM     24  O   UNL     1     -16.990  -1.820  13.355  1.00  0.00    -0.508 OA
ATOM     25  H   UNL     1     -16.662  -2.695  12.963  1.00  0.00     0.293 HD
ENDBRANCH   8  24
TORSDOF 5
ENDMDL
