MODEL 1
REMARK VINA RESULT:    -4.219      0.000      0.000
REMARK INTER + INTRA:          -7.515
REMARK INTER:                  -6.686
REMARK INTRA:                  -0.829
REMARK UNBOUND:                -0.829
REMARK SMILES CCCCCCCCCCCC(=O)[O-]
REMARK SMILES IDX 7 1 8 2 9 3 10 4 11 5 12 6 13 7 14 8 6 9 5 10 4 11 3 12 2 13
REMARK SMILES IDX 1 14
REMARK H PARENT
REMARK Flexibility Score: inf
ROOT
ATOM      1  C   UNL     1       2.403   2.106  -4.585  1.00  0.00     0.000 C 
ENDROOT
BRANCH   1   2
ATOM      2  C   UNL     1       1.353   2.120  -5.715  1.00  0.00     0.000 C 
BRANCH   2   3
ATOM      3  C   UNL     1       0.048   1.365  -5.406  1.00  0.00     0.000 C 
BRANCH   3   4
ATOM      4  C   UNL     1       0.120   0.561  -4.100  1.00  0.00     0.006 C 
BRANCH   4   5
ATOM      5  C   UNL     1      -0.234  -0.909  -4.341  1.00  0.00     0.053 C 
BRANCH   5   6
ATOM      6  C   UNL     1       0.928  -1.637  -4.937  1.00  0.00     0.041 C 
ATOM      7  O   UNL     1       0.964  -1.871  -6.174  1.00  0.00    -0.550 OA
ATOM      8  O   UNL     1       1.996  -2.017  -4.134  1.00  0.00    -0.550 OA
ENDBRANCH   5   6
ENDBRANCH   4   5
ENDBRANCH   3   4
ENDBRANCH   2   3
ENDBRANCH   1   2
BRANCH   1   9
ATOM      9  C   UNL     1       3.799   2.625  -4.975  1.00  0.00     0.000 C 
BRANCH   9  10
ATOM     10  C   UNL     1       4.699   2.895  -3.758  1.00  0.00    -0.000 C 
BRANCH  10  11
ATOM     11  C   UNL     1       5.882   1.916  -3.657  1.00  0.00    -0.000 C 
BRANCH  11  12
ATOM     12  C   UNL     1       5.676   0.736  -2.690  1.00  0.00    -0.000 C 
BRANCH  12  13
ATOM     13  C   UNL     1       4.967  -0.459  -3.344  1.00  0.00    -0.003 C 
ATOM     14  C   UNL     1       5.652  -0.860  -4.647  1.00  0.00     0.004 C 
ENDBRANCH  12  13
ENDBRANCH  11  12
ENDBRANCH  10  11
ENDBRANCH   9  10
ENDBRANCH   1   9
TORSDOF 10
ENDMDL
MODEL 2
REMARK VINA RESULT:    -4.169      0.907      1.417
REMARK INTER + INTRA:          -7.436
REMARK INTER:                  -6.323
REMARK INTRA:                  -1.113
REMARK UNBOUND:                -0.829
REMARK SMILES CCCCCCCCCCCC(=O)[O-]
REMARK SMILES IDX 7 1 8 2 9 3 10 4 11 5 12 6 13 7 14 8 6 9 5 10 4 11 3 12 2 13
REMARK SMILES IDX 1 14
REMARK H PARENT
REMARK Flexibility Score: inf
ROOT
ATOM      1  C   UNL     1       2.971   3.109  -3.865  1.00  0.00     0.000 C 
ENDROOT
BRANCH   1   2
ATOM      2  C   UNL     1       2.546   2.562  -5.243  1.00  0.00     0.000 C 
BRANCH   2   3
ATOM      3  C   UNL     1       1.986   1.128  -5.234  1.00  0.00     0.000 C 
BRANCH   3   4
ATOM      4  C   UNL     1       0.842   0.941  -4.227  1.00  0.00     0.006 C 
BRANCH   4   5
ATOM      5  C   UNL     1      -0.074  -0.212  -4.647  1.00  0.00     0.053 C 
BRANCH   5   6
ATOM      6  C   UNL     1       0.669  -1.510  -4.617  1.00  0.00     0.041 C 
ATOM      7  O   UNL     1       0.906  -2.080  -3.520  1.00  0.00    -0.550 OA
ATOM      8  O   UNL     1       1.058  -2.116  -5.805  1.00  0.00    -0.550 OA
ENDBRANCH   5   6
ENDBRANCH   4   5
ENDBRANCH   3   4
ENDBRANCH   2   3
ENDBRANCH   1   2
BRANCH   1   9
ATOM      9  C   UNL     1       4.434   3.578  -3.765  1.00  0.00     0.000 C 
BRANCH   9  10
ATOM     10  C   UNL     1       5.409   2.665  -4.527  1.00  0.00    -0.000 C 
BRANCH  10  11
ATOM     11  C   UNL     1       6.294   1.820  -3.594  1.00  0.00    -0.000 C 
BRANCH  11  12
ATOM     12  C   UNL     1       5.618   0.569  -3.004  1.00  0.00    -0.000 C 
BRANCH  12  13
ATOM     13  C   UNL     1       5.294  -0.494  -4.063  1.00  0.00    -0.003 C 
ATOM     14  C   UNL     1       4.337  -1.547  -3.510  1.00  0.00     0.004 C 
ENDBRANCH  12  13
ENDBRANCH  11  12
ENDBRANCH  10  11
ENDBRANCH   9  10
ENDBRANCH   1   9
TORSDOF 10
ENDMDL
MODEL 3
REMARK VINA RESULT:    -4.089      1.740      3.698
REMARK INTER + INTRA:          -7.309
REMARK INTER:                  -6.184
REMARK INTRA:                  -1.124
REMARK UNBOUND:                -0.829
REMARK SMILES CCCCCCCCCCCC(=O)[O-]
REMARK SMILES IDX 7 1 8 2 9 3 10 4 11 5 12 6 13 7 14 8 6 9 5 10 4 11 3 12 2 13
REMARK SMILES IDX 1 14
REMARK H PARENT
REMARK Flexibility Score: inf
ROOT
ATOM      1  C   UNL     1       5.396   0.007  -3.068  1.00  0.00     0.000 C 
ENDROOT
BRANCH   1   2
ATOM      2  C   UNL     1       4.732  -0.400  -4.400  1.00  0.00     0.000 C 
BRANCH   2   3
ATOM      3  C   UNL     1       3.193  -0.398  -4.391  1.00  0.00     0.000 C 
BRANCH   3   4
ATOM      4  C   UNL     1       2.594   0.794  -5.150  1.00  0.00     0.006 C 
BRANCH   4   5
ATOM      5  C   UNL     1       1.250   1.210  -4.545  1.00  0.00     0.053 C 
BRANCH   5   6
ATOM      6  C   UNL     1       0.282   0.071  -4.586  1.00  0.00     0.041 C 
ATOM      7  O   UNL     1       0.007  -0.489  -5.680  1.00  0.00    -0.550 OA
ATOM      8  O   UNL     1      -0.281  -0.406  -3.409  1.00  0.00    -0.550 OA
ENDBRANCH   5   6
ENDBRANCH   4   5
ENDBRANCH   3   4
ENDBRANCH   2   3
ENDBRANCH   1   2
BRANCH   1   9
ATOM      9  C   UNL     1       5.765   1.497  -2.945  1.00  0.00     0.000 C 
BRANCH   9  10
ATOM     10  C   UNL     1       6.141   2.134  -4.292  1.00  0.00    -0.000 C 
BRANCH  10  11
ATOM     11  C   UNL     1       5.265   3.349  -4.647  1.00  0.00    -0.000 C 
BRANCH  11  12
ATOM     12  C   UNL     1       4.150   3.671  -3.635  1.00  0.00    -0.000 C 
BRANCH  12  13
ATOM     13  C   UNL     1       3.444   5.004  -3.922  1.00  0.00    -0.003 C 
ATOM     14  C   UNL     1       4.179   6.168  -3.262  1.00  0.00     0.004 C 
ENDBRANCH  12  13
ENDBRANCH  11  12
ENDBRANCH  10  11
ENDBRANCH   9  10
ENDBRANCH   1   9
TORSDOF 10
ENDMDL
MODEL 4
REMARK VINA RESULT:    -3.995      1.266      1.844
REMARK INTER + INTRA:          -7.160
REMARK INTER:                  -6.014
REMARK INTRA:                  -1.145
REMARK UNBOUND:                -0.829
REMARK SMILES CCCCCCCCCCCC(=O)[O-]
REMARK SMILES IDX 7 1 8 2 9 3 10 4 11 5 12 6 13 7 14 8 6 9 5 10 4 11 3 12 2 13
REMARK SMILES IDX 1 14
REMARK H PARENT
REMARK Flexibility Score: inf
ROOT
ATOM      1  C   UNL     1       1.546   2.423  -5.728  1.00  0.00     0.000 C 
ENDROOT
BRANCH   1   2
ATOM      2  C   UNL     1       1.485   1.350  -6.835  1.00  0.00     0.000 C 
BRANCH   2   3
ATOM      3  C   UNL     1       2.115  -0.005  -6.468  1.00  0.00     0.000 C 
BRANCH   3   4
ATOM      4  C   UNL     1       1.080  -1.135  -6.365  1.00  0.00     0.006 C 
BRANCH   4   5
ATOM      5  C   UNL     1       0.409  -1.139  -4.989  1.00  0.00     0.053 C 
BRANCH   5   6
ATOM      6  C   UNL     1       0.877  -2.307  -4.180  1.00  0.00     0.041 C 
ATOM      7  O   UNL     1       0.585  -2.390  -2.958  1.00  0.00    -0.550 OA
ATOM      8  O   UNL     1       1.595  -3.330  -4.786  1.00  0.00    -0.550 OA
ENDBRANCH   5   6
ENDBRANCH   4   5
ENDBRANCH   3   4
ENDBRANCH   2   3
ENDBRANCH   1   2
BRANCH   1   9
ATOM      9  C   UNL     1       2.370   2.040  -4.484  1.00  0.00     0.000 C 
BRANCH   9  10
ATOM     10  C   UNL     1       3.375   3.128  -4.073  1.00  0.00    -0.000 C 
BRANCH  10  11
ATOM     11  C   UNL     1       4.769   2.565  -3.743  1.00  0.00    -0.000 C 
BRANCH  11  12
ATOM     12  C   UNL     1       5.077   1.182  -4.347  1.00  0.00    -0.000 C 
BRANCH  12  13
ATOM     13  C   UNL     1       5.280   0.094  -3.284  1.00  0.00    -0.003 C 
ATOM     14  C   UNL     1       4.477  -1.160  -3.620  1.00  0.00     0.004 C 
ENDBRANCH  12  13
ENDBRANCH  11  12
ENDBRANCH  10  11
ENDBRANCH   9  10
ENDBRANCH   1   9
TORSDOF 10
ENDMDL
MODEL 5
REMARK VINA RESULT:    -3.989      1.708      4.603
REMARK INTER + INTRA:          -7.150
REMARK INTER:                  -6.140
REMARK INTRA:                  -1.010
REMARK UNBOUND:                -0.829
REMARK SMILES CCCCCCCCCCCC(=O)[O-]
REMARK SMILES IDX 7 1 8 2 9 3 10 4 11 5 12 6 13 7 14 8 6 9 5 10 4 11 3 12 2 13
REMARK SMILES IDX 1 14
REMARK H PARENT
REMARK Flexibility Score: inf
ROOT
ATOM      1  C   UNL     1       3.165   3.056  -4.045  1.00  0.00     0.000 C 
ENDROOT
BRANCH   1   2
ATOM      2  C   UNL     1       4.655   3.393  -3.828  1.00  0.00     0.000 C 
BRANCH   2   3
ATOM      3  C   UNL     1       5.636   2.247  -4.134  1.00  0.00     0.000 C 
BRANCH   3   4
ATOM      4  C   UNL     1       5.767   1.248  -2.975  1.00  0.00     0.006 C 
BRANCH   4   5
ATOM      5  C   UNL     1       4.983  -0.035  -3.266  1.00  0.00     0.053 C 
BRANCH   5   6
ATOM      6  C   UNL     1       5.433  -0.642  -4.557  1.00  0.00     0.041 C 
ATOM      7  O   UNL     1       6.563  -1.191  -4.640  1.00  0.00    -0.550 OA
ATOM      8  O   UNL     1       4.584  -0.647  -5.656  1.00  0.00    -0.550 OA
ENDBRANCH   5   6
ENDBRANCH   4   5
ENDBRANCH   3   4
ENDBRANCH   2   3
ENDBRANCH   1   2
BRANCH   1   9
ATOM      9  C   UNL     1       2.736   2.885  -5.514  1.00  0.00     0.000 C 
BRANCH   9  10
ATOM     10  C   UNL     1       1.787   1.694  -5.725  1.00  0.00    -0.000 C 
BRANCH  10  11
ATOM     11  C   UNL     1       1.407   0.989  -4.411  1.00  0.00    -0.000 C 
BRANCH  11  12
ATOM     12  C   UNL     1       0.171   0.073  -4.491  1.00  0.00    -0.000 C 
BRANCH  12  13
ATOM     13  C   UNL     1       0.450  -1.249  -5.220  1.00  0.00    -0.003 C 
ATOM     14  C   UNL     1       1.316  -2.174  -4.370  1.00  0.00     0.004 C 
ENDBRANCH  12  13
ENDBRANCH  11  12
ENDBRANCH  10  11
ENDBRANCH   9  10
ENDBRANCH   1   9
TORSDOF 10
ENDMDL
MODEL 6
REMARK VINA RESULT:    -3.975      1.569      3.215
REMARK INTER + INTRA:          -7.128
REMARK INTER:                  -5.991
REMARK INTRA:                  -1.137
REMARK UNBOUND:                -0.829
REMARK SMILES CCCCCCCCCCCC(=O)[O-]
REMARK SMILES IDX 7 1 8 2 9 3 10 4 11 5 12 6 13 7 14 8 6 9 5 10 4 11 3 12 2 13
REMARK SMILES IDX 1 14
REMARK H PARENT
REMARK Flexibility Score: inf
ROOT
ATOM      1  C   UNL     1       3.320   1.403  -5.603  1.00  0.00     0.000 C 
ENDROOT
BRANCH   1   2
ATOM      2  C   UNL     1       1.827   1.790  -5.568  1.00  0.00     0.000 C 
BRANCH   2   3
ATOM      3  C   UNL     1       1.063   1.337  -4.311  1.00  0.00     0.000 C 
BRANCH   3   4
ATOM      4  C   UNL     1      -0.194   0.518  -4.640  1.00  0.00     0.006 C 
BRANCH   4   5
ATOM      5  C   UNL     1      -0.061  -0.920  -4.132  1.00  0.00     0.053 C 
BRANCH   5   6
ATOM      6  C   UNL     1       1.069  -1.617  -4.820  1.00  0.00     0.041 C 
ATOM      7  O   UNL     1       2.044  -2.056  -4.155  1.00  0.00    -0.550 OA
ATOM      8  O   UNL     1       1.024  -1.826  -6.193  1.00  0.00    -0.550 OA
ENDBRANCH   5   6
ENDBRANCH   4   5
ENDBRANCH   3   4
ENDBRANCH   2   3
ENDBRANCH   1   2
BRANCH   1   9
ATOM      9  C   UNL     1       4.074   1.566  -4.271  1.00  0.00     0.000 C 
BRANCH   9  10
ATOM     10  C   UNL     1       4.660   2.975  -4.083  1.00  0.00    -0.000 C 
BRANCH  10  11
ATOM     11  C   UNL     1       3.713   3.923  -3.324  1.00  0.00    -0.000 C 
BRANCH  11  12
ATOM     12  C   UNL     1       3.673   5.369  -3.849  1.00  0.00    -0.000 C 
BRANCH  12  13
ATOM     13  C   UNL     1       3.878   5.462  -5.368  1.00  0.00    -0.003 C 
ATOM     14  C   UNL     1       2.545   5.395  -6.109  1.00  0.00     0.004 C 
ENDBRANCH  12  13
ENDBRANCH  11  12
ENDBRANCH  10  11
ENDBRANCH   9  10
ENDBRANCH   1   9
TORSDOF 10
ENDMDL
MODEL 7
REMARK VINA RESULT:    -3.898      1.532      2.956
REMARK INTER + INTRA:          -7.006
REMARK INTER:                  -5.904
REMARK INTRA:                  -1.102
REMARK UNBOUND:                -0.829
REMARK SMILES CCCCCCCCCCCC(=O)[O-]
REMARK SMILES IDX 7 1 8 2 9 3 10 4 11 5 12 6 13 7 14 8 6 9 5 10 4 11 3 12 2 13
REMARK SMILES IDX 1 14
REMARK H PARENT
REMARK Flexibility Score: inf
ROOT
ATOM      1  C   UNL     1       3.905  -0.234  -4.238  1.00  0.00     0.000 C 
ENDROOT
BRANCH   1   2
ATOM      2  C   UNL     1       3.724   0.192  -5.709  1.00  0.00     0.000 C 
BRANCH   2   3
ATOM      3  C   UNL     1       2.324   0.719  -6.072  1.00  0.00     0.000 C 
BRANCH   3   4
ATOM      4  C   UNL     1       1.372   0.756  -4.867  1.00  0.00     0.006 C 
BRANCH   4   5
ATOM      5  C   UNL     1       0.229  -0.248  -5.041  1.00  0.00     0.053 C 
BRANCH   5   6
ATOM      6  C   UNL     1       0.158  -1.169  -3.865  1.00  0.00     0.041 C 
ATOM      7  O   UNL     1      -0.694  -0.976  -2.958  1.00  0.00    -0.550 OA
ATOM      8  O   UNL     1       1.000  -2.272  -3.792  1.00  0.00    -0.550 OA
ENDBRANCH   5   6
ENDBRANCH   4   5
ENDBRANCH   3   4
ENDBRANCH   2   3
ENDBRANCH   1   2
BRANCH   1   9
ATOM      9  C   UNL     1       5.357  -0.242  -3.727  1.00  0.00     0.000 C 
BRANCH   9  10
ATOM     10  C   UNL     1       5.754   1.070  -3.031  1.00  0.00    -0.000 C 
BRANCH  10  11
ATOM     11  C   UNL     1       6.407   2.083  -3.988  1.00  0.00    -0.000 C 
BRANCH  11  12
ATOM     12  C   UNL     1       5.462   3.167  -4.540  1.00  0.00    -0.000 C 
BRANCH  12  13
ATOM     13  C   UNL     1       4.187   3.336  -3.700  1.00  0.00    -0.003 C 
ATOM     14  C   UNL     1       3.748   4.797  -3.656  1.00  0.00     0.004 C 
ENDBRANCH  12  13
ENDBRANCH  11  12
ENDBRANCH  10  11
ENDBRANCH   9  10
ENDBRANCH   1   9
TORSDOF 10
ENDMDL
MODEL 8
REMARK VINA RESULT:    -3.757      3.522      5.883
REMARK INTER + INTRA:          -6.782
REMARK INTER:                  -5.728
REMARK INTRA:                  -1.054
REMARK UNBOUND:                -0.829
REMARK SMILES CCCCCCCCCCCC(=O)[O-]
REMARK SMILES IDX 7 1 8 2 9 3 10 4 11 5 12 6 13 7 14 8 6 9 5 10 4 11 3 12 2 13
REMARK SMILES IDX 1 14
REMARK H PARENT
REMARK Flexibility Score: inf
ROOT
ATOM      1  C   UNL     1       5.345   0.147  -3.001  1.00  0.00     0.000 C 
ENDROOT
BRANCH   1   2
ATOM      2  C   UNL     1       5.857   1.601  -3.068  1.00  0.00     0.000 C 
BRANCH   2   3
ATOM      3  C   UNL     1       5.121   2.508  -4.071  1.00  0.00     0.000 C 
BRANCH   3   4
ATOM      4  C   UNL     1       4.013   3.345  -3.415  1.00  0.00     0.006 C 
BRANCH   4   5
ATOM      5  C   UNL     1       3.459   4.384  -4.393  1.00  0.00     0.053 C 
BRANCH   5   6
ATOM      6  C   UNL     1       3.450   5.742  -3.767  1.00  0.00     0.041 C 
ATOM      7  O   UNL     1       4.503   6.215  -3.262  1.00  0.00    -0.550 OA
ATOM      8  O   UNL     1       2.292   6.509  -3.784  1.00  0.00    -0.550 OA
ENDBRANCH   5   6
ENDBRANCH   4   5
ENDBRANCH   3   4
ENDBRANCH   2   3
ENDBRANCH   1   2
BRANCH   1   9
ATOM      9  C   UNL     1       4.705  -0.386  -4.296  1.00  0.00     0.000 C 
BRANCH   9  10
ATOM     10  C   UNL     1       3.561  -1.380  -4.033  1.00  0.00    -0.000 C 
BRANCH  10  11
ATOM     11  C   UNL     1       2.195  -0.867  -4.523  1.00  0.00    -0.000 C 
BRANCH  11  12
ATOM     12  C   UNL     1       2.191   0.576  -5.061  1.00  0.00    -0.000 C 
BRANCH  12  13
ATOM     13  C   UNL     1       0.903   1.340  -4.722  1.00  0.00    -0.003 C 
ATOM     14  C   UNL     1      -0.098   0.439  -4.005  1.00  0.00     0.004 C 
ENDBRANCH  12  13
ENDBRANCH  11  12
ENDBRANCH  10  11
ENDBRANCH   9  10
ENDBRANCH   1   9
TORSDOF 10
ENDMDL
MODEL 9
REMARK VINA RESULT:    -3.717      2.867      4.948
REMARK INTER + INTRA:          -6.720
REMARK INTER:                  -5.481
REMARK INTRA:                  -1.238
REMARK UNBOUND:                -0.829
REMARK SMILES CCCCCCCCCCCC(=O)[O-]
REMARK SMILES IDX 7 1 8 2 9 3 10 4 11 5 12 6 13 7 14 8 6 9 5 10 4 11 3 12 2 13
REMARK SMILES IDX 1 14
REMARK H PARENT
REMARK Flexibility Score: inf
ROOT
ATOM      1  C   UNL     1       8.117   3.417  -4.700  1.00  0.00     0.000 C 
ENDROOT
BRANCH   1   2
ATOM      2  C   UNL     1       7.019   2.342  -4.834  1.00  0.00     0.000 C 
BRANCH   2   3
ATOM      3  C   UNL     1       6.299   1.975  -3.524  1.00  0.00     0.000 C 
BRANCH   3   4
ATOM      4  C   UNL     1       5.020   1.158  -3.756  1.00  0.00     0.006 C 
BRANCH   4   5
ATOM      5  C   UNL     1       5.070  -0.168  -2.992  1.00  0.00     0.053 C 
BRANCH   5   6
ATOM      6  C   UNL     1       4.623  -1.295  -3.867  1.00  0.00     0.041 C 
ATOM      7  O   UNL     1       3.436  -1.712  -3.808  1.00  0.00    -0.550 OA
ATOM      8  O   UNL     1       5.503  -1.855  -4.784  1.00  0.00    -0.550 OA
ENDBRANCH   5   6
ENDBRANCH   4   5
ENDBRANCH   3   4
ENDBRANCH   2   3
ENDBRANCH   1   2
BRANCH   1   9
ATOM      9  C   UNL     1       7.639   4.871  -4.860  1.00  0.00     0.000 C 
BRANCH   9  10
ATOM     10  C   UNL     1       6.693   5.062  -6.057  1.00  0.00    -0.000 C 
BRANCH  10  11
ATOM     11  C   UNL     1       5.292   5.548  -5.643  1.00  0.00    -0.000 C 
BRANCH  11  12
ATOM     12  C   UNL     1       5.056   5.654  -4.126  1.00  0.00    -0.000 C 
BRANCH  12  13
ATOM     13  C   UNL     1       3.850   4.833  -3.646  1.00  0.00    -0.003 C 
ATOM     14  C   UNL     1       3.181   4.108  -4.810  1.00  0.00     0.004 C 
ENDBRANCH  12  13
ENDBRANCH  11  12
ENDBRANCH  10  11
ENDBRANCH   9  10
ENDBRANCH   1   9
TORSDOF 10
ENDMDL
