MODEL 1
REMARK VINA RESULT:    -3.914      0.000      0.000
REMARK INTER + INTRA:          -3.604
REMARK INTER:                  -4.257
REMARK INTRA:                   0.653
REMARK UNBOUND:                 0.653
REMARK SMILES C[C@@H]1[C@H]2C3=CC[C@H]4[C@]5(C)CC[C@H](O)C(C)(C)[C@@H]5CC[C@@]4(C)[C@]3(C)CC[C@]2(C(=O)[O-])CC[C@@H]1C
REMARK SMILES IDX 26 1 30 2 25 3 3 4 31 5 24 6 4 7 2 8 32 9 22 10 5 11 1 12
REMARK SMILES IDX 33 13 23 14 20 15 6 16 7 17 19 18 21 19 8 20 18 21 17 22
REMARK SMILES IDX 10 23 9 24 14 25 11 26 12 27 15 28 16 29 27 30 28 31 29 32
REMARK SMILES IDX 13 33
REMARK H PARENT 13 34
REMARK Flexibility Score: inf
ROOT
ATOM      1  C   UNL     1      -4.081 -18.194  34.613  1.00  0.00     0.017 C 
ATOM      2  C   UNL     1      -3.202 -17.245  33.764  1.00  0.00     0.014 C 
ATOM      3  C   UNL     1      -5.332 -18.710  33.852  1.00  0.00     0.014 C 
ATOM      4  C   UNL     1      -3.205 -19.479  34.872  1.00  0.00     0.030 C 
ATOM      5  C   UNL     1      -1.898 -16.875  34.521  1.00  0.00     0.004 C 
ATOM      6  C   UNL     1      -6.198 -19.645  34.752  1.00  0.00     0.013 C 
ATOM      7  C   UNL     1      -4.009 -20.785  35.094  1.00  0.00    -0.063 C 
ATOM      8  C   UNL     1      -1.969 -19.195  35.755  1.00  0.00    -0.003 C 
ATOM      9  C   UNL     1      -1.081 -18.091  35.084  1.00  0.00    -0.011 C 
ATOM     10  C   UNL     1      -5.425 -20.712  35.647  1.00  0.00    -0.006 C 
ATOM     11  C   UNL     1      -3.590 -21.855  34.390  1.00  0.00    -0.027 C 
ATOM     12  C   UNL     1      -1.182 -20.480  36.085  1.00  0.00     0.008 C 
ATOM     13  C   UNL     1      -0.139 -18.642  33.991  1.00  0.00     0.008 C 
ATOM     14  C   UNL     1      -5.297 -20.211  37.124  1.00  0.00     0.017 C 
ATOM     15  C   UNL     1      -6.199 -22.147  35.671  1.00  0.00    -0.020 C 
ATOM     16  C   UNL     1      -4.400 -23.055  34.082  1.00  0.00     0.032 C 
ATOM     17  C   UNL     1      -5.938 -22.984  34.360  1.00  0.00     0.006 C 
ATOM     18  C   UNL     1      -5.687 -23.017  36.854  1.00  0.00     0.008 C 
ATOM     19  C   UNL     1      -7.724 -21.854  35.879  1.00  0.00     0.012 C 
ATOM     20  C   UNL     1      -6.555 -24.486  34.309  1.00  0.00    -0.025 C 
ATOM     21  C   UNL     1      -6.245 -24.444  36.902  1.00  0.00     0.005 C 
ATOM     22  C   UNL     1      -6.115 -25.289  35.602  1.00  0.00     0.003 C 
ATOM     23  C   UNL     1      -8.120 -24.555  34.111  1.00  0.00     0.010 C 
ATOM     24  C   UNL     1      -5.971 -25.128  33.004  1.00  0.00     0.012 C 
ATOM     25  C   UNL     1      -6.807 -26.721  35.781  1.00  0.00    -0.006 C 
ATOM     26  C   UNL     1      -8.939 -25.237  35.224  1.00  0.00     0.033 C 
ATOM     27  C   UNL     1      -8.396 -26.606  35.713  1.00  0.00     0.120 C 
ATOM     28  C   UNL     1      -6.314 -27.709  34.672  1.00  0.00     0.014 C 
ATOM     29  C   UNL     1      -6.333 -27.373  37.123  1.00  0.00     0.014 C 
ENDROOT
BRANCH   1  30
ATOM     30  C   UNL     1      -4.570 -17.351  35.799  1.00  0.00     0.048 C 
ATOM     31  O   UNL     1      -5.738 -16.875  35.838  1.00  0.00    -0.550 OA
ATOM     32  O   UNL     1      -3.787 -17.226  36.941  1.00  0.00    -0.550 OA
ENDBRANCH   1  30
BRANCH  27  33
ATOM     33  O   UNL     1      -8.980 -26.891  36.967  1.00  0.00    -0.393 OA
ATOM     34  H   UNL     1      -8.816 -26.106  37.564  1.00  0.00     0.210 HD
ENDBRANCH  27  33
TORSDOF 2
ENDMDL
MODEL 2
REMARK VINA RESULT:    -1.916      2.231      7.838
REMARK INTER + INTRA:          -1.430
REMARK INTER:                  -1.795
REMARK INTRA:                   0.365
REMARK UNBOUND:                 0.653
REMARK SMILES C[C@@H]1[C@H]2C3=CC[C@H]4[C@]5(C)CC[C@H](O)C(C)(C)[C@@H]5CC[C@@]4(C)[C@]3(C)CC[C@]2(C(=O)[O-])CC[C@@H]1C
REMARK SMILES IDX 26 1 30 2 25 3 3 4 31 5 24 6 4 7 2 8 32 9 22 10 5 11 1 12
REMARK SMILES IDX 33 13 23 14 20 15 6 16 7 17 19 18 21 19 8 20 18 21 17 22
REMARK SMILES IDX 10 23 9 24 14 25 11 26 12 27 15 28 16 29 27 30 28 31 29 32
REMARK SMILES IDX 13 33
REMARK H PARENT 13 34
REMARK Flexibility Score: inf
ROOT
ATOM      1  C   UNL     1      -6.884 -21.792  35.872  1.00  0.00     0.017 C 
ATOM      2  C   UNL     1      -7.834 -22.895  36.395  1.00  0.00     0.014 C 
ATOM      3  C   UNL     1      -6.153 -21.027  37.008  1.00  0.00     0.014 C 
ATOM      4  C   UNL     1      -5.741 -22.542  35.088  1.00  0.00     0.030 C 
ATOM      5  C   UNL     1      -8.427 -23.717  35.219  1.00  0.00     0.004 C 
ATOM      6  C   UNL     1      -5.223 -19.913  36.435  1.00  0.00     0.013 C 
ATOM      7  C   UNL     1      -4.382 -21.799  35.043  1.00  0.00    -0.063 C 
ATOM      8  C   UNL     1      -6.253 -23.255  33.815  1.00  0.00    -0.003 C 
ATOM      9  C   UNL     1      -7.376 -24.279  34.197  1.00  0.00    -0.011 C 
ATOM     10  C   UNL     1      -4.349 -20.282  35.156  1.00  0.00    -0.006 C 
ATOM     11  C   UNL     1      -3.300 -22.544  35.343  1.00  0.00    -0.027 C 
ATOM     12  C   UNL     1      -5.108 -23.894  33.004  1.00  0.00     0.008 C 
ATOM     13  C   UNL     1      -6.827 -25.632  34.699  1.00  0.00     0.008 C 
ATOM     14  C   UNL     1      -5.011 -19.727  33.850  1.00  0.00     0.017 C 
ATOM     15  C   UNL     1      -2.846 -19.660  35.258  1.00  0.00    -0.020 C 
ATOM     16  C   UNL     1      -1.990 -22.019  35.791  1.00  0.00     0.032 C 
ATOM     17  C   UNL     1      -1.913 -20.512  36.202  1.00  0.00     0.006 C 
ATOM     18  C   UNL     1      -2.166 -19.658  33.859  1.00  0.00     0.008 C 
ATOM     19  C   UNL     1      -2.982 -18.181  35.757  1.00  0.00     0.012 C 
ATOM     20  C   UNL     1      -0.354 -20.068  36.295  1.00  0.00    -0.025 C 
ATOM     21  C   UNL     1      -0.697 -19.220  33.849  1.00  0.00     0.005 C 
ATOM     22  C   UNL     1       0.256 -19.950  34.837  1.00  0.00     0.003 C 
ATOM     23  C   UNL     1      -0.087 -18.750  37.123  1.00  0.00     0.010 C 
ATOM     24  C   UNL     1       0.349 -21.196  37.125  1.00  0.00     0.012 C 
ATOM     25  C   UNL     1       1.732 -19.333  34.766  1.00  0.00    -0.006 C 
ATOM     26  C   UNL     1       0.566 -17.571  36.376  1.00  0.00     0.033 C 
ATOM     27  C   UNL     1       1.807 -17.927  35.515  1.00  0.00     0.120 C 
ATOM     28  C   UNL     1       2.767 -20.315  35.411  1.00  0.00     0.014 C 
ATOM     29  C   UNL     1       2.185 -19.216  33.272  1.00  0.00     0.014 C 
ENDROOT
BRANCH   1  30
ATOM     30  C   UNL     1      -7.784 -20.789  35.136  1.00  0.00     0.048 C 
ATOM     31  O   UNL     1      -7.940 -20.831  33.885  1.00  0.00    -0.550 OA
ATOM     32  O   UNL     1      -8.581 -19.904  35.854  1.00  0.00    -0.550 OA
ENDBRANCH   1  30
BRANCH  27  33
ATOM     33  O   UNL     1       2.026 -16.875  34.599  1.00  0.00    -0.393 OA
ATOM     34  H   UNL     1       1.276 -16.221  34.703  1.00  0.00     0.210 HD
ENDBRANCH  27  33
TORSDOF 2
ENDMDL
