MODEL 1
REMARK VINA RESULT:    67.111      0.000      0.000
REMARK INTER + INTRA:          97.426
REMARK INTER:                  96.536
REMARK INTRA:                   0.891
REMARK UNBOUND:                 0.891
REMARK SMILES O=c1cc(-c2ccc(O)c(O)c2)oc2cc(O[C@@H]3O[C@H](CO)[C@H](O)[C@@H](O)[C@@H]3O)cc(O)c12
REMARK SMILES IDX 17 1 16 2 4 3 3 4 13 5 2 6 14 7 1 8 32 9 15 10 30 11 29 12
REMARK SMILES IDX 5 13 6 14 7 15 8 16 12 17 10 18 9 19 11 21 31 23 18 25 27 26
REMARK SMILES IDX 19 27 25 28 20 29 23 30 28 31 26 33 21 35 22 36 24 38
REMARK H PARENT 9 20 11 22 31 24 28 32 26 34 22 37 24 39
REMARK Flexibility Score: inf
ROOT
ATOM      1  O   UNL     1     -34.737  39.869 -23.708  1.00  0.00    -0.462 OA
ENDROOT
BRANCH   1   2
ATOM      2  C   UNL     1     -35.525  40.044 -22.558  1.00  0.00     0.130 A 
ATOM      3  C   UNL     1     -39.858  39.625 -20.597  1.00  0.00     0.138 A 
ATOM      4  C   UNL     1     -39.444  40.241 -19.403  1.00  0.00     0.100 A 
ATOM      5  O   UNL     1     -38.981  39.452 -21.589  1.00  0.00    -0.456 OA
ATOM      6  C   UNL     1     -38.109  40.612 -19.252  1.00  0.00     0.197 A 
ATOM      7  C   UNL     1     -37.711  39.839 -21.509  1.00  0.00     0.146 A 
ATOM      8  O   UNL     1     -37.733  41.108 -18.154  1.00  0.00    -0.289 OA
ATOM      9  C   UNL     1     -37.207  40.404 -20.312  1.00  0.00     0.107 A 
ATOM     10  C   UNL     1     -36.864  39.651 -22.610  1.00  0.00     0.094 A 
ATOM     11  C   UNL     1     -35.826  40.699 -20.216  1.00  0.00     0.134 A 
ATOM     12  C   UNL     1     -35.002  40.527 -21.337  1.00  0.00     0.093 A 
BRANCH   3  13
ATOM     13  C   UNL     1     -41.246  39.136 -20.759  1.00  0.00     0.021 A 
ATOM     14  C   UNL     1     -41.652  37.979 -20.080  1.00  0.00     0.016 A 
ATOM     15  C   UNL     1     -42.976  37.547 -20.154  1.00  0.00     0.051 A 
ATOM     16  C   UNL     1     -43.896  38.212 -20.969  1.00  0.00     0.157 A 
ATOM     17  C   UNL     1     -42.173  39.834 -21.553  1.00  0.00     0.062 A 
ATOM     18  C   UNL     1     -43.489  39.367 -21.682  1.00  0.00     0.158 A 
BRANCH  16  19
ATOM     19  O   UNL     1     -45.199  37.717 -21.011  1.00  0.00    -0.504 OA
ATOM     20  H   UNL     1     -45.898  37.888 -20.299  1.00  0.00     0.293 HD
ENDBRANCH  16  19
BRANCH  18  21
ATOM     21  O   UNL     1     -44.360  40.092 -22.498  1.00  0.00    -0.504 OA
ATOM     22  H   UNL     1     -44.039  40.813 -23.137  1.00  0.00     0.293 HD
ENDBRANCH  18  21
ENDBRANCH   3  13
BRANCH  11  23
ATOM     23  O   UNL     1     -35.267  41.120 -19.005  1.00  0.00    -0.507 OA
ATOM     24  H   UNL     1     -35.848  41.136 -18.171  1.00  0.00     0.293 HD
ENDBRANCH  11  23
ENDBRANCH   1   2
BRANCH   1  25
ATOM     25  C   UNL     1     -33.964  40.892 -24.358  1.00  0.00     0.339 C 
ATOM     26  C   UNL     1     -32.586  41.075 -23.689  1.00  0.00     0.214 C 
ATOM     27  O   UNL     1     -33.898  40.663 -25.759  1.00  0.00    -0.332 OA
ATOM     28  C   UNL     1     -31.595  39.968 -24.079  1.00  0.00     0.180 C 
ATOM     29  C   UNL     1     -33.046  39.583 -26.125  1.00  0.00     0.179 C 
ATOM     30  C   UNL     1     -31.605  39.774 -25.605  1.00  0.00     0.177 C 
BRANCH  26  31
ATOM     31  O   UNL     1     -32.757  41.113 -22.292  1.00  0.00    -0.384 OA
ATOM     32  H   UNL     1     -32.789  42.069 -22.024  1.00  0.00     0.211 HD
ENDBRANCH  26  31
BRANCH  28  33
ATOM     33  O   UNL     1     -30.315  40.356 -23.664  1.00  0.00    -0.387 OA
ATOM     34  H   UNL     1     -29.804  39.525 -23.471  1.00  0.00     0.211 HD
ENDBRANCH  28  33
BRANCH  29  35
ATOM     35  C   UNL     1     -33.652  38.197 -25.814  1.00  0.00     0.191 C 
BRANCH  35  36
ATOM     36  O   UNL     1     -32.710  37.190 -26.056  1.00  0.00    -0.394 OA
ATOM     37  H   UNL     1     -31.831  37.641 -26.079  1.00  0.00     0.210 HD
ENDBRANCH  35  36
ENDBRANCH  29  35
BRANCH  30  38
ATOM     38  O   UNL     1     -30.807  38.675 -25.967  1.00  0.00    -0.387 OA
ATOM     39  H   UNL     1     -31.194  37.876 -25.519  1.00  0.00     0.211 HD
ENDBRANCH  30  38
ENDBRANCH   1  25
TORSDOF 11
ENDMDL
