MODEL 1
REMARK VINA RESULT:    -3.909      0.000      0.000
REMARK INTER + INTRA:          -8.475
REMARK INTER:                  -6.652
REMARK INTRA:                  -1.824
REMARK UNBOUND:                -1.824
REMARK SMILES CCCCCCCCCCCCCC(=O)[O-]
REMARK SMILES IDX 8 1 9 2 10 3 11 4 12 5 13 6 14 7 15 8 16 9 7 10 6 11 5 12
REMARK SMILES IDX 4 13 3 14 2 15 1 16
REMARK H PARENT
REMARK Flexibility Score: inf
ROOT
ATOM      1  C   UNL     1      25.453   4.140  10.605  1.00  0.00     0.000 C 
ENDROOT
BRANCH   1   2
ATOM      2  C   UNL     1      26.806   4.838  10.392  1.00  0.00     0.000 C 
BRANCH   2   3
ATOM      3  C   UNL     1      27.959   3.845  10.181  1.00  0.00     0.000 C 
BRANCH   3   4
ATOM      4  C   UNL     1      28.431   3.855   8.722  1.00  0.00     0.000 C 
BRANCH   4   5
ATOM      5  C   UNL     1      28.443   2.435   8.136  1.00  0.00     0.006 C 
BRANCH   5   6
ATOM      6  C   UNL     1      28.719   1.369   9.204  1.00  0.00     0.053 C 
BRANCH   6   7
ATOM      7  C   UNL     1      28.658  -0.014   8.634  1.00  0.00     0.041 C 
ATOM      8  O   UNL     1      28.883  -0.207   7.410  1.00  0.00    -0.550 OA
ATOM      9  O   UNL     1      28.383  -1.096   9.462  1.00  0.00    -0.550 OA
ENDBRANCH   6   7
ENDBRANCH   5   6
ENDBRANCH   4   5
ENDBRANCH   3   4
ENDBRANCH   2   3
ENDBRANCH   1   2
BRANCH   1  10
ATOM     10  C   UNL     1      24.459   4.419   9.465  1.00  0.00     0.000 C 
BRANCH  10  11
ATOM     11  C   UNL     1      24.765   3.612   8.190  1.00  0.00    -0.000 C 
BRANCH  11  12
ATOM     12  C   UNL     1      25.242   4.444   6.984  1.00  0.00    -0.000 C 
BRANCH  12  13
ATOM     13  C   UNL     1      24.955   5.947   7.141  1.00  0.00    -0.000 C 
BRANCH  13  14
ATOM     14  C   UNL     1      26.132   6.823   6.681  1.00  0.00    -0.000 C 
BRANCH  14  15
ATOM     15  C   UNL     1      26.857   7.503   7.852  1.00  0.00    -0.003 C 
ATOM     16  C   UNL     1      25.879   8.289   8.720  1.00  0.00     0.004 C 
ENDBRANCH  14  15
ENDBRANCH  13  14
ENDBRANCH  12  13
ENDBRANCH  11  12
ENDBRANCH  10  11
ENDBRANCH   1  10
TORSDOF 12
ENDMDL
MODEL 2
REMARK VINA RESULT:    -3.836      3.461      6.479
REMARK INTER + INTRA:          -8.351
REMARK INTER:                  -6.731
REMARK INTRA:                  -1.620
REMARK UNBOUND:                -1.824
REMARK SMILES CCCCCCCCCCCCCC(=O)[O-]
REMARK SMILES IDX 8 1 9 2 10 3 11 4 12 5 13 6 14 7 15 8 16 9 7 10 6 11 5 12
REMARK SMILES IDX 4 13 3 14 2 15 1 16
REMARK H PARENT
REMARK Flexibility Score: inf
ROOT
ATOM      1  C   UNL     1      26.593   2.836   7.331  1.00  0.00     0.000 C 
ENDROOT
BRANCH   1   2
ATOM      2  C   UNL     1      25.702   2.333   8.479  1.00  0.00     0.000 C 
BRANCH   2   3
ATOM      3  C   UNL     1      24.870   3.455   9.120  1.00  0.00     0.000 C 
BRANCH   3   4
ATOM      4  C   UNL     1      25.641   4.122  10.265  1.00  0.00     0.000 C 
BRANCH   4   5
ATOM      5  C   UNL     1      25.706   5.645  10.073  1.00  0.00     0.006 C 
BRANCH   5   6
ATOM      6  C   UNL     1      26.778   6.057   9.056  1.00  0.00     0.053 C 
BRANCH   6   7
ATOM      7  C   UNL     1      26.517   7.420   8.497  1.00  0.00     0.041 C 
ATOM      8  O   UNL     1      27.259   7.890   7.594  1.00  0.00    -0.550 OA
ATOM      9  O   UNL     1      25.434   8.163   8.952  1.00  0.00    -0.550 OA
ENDBRANCH   6   7
ENDBRANCH   5   6
ENDBRANCH   4   5
ENDBRANCH   3   4
ENDBRANCH   2   3
ENDBRANCH   1   2
BRANCH   1  10
ATOM     10  C   UNL     1      28.079   2.506   7.549  1.00  0.00     0.000 C 
BRANCH  10  11
ATOM     11  C   UNL     1      28.386   2.036   8.984  1.00  0.00    -0.000 C 
BRANCH  11  12
ATOM     12  C   UNL     1      28.837   0.569   9.112  1.00  0.00    -0.000 C 
BRANCH  12  13
ATOM     13  C   UNL     1      29.069  -0.109   7.751  1.00  0.00    -0.000 C 
BRANCH  13  14
ATOM     14  C   UNL     1      28.193  -1.358   7.559  1.00  0.00    -0.000 C 
BRANCH  14  15
ATOM     15  C   UNL     1      26.783  -1.019   7.054  1.00  0.00    -0.003 C 
ATOM     16  C   UNL     1      26.827  -0.479   5.627  1.00  0.00     0.004 C 
ENDBRANCH  14  15
ENDBRANCH  13  14
ENDBRANCH  12  13
ENDBRANCH  11  12
ENDBRANCH  10  11
ENDBRANCH   1  10
TORSDOF 12
ENDMDL
MODEL 3
REMARK VINA RESULT:    -3.816      3.440      5.798
REMARK INTER + INTRA:          -8.317
REMARK INTER:                  -6.758
REMARK INTRA:                  -1.559
REMARK UNBOUND:                -1.824
REMARK SMILES CCCCCCCCCCCCCC(=O)[O-]
REMARK SMILES IDX 8 1 9 2 10 3 11 4 12 5 13 6 14 7 15 8 16 9 7 10 6 11 5 12
REMARK SMILES IDX 4 13 3 14 2 15 1 16
REMARK H PARENT
REMARK Flexibility Score: inf
ROOT
ATOM      1  C   UNL     1      28.748   1.119   9.470  1.00  0.00     0.000 C 
ENDROOT
BRANCH   1   2
ATOM      2  C   UNL     1      28.637   2.231   8.414  1.00  0.00     0.000 C 
BRANCH   2   3
ATOM      3  C   UNL     1      28.769   3.638   9.018  1.00  0.00     0.000 C 
BRANCH   3   4
ATOM      4  C   UNL     1      27.860   3.796  10.243  1.00  0.00     0.000 C 
BRANCH   4   5
ATOM      5  C   UNL     1      26.872   4.956  10.050  1.00  0.00     0.006 C 
BRANCH   5   6
ATOM      6  C   UNL     1      27.039   5.640   8.687  1.00  0.00     0.053 C 
BRANCH   6   7
ATOM      7  C   UNL     1      26.421   7.003   8.672  1.00  0.00     0.041 C 
ATOM      8  O   UNL     1      25.352   7.223   9.300  1.00  0.00    -0.550 OA
ATOM      9  O   UNL     1      27.042   8.041   7.988  1.00  0.00    -0.550 OA
ENDBRANCH   6   7
ENDBRANCH   5   6
ENDBRANCH   4   5
ENDBRANCH   3   4
ENDBRANCH   2   3
ENDBRANCH   1   2
BRANCH   1  10
ATOM     10  C   UNL     1      28.602  -0.287   8.865  1.00  0.00     0.000 C 
BRANCH  10  11
ATOM     11  C   UNL     1      28.751  -0.299   7.332  1.00  0.00    -0.000 C 
BRANCH  11  12
ATOM     12  C   UNL     1      27.448  -0.546   6.548  1.00  0.00    -0.000 C 
BRANCH  12  13
ATOM     13  C   UNL     1      27.154   0.553   5.513  1.00  0.00    -0.000 C 
BRANCH  13  14
ATOM     14  C   UNL     1      25.983   1.458   5.931  1.00  0.00    -0.000 C 
BRANCH  14  15
ATOM     15  C   UNL     1      25.313   0.994   7.233  1.00  0.00    -0.003 C 
ATOM     16  C   UNL     1      24.991   2.180   8.137  1.00  0.00     0.004 C 
ENDBRANCH  14  15
ENDBRANCH  13  14
ENDBRANCH  12  13
ENDBRANCH  11  12
ENDBRANCH  10  11
ENDBRANCH   1  10
TORSDOF 12
ENDMDL
MODEL 4
REMARK VINA RESULT:    -3.816      1.498      3.035
REMARK INTER + INTRA:          -8.317
REMARK INTER:                  -6.645
REMARK INTRA:                  -1.672
REMARK UNBOUND:                -1.824
REMARK SMILES CCCCCCCCCCCCCC(=O)[O-]
REMARK SMILES IDX 8 1 9 2 10 3 11 4 12 5 13 6 14 7 15 8 16 9 7 10 6 11 5 12
REMARK SMILES IDX 4 13 3 14 2 15 1 16
REMARK H PARENT
REMARK Flexibility Score: inf
ROOT
ATOM      1  C   UNL     1      27.789   3.749  10.136  1.00  0.00     0.000 C 
ENDROOT
BRANCH   1   2
ATOM      2  C   UNL     1      28.671   3.812   8.877  1.00  0.00     0.000 C 
BRANCH   2   3
ATOM      3  C   UNL     1      28.648   2.505   8.070  1.00  0.00     0.000 C 
BRANCH   3   4
ATOM      4  C   UNL     1      28.390   1.301   8.984  1.00  0.00     0.000 C 
BRANCH   4   5
ATOM      5  C   UNL     1      28.979   0.016   8.383  1.00  0.00     0.006 C 
BRANCH   5   6
ATOM      6  C   UNL     1      28.377  -1.247   9.011  1.00  0.00     0.053 C 
BRANCH   6   7
ATOM      7  C   UNL     1      28.387  -2.399   8.055  1.00  0.00     0.041 C 
ATOM      8  O   UNL     1      28.281  -2.199   6.816  1.00  0.00    -0.550 OA
ATOM      9  O   UNL     1      28.546  -3.696   8.530  1.00  0.00    -0.550 OA
ENDBRANCH   6   7
ENDBRANCH   5   6
ENDBRANCH   4   5
ENDBRANCH   3   4
ENDBRANCH   2   3
ENDBRANCH   1   2
BRANCH   1  10
ATOM     10  C   UNL     1      26.993   5.044  10.365  1.00  0.00     0.000 C 
BRANCH  10  11
ATOM     11  C   UNL     1      26.792   5.862   9.075  1.00  0.00    -0.000 C 
BRANCH  11  12
ATOM     12  C   UNL     1      25.338   6.281   8.782  1.00  0.00    -0.000 C 
BRANCH  12  13
ATOM     13  C   UNL     1      24.606   5.298   7.853  1.00  0.00    -0.000 C 
BRANCH  13  14
ATOM     14  C   UNL     1      25.572   4.507   6.954  1.00  0.00    -0.000 C 
BRANCH  14  15
ATOM     15  C   UNL     1      25.227   3.012   6.888  1.00  0.00    -0.003 C 
ATOM     16  C   UNL     1      24.870   2.470   8.270  1.00  0.00     0.004 C 
ENDBRANCH  14  15
ENDBRANCH  13  14
ENDBRANCH  12  13
ENDBRANCH  11  12
ENDBRANCH  10  11
ENDBRANCH   1  10
TORSDOF 12
ENDMDL
MODEL 5
REMARK VINA RESULT:    -3.761      3.029      5.528
REMARK INTER + INTRA:          -8.223
REMARK INTER:                  -6.251
REMARK INTRA:                  -1.972
REMARK UNBOUND:                -1.824
REMARK SMILES CCCCCCCCCCCCCC(=O)[O-]
REMARK SMILES IDX 8 1 9 2 10 3 11 4 12 5 13 6 14 7 15 8 16 9 7 10 6 11 5 12
REMARK SMILES IDX 4 13 3 14 2 15 1 16
REMARK H PARENT
REMARK Flexibility Score: inf
ROOT
ATOM      1  C   UNL     1      28.017   3.239   7.773  1.00  0.00     0.000 C 
ENDROOT
BRANCH   1   2
ATOM      2  C   UNL     1      28.808   3.688   9.014  1.00  0.00     0.000 C 
BRANCH   2   3
ATOM      3  C   UNL     1      27.926   3.816  10.265  1.00  0.00     0.000 C 
BRANCH   3   4
ATOM      4  C   UNL     1      26.441   3.857   9.887  1.00  0.00     0.000 C 
BRANCH   4   5
ATOM      5  C   UNL     1      25.838   5.241  10.167  1.00  0.00     0.006 C 
BRANCH   5   6
ATOM      6  C   UNL     1      25.091   5.806   8.952  1.00  0.00     0.053 C 
BRANCH   6   7
ATOM      7  C   UNL     1      26.036   6.301   7.902  1.00  0.00     0.041 C 
ATOM      8  O   UNL     1      27.089   6.910   8.230  1.00  0.00    -0.550 OA
ATOM      9  O   UNL     1      25.770   6.063   6.559  1.00  0.00    -0.550 OA
ENDBRANCH   6   7
ENDBRANCH   5   6
ENDBRANCH   4   5
ENDBRANCH   3   4
ENDBRANCH   2   3
ENDBRANCH   1   2
BRANCH   1  10
ATOM     10  C   UNL     1      28.639   2.011   7.089  1.00  0.00     0.000 C 
BRANCH  10  11
ATOM     11  C   UNL     1      28.598   0.748   7.969  1.00  0.00    -0.000 C 
BRANCH  11  12
ATOM     12  C   UNL     1      27.193   0.166   8.218  1.00  0.00    -0.000 C 
BRANCH  12  13
ATOM     13  C   UNL     1      26.541  -0.394   6.942  1.00  0.00    -0.000 C 
BRANCH  13  14
ATOM     14  C   UNL     1      25.156   0.215   6.672  1.00  0.00    -0.000 C 
BRANCH  14  15
ATOM     15  C   UNL     1      24.868   1.441   7.550  1.00  0.00    -0.003 C 
ATOM     16  C   UNL     1      24.574   2.672   6.696  1.00  0.00     0.004 C 
ENDBRANCH  14  15
ENDBRANCH  13  14
ENDBRANCH  12  13
ENDBRANCH  11  12
ENDBRANCH  10  11
ENDBRANCH   1  10
TORSDOF 12
ENDMDL
MODEL 6
REMARK VINA RESULT:    -3.754      9.179     10.658
REMARK INTER + INTRA:          -8.211
REMARK INTER:                  -6.493
REMARK INTRA:                  -1.718
REMARK UNBOUND:                -1.824
REMARK SMILES CCCCCCCCCCCCCC(=O)[O-]
REMARK SMILES IDX 8 1 9 2 10 3 11 4 12 5 13 6 14 7 15 8 16 9 7 10 6 11 5 12
REMARK SMILES IDX 4 13 3 14 2 15 1 16
REMARK H PARENT
REMARK Flexibility Score: inf
ROOT
ATOM      1  C   UNL     1      25.308   1.690  17.106  1.00  0.00     0.000 C 
ENDROOT
BRANCH   1   2
ATOM      2  C   UNL     1      25.231   0.775  18.339  1.00  0.00     0.000 C 
BRANCH   2   3
ATOM      3  C   UNL     1      24.792  -0.655  17.990  1.00  0.00     0.000 C 
BRANCH   3   4
ATOM      4  C   UNL     1      24.620  -0.821  16.475  1.00  0.00     0.000 C 
BRANCH   4   5
ATOM      5  C   UNL     1      23.506  -1.829  16.154  1.00  0.00     0.006 C 
BRANCH   5   6
ATOM      6  C   UNL     1      23.854  -3.247  16.623  1.00  0.00     0.053 C 
BRANCH   6   7
ATOM      7  C   UNL     1      24.048  -4.181  15.468  1.00  0.00     0.041 C 
ATOM      8  O   UNL     1      24.457  -5.356  15.663  1.00  0.00    -0.550 OA
ATOM      9  O   UNL     1      23.749  -3.762  14.178  1.00  0.00    -0.550 OA
ENDBRANCH   6   7
ENDBRANCH   5   6
ENDBRANCH   4   5
ENDBRANCH   3   4
ENDBRANCH   2   3
ENDBRANCH   1   2
BRANCH   1  10
ATOM     10  C   UNL     1      25.060   3.168  17.451  1.00  0.00     0.000 C 
BRANCH  10  11
ATOM     11  C   UNL     1      24.527   3.370  18.881  1.00  0.00    -0.000 C 
BRANCH  11  12
ATOM     12  C   UNL     1      23.092   3.921  18.976  1.00  0.00    -0.000 C 
BRANCH  12  13
ATOM     13  C   UNL     1      22.027   2.898  18.547  1.00  0.00    -0.000 C 
BRANCH  13  14
ATOM     14  C   UNL     1      21.905   1.725  19.534  1.00  0.00    -0.000 C 
BRANCH  14  15
ATOM     15  C   UNL     1      21.453   0.425  18.853  1.00  0.00    -0.003 C 
ATOM     16  C   UNL     1      21.116   0.663  17.384  1.00  0.00     0.004 C 
ENDBRANCH  14  15
ENDBRANCH  13  14
ENDBRANCH  12  13
ENDBRANCH  11  12
ENDBRANCH  10  11
ENDBRANCH   1  10
TORSDOF 12
ENDMDL
MODEL 7
REMARK VINA RESULT:    -3.746      3.097      6.500
REMARK INTER + INTRA:          -8.198
REMARK INTER:                  -6.895
REMARK INTRA:                  -1.303
REMARK UNBOUND:                -1.824
REMARK SMILES CCCCCCCCCCCCCC(=O)[O-]
REMARK SMILES IDX 8 1 9 2 10 3 11 4 12 5 13 6 14 7 15 8 16 9 7 10 6 11 5 12
REMARK SMILES IDX 4 13 3 14 2 15 1 16
REMARK H PARENT
REMARK Flexibility Score: inf
ROOT
ATOM      1  C   UNL     1      27.828   1.312   8.624  1.00  0.00     0.000 C 
ENDROOT
BRANCH   1   2
ATOM      2  C   UNL     1      28.388   2.556   7.914  1.00  0.00     0.000 C 
BRANCH   2   3
ATOM      3  C   UNL     1      28.606   3.738   8.871  1.00  0.00     0.000 C 
BRANCH   3   4
ATOM      4  C   UNL     1      27.497   3.798   9.929  1.00  0.00     0.000 C 
BRANCH   4   5
ATOM      5  C   UNL     1      26.896   5.208  10.019  1.00  0.00     0.006 C 
BRANCH   5   6
ATOM      6  C   UNL     1      26.913   5.933   8.667  1.00  0.00     0.053 C 
BRANCH   6   7
ATOM      7  C   UNL     1      25.688   5.633   7.861  1.00  0.00     0.041 C 
ATOM      8  O   UNL     1      25.762   4.893   6.844  1.00  0.00    -0.550 OA
ATOM      9  O   UNL     1      24.456   6.145   8.250  1.00  0.00    -0.550 OA
ENDBRANCH   6   7
ENDBRANCH   5   6
ENDBRANCH   4   5
ENDBRANCH   3   4
ENDBRANCH   2   3
ENDBRANCH   1   2
BRANCH   1  10
ATOM     10  C   UNL     1      28.920   0.281   8.956  1.00  0.00     0.000 C 
BRANCH  10  11
ATOM     11  C   UNL     1      28.368  -0.972   9.661  1.00  0.00    -0.000 C 
BRANCH  11  12
ATOM     12  C   UNL     1      28.297  -2.240   8.787  1.00  0.00    -0.000 C 
BRANCH  12  13
ATOM     13  C   UNL     1      28.699  -1.983   7.325  1.00  0.00    -0.000 C 
BRANCH  13  14
ATOM     14  C   UNL     1      27.551  -2.265   6.341  1.00  0.00    -0.000 C 
BRANCH  14  15
ATOM     15  C   UNL     1      26.815  -0.988   5.910  1.00  0.00    -0.003 C 
ATOM     16  C   UNL     1      25.513  -0.816   6.689  1.00  0.00     0.004 C 
ENDBRANCH  14  15
ENDBRANCH  13  14
ENDBRANCH  12  13
ENDBRANCH  11  12
ENDBRANCH  10  11
ENDBRANCH   1  10
TORSDOF 12
ENDMDL
MODEL 8
REMARK VINA RESULT:    -3.706      3.048      6.482
REMARK INTER + INTRA:          -8.130
REMARK INTER:                  -6.326
REMARK INTRA:                  -1.804
REMARK UNBOUND:                -1.824
REMARK SMILES CCCCCCCCCCCCCC(=O)[O-]
REMARK SMILES IDX 8 1 9 2 10 3 11 4 12 5 13 6 14 7 15 8 16 9 7 10 6 11 5 12
REMARK SMILES IDX 4 13 3 14 2 15 1 16
REMARK H PARENT
REMARK Flexibility Score: inf
ROOT
ATOM      1  C   UNL     1      28.285   2.799   8.692  1.00  0.00     0.000 C 
ENDROOT
BRANCH   1   2
ATOM      2  C   UNL     1      28.463   2.355   7.231  1.00  0.00     0.000 C 
BRANCH   2   3
ATOM      3  C   UNL     1      27.171   2.488   6.409  1.00  0.00     0.000 C 
BRANCH   3   4
ATOM      4  C   UNL     1      25.940   2.510   7.324  1.00  0.00     0.000 C 
BRANCH   4   5
ATOM      5  C   UNL     1      24.995   3.661   6.949  1.00  0.00     0.006 C 
BRANCH   5   6
ATOM      6  C   UNL     1      25.727   5.007   6.859  1.00  0.00     0.053 C 
BRANCH   6   7
ATOM      7  C   UNL     1      25.722   5.730   8.170  1.00  0.00     0.041 C 
ATOM      8  O   UNL     1      24.645   5.884   8.806  1.00  0.00    -0.550 OA
ATOM      9  O   UNL     1      26.911   6.207   8.707  1.00  0.00    -0.550 OA
ENDBRANCH   6   7
ENDBRANCH   5   6
ENDBRANCH   4   5
ENDBRANCH   3   4
ENDBRANCH   2   3
ENDBRANCH   1   2
BRANCH   1  10
ATOM     10  C   UNL     1      28.734   1.723   9.695  1.00  0.00     0.000 C 
BRANCH  10  11
ATOM     11  C   UNL     1      29.125   0.396   9.017  1.00  0.00    -0.000 C 
BRANCH  11  12
ATOM     12  C   UNL     1      28.388  -0.851   9.541  1.00  0.00    -0.000 C 
BRANCH  12  13
ATOM     13  C   UNL     1      28.025  -1.846   8.426  1.00  0.00    -0.000 C 
BRANCH  13  14
ATOM     14  C   UNL     1      28.436  -1.343   7.032  1.00  0.00    -0.000 C 
BRANCH  14  15
ATOM     15  C   UNL     1      27.249  -1.257   6.061  1.00  0.00    -0.003 C 
ATOM     16  C   UNL     1      25.933  -1.097   6.816  1.00  0.00     0.004 C 
ENDBRANCH  14  15
ENDBRANCH  13  14
ENDBRANCH  12  13
ENDBRANCH  11  12
ENDBRANCH  10  11
ENDBRANCH   1  10
TORSDOF 12
ENDMDL
MODEL 9
REMARK VINA RESULT:    -3.690      9.217     10.548
REMARK INTER + INTRA:          -8.103
REMARK INTER:                  -6.651
REMARK INTRA:                  -1.452
REMARK UNBOUND:                -1.824
REMARK SMILES CCCCCCCCCCCCCC(=O)[O-]
REMARK SMILES IDX 8 1 9 2 10 3 11 4 12 5 13 6 14 7 15 8 16 9 7 10 6 11 5 12
REMARK SMILES IDX 4 13 3 14 2 15 1 16
REMARK H PARENT
REMARK Flexibility Score: inf
ROOT
ATOM      1  C   UNL     1      22.864   3.801  17.542  1.00  0.00     0.000 C 
ENDROOT
BRANCH   1   2
ATOM      2  C   UNL     1      24.276   4.252  17.132  1.00  0.00     0.000 C 
BRANCH   2   3
ATOM      3  C   UNL     1      25.364   3.252  17.553  1.00  0.00     0.000 C 
BRANCH   3   4
ATOM      4  C   UNL     1      24.972   1.821  17.164  1.00  0.00     0.000 C 
BRANCH   4   5
ATOM      5  C   UNL     1      25.303   0.833  18.292  1.00  0.00     0.006 C 
BRANCH   5   6
ATOM      6  C   UNL     1      24.360  -0.377  18.300  1.00  0.00     0.053 C 
BRANCH   6   7
ATOM      7  C   UNL     1      22.973   0.005  18.716  1.00  0.00     0.041 C 
ATOM      8  O   UNL     1      21.981  -0.362  18.033  1.00  0.00    -0.550 OA
ATOM      9  O   UNL     1      22.774   0.741  19.878  1.00  0.00    -0.550 OA
ENDBRANCH   6   7
ENDBRANCH   5   6
ENDBRANCH   4   5
ENDBRANCH   3   4
ENDBRANCH   2   3
ENDBRANCH   1   2
BRANCH   1  10
ATOM     10  C   UNL     1      22.538   4.140  19.006  1.00  0.00     0.000 C 
BRANCH  10  11
ATOM     11  C   UNL     1      23.117   5.496  19.452  1.00  0.00    -0.000 C 
BRANCH  11  12
ATOM     12  C   UNL     1      22.072   6.580  19.781  1.00  0.00    -0.000 C 
BRANCH  12  13
ATOM     13  C   UNL     1      22.307   7.892  19.014  1.00  0.00    -0.000 C 
BRANCH  13  14
ATOM     14  C   UNL     1      23.768   8.057  18.563  1.00  0.00    -0.000 C 
BRANCH  14  15
ATOM     15  C   UNL     1      23.890   8.451  17.084  1.00  0.00    -0.003 C 
ATOM     16  C   UNL     1      22.999   7.574  16.208  1.00  0.00     0.004 C 
ENDBRANCH  14  15
ENDBRANCH  13  14
ENDBRANCH  12  13
ENDBRANCH  11  12
ENDBRANCH  10  11
ENDBRANCH   1  10
TORSDOF 12
ENDMDL
