MODEL 1
REMARK VINA RESULT:    -7.196      0.000      0.000
REMARK INTER + INTRA:          -8.100
REMARK INTER:                  -7.827
REMARK INTRA:                  -0.273
REMARK UNBOUND:                -0.273
REMARK SMILES C[C@H]1[C@H]2C3=CC[C@@H]4[C@@]5(C)CC[C@H](O)C(C)(C)[C@H]5CC[C@]4(C)[C@@]3(C)CC[C@@]2(C(=O)[O-])CC[C@@H]1C
REMARK SMILES IDX 26 1 30 2 25 3 3 4 31 5 24 6 4 7 2 8 32 9 22 10 5 11 1 12
REMARK SMILES IDX 33 13 23 14 20 15 6 16 7 17 19 18 21 19 8 20 18 21 17 22
REMARK SMILES IDX 10 23 9 24 14 25 11 26 12 27 15 28 16 29 27 30 28 31 29 32
REMARK SMILES IDX 13 33
REMARK H PARENT 13 34
REMARK Flexibility Score: inf
ROOT
ATOM      1  C   UNL     1     -48.981 -37.208 -20.252  1.00  0.00     0.017 C 
ATOM      2  C   UNL     1     -49.640 -36.498 -21.472  1.00  0.00     0.014 C 
ATOM      3  C   UNL     1     -47.506 -36.750 -20.160  1.00  0.00     0.014 C 
ATOM      4  C   UNL     1     -49.023 -38.780 -20.402  1.00  0.00     0.030 C 
ATOM      5  C   UNL     1     -50.889 -37.251 -21.937  1.00  0.00     0.004 C 
ATOM      6  C   UNL     1     -46.843 -37.268 -18.881  1.00  0.00     0.013 C 
ATOM      7  C   UNL     1     -47.887 -39.521 -19.656  1.00  0.00    -0.063 C 
ATOM      8  C   UNL     1     -49.235 -39.253 -21.891  1.00  0.00    -0.003 C 
ATOM      9  C   UNL     1     -50.526 -38.633 -22.525  1.00  0.00    -0.011 C 
ATOM     10  C   UNL     1     -46.888 -38.838 -18.692  1.00  0.00    -0.006 C 
ATOM     11  C   UNL     1     -47.899 -40.870 -19.669  1.00  0.00    -0.027 C 
ATOM     12  C   UNL     1     -48.015 -39.052 -22.815  1.00  0.00     0.008 C 
ATOM     13  C   UNL     1     -51.726 -39.585 -22.408  1.00  0.00     0.008 C 
ATOM     14  C   UNL     1     -47.481 -39.045 -17.258  1.00  0.00     0.017 C 
ATOM     15  C   UNL     1     -45.414 -39.510 -18.849  1.00  0.00    -0.020 C 
ATOM     16  C   UNL     1     -46.874 -41.694 -18.964  1.00  0.00     0.032 C 
ATOM     17  C   UNL     1     -45.442 -41.097 -19.087  1.00  0.00     0.006 C 
ATOM     18  C   UNL     1     -44.523 -39.136 -17.625  1.00  0.00     0.008 C 
ATOM     19  C   UNL     1     -44.703 -38.905 -20.106  1.00  0.00     0.012 C 
ATOM     20  C   UNL     1     -44.347 -41.962 -18.305  1.00  0.00    -0.025 C 
ATOM     21  C   UNL     1     -44.525 -40.122 -16.450  1.00  0.00     0.005 C 
ATOM     22  C   UNL     1     -44.424 -41.660 -16.758  1.00  0.00     0.003 C 
ATOM     23  C   UNL     1     -42.899 -41.689 -18.825  1.00  0.00     0.010 C 
ATOM     24  C   UNL     1     -44.643 -43.468 -18.625  1.00  0.00     0.012 C 
ATOM     25  C   UNL     1     -43.297 -42.366 -15.881  1.00  0.00    -0.006 C 
ATOM     26  C   UNL     1     -41.788 -42.351 -17.986  1.00  0.00     0.033 C 
ATOM     27  C   UNL     1     -41.897 -42.031 -16.478  1.00  0.00     0.120 C 
ATOM     28  C   UNL     1     -43.353 -41.868 -14.398  1.00  0.00     0.014 C 
ATOM     29  C   UNL     1     -43.514 -43.911 -15.794  1.00  0.00     0.014 C 
ENDROOT
BRANCH   1  30
ATOM     30  C   UNL     1     -49.747 -36.728 -19.012  1.00  0.00     0.048 C 
ATOM     31  O   UNL     1     -50.460 -37.541 -18.363  1.00  0.00    -0.550 OA
ATOM     32  O   UNL     1     -49.620 -35.433 -18.529  1.00  0.00    -0.550 OA
ENDBRANCH   1  30
BRANCH  27  33
ATOM     33  O   UNL     1     -40.899 -42.727 -15.775  1.00  0.00    -0.393 OA
ATOM     34  H   UNL     1     -40.048 -42.590 -16.264  1.00  0.00     0.210 HD
ENDBRANCH  27  33
TORSDOF 2
ENDMDL
MODEL 2
REMARK VINA RESULT:    -7.027      1.726      7.903
REMARK INTER + INTRA:          -7.916
REMARK INTER:                  -7.668
REMARK INTRA:                  -0.248
REMARK UNBOUND:                -0.273
REMARK SMILES C[C@H]1[C@H]2C3=CC[C@@H]4[C@@]5(C)CC[C@H](O)C(C)(C)[C@H]5CC[C@]4(C)[C@@]3(C)CC[C@@]2(C(=O)[O-])CC[C@@H]1C
REMARK SMILES IDX 26 1 30 2 25 3 3 4 31 5 24 6 4 7 2 8 32 9 22 10 5 11 1 12
REMARK SMILES IDX 33 13 23 14 20 15 6 16 7 17 19 18 21 19 8 20 18 21 17 22
REMARK SMILES IDX 10 23 9 24 14 25 11 26 12 27 15 28 16 29 27 30 28 31 29 32
REMARK SMILES IDX 13 33
REMARK H PARENT 13 34
REMARK Flexibility Score: inf
ROOT
ATOM      1  C   UNL     1     -44.122 -40.686 -16.145  1.00  0.00     0.017 C 
ATOM      2  C   UNL     1     -43.339 -41.868 -15.500  1.00  0.00     0.014 C 
ATOM      3  C   UNL     1     -45.630 -40.890 -15.864  1.00  0.00     0.014 C 
ATOM      4  C   UNL     1     -43.894 -40.621 -17.707  1.00  0.00     0.030 C 
ATOM      5  C   UNL     1     -41.958 -42.027 -16.141  1.00  0.00     0.004 C 
ATOM      6  C   UNL     1     -46.447 -39.676 -16.314  1.00  0.00     0.013 C 
ATOM      7  C   UNL     1     -45.059 -39.975 -18.494  1.00  0.00    -0.063 C 
ATOM      8  C   UNL     1     -43.380 -41.983 -18.313  1.00  0.00    -0.003 C 
ATOM      9  C   UNL     1     -42.070 -42.479 -17.613  1.00  0.00    -0.011 C 
ATOM     10  C   UNL     1     -46.275 -39.279 -17.836  1.00  0.00    -0.006 C 
ATOM     11  C   UNL     1     -44.907 -39.810 -19.824  1.00  0.00    -0.027 C 
ATOM     12  C   UNL     1     -44.436 -43.108 -18.368  1.00  0.00     0.008 C 
ATOM     13  C   UNL     1     -40.817 -42.050 -18.392  1.00  0.00     0.008 C 
ATOM     14  C   UNL     1     -45.920 -37.754 -17.808  1.00  0.00     0.017 C 
ATOM     15  C   UNL     1     -47.622 -39.579 -18.698  1.00  0.00    -0.020 C 
ATOM     16  C   UNL     1     -45.948 -39.175 -20.684  1.00  0.00     0.032 C 
ATOM     17  C   UNL     1     -47.391 -39.601 -20.286  1.00  0.00     0.006 C 
ATOM     18  C   UNL     1     -48.745 -38.571 -18.302  1.00  0.00     0.008 C 
ATOM     19  C   UNL     1     -48.164 -41.002 -18.328  1.00  0.00     0.012 C 
ATOM     20  C   UNL     1     -48.510 -38.897 -21.186  1.00  0.00    -0.025 C 
ATOM     21  C   UNL     1     -48.845 -37.293 -19.143  1.00  0.00     0.005 C 
ATOM     22  C   UNL     1     -48.733 -37.409 -20.706  1.00  0.00     0.003 C 
ATOM     23  C   UNL     1     -49.867 -39.671 -21.152  1.00  0.00     0.010 C 
ATOM     24  C   UNL     1     -48.011 -38.966 -22.670  1.00  0.00     0.012 C 
ATOM     25  C   UNL     1     -49.916 -36.638 -21.443  1.00  0.00    -0.006 C 
ATOM     26  C   UNL     1     -51.032 -38.940 -21.848  1.00  0.00     0.033 C 
ATOM     27  C   UNL     1     -51.218 -37.489 -21.351  1.00  0.00     0.120 C 
ATOM     28  C   UNL     1     -50.168 -35.243 -20.780  1.00  0.00     0.014 C 
ATOM     29  C   UNL     1     -49.560 -36.317 -22.930  1.00  0.00     0.014 C 
ENDROOT
BRANCH   1  30
ATOM     30  C   UNL     1     -43.635 -39.413 -15.440  1.00  0.00     0.048 C 
ATOM     31  O   UNL     1     -43.627 -39.359 -14.180  1.00  0.00    -0.550 OA
ATOM     32  O   UNL     1     -43.122 -38.335 -16.149  1.00  0.00    -0.550 OA
ENDBRANCH   1  30
BRANCH  27  33
ATOM     33  O   UNL     1     -52.247 -36.869 -22.082  1.00  0.00    -0.393 OA
ATOM     34  H   UNL     1     -52.143 -35.891 -21.961  1.00  0.00     0.210 HD
ENDBRANCH  27  33
TORSDOF 2
ENDMDL
MODEL 3
REMARK VINA RESULT:    -6.954      2.431      3.505
REMARK INTER + INTRA:          -7.837
REMARK INTER:                  -7.561
REMARK INTRA:                  -0.276
REMARK UNBOUND:                -0.273
REMARK SMILES C[C@H]1[C@H]2C3=CC[C@@H]4[C@@]5(C)CC[C@H](O)C(C)(C)[C@H]5CC[C@]4(C)[C@@]3(C)CC[C@@]2(C(=O)[O-])CC[C@@H]1C
REMARK SMILES IDX 26 1 30 2 25 3 3 4 31 5 24 6 4 7 2 8 32 9 22 10 5 11 1 12
REMARK SMILES IDX 33 13 23 14 20 15 6 16 7 17 19 18 21 19 8 20 18 21 17 22
REMARK SMILES IDX 10 23 9 24 14 25 11 26 12 27 15 28 16 29 27 30 28 31 29 32
REMARK SMILES IDX 13 33
REMARK H PARENT 13 34
REMARK Flexibility Score: inf
ROOT
ATOM      1  C   UNL     1     -51.090 -37.746 -22.313  1.00  0.00     0.017 C 
ATOM      2  C   UNL     1     -51.668 -37.981 -23.740  1.00  0.00     0.014 C 
ATOM      3  C   UNL     1     -49.858 -36.817 -22.433  1.00  0.00     0.014 C 
ATOM      4  C   UNL     1     -50.647 -39.102 -21.635  1.00  0.00     0.030 C 
ATOM      5  C   UNL     1     -52.528 -39.247 -23.783  1.00  0.00     0.004 C 
ATOM      6  C   UNL     1     -49.343 -36.398 -21.054  1.00  0.00     0.013 C 
ATOM      7  C   UNL     1     -49.518 -38.951 -20.586  1.00  0.00    -0.063 C 
ATOM      8  C   UNL     1     -50.412 -40.265 -22.674  1.00  0.00    -0.003 C 
ATOM      9  C   UNL     1     -51.673 -40.515 -23.568  1.00  0.00    -0.011 C 
ATOM     10  C   UNL     1     -48.971 -37.593 -20.086  1.00  0.00    -0.006 C 
ATOM     11  C   UNL     1     -49.138 -40.051 -19.904  1.00  0.00    -0.027 C 
ATOM     12  C   UNL     1     -49.143 -40.115 -23.540  1.00  0.00     0.008 C 
ATOM     13  C   UNL     1     -52.547 -41.649 -23.008  1.00  0.00     0.008 C 
ATOM     14  C   UNL     1     -49.753 -37.287 -18.764  1.00  0.00     0.017 C 
ATOM     15  C   UNL     1     -47.366 -37.695 -19.839  1.00  0.00    -0.020 C 
ATOM     16  C   UNL     1     -48.082 -40.025 -18.851  1.00  0.00     0.032 C 
ATOM     17  C   UNL     1     -46.887 -39.101 -19.228  1.00  0.00     0.006 C 
ATOM     18  C   UNL     1     -46.883 -36.501 -18.959  1.00  0.00     0.008 C 
ATOM     19  C   UNL     1     -46.623 -37.555 -21.211  1.00  0.00     0.012 C 
ATOM     20  C   UNL     1     -45.768 -39.046 -18.086  1.00  0.00    -0.025 C 
ATOM     21  C   UNL     1     -46.835 -36.742 -17.445  1.00  0.00     0.005 C 
ATOM     22  C   UNL     1     -46.236 -38.095 -16.917  1.00  0.00     0.003 C 
ATOM     23  C   UNL     1     -44.388 -38.566 -18.637  1.00  0.00     0.010 C 
ATOM     24  C   UNL     1     -45.548 -40.518 -17.594  1.00  0.00     0.012 C 
ATOM     25  C   UNL     1     -45.152 -37.856 -15.774  1.00  0.00    -0.006 C 
ATOM     26  C   UNL     1     -43.323 -38.315 -17.550  1.00  0.00     0.033 C 
ATOM     27  C   UNL     1     -43.819 -37.379 -16.424  1.00  0.00     0.120 C 
ATOM     28  C   UNL     1     -45.643 -36.770 -14.760  1.00  0.00     0.014 C 
ATOM     29  C   UNL     1     -44.928 -39.139 -14.911  1.00  0.00     0.014 C 
ENDROOT
BRANCH   1  30
ATOM     30  C   UNL     1     -52.193 -37.039 -21.515  1.00  0.00     0.048 C 
ATOM     31  O   UNL     1     -52.724 -37.619 -20.530  1.00  0.00    -0.550 OA
ATOM     32  O   UNL     1     -52.577 -35.734 -21.796  1.00  0.00    -0.550 OA
ENDBRANCH   1  30
BRANCH  27  33
ATOM     33  O   UNL     1     -42.823 -37.260 -15.439  1.00  0.00    -0.393 OA
ATOM     34  H   UNL     1     -42.452 -36.344 -15.508  1.00  0.00     0.210 HD
ENDBRANCH  27  33
TORSDOF 2
ENDMDL
MODEL 4
REMARK VINA RESULT:    -6.895      1.726      8.155
REMARK INTER + INTRA:          -7.773
REMARK INTER:                  -7.472
REMARK INTRA:                  -0.301
REMARK UNBOUND:                -0.273
REMARK SMILES C[C@H]1[C@H]2C3=CC[C@@H]4[C@@]5(C)CC[C@H](O)C(C)(C)[C@H]5CC[C@]4(C)[C@@]3(C)CC[C@@]2(C(=O)[O-])CC[C@@H]1C
REMARK SMILES IDX 26 1 30 2 25 3 3 4 31 5 24 6 4 7 2 8 32 9 22 10 5 11 1 12
REMARK SMILES IDX 33 13 23 14 20 15 6 16 7 17 19 18 21 19 8 20 18 21 17 22
REMARK SMILES IDX 10 23 9 24 14 25 11 26 12 27 15 28 16 29 27 30 28 31 29 32
REMARK SMILES IDX 13 33
REMARK H PARENT 13 34
REMARK Flexibility Score: inf
ROOT
ATOM      1  C   UNL     1     -43.544 -41.081 -17.578  1.00  0.00     0.017 C 
ATOM      2  C   UNL     1     -42.390 -41.175 -16.536  1.00  0.00     0.014 C 
ATOM      3  C   UNL     1     -43.387 -39.756 -18.362  1.00  0.00     0.014 C 
ATOM      4  C   UNL     1     -44.961 -41.100 -16.879  1.00  0.00     0.030 C 
ATOM      5  C   UNL     1     -42.744 -42.151 -15.411  1.00  0.00     0.004 C 
ATOM      6  C   UNL     1     -44.381 -39.677 -19.523  1.00  0.00     0.013 C 
ATOM      7  C   UNL     1     -46.074 -40.379 -17.677  1.00  0.00    -0.063 C 
ATOM      8  C   UNL     1     -44.902 -40.708 -15.353  1.00  0.00    -0.003 C 
ATOM      9  C   UNL     1     -43.911 -41.618 -14.552  1.00  0.00    -0.011 C 
ATOM     10  C   UNL     1     -45.901 -39.834 -19.115  1.00  0.00    -0.006 C 
ATOM     11  C   UNL     1     -47.330 -40.420 -17.186  1.00  0.00    -0.027 C 
ATOM     12  C   UNL     1     -44.625 -39.215 -15.077  1.00  0.00     0.008 C 
ATOM     13  C   UNL     1     -44.642 -42.789 -13.875  1.00  0.00     0.008 C 
ATOM     14  C   UNL     1     -46.448 -40.960 -20.058  1.00  0.00     0.017 C 
ATOM     15  C   UNL     1     -46.723 -38.440 -19.285  1.00  0.00    -0.020 C 
ATOM     16  C   UNL     1     -48.490 -39.787 -17.879  1.00  0.00     0.032 C 
ATOM     17  C   UNL     1     -48.128 -38.411 -18.510  1.00  0.00     0.006 C 
ATOM     18  C   UNL     1     -46.903 -38.107 -20.798  1.00  0.00     0.008 C 
ATOM     19  C   UNL     1     -45.880 -37.268 -18.678  1.00  0.00     0.012 C 
ATOM     20  C   UNL     1     -49.362 -37.746 -19.281  1.00  0.00    -0.025 C 
ATOM     21  C   UNL     1     -48.193 -38.607 -21.461  1.00  0.00     0.005 C 
ATOM     22  C   UNL     1     -49.551 -38.430 -20.691  1.00  0.00     0.003 C 
ATOM     23  C   UNL     1     -49.181 -36.204 -19.462  1.00  0.00     0.010 C 
ATOM     24  C   UNL     1     -50.622 -37.927 -18.366  1.00  0.00     0.012 C 
ATOM     25  C   UNL     1     -50.671 -37.770 -21.611  1.00  0.00    -0.006 C 
ATOM     26  C   UNL     1     -50.245 -35.542 -20.360  1.00  0.00     0.033 C 
ATOM     27  C   UNL     1     -50.400 -36.240 -21.730  1.00  0.00     0.120 C 
ATOM     28  C   UNL     1     -50.661 -38.404 -23.041  1.00  0.00     0.014 C 
ATOM     29  C   UNL     1     -52.108 -38.043 -21.060  1.00  0.00     0.014 C 
ENDROOT
BRANCH   1  30
ATOM     30  C   UNL     1     -43.359 -42.268 -18.532  1.00  0.00     0.048 C 
ATOM     31  O   UNL     1     -42.286 -42.387 -19.184  1.00  0.00    -0.550 OA
ATOM     32  O   UNL     1     -44.312 -43.272 -18.645  1.00  0.00    -0.550 OA
ENDBRANCH   1  30
BRANCH  27  33
ATOM     33  O   UNL     1     -51.436 -35.626 -22.456  1.00  0.00    -0.393 OA
ATOM     34  H   UNL     1     -51.804 -36.308 -23.072  1.00  0.00     0.210 HD
ENDBRANCH  27  33
TORSDOF 2
ENDMDL
MODEL 5
REMARK VINA RESULT:    -6.848      2.459      8.197
REMARK INTER + INTRA:          -7.721
REMARK INTER:                  -7.419
REMARK INTRA:                  -0.302
REMARK UNBOUND:                -0.273
REMARK SMILES C[C@H]1[C@H]2C3=CC[C@@H]4[C@@]5(C)CC[C@H](O)C(C)(C)[C@H]5CC[C@]4(C)[C@@]3(C)CC[C@@]2(C(=O)[O-])CC[C@@H]1C
REMARK SMILES IDX 26 1 30 2 25 3 3 4 31 5 24 6 4 7 2 8 32 9 22 10 5 11 1 12
REMARK SMILES IDX 33 13 23 14 20 15 6 16 7 17 19 18 21 19 8 20 18 21 17 22
REMARK SMILES IDX 10 23 9 24 14 25 11 26 12 27 15 28 16 29 27 30 28 31 29 32
REMARK SMILES IDX 13 33
REMARK H PARENT 13 34
REMARK Flexibility Score: inf
ROOT
ATOM      1  C   UNL     1     -45.232 -38.045 -17.360  1.00  0.00     0.017 C 
ATOM      2  C   UNL     1     -44.761 -38.367 -15.910  1.00  0.00     0.014 C 
ATOM      3  C   UNL     1     -46.355 -36.983 -17.282  1.00  0.00     0.014 C 
ATOM      4  C   UNL     1     -45.789 -39.330 -18.089  1.00  0.00     0.030 C 
ATOM      5  C   UNL     1     -44.053 -39.724 -15.852  1.00  0.00     0.004 C 
ATOM      6  C   UNL     1     -46.745 -36.486 -18.676  1.00  0.00     0.013 C 
ATOM      7  C   UNL     1     -46.836 -39.034 -19.190  1.00  0.00    -0.063 C 
ATOM      8  C   UNL     1     -46.209 -40.475 -17.089  1.00  0.00    -0.003 C 
ATOM      9  C   UNL     1     -45.033 -40.882 -16.138  1.00  0.00    -0.011 C 
ATOM     10  C   UNL     1     -47.199 -37.614 -19.687  1.00  0.00    -0.006 C 
ATOM     11  C   UNL     1     -47.301 -40.072 -19.915  1.00  0.00    -0.027 C 
ATOM     12  C   UNL     1     -47.497 -40.195 -16.286  1.00  0.00     0.008 C 
ATOM     13  C   UNL     1     -44.265 -42.099 -16.678  1.00  0.00     0.008 C 
ATOM     14  C   UNL     1     -46.317 -37.379 -20.961  1.00  0.00     0.017 C 
ATOM     15  C   UNL     1     -48.789 -37.529 -20.019  1.00  0.00    -0.020 C 
ATOM     16  C   UNL     1     -48.290 -39.908 -21.019  1.00  0.00     0.032 C 
ATOM     17  C   UNL     1     -49.391 -38.860 -20.684  1.00  0.00     0.006 C 
ATOM     18  C   UNL     1     -49.087 -36.273 -20.895  1.00  0.00     0.008 C 
ATOM     19  C   UNL     1     -49.583 -37.326 -18.684  1.00  0.00     0.012 C 
ATOM     20  C   UNL     1     -50.434 -38.660 -21.880  1.00  0.00    -0.025 C 
ATOM     21  C   UNL     1     -49.081 -36.482 -22.414  1.00  0.00     0.005 C 
ATOM     22  C   UNL     1     -49.800 -37.750 -23.003  1.00  0.00     0.003 C 
ATOM     23  C   UNL     1     -51.779 -38.034 -21.389  1.00  0.00     0.010 C 
ATOM     24  C   UNL     1     -50.793 -40.089 -22.415  1.00  0.00     0.012 C 
ATOM     25  C   UNL     1     -50.788 -37.370 -24.193  1.00  0.00    -0.006 C 
ATOM     26  C   UNL     1     -52.749 -37.645 -22.523  1.00  0.00     0.033 C 
ATOM     27  C   UNL     1     -52.091 -36.755 -23.602  1.00  0.00     0.120 C 
ATOM     28  C   UNL     1     -50.123 -36.331 -25.157  1.00  0.00     0.014 C 
ATOM     29  C   UNL     1     -51.110 -38.605 -25.094  1.00  0.00     0.014 C 
ENDROOT
BRANCH   1  30
ATOM     30  C   UNL     1     -44.015 -37.455 -18.085  1.00  0.00     0.048 C 
ATOM     31  O   UNL     1     -43.493 -36.386 -17.667  1.00  0.00    -0.550 OA
ATOM     32  O   UNL     1     -43.412 -38.108 -19.152  1.00  0.00    -0.550 OA
ENDBRANCH   1  30
BRANCH  27  33
ATOM     33  O   UNL     1     -53.014 -36.506 -24.633  1.00  0.00    -0.393 OA
ATOM     34  H   UNL     1     -52.533 -36.008 -25.342  1.00  0.00     0.210 HD
ENDBRANCH  27  33
TORSDOF 2
ENDMDL
MODEL 6
REMARK VINA RESULT:    -6.594     13.734     15.845
REMARK INTER + INTRA:          -7.445
REMARK INTER:                  -7.143
REMARK INTRA:                  -0.302
REMARK UNBOUND:                -0.273
REMARK SMILES C[C@H]1[C@H]2C3=CC[C@@H]4[C@@]5(C)CC[C@H](O)C(C)(C)[C@H]5CC[C@]4(C)[C@@]3(C)CC[C@@]2(C(=O)[O-])CC[C@@H]1C
REMARK SMILES IDX 26 1 30 2 25 3 3 4 31 5 24 6 4 7 2 8 32 9 22 10 5 11 1 12
REMARK SMILES IDX 33 13 23 14 20 15 6 16 7 17 19 18 21 19 8 20 18 21 17 22
REMARK SMILES IDX 10 23 9 24 14 25 11 26 12 27 15 28 16 29 27 30 28 31 29 32
REMARK SMILES IDX 13 33
REMARK H PARENT 13 34
REMARK Flexibility Score: inf
ROOT
ATOM      1  C   UNL     1     -55.901 -34.390 -30.045  1.00  0.00     0.017 C 
ATOM      2  C   UNL     1     -55.238 -33.054 -29.596  1.00  0.00     0.014 C 
ATOM      3  C   UNL     1     -55.897 -35.365 -28.843  1.00  0.00     0.014 C 
ATOM      4  C   UNL     1     -55.117 -35.053 -31.246  1.00  0.00     0.030 C 
ATOM      5  C   UNL     1     -54.744 -32.253 -30.803  1.00  0.00     0.004 C 
ATOM      6  C   UNL     1     -56.692 -36.635 -29.156  1.00  0.00     0.013 C 
ATOM      7  C   UNL     1     -55.255 -36.593 -31.324  1.00  0.00    -0.063 C 
ATOM      8  C   UNL     1     -53.635 -34.529 -31.380  1.00  0.00    -0.003 C 
ATOM      9  C   UNL     1     -53.575 -32.970 -31.514  1.00  0.00    -0.011 C 
ATOM     10  C   UNL     1     -56.210 -37.427 -30.437  1.00  0.00    -0.006 C 
ATOM     11  C   UNL     1     -54.681 -37.226 -32.368  1.00  0.00    -0.027 C 
ATOM     12  C   UNL     1     -52.669 -35.028 -30.284  1.00  0.00     0.008 C 
ATOM     13  C   UNL     1     -53.505 -32.531 -32.984  1.00  0.00     0.008 C 
ATOM     14  C   UNL     1     -57.509 -37.624 -31.291  1.00  0.00     0.017 C 
ATOM     15  C   UNL     1     -55.512 -38.845 -30.048  1.00  0.00    -0.020 C 
ATOM     16  C   UNL     1     -54.769 -38.702 -32.566  1.00  0.00     0.032 C 
ATOM     17  C   UNL     1     -54.641 -39.491 -31.230  1.00  0.00     0.006 C 
ATOM     18  C   UNL     1     -56.589 -39.845 -29.525  1.00  0.00     0.008 C 
ATOM     19  C   UNL     1     -54.515 -38.619 -28.861  1.00  0.00     0.012 C 
ATOM     20  C   UNL     1     -54.767 -41.072 -31.436  1.00  0.00    -0.025 C 
ATOM     21  C   UNL     1     -57.220 -40.777 -30.567  1.00  0.00     0.005 C 
ATOM     22  C   UNL     1     -56.283 -41.474 -31.619  1.00  0.00     0.003 C 
ATOM     23  C   UNL     1     -54.148 -41.873 -30.246  1.00  0.00     0.010 C 
ATOM     24  C   UNL     1     -53.908 -41.437 -32.696  1.00  0.00     0.012 C 
ATOM     25  C   UNL     1     -56.554 -43.041 -31.706  1.00  0.00    -0.006 C 
ATOM     26  C   UNL     1     -54.407 -43.392 -30.301  1.00  0.00     0.033 C 
ATOM     27  C   UNL     1     -55.901 -43.744 -30.478  1.00  0.00     0.120 C 
ATOM     28  C   UNL     1     -58.091 -43.340 -31.710  1.00  0.00     0.014 C 
ATOM     29  C   UNL     1     -56.024 -43.646 -33.046  1.00  0.00     0.014 C 
ENDROOT
BRANCH   1  30
ATOM     30  C   UNL     1     -57.347 -34.046 -30.425  1.00  0.00     0.048 C 
ATOM     31  O   UNL     1     -58.119 -33.545 -29.562  1.00  0.00    -0.550 OA
ATOM     32  O   UNL     1     -57.818 -34.195 -31.723  1.00  0.00    -0.550 OA
ENDBRANCH   1  30
BRANCH  27  33
ATOM     33  O   UNL     1     -56.046 -45.138 -30.593  1.00  0.00    -0.393 OA
ATOM     34  H   UNL     1     -56.206 -45.491 -29.681  1.00  0.00     0.210 HD
ENDBRANCH  27  33
TORSDOF 2
ENDMDL
MODEL 7
REMARK VINA RESULT:    -6.585      4.393      6.433
REMARK INTER + INTRA:          -7.435
REMARK INTER:                  -7.137
REMARK INTRA:                  -0.298
REMARK UNBOUND:                -0.273
REMARK SMILES C[C@H]1[C@H]2C3=CC[C@@H]4[C@@]5(C)CC[C@H](O)C(C)(C)[C@H]5CC[C@]4(C)[C@@]3(C)CC[C@@]2(C(=O)[O-])CC[C@@H]1C
REMARK SMILES IDX 26 1 30 2 25 3 3 4 31 5 24 6 4 7 2 8 32 9 22 10 5 11 1 12
REMARK SMILES IDX 33 13 23 14 20 15 6 16 7 17 19 18 21 19 8 20 18 21 17 22
REMARK SMILES IDX 10 23 9 24 14 25 11 26 12 27 15 28 16 29 27 30 28 31 29 32
REMARK SMILES IDX 13 33
REMARK H PARENT 13 34
REMARK Flexibility Score: inf
ROOT
ATOM      1  C   UNL     1     -52.075 -37.884 -24.451  1.00  0.00     0.017 C 
ATOM      2  C   UNL     1     -52.501 -36.388 -24.539  1.00  0.00     0.014 C 
ATOM      3  C   UNL     1     -51.813 -38.230 -22.965  1.00  0.00     0.014 C 
ATOM      4  C   UNL     1     -50.761 -38.164 -25.282  1.00  0.00     0.030 C 
ATOM      5  C   UNL     1     -52.282 -35.837 -25.950  1.00  0.00     0.004 C 
ATOM      6  C   UNL     1     -51.563 -39.728 -22.780  1.00  0.00     0.013 C 
ATOM      7  C   UNL     1     -49.919 -39.354 -24.761  1.00  0.00    -0.063 C 
ATOM      8  C   UNL     1     -49.925 -36.859 -25.574  1.00  0.00    -0.003 C 
ATOM      9  C   UNL     1     -50.779 -35.765 -26.299  1.00  0.00    -0.011 C 
ATOM     10  C   UNL     1     -50.377 -40.321 -23.643  1.00  0.00    -0.006 C 
ATOM     11  C   UNL     1     -48.824 -39.708 -25.464  1.00  0.00    -0.027 C 
ATOM     12  C   UNL     1     -49.197 -36.268 -24.348  1.00  0.00     0.008 C 
ATOM     13  C   UNL     1     -50.591 -35.820 -27.823  1.00  0.00     0.008 C 
ATOM     14  C   UNL     1     -51.004 -41.551 -24.384  1.00  0.00     0.017 C 
ATOM     15  C   UNL     1     -49.107 -40.745 -22.719  1.00  0.00    -0.020 C 
ATOM     16  C   UNL     1     -47.950 -40.854 -25.077  1.00  0.00     0.032 C 
ATOM     17  C   UNL     1     -47.742 -40.951 -23.538  1.00  0.00     0.006 C 
ATOM     18  C   UNL     1     -49.458 -42.009 -21.875  1.00  0.00     0.008 C 
ATOM     19  C   UNL     1     -48.815 -39.601 -21.689  1.00  0.00     0.012 C 
ATOM     20  C   UNL     1     -46.832 -42.198 -23.119  1.00  0.00    -0.025 C 
ATOM     21  C   UNL     1     -49.089 -43.366 -22.489  1.00  0.00     0.005 C 
ATOM     22  C   UNL     1     -47.681 -43.527 -23.167  1.00  0.00     0.003 C 
ATOM     23  C   UNL     1     -46.208 -42.020 -21.697  1.00  0.00     0.010 C 
ATOM     24  C   UNL     1     -45.624 -42.236 -24.118  1.00  0.00     0.012 C 
ATOM     25  C   UNL     1     -46.920 -44.827 -22.647  1.00  0.00    -0.006 C 
ATOM     26  C   UNL     1     -45.476 -43.268 -21.165  1.00  0.00     0.033 C 
ATOM     27  C   UNL     1     -46.340 -44.548 -21.228  1.00  0.00     0.120 C 
ATOM     28  C   UNL     1     -47.895 -46.049 -22.570  1.00  0.00     0.014 C 
ATOM     29  C   UNL     1     -45.794 -45.272 -23.635  1.00  0.00     0.014 C 
ENDROOT
BRANCH   1  30
ATOM     30  C   UNL     1     -53.266 -38.701 -24.968  1.00  0.00     0.048 C 
ATOM     31  O   UNL     1     -54.390 -38.594 -24.406  1.00  0.00    -0.550 OA
ATOM     32  O   UNL     1     -53.168 -39.504 -26.097  1.00  0.00    -0.550 OA
ENDBRANCH   1  30
BRANCH  27  33
ATOM     33  O   UNL     1     -45.581 -45.650 -20.797  1.00  0.00    -0.393 OA
ATOM     34  H   UNL     1     -45.005 -45.336 -20.055  1.00  0.00     0.210 HD
ENDBRANCH  27  33
TORSDOF 2
ENDMDL
MODEL 8
REMARK VINA RESULT:    -6.497      4.210      8.621
REMARK INTER + INTRA:          -7.339
REMARK INTER:                  -7.102
REMARK INTRA:                  -0.237
REMARK UNBOUND:                -0.273
REMARK SMILES C[C@H]1[C@H]2C3=CC[C@@H]4[C@@]5(C)CC[C@H](O)C(C)(C)[C@H]5CC[C@]4(C)[C@@]3(C)CC[C@@]2(C(=O)[O-])CC[C@@H]1C
REMARK SMILES IDX 26 1 30 2 25 3 3 4 31 5 24 6 4 7 2 8 32 9 22 10 5 11 1 12
REMARK SMILES IDX 33 13 23 14 20 15 6 16 7 17 19 18 21 19 8 20 18 21 17 22
REMARK SMILES IDX 10 23 9 24 14 25 11 26 12 27 15 28 16 29 27 30 28 31 29 32
REMARK SMILES IDX 13 33
REMARK H PARENT 13 34
REMARK Flexibility Score: inf
ROOT
ATOM      1  C   UNL     1     -46.294 -44.641 -23.735  1.00  0.00     0.017 C 
ATOM      2  C   UNL     1     -45.924 -45.735 -24.781  1.00  0.00     0.014 C 
ATOM      3  C   UNL     1     -47.804 -44.760 -23.418  1.00  0.00     0.014 C 
ATOM      4  C   UNL     1     -45.996 -43.189 -24.282  1.00  0.00     0.030 C 
ATOM      5  C   UNL     1     -44.629 -45.377 -25.515  1.00  0.00     0.004 C 
ATOM      6  C   UNL     1     -48.204 -43.834 -22.267  1.00  0.00     0.013 C 
ATOM      7  C   UNL     1     -46.884 -42.082 -23.665  1.00  0.00    -0.063 C 
ATOM      8  C   UNL     1     -45.888 -43.131 -25.854  1.00  0.00    -0.003 C 
ATOM      9  C   UNL     1     -44.813 -44.128 -26.405  1.00  0.00    -0.011 C 
ATOM     10  C   UNL     1     -47.862 -42.305 -22.487  1.00  0.00    -0.006 C 
ATOM     11  C   UNL     1     -46.638 -40.804 -24.021  1.00  0.00    -0.027 C 
ATOM     12  C   UNL     1     -47.228 -43.296 -26.602  1.00  0.00     0.008 C 
ATOM     13  C   UNL     1     -43.460 -43.435 -26.625  1.00  0.00     0.008 C 
ATOM     14  C   UNL     1     -47.070 -41.889 -21.201  1.00  0.00     0.017 C 
ATOM     15  C   UNL     1     -49.203 -41.408 -22.698  1.00  0.00    -0.020 C 
ATOM     16  C   UNL     1     -47.409 -39.650 -23.474  1.00  0.00     0.032 C 
ATOM     17  C   UNL     1     -48.927 -39.960 -23.333  1.00  0.00     0.006 C 
ATOM     18  C   UNL     1     -49.989 -41.298 -21.355  1.00  0.00     0.008 C 
ATOM     19  C   UNL     1     -50.158 -42.137 -23.703  1.00  0.00     0.012 C 
ATOM     20  C   UNL     1     -49.750 -38.735 -22.716  1.00  0.00    -0.025 C 
ATOM     21  C   UNL     1     -49.671 -40.084 -20.473  1.00  0.00     0.005 C 
ATOM     22  C   UNL     1     -49.538 -38.674 -21.153  1.00  0.00     0.003 C 
ATOM     23  C   UNL     1     -51.276 -38.827 -23.039  1.00  0.00     0.010 C 
ATOM     24  C   UNL     1     -49.237 -37.436 -23.429  1.00  0.00     0.012 C 
ATOM     25  C   UNL     1     -50.408 -37.571 -20.401  1.00  0.00    -0.006 C 
ATOM     26  C   UNL     1     -52.143 -37.778 -22.314  1.00  0.00     0.033 C 
ATOM     27  C   UNL     1     -51.907 -37.750 -20.787  1.00  0.00     0.120 C 
ATOM     28  C   UNL     1     -50.259 -37.707 -18.849  1.00  0.00     0.014 C 
ATOM     29  C   UNL     1     -49.915 -36.124 -20.727  1.00  0.00     0.014 C 
ENDROOT
BRANCH   1  30
ATOM     30  C   UNL     1     -45.477 -44.959 -22.475  1.00  0.00     0.048 C 
ATOM     31  O   UNL     1     -45.491 -46.125 -21.997  1.00  0.00    -0.550 OA
ATOM     32  O   UNL     1     -44.650 -44.013 -21.882  1.00  0.00    -0.550 OA
ENDBRANCH   1  30
BRANCH  27  33
ATOM     33  O   UNL     1     -52.675 -36.724 -20.211  1.00  0.00    -0.393 OA
ATOM     34  H   UNL     1     -53.617 -36.878 -20.477  1.00  0.00     0.210 HD
ENDBRANCH  27  33
TORSDOF 2
ENDMDL
MODEL 9
REMARK VINA RESULT:    -6.434      4.021      6.296
REMARK INTER + INTRA:          -7.271
REMARK INTER:                  -6.995
REMARK INTRA:                  -0.276
REMARK UNBOUND:                -0.273
REMARK SMILES C[C@H]1[C@H]2C3=CC[C@@H]4[C@@]5(C)CC[C@H](O)C(C)(C)[C@H]5CC[C@]4(C)[C@@]3(C)CC[C@@]2(C(=O)[O-])CC[C@@H]1C
REMARK SMILES IDX 26 1 30 2 25 3 3 4 31 5 24 6 4 7 2 8 32 9 22 10 5 11 1 12
REMARK SMILES IDX 33 13 23 14 20 15 6 16 7 17 19 18 21 19 8 20 18 21 17 22
REMARK SMILES IDX 10 23 9 24 14 25 11 26 12 27 15 28 16 29 27 30 28 31 29 32
REMARK SMILES IDX 13 33
REMARK H PARENT 13 34
REMARK Flexibility Score: inf
ROOT
ATOM      1  C   UNL     1     -47.348 -44.163 -23.023  1.00  0.00     0.017 C 
ATOM      2  C   UNL     1     -47.811 -44.682 -24.418  1.00  0.00     0.014 C 
ATOM      3  C   UNL     1     -48.433 -43.205 -22.475  1.00  0.00     0.014 C 
ATOM      4  C   UNL     1     -45.977 -43.385 -23.119  1.00  0.00     0.030 C 
ATOM      5  C   UNL     1     -46.622 -45.197 -25.234  1.00  0.00     0.004 C 
ATOM      6  C   UNL     1     -48.133 -42.795 -21.032  1.00  0.00     0.013 C 
ATOM      7  C   UNL     1     -45.773 -42.317 -22.017  1.00  0.00    -0.063 C 
ATOM      8  C   UNL     1     -45.653 -42.879 -24.577  1.00  0.00    -0.003 C 
ATOM      9  C   UNL     1     -45.664 -44.049 -25.619  1.00  0.00    -0.011 C 
ATOM     10  C   UNL     1     -46.718 -42.122 -20.808  1.00  0.00    -0.006 C 
ATOM     11  C   UNL     1     -44.593 -41.664 -21.981  1.00  0.00    -0.027 C 
ATOM     12  C   UNL     1     -46.522 -41.700 -25.062  1.00  0.00     0.008 C 
ATOM     13  C   UNL     1     -44.251 -44.602 -25.861  1.00  0.00     0.008 C 
ATOM     14  C   UNL     1     -46.074 -42.939 -19.637  1.00  0.00     0.017 C 
ATOM     15  C   UNL     1     -46.849 -40.539 -20.452  1.00  0.00    -0.020 C 
ATOM     16  C   UNL     1     -44.269 -40.635 -20.951  1.00  0.00     0.032 C 
ATOM     17  C   UNL     1     -45.482 -39.716 -20.625  1.00  0.00     0.006 C 
ATOM     18  C   UNL     1     -47.441 -40.361 -19.020  1.00  0.00     0.008 C 
ATOM     19  C   UNL     1     -47.872 -39.874 -21.433  1.00  0.00     0.012 C 
ATOM     20  C   UNL     1     -45.147 -38.632 -19.498  1.00  0.00    -0.025 C 
ATOM     21  C   UNL     1     -46.431 -40.235 -17.873  1.00  0.00     0.005 C 
ATOM     22  C   UNL     1     -45.177 -39.309 -18.072  1.00  0.00     0.003 C 
ATOM     23  C   UNL     1     -46.136 -37.423 -19.530  1.00  0.00     0.010 C 
ATOM     24  C   UNL     1     -43.734 -38.043 -19.838  1.00  0.00     0.012 C 
ATOM     25  C   UNL     1     -44.983 -38.305 -16.850  1.00  0.00    -0.006 C 
ATOM     26  C   UNL     1     -45.977 -36.442 -18.351  1.00  0.00     0.033 C 
ATOM     27  C   UNL     1     -46.013 -37.142 -16.974  1.00  0.00     0.120 C 
ATOM     28  C   UNL     1     -45.202 -39.040 -15.486  1.00  0.00     0.014 C 
ATOM     29  C   UNL     1     -43.522 -37.754 -16.780  1.00  0.00     0.014 C 
ENDROOT
BRANCH   1  30
ATOM     30  C   UNL     1     -47.246 -45.398 -22.119  1.00  0.00     0.048 C 
ATOM     31  O   UNL     1     -46.122 -45.759 -21.676  1.00  0.00    -0.550 OA
ATOM     32  O   UNL     1     -48.373 -46.095 -21.702  1.00  0.00    -0.550 OA
ENDBRANCH   1  30
BRANCH  27  33
ATOM     33  O   UNL     1     -45.789 -36.195 -15.959  1.00  0.00    -0.393 OA
ATOM     34  H   UNL     1     -45.384 -35.399 -16.386  1.00  0.00     0.210 HD
ENDBRANCH  27  33
TORSDOF 2
ENDMDL
