MODEL 1
REMARK VINA RESULT:    -4.059      0.000      0.000
REMARK INTER + INTRA:         -16.446
REMARK INTER:                 -10.703
REMARK INTRA:                  -5.742
REMARK UNBOUND:                -5.742
REMARK SMILES CCCCCCCCCCCCCCCCCCCCCCCCCCCCCC(=O)[O-]
REMARK SMILES IDX 16 1 17 2 18 3 19 4 20 5 21 6 22 7 23 8 24 9 25 10 26 11
REMARK SMILES IDX 27 12 28 13 29 14 30 15 31 16 32 17 15 18 14 19 13 20 12 21
REMARK SMILES IDX 11 22 10 23 9 24 8 25 7 26 6 27 5 28 4 29 3 30 2 31 1 32
REMARK H PARENT
REMARK Flexibility Score: inf
ROOT
ATOM      1  C   UNL     1      22.853   1.317  14.521  1.00  0.00     0.000 C 
ENDROOT
BRANCH   1   2
ATOM      2  C   UNL     1      23.325   2.752  14.236  1.00  0.00     0.000 C 
BRANCH   2   3
ATOM      3  C   UNL     1      22.261   3.593  13.505  1.00  0.00     0.000 C 
BRANCH   3   4
ATOM      4  C   UNL     1      22.757   4.215  12.180  1.00  0.00     0.000 C 
BRANCH   4   5
ATOM      5  C   UNL     1      23.352   5.624  12.371  1.00  0.00     0.000 C 
BRANCH   5   6
ATOM      6  C   UNL     1      24.856   5.604  12.686  1.00  0.00     0.000 C 
BRANCH   6   7
ATOM      7  C   UNL     1      25.240   6.545  13.838  1.00  0.00     0.000 C 
BRANCH   7   8
ATOM      8  C   UNL     1      24.992   5.876  15.201  1.00  0.00     0.000 C 
BRANCH   8   9
ATOM      9  C   UNL     1      24.085   6.707  16.135  1.00  0.00     0.000 C 
BRANCH   9  10
ATOM     10  C   UNL     1      22.594   6.331  16.080  1.00  0.00     0.000 C 
BRANCH  10  11
ATOM     11  C   UNL     1      22.259   5.049  16.868  1.00  0.00     0.000 C 
BRANCH  11  12
ATOM     12  C   UNL     1      23.185   4.832  18.079  1.00  0.00     0.000 C 
BRANCH  12  13
ATOM     13  C   UNL     1      23.796   3.416  18.179  1.00  0.00     0.006 C 
BRANCH  13  14
ATOM     14  C   UNL     1      25.176   3.261  17.516  1.00  0.00     0.053 C 
BRANCH  14  15
ATOM     15  C   UNL     1      26.073   2.352  18.297  1.00  0.00     0.041 C 
ATOM     16  O   UNL     1      27.308   2.320  18.046  1.00  0.00    -0.550 OA
ATOM     17  O   UNL     1      25.545   1.524  19.281  1.00  0.00    -0.550 OA
ENDBRANCH  14  15
ENDBRANCH  13  14
ENDBRANCH  12  13
ENDBRANCH  11  12
ENDBRANCH  10  11
ENDBRANCH   9  10
ENDBRANCH   8   9
ENDBRANCH   7   8
ENDBRANCH   6   7
ENDBRANCH   5   6
ENDBRANCH   4   5
ENDBRANCH   3   4
ENDBRANCH   2   3
ENDBRANCH   1   2
BRANCH   1  18
ATOM     18  C   UNL     1      23.820   0.533  15.425  1.00  0.00     0.000 C 
BRANCH  18  19
ATOM     19  C   UNL     1      23.187   0.104  16.758  1.00  0.00     0.000 C 
BRANCH  19  20
ATOM     20  C   UNL     1      21.670   0.337  16.754  1.00  0.00     0.000 C 
BRANCH  20  21
ATOM     21  C   UNL     1      21.007  -0.420  17.911  1.00  0.00     0.000 C 
BRANCH  21  22
ATOM     22  C   UNL     1      20.071  -1.523  17.393  1.00  0.00     0.000 C 
BRANCH  22  23
ATOM     23  C   UNL     1      20.464  -2.925  17.892  1.00  0.00     0.000 C 
BRANCH  23  24
ATOM     24  C   UNL     1      21.644  -2.966  18.885  1.00  0.00    -0.000 C 
BRANCH  24  25
ATOM     25  C   UNL     1      22.951  -3.528  18.288  1.00  0.00    -0.000 C 
BRANCH  25  26
ATOM     26  C   UNL     1      22.793  -3.997  16.830  1.00  0.00    -0.000 C 
BRANCH  26  27
ATOM     27  C   UNL     1      23.908  -3.470  15.906  1.00  0.00    -0.000 C 
BRANCH  27  28
ATOM     28  C   UNL     1      23.438  -3.004  14.516  1.00  0.00    -0.000 C 
BRANCH  28  29
ATOM     29  C   UNL     1      21.946  -2.638  14.475  1.00  0.00    -0.000 C 
BRANCH  29  30
ATOM     30  C   UNL     1      21.626  -1.790  13.238  1.00  0.00    -0.000 C 
BRANCH  30  31
ATOM     31  C   UNL     1      20.229  -1.163  13.346  1.00  0.00    -0.003 C 
ATOM     32  C   UNL     1      19.146  -2.239  13.372  1.00  0.00     0.004 C 
ENDBRANCH  30  31
ENDBRANCH  29  30
ENDBRANCH  28  29
ENDBRANCH  27  28
ENDBRANCH  26  27
ENDBRANCH  25  26
ENDBRANCH  24  25
ENDBRANCH  23  24
ENDBRANCH  22  23
ENDBRANCH  21  22
ENDBRANCH  20  21
ENDBRANCH  19  20
ENDBRANCH  18  19
ENDBRANCH   1  18
TORSDOF 28
ENDMDL
MODEL 2
REMARK VINA RESULT:    -4.042      3.497      8.105
REMARK INTER + INTRA:         -16.402
REMARK INTER:                 -11.362
REMARK INTRA:                  -5.039
REMARK UNBOUND:                -5.742
REMARK SMILES CCCCCCCCCCCCCCCCCCCCCCCCCCCCCC(=O)[O-]
REMARK SMILES IDX 16 1 17 2 18 3 19 4 20 5 21 6 22 7 23 8 24 9 25 10 26 11
REMARK SMILES IDX 27 12 28 13 29 14 30 15 31 16 32 17 15 18 14 19 13 20 12 21
REMARK SMILES IDX 11 22 10 23 9 24 8 25 7 26 6 27 5 28 4 29 3 30 2 31 1 32
REMARK H PARENT
REMARK Flexibility Score: inf
ROOT
ATOM      1  C   UNL     1      20.214  -3.903  18.271  1.00  0.00     0.000 C 
ENDROOT
BRANCH   1   2
ATOM      2  C   UNL     1      21.657  -4.196  18.718  1.00  0.00     0.000 C 
BRANCH   2   3
ATOM      3  C   UNL     1      22.434  -5.048  17.696  1.00  0.00     0.000 C 
BRANCH   3   4
ATOM      4  C   UNL     1      23.809  -4.462  17.310  1.00  0.00     0.000 C 
BRANCH   4   5
ATOM      5  C   UNL     1      23.867  -2.930  17.466  1.00  0.00     0.000 C 
BRANCH   5   6
ATOM      6  C   UNL     1      23.803  -2.185  16.124  1.00  0.00     0.000 C 
BRANCH   6   7
ATOM      7  C   UNL     1      23.468  -3.107  14.942  1.00  0.00     0.000 C 
BRANCH   7   8
ATOM      8  C   UNL     1      22.839  -2.312  13.784  1.00  0.00     0.000 C 
BRANCH   8   9
ATOM      9  C   UNL     1      22.460  -0.864  14.169  1.00  0.00     0.000 C 
BRANCH   9  10
ATOM     10  C   UNL     1      21.486  -0.177  13.197  1.00  0.00     0.000 C 
BRANCH  10  11
ATOM     11  C   UNL     1      21.232  -0.991  11.912  1.00  0.00     0.000 C 
BRANCH  11  12
ATOM     12  C   UNL     1      19.767  -1.443  11.769  1.00  0.00     0.000 C 
BRANCH  12  13
ATOM     13  C   UNL     1      19.109  -1.923  13.082  1.00  0.00     0.006 C 
BRANCH  13  14
ATOM     14  C   UNL     1      19.271  -3.424  13.375  1.00  0.00     0.053 C 
BRANCH  14  15
ATOM     15  C   UNL     1      17.992  -4.175  13.172  1.00  0.00     0.041 C 
ATOM     16  O   UNL     1      17.724  -5.168  13.900  1.00  0.00    -0.550 OA
ATOM     17  O   UNL     1      17.111  -3.797  12.166  1.00  0.00    -0.550 OA
ENDBRANCH  14  15
ENDBRANCH  13  14
ENDBRANCH  12  13
ENDBRANCH  11  12
ENDBRANCH  10  11
ENDBRANCH   9  10
ENDBRANCH   8   9
ENDBRANCH   7   8
ENDBRANCH   6   7
ENDBRANCH   5   6
ENDBRANCH   4   5
ENDBRANCH   3   4
ENDBRANCH   2   3
ENDBRANCH   1   2
BRANCH   1  18
ATOM     18  C   UNL     1      20.140  -3.111  16.955  1.00  0.00     0.000 C 
BRANCH  18  19
ATOM     19  C   UNL     1      20.375  -1.604  17.144  1.00  0.00     0.000 C 
BRANCH  19  20
ATOM     20  C   UNL     1      19.468  -1.032  18.242  1.00  0.00     0.000 C 
BRANCH  20  21
ATOM     21  C   UNL     1      20.309  -0.455  19.386  1.00  0.00     0.000 C 
BRANCH  21  22
ATOM     22  C   UNL     1      21.794  -0.367  18.999  1.00  0.00     0.000 C 
BRANCH  22  23
ATOM     23  C   UNL     1      22.361   1.058  19.123  1.00  0.00     0.000 C 
BRANCH  23  24
ATOM     24  C   UNL     1      21.954   2.032  17.998  1.00  0.00    -0.000 C 
BRANCH  24  25
ATOM     25  C   UNL     1      22.444   1.615  16.595  1.00  0.00    -0.000 C 
BRANCH  25  26
ATOM     26  C   UNL     1      23.975   1.669  16.452  1.00  0.00    -0.000 C 
BRANCH  26  27
ATOM     27  C   UNL     1      24.450   2.778  15.493  1.00  0.00    -0.000 C 
BRANCH  27  28
ATOM     28  C   UNL     1      23.647   2.897  14.185  1.00  0.00    -0.000 C 
BRANCH  28  29
ATOM     29  C   UNL     1      23.410   4.353  13.752  1.00  0.00    -0.000 C 
BRANCH  29  30
ATOM     30  C   UNL     1      24.621   4.899  12.986  1.00  0.00    -0.000 C 
BRANCH  30  31
ATOM     31  C   UNL     1      24.705   6.427  13.105  1.00  0.00    -0.003 C 
ATOM     32  C   UNL     1      25.689   6.838  14.196  1.00  0.00     0.004 C 
ENDBRANCH  30  31
ENDBRANCH  29  30
ENDBRANCH  28  29
ENDBRANCH  27  28
ENDBRANCH  26  27
ENDBRANCH  25  26
ENDBRANCH  24  25
ENDBRANCH  23  24
ENDBRANCH  22  23
ENDBRANCH  21  22
ENDBRANCH  20  21
ENDBRANCH  19  20
ENDBRANCH  18  19
ENDBRANCH   1  18
TORSDOF 28
ENDMDL
MODEL 3
REMARK VINA RESULT:    -4.021      8.441     12.389
REMARK INTER + INTRA:         -16.344
REMARK INTER:                  -9.851
REMARK INTRA:                  -6.494
REMARK UNBOUND:                -5.742
REMARK SMILES CCCCCCCCCCCCCCCCCCCCCCCCCCCCCC(=O)[O-]
REMARK SMILES IDX 16 1 17 2 18 3 19 4 20 5 21 6 22 7 23 8 24 9 25 10 26 11
REMARK SMILES IDX 27 12 28 13 29 14 30 15 31 16 32 17 15 18 14 19 13 20 12 21
REMARK SMILES IDX 11 22 10 23 9 24 8 25 7 26 6 27 5 28 4 29 3 30 2 31 1 32
REMARK H PARENT
REMARK Flexibility Score: inf
ROOT
ATOM      1  C   UNL     1      16.522  -0.945   6.998  1.00  0.00     0.000 C 
ENDROOT
BRANCH   1   2
ATOM      2  C   UNL     1      16.228   0.471   6.477  1.00  0.00     0.000 C 
BRANCH   2   3
ATOM      3  C   UNL     1      15.224   0.479   5.308  1.00  0.00     0.000 C 
BRANCH   3   4
ATOM      4  C   UNL     1      13.992   1.379   5.547  1.00  0.00     0.000 C 
BRANCH   4   5
ATOM      5  C   UNL     1      12.703   0.570   5.790  1.00  0.00     0.000 C 
BRANCH   5   6
ATOM      6  C   UNL     1      11.912   1.053   7.016  1.00  0.00     0.000 C 
BRANCH   6   7
ATOM      7  C   UNL     1      12.596   0.703   8.346  1.00  0.00     0.000 C 
BRANCH   7   8
ATOM      8  C   UNL     1      13.035   1.976   9.091  1.00  0.00     0.000 C 
BRANCH   8   9
ATOM      9  C   UNL     1      14.567   2.090   9.258  1.00  0.00     0.000 C 
BRANCH   9  10
ATOM     10  C   UNL     1      15.109   1.536  10.588  1.00  0.00     0.000 C 
BRANCH  10  11
ATOM     11  C   UNL     1      16.112   0.380  10.402  1.00  0.00     0.000 C 
BRANCH  11  12
ATOM     12  C   UNL     1      15.749  -0.866  11.230  1.00  0.00     0.000 C 
BRANCH  12  13
ATOM     13  C   UNL     1      16.921  -1.844  11.470  1.00  0.00     0.006 C 
BRANCH  13  14
ATOM     14  C   UNL     1      18.258  -1.418  10.838  1.00  0.00     0.053 C 
BRANCH  14  15
ATOM     15  C   UNL     1      19.388  -1.494  11.815  1.00  0.00     0.041 C 
ATOM     16  O   UNL     1      20.558  -1.204  11.448  1.00  0.00    -0.550 OA
ATOM     17  O   UNL     1      19.157  -1.907  13.123  1.00  0.00    -0.550 OA
ENDBRANCH  14  15
ENDBRANCH  13  14
ENDBRANCH  12  13
ENDBRANCH  11  12
ENDBRANCH  10  11
ENDBRANCH   9  10
ENDBRANCH   8   9
ENDBRANCH   7   8
ENDBRANCH   6   7
ENDBRANCH   5   6
ENDBRANCH   4   5
ENDBRANCH   3   4
ENDBRANCH   2   3
ENDBRANCH   1   2
BRANCH   1  18
ATOM     18  C   UNL     1      15.274  -1.656   7.549  1.00  0.00     0.000 C 
BRANCH  18  19
ATOM     19  C   UNL     1      15.582  -3.033   8.155  1.00  0.00     0.000 C 
BRANCH  19  20
ATOM     20  C   UNL     1      17.049  -3.425   7.930  1.00  0.00     0.000 C 
BRANCH  20  21
ATOM     21  C   UNL     1      17.191  -4.949   7.844  1.00  0.00     0.000 C 
BRANCH  21  22
ATOM     22  C   UNL     1      17.323  -5.417   6.387  1.00  0.00     0.000 C 
BRANCH  22  23
ATOM     23  C   UNL     1      17.484  -4.250   5.397  1.00  0.00     0.000 C 
BRANCH  23  24
ATOM     24  C   UNL     1      16.486  -4.239   4.219  1.00  0.00    -0.000 C 
BRANCH  24  25
ATOM     25  C   UNL     1      15.811  -2.873   3.979  1.00  0.00    -0.000 C 
BRANCH  25  26
ATOM     26  C   UNL     1      14.314  -2.993   3.638  1.00  0.00    -0.000 C 
BRANCH  26  27
ATOM     27  C   UNL     1      13.412  -2.988   4.886  1.00  0.00    -0.000 C 
BRANCH  27  28
ATOM     28  C   UNL     1      12.641  -4.296   5.139  1.00  0.00    -0.000 C 
BRANCH  28  29
ATOM     29  C   UNL     1      13.040  -4.989   6.452  1.00  0.00    -0.000 C 
BRANCH  29  30
ATOM     30  C   UNL     1      13.858  -6.256   6.173  1.00  0.00    -0.000 C 
BRANCH  30  31
ATOM     31  C   UNL     1      13.630  -6.755   4.740  1.00  0.00    -0.003 C 
ATOM     32  C   UNL     1      14.858  -7.495   4.216  1.00  0.00     0.004 C 
ENDBRANCH  30  31
ENDBRANCH  29  30
ENDBRANCH  28  29
ENDBRANCH  27  28
ENDBRANCH  26  27
ENDBRANCH  25  26
ENDBRANCH  24  25
ENDBRANCH  23  24
ENDBRANCH  22  23
ENDBRANCH  21  22
ENDBRANCH  20  21
ENDBRANCH  19  20
ENDBRANCH  18  19
ENDBRANCH   1  18
TORSDOF 28
ENDMDL
MODEL 4
REMARK VINA RESULT:    -4.014      3.285      8.680
REMARK INTER + INTRA:         -16.327
REMARK INTER:                 -10.949
REMARK INTRA:                  -5.378
REMARK UNBOUND:                -5.742
REMARK SMILES CCCCCCCCCCCCCCCCCCCCCCCCCCCCCC(=O)[O-]
REMARK SMILES IDX 16 1 17 2 18 3 19 4 20 5 21 6 22 7 23 8 24 9 25 10 26 11
REMARK SMILES IDX 27 12 28 13 29 14 30 15 31 16 32 17 15 18 14 19 13 20 12 21
REMARK SMILES IDX 11 22 10 23 9 24 8 25 7 26 6 27 5 28 4 29 3 30 2 31 1 32
REMARK H PARENT
REMARK Flexibility Score: inf
ROOT
ATOM      1  C   UNL     1      23.431   0.194  16.777  1.00  0.00     0.000 C 
ENDROOT
BRANCH   1   2
ATOM      2  C   UNL     1      22.277   0.433  17.766  1.00  0.00     0.000 C 
BRANCH   2   3
ATOM      3  C   UNL     1      20.996   0.937  17.075  1.00  0.00     0.000 C 
BRANCH   3   4
ATOM      4  C   UNL     1      20.131  -0.188  16.464  1.00  0.00     0.000 C 
BRANCH   4   5
ATOM      5  C   UNL     1      20.139  -1.473  17.316  1.00  0.00     0.000 C 
BRANCH   5   6
ATOM      6  C   UNL     1      20.470  -2.733  16.501  1.00  0.00     0.000 C 
BRANCH   6   7
ATOM      7  C   UNL     1      21.887  -3.264  16.768  1.00  0.00     0.000 C 
BRANCH   7   8
ATOM      8  C   UNL     1      22.763  -3.156  15.507  1.00  0.00     0.000 C 
BRANCH   8   9
ATOM      9  C   UNL     1      21.972  -2.744  14.246  1.00  0.00     0.000 C 
BRANCH   9  10
ATOM     10  C   UNL     1      22.489  -1.470  13.554  1.00  0.00     0.000 C 
BRANCH  10  11
ATOM     11  C   UNL     1      21.363  -0.505  13.133  1.00  0.00     0.000 C 
BRANCH  11  12
ATOM     12  C   UNL     1      20.047  -1.231  12.795  1.00  0.00     0.000 C 
BRANCH  12  13
ATOM     13  C   UNL     1      19.929  -1.702  11.328  1.00  0.00     0.006 C 
BRANCH  13  14
ATOM     14  C   UNL     1      18.645  -2.485  11.003  1.00  0.00     0.053 C 
BRANCH  14  15
ATOM     15  C   UNL     1      17.417  -1.761  11.458  1.00  0.00     0.041 C 
ATOM     16  O   UNL     1      17.055  -0.707  10.870  1.00  0.00    -0.550 OA
ATOM     17  O   UNL     1      16.688  -2.233  12.544  1.00  0.00    -0.550 OA
ENDBRANCH  14  15
ENDBRANCH  13  14
ENDBRANCH  12  13
ENDBRANCH  11  12
ENDBRANCH  10  11
ENDBRANCH   9  10
ENDBRANCH   8   9
ENDBRANCH   7   8
ENDBRANCH   6   7
ENDBRANCH   5   6
ENDBRANCH   4   5
ENDBRANCH   3   4
ENDBRANCH   2   3
ENDBRANCH   1   2
BRANCH   1  18
ATOM     18  C   UNL     1      23.593   1.331  15.754  1.00  0.00     0.000 C 
BRANCH  18  19
ATOM     19  C   UNL     1      24.969   2.012  15.822  1.00  0.00     0.000 C 
BRANCH  19  20
ATOM     20  C   UNL     1      25.022   3.048  16.953  1.00  0.00     0.000 C 
BRANCH  20  21
ATOM     21  C   UNL     1      24.686   4.445  16.419  1.00  0.00     0.000 C 
BRANCH  21  22
ATOM     22  C   UNL     1      23.241   4.840  16.757  1.00  0.00     0.000 C 
BRANCH  22  23
ATOM     23  C   UNL     1      23.045   6.363  16.859  1.00  0.00     0.000 C 
BRANCH  23  24
ATOM     24  C   UNL     1      24.033   7.214  16.034  1.00  0.00    -0.000 C 
BRANCH  24  25
ATOM     25  C   UNL     1      23.402   7.895  14.802  1.00  0.00    -0.000 C 
BRANCH  25  26
ATOM     26  C   UNL     1      24.155   7.591  13.494  1.00  0.00    -0.000 C 
BRANCH  26  27
ATOM     27  C   UNL     1      25.382   6.683  13.705  1.00  0.00    -0.000 C 
BRANCH  27  28
ATOM     28  C   UNL     1      25.338   5.342  12.950  1.00  0.00    -0.000 C 
BRANCH  28  29
ATOM     29  C   UNL     1      23.954   5.026  12.360  1.00  0.00    -0.000 C 
BRANCH  29  30
ATOM     30  C   UNL     1      23.279   3.886  13.133  1.00  0.00    -0.000 C 
BRANCH  30  31
ATOM     31  C   UNL     1      21.753   3.949  12.985  1.00  0.00    -0.003 C 
ATOM     32  C   UNL     1      21.183   5.174  13.696  1.00  0.00     0.004 C 
ENDBRANCH  30  31
ENDBRANCH  29  30
ENDBRANCH  28  29
ENDBRANCH  27  28
ENDBRANCH  26  27
ENDBRANCH  25  26
ENDBRANCH  24  25
ENDBRANCH  23  24
ENDBRANCH  22  23
ENDBRANCH  21  22
ENDBRANCH  20  21
ENDBRANCH  19  20
ENDBRANCH  18  19
ENDBRANCH   1  18
TORSDOF 28
ENDMDL
MODEL 5
REMARK VINA RESULT:    -3.988      2.245      8.130
REMARK INTER + INTRA:         -16.258
REMARK INTER:                 -10.682
REMARK INTRA:                  -5.576
REMARK UNBOUND:                -5.742
REMARK SMILES CCCCCCCCCCCCCCCCCCCCCCCCCCCCCC(=O)[O-]
REMARK SMILES IDX 16 1 17 2 18 3 19 4 20 5 21 6 22 7 23 8 24 9 25 10 26 11
REMARK SMILES IDX 27 12 28 13 29 14 30 15 31 16 32 17 15 18 14 19 13 20 12 21
REMARK SMILES IDX 11 22 10 23 9 24 8 25 7 26 6 27 5 28 4 29 3 30 2 31 1 32
REMARK H PARENT
REMARK Flexibility Score: inf
ROOT
ATOM      1  C   UNL     1      23.871   1.846  14.749  1.00  0.00     0.000 C 
ENDROOT
BRANCH   1   2
ATOM      2  C   UNL     1      24.080   1.688  16.265  1.00  0.00     0.000 C 
BRANCH   2   3
ATOM      3  C   UNL     1      23.453   0.395  16.820  1.00  0.00     0.000 C 
BRANCH   3   4
ATOM      4  C   UNL     1      22.901   0.534  18.256  1.00  0.00     0.000 C 
BRANCH   4   5
ATOM      5  C   UNL     1      21.375   0.756  18.287  1.00  0.00     0.000 C 
BRANCH   5   6
ATOM      6  C   UNL     1      20.728   0.681  16.895  1.00  0.00     0.000 C 
BRANCH   6   7
ATOM      7  C   UNL     1      19.778  -0.516  16.740  1.00  0.00     0.000 C 
BRANCH   7   8
ATOM      8  C   UNL     1      20.227  -1.429  15.586  1.00  0.00     0.000 C 
BRANCH   8   9
ATOM      9  C   UNL     1      20.914  -0.665  14.431  1.00  0.00     0.000 C 
BRANCH   9  10
ATOM     10  C   UNL     1      22.162  -1.358  13.858  1.00  0.00     0.000 C 
BRANCH  10  11
ATOM     11  C   UNL     1      22.326  -2.813  14.341  1.00  0.00     0.000 C 
BRANCH  11  12
ATOM     12  C   UNL     1      23.633  -3.043  15.121  1.00  0.00     0.000 C 
BRANCH  12  13
ATOM     13  C   UNL     1      23.504  -2.896  16.653  1.00  0.00     0.006 C 
BRANCH  13  14
ATOM     14  C   UNL     1      22.471  -3.831  17.306  1.00  0.00     0.053 C 
BRANCH  14  15
ATOM     15  C   UNL     1      23.079  -5.132  17.725  1.00  0.00     0.041 C 
ATOM     16  O   UNL     1      24.332  -5.259  17.758  1.00  0.00    -0.550 OA
ATOM     17  O   UNL     1      22.265  -6.211  18.053  1.00  0.00    -0.550 OA
ENDBRANCH  14  15
ENDBRANCH  13  14
ENDBRANCH  12  13
ENDBRANCH  11  12
ENDBRANCH  10  11
ENDBRANCH   9  10
ENDBRANCH   8   9
ENDBRANCH   7   8
ENDBRANCH   6   7
ENDBRANCH   5   6
ENDBRANCH   4   5
ENDBRANCH   3   4
ENDBRANCH   2   3
ENDBRANCH   1   2
BRANCH   1  18
ATOM     18  C   UNL     1      22.526   2.500  14.391  1.00  0.00     0.000 C 
BRANCH  18  19
ATOM     19  C   UNL     1      22.563   3.264  13.059  1.00  0.00     0.000 C 
BRANCH  19  20
ATOM     20  C   UNL     1      21.975   4.674  13.209  1.00  0.00     0.000 C 
BRANCH  20  21
ATOM     21  C   UNL     1      22.914   5.716  12.591  1.00  0.00     0.000 C 
BRANCH  21  22
ATOM     22  C   UNL     1      24.328   5.148  12.394  1.00  0.00     0.000 C 
BRANCH  22  23
ATOM     23  C   UNL     1      25.329   5.656  13.446  1.00  0.00     0.000 C 
BRANCH  23  24
ATOM     24  C   UNL     1      24.946   6.982  14.138  1.00  0.00    -0.000 C 
BRANCH  24  25
ATOM     25  C   UNL     1      24.657   6.845  15.647  1.00  0.00    -0.000 C 
BRANCH  25  26
ATOM     26  C   UNL     1      24.556   5.380  16.110  1.00  0.00    -0.000 C 
BRANCH  26  27
ATOM     27  C   UNL     1      23.261   5.084  16.889  1.00  0.00    -0.000 C 
BRANCH  27  28
ATOM     28  C   UNL     1      23.434   4.937  18.412  1.00  0.00    -0.000 C 
BRANCH  28  29
ATOM     29  C   UNL     1      24.813   4.390  18.813  1.00  0.00    -0.000 C 
BRANCH  29  30
ATOM     30  C   UNL     1      24.672   3.216  19.790  1.00  0.00    -0.000 C 
BRANCH  30  31
ATOM     31  C   UNL     1      25.914   2.315  19.751  1.00  0.00    -0.003 C 
ATOM     32  C   UNL     1      26.665   2.473  18.431  1.00  0.00     0.004 C 
ENDBRANCH  30  31
ENDBRANCH  29  30
ENDBRANCH  28  29
ENDBRANCH  27  28
ENDBRANCH  26  27
ENDBRANCH  25  26
ENDBRANCH  24  25
ENDBRANCH  23  24
ENDBRANCH  22  23
ENDBRANCH  21  22
ENDBRANCH  20  21
ENDBRANCH  19  20
ENDBRANCH  18  19
ENDBRANCH   1  18
TORSDOF 28
ENDMDL
MODEL 6
REMARK VINA RESULT:    -3.983      2.561      4.706
REMARK INTER + INTRA:         -16.244
REMARK INTER:                 -10.228
REMARK INTRA:                  -6.017
REMARK UNBOUND:                -5.742
REMARK SMILES CCCCCCCCCCCCCCCCCCCCCCCCCCCCCC(=O)[O-]
REMARK SMILES IDX 16 1 17 2 18 3 19 4 20 5 21 6 22 7 23 8 24 9 25 10 26 11
REMARK SMILES IDX 27 12 28 13 29 14 30 15 31 16 32 17 15 18 14 19 13 20 12 21
REMARK SMILES IDX 11 22 10 23 9 24 8 25 7 26 6 27 5 28 4 29 3 30 2 31 1 32
REMARK H PARENT
REMARK Flexibility Score: inf
ROOT
ATOM      1  C   UNL     1      21.629   0.896  12.836  1.00  0.00     0.000 C 
ENDROOT
BRANCH   1   2
ATOM      2  C   UNL     1      22.005   1.182  14.300  1.00  0.00     0.000 C 
BRANCH   2   3
ATOM      3  C   UNL     1      23.331   0.515  14.714  1.00  0.00     0.000 C 
BRANCH   3   4
ATOM      4  C   UNL     1      23.987   1.147  15.960  1.00  0.00     0.000 C 
BRANCH   4   5
ATOM      5  C   UNL     1      25.052   2.203  15.600  1.00  0.00     0.000 C 
BRANCH   5   6
ATOM      6  C   UNL     1      24.806   3.560  16.277  1.00  0.00     0.000 C 
BRANCH   6   7
ATOM      7  C   UNL     1      23.332   3.788  16.646  1.00  0.00     0.000 C 
BRANCH   7   8
ATOM      8  C   UNL     1      22.949   5.271  16.492  1.00  0.00     0.000 C 
BRANCH   8   9
ATOM      9  C   UNL     1      24.150   6.182  16.153  1.00  0.00     0.000 C 
BRANCH   9  10
ATOM     10  C   UNL     1      23.836   7.307  15.152  1.00  0.00     0.000 C 
BRANCH  10  11
ATOM     11  C   UNL     1      24.786   7.324  13.938  1.00  0.00     0.000 C 
BRANCH  11  12
ATOM     12  C   UNL     1      25.369   5.936  13.614  1.00  0.00     0.000 C 
BRANCH  12  13
ATOM     13  C   UNL     1      24.672   5.199  12.448  1.00  0.00     0.006 C 
BRANCH  13  14
ATOM     14  C   UNL     1      23.482   4.317  12.862  1.00  0.00     0.053 C 
BRANCH  14  15
ATOM     15  C   UNL     1      22.175   5.026  12.694  1.00  0.00     0.041 C 
ATOM     16  O   UNL     1      22.080   5.987  11.884  1.00  0.00    -0.550 OA
ATOM     17  O   UNL     1      21.070   4.645  13.446  1.00  0.00    -0.550 OA
ENDBRANCH  14  15
ENDBRANCH  13  14
ENDBRANCH  12  13
ENDBRANCH  11  12
ENDBRANCH  10  11
ENDBRANCH   9  10
ENDBRANCH   8   9
ENDBRANCH   7   8
ENDBRANCH   6   7
ENDBRANCH   5   6
ENDBRANCH   4   5
ENDBRANCH   3   4
ENDBRANCH   2   3
ENDBRANCH   1   2
BRANCH   1  18
ATOM     18  C   UNL     1      21.600  -0.605  12.503  1.00  0.00     0.000 C 
BRANCH  18  19
ATOM     19  C   UNL     1      20.261  -1.274  12.851  1.00  0.00     0.000 C 
BRANCH  19  20
ATOM     20  C   UNL     1      20.478  -2.628  13.540  1.00  0.00     0.000 C 
BRANCH  20  21
ATOM     21  C   UNL     1      20.697  -2.436  15.045  1.00  0.00     0.000 C 
BRANCH  21  22
ATOM     22  C   UNL     1      22.115  -2.858  15.461  1.00  0.00     0.000 C 
BRANCH  22  23
ATOM     23  C   UNL     1      22.524  -2.305  16.837  1.00  0.00     0.000 C 
BRANCH  23  24
ATOM     24  C   UNL     1      23.916  -2.743  17.340  1.00  0.00    -0.000 C 
BRANCH  24  25
ATOM     25  C   UNL     1      24.275  -2.214  18.744  1.00  0.00    -0.000 C 
BRANCH  25  26
ATOM     26  C   UNL     1      23.207  -1.267  19.321  1.00  0.00    -0.000 C 
BRANCH  26  27
ATOM     27  C   UNL     1      23.709   0.181  19.475  1.00  0.00    -0.000 C 
BRANCH  27  28
ATOM     28  C   UNL     1      22.626   1.266  19.332  1.00  0.00    -0.000 C 
BRANCH  28  29
ATOM     29  C   UNL     1      21.219   0.689  19.109  1.00  0.00    -0.000 C 
BRANCH  29  30
ATOM     30  C   UNL     1      20.756   0.922  17.665  1.00  0.00    -0.000 C 
BRANCH  30  31
ATOM     31  C   UNL     1      19.528   0.064  17.335  1.00  0.00    -0.003 C 
ATOM     32  C   UNL     1      19.383  -1.090  18.325  1.00  0.00     0.004 C 
ENDBRANCH  30  31
ENDBRANCH  29  30
ENDBRANCH  28  29
ENDBRANCH  27  28
ENDBRANCH  26  27
ENDBRANCH  25  26
ENDBRANCH  24  25
ENDBRANCH  23  24
ENDBRANCH  22  23
ENDBRANCH  21  22
ENDBRANCH  20  21
ENDBRANCH  19  20
ENDBRANCH  18  19
ENDBRANCH   1  18
TORSDOF 28
ENDMDL
MODEL 7
REMARK VINA RESULT:    -3.954      2.221      7.592
REMARK INTER + INTRA:         -16.167
REMARK INTER:                 -10.018
REMARK INTRA:                  -6.149
REMARK UNBOUND:                -5.742
REMARK SMILES CCCCCCCCCCCCCCCCCCCCCCCCCCCCCC(=O)[O-]
REMARK SMILES IDX 16 1 17 2 18 3 19 4 20 5 21 6 22 7 23 8 24 9 25 10 26 11
REMARK SMILES IDX 27 12 28 13 29 14 30 15 31 16 32 17 15 18 14 19 13 20 12 21
REMARK SMILES IDX 11 22 10 23 9 24 8 25 7 26 6 27 5 28 4 29 3 30 2 31 1 32
REMARK H PARENT
REMARK Flexibility Score: inf
ROOT
ATOM      1  C   UNL     1      23.006   1.590  14.629  1.00  0.00     0.000 C 
ENDROOT
BRANCH   1   2
ATOM      2  C   UNL     1      24.224   1.298  15.521  1.00  0.00     0.000 C 
BRANCH   2   3
ATOM      3  C   UNL     1      25.138   2.525  15.700  1.00  0.00     0.000 C 
BRANCH   3   4
ATOM      4  C   UNL     1      25.752   2.647  17.112  1.00  0.00     0.000 C 
BRANCH   4   5
ATOM      5  C   UNL     1      24.914   1.927  18.189  1.00  0.00     0.000 C 
BRANCH   5   6
ATOM      6  C   UNL     1      24.130   2.896  19.088  1.00  0.00     0.000 C 
BRANCH   6   7
ATOM      7  C   UNL     1      22.815   3.372  18.453  1.00  0.00     0.000 C 
BRANCH   7   8
ATOM      8  C   UNL     1      21.636   2.491  18.902  1.00  0.00     0.000 C 
BRANCH   8   9
ATOM      9  C   UNL     1      21.246   1.415  17.864  1.00  0.00     0.000 C 
BRANCH   9  10
ATOM     10  C   UNL     1      21.023   0.010  18.452  1.00  0.00     0.000 C 
BRANCH  10  11
ATOM     11  C   UNL     1      20.463  -0.997  17.427  1.00  0.00     0.000 C 
BRANCH  11  12
ATOM     12  C   UNL     1      20.224  -0.371  16.041  1.00  0.00     0.000 C 
BRANCH  12  13
ATOM     13  C   UNL     1      20.514  -1.311  14.850  1.00  0.00     0.006 C 
BRANCH  13  14
ATOM     14  C   UNL     1      21.261  -2.606  15.216  1.00  0.00     0.053 C 
BRANCH  14  15
ATOM     15  C   UNL     1      22.732  -2.492  14.967  1.00  0.00     0.041 C 
ATOM     16  O   UNL     1      23.217  -2.891  13.875  1.00  0.00    -0.550 OA
ATOM     17  O   UNL     1      23.570  -1.971  15.947  1.00  0.00    -0.550 OA
ENDBRANCH  14  15
ENDBRANCH  13  14
ENDBRANCH  12  13
ENDBRANCH  11  12
ENDBRANCH  10  11
ENDBRANCH   9  10
ENDBRANCH   8   9
ENDBRANCH   7   8
ENDBRANCH   6   7
ENDBRANCH   5   6
ENDBRANCH   4   5
ENDBRANCH   3   4
ENDBRANCH   2   3
ENDBRANCH   1   2
BRANCH   1  18
ATOM     18  C   UNL     1      22.776   3.094  14.395  1.00  0.00     0.000 C 
BRANCH  18  19
ATOM     19  C   UNL     1      22.001   3.392  13.103  1.00  0.00     0.000 C 
BRANCH  19  20
ATOM     20  C   UNL     1      22.529   4.658  12.416  1.00  0.00     0.000 C 
BRANCH  20  21
ATOM     21  C   UNL     1      24.032   4.820  12.669  1.00  0.00     0.000 C 
BRANCH  21  22
ATOM     22  C   UNL     1      24.395   6.285  12.959  1.00  0.00     0.000 C 
BRANCH  22  23
ATOM     23  C   UNL     1      25.482   6.429  14.039  1.00  0.00     0.000 C 
BRANCH  23  24
ATOM     24  C   UNL     1      25.002   7.005  15.388  1.00  0.00    -0.000 C 
BRANCH  24  25
ATOM     25  C   UNL     1      24.157   6.026  16.227  1.00  0.00    -0.000 C 
BRANCH  25  26
ATOM     26  C   UNL     1      22.797   6.612  16.648  1.00  0.00    -0.000 C 
BRANCH  26  27
ATOM     27  C   UNL     1      21.909   6.992  15.447  1.00  0.00    -0.000 C 
BRANCH  27  28
ATOM     28  C   UNL     1      20.609   6.179  15.313  1.00  0.00    -0.000 C 
BRANCH  28  29
ATOM     29  C   UNL     1      20.431   5.137  16.429  1.00  0.00    -0.000 C 
BRANCH  29  30
ATOM     30  C   UNL     1      18.998   5.161  16.974  1.00  0.00    -0.000 C 
BRANCH  30  31
ATOM     31  C   UNL     1      18.886   6.089  18.191  1.00  0.00    -0.003 C 
ATOM     32  C   UNL     1      20.068   5.897  19.137  1.00  0.00     0.004 C 
ENDBRANCH  30  31
ENDBRANCH  29  30
ENDBRANCH  28  29
ENDBRANCH  27  28
ENDBRANCH  26  27
ENDBRANCH  25  26
ENDBRANCH  24  25
ENDBRANCH  23  24
ENDBRANCH  22  23
ENDBRANCH  21  22
ENDBRANCH  20  21
ENDBRANCH  19  20
ENDBRANCH  18  19
ENDBRANCH   1  18
TORSDOF 28
ENDMDL
MODEL 8
REMARK VINA RESULT:    -3.929      2.683      4.082
REMARK INTER + INTRA:         -16.102
REMARK INTER:                 -10.041
REMARK INTRA:                  -6.061
REMARK UNBOUND:                -5.742
REMARK SMILES CCCCCCCCCCCCCCCCCCCCCCCCCCCCCC(=O)[O-]
REMARK SMILES IDX 16 1 17 2 18 3 19 4 20 5 21 6 22 7 23 8 24 9 25 10 26 11
REMARK SMILES IDX 27 12 28 13 29 14 30 15 31 16 32 17 15 18 14 19 13 20 12 21
REMARK SMILES IDX 11 22 10 23 9 24 8 25 7 26 6 27 5 28 4 29 3 30 2 31 1 32
REMARK H PARENT
REMARK Flexibility Score: inf
ROOT
ATOM      1  C   UNL     1      24.505   2.026  16.511  1.00  0.00     0.000 C 
ENDROOT
BRANCH   1   2
ATOM      2  C   UNL     1      24.138   1.974  15.018  1.00  0.00     0.000 C 
BRANCH   2   3
ATOM      3  C   UNL     1      22.727   2.523  14.734  1.00  0.00     0.000 C 
BRANCH   3   4
ATOM      4  C   UNL     1      22.453   2.800  13.239  1.00  0.00     0.000 C 
BRANCH   4   5
ATOM      5  C   UNL     1      21.692   4.121  13.010  1.00  0.00     0.000 C 
BRANCH   5   6
ATOM      6  C   UNL     1      22.619   5.301  12.680  1.00  0.00     0.000 C 
BRANCH   6   7
ATOM      7  C   UNL     1      24.077   4.872  12.456  1.00  0.00     0.000 C 
BRANCH   7   8
ATOM      8  C   UNL     1      25.043   5.772  13.247  1.00  0.00     0.000 C 
BRANCH   8   9
ATOM      9  C   UNL     1      24.410   6.384  14.516  1.00  0.00     0.000 C 
BRANCH   9  10
ATOM     10  C   UNL     1      24.802   5.683  15.829  1.00  0.00     0.000 C 
BRANCH  10  11
ATOM     11  C   UNL     1      23.600   5.407  16.754  1.00  0.00     0.000 C 
BRANCH  11  12
ATOM     12  C   UNL     1      22.329   6.164  16.328  1.00  0.00     0.000 C 
BRANCH  12  13
ATOM     13  C   UNL     1      21.017   5.364  16.488  1.00  0.00     0.006 C 
BRANCH  13  14
ATOM     14  C   UNL     1      19.840   5.878  15.641  1.00  0.00     0.053 C 
BRANCH  14  15
ATOM     15  C   UNL     1      18.600   6.061  16.459  1.00  0.00     0.041 C 
ATOM     16  O   UNL     1      17.601   6.648  15.963  1.00  0.00    -0.550 OA
ATOM     17  O   UNL     1      18.555   5.609  17.773  1.00  0.00    -0.550 OA
ENDBRANCH  14  15
ENDBRANCH  13  14
ENDBRANCH  12  13
ENDBRANCH  11  12
ENDBRANCH  10  11
ENDBRANCH   9  10
ENDBRANCH   8   9
ENDBRANCH   7   8
ENDBRANCH   6   7
ENDBRANCH   5   6
ENDBRANCH   4   5
ENDBRANCH   3   4
ENDBRANCH   2   3
ENDBRANCH   1   2
BRANCH   1  18
ATOM     18  C   UNL     1      23.659   1.075  17.374  1.00  0.00     0.000 C 
BRANCH  18  19
ATOM     19  C   UNL     1      22.618   1.807  18.235  1.00  0.00     0.000 C 
BRANCH  19  20
ATOM     20  C   UNL     1      21.191   1.368  17.878  1.00  0.00     0.000 C 
BRANCH  20  21
ATOM     21  C   UNL     1      21.184  -0.083  17.383  1.00  0.00     0.000 C 
BRANCH  21  22
ATOM     22  C   UNL     1      20.019  -0.337  16.414  1.00  0.00     0.000 C 
BRANCH  22  23
ATOM     23  C   UNL     1      20.485  -0.840  15.036  1.00  0.00     0.000 C 
BRANCH  23  24
ATOM     24  C   UNL     1      22.003  -1.089  14.902  1.00  0.00    -0.000 C 
BRANCH  24  25
ATOM     25  C   UNL     1      22.375  -2.553  14.584  1.00  0.00    -0.000 C 
BRANCH  25  26
ATOM     26  C   UNL     1      23.797  -2.925  15.041  1.00  0.00    -0.000 C 
BRANCH  26  27
ATOM     27  C   UNL     1      23.812  -3.783  16.320  1.00  0.00    -0.000 C 
BRANCH  27  28
ATOM     28  C   UNL     1      23.683  -2.996  17.637  1.00  0.00    -0.000 C 
BRANCH  28  29
ATOM     29  C   UNL     1      22.344  -3.230  18.353  1.00  0.00    -0.000 C 
BRANCH  29  30
ATOM     30  C   UNL     1      21.594  -4.416  17.733  1.00  0.00    -0.000 C 
BRANCH  30  31
ATOM     31  C   UNL     1      20.187  -4.003  17.280  1.00  0.00    -0.003 C 
ATOM     32  C   UNL     1      19.386  -3.422  18.442  1.00  0.00     0.004 C 
ENDBRANCH  30  31
ENDBRANCH  29  30
ENDBRANCH  28  29
ENDBRANCH  27  28
ENDBRANCH  26  27
ENDBRANCH  25  26
ENDBRANCH  24  25
ENDBRANCH  23  24
ENDBRANCH  22  23
ENDBRANCH  21  22
ENDBRANCH  20  21
ENDBRANCH  19  20
ENDBRANCH  18  19
ENDBRANCH   1  18
TORSDOF 28
ENDMDL
MODEL 9
REMARK VINA RESULT:    -3.890      2.441      7.017
REMARK INTER + INTRA:         -15.999
REMARK INTER:                 -10.423
REMARK INTRA:                  -5.576
REMARK UNBOUND:                -5.742
REMARK SMILES CCCCCCCCCCCCCCCCCCCCCCCCCCCCCC(=O)[O-]
REMARK SMILES IDX 16 1 17 2 18 3 19 4 20 5 21 6 22 7 23 8 24 9 25 10 26 11
REMARK SMILES IDX 27 12 28 13 29 14 30 15 31 16 32 17 15 18 14 19 13 20 12 21
REMARK SMILES IDX 11 22 10 23 9 24 8 25 7 26 6 27 5 28 4 29 3 30 2 31 1 32
REMARK H PARENT
REMARK Flexibility Score: inf
ROOT
ATOM      1  C   UNL     1      23.382  -3.007  17.460  1.00  0.00     0.000 C 
ENDROOT
BRANCH   1   2
ATOM      2  C   UNL     1      24.154  -3.022  16.129  1.00  0.00     0.000 C 
BRANCH   2   3
ATOM      3  C   UNL     1      23.223  -3.001  14.902  1.00  0.00     0.000 C 
BRANCH   3   4
ATOM      4  C   UNL     1      21.724  -2.878  15.255  1.00  0.00     0.000 C 
BRANCH   4   5
ATOM      5  C   UNL     1      20.849  -2.555  14.028  1.00  0.00     0.000 C 
BRANCH   5   6
ATOM      6  C   UNL     1      20.464  -1.070  13.938  1.00  0.00     0.000 C 
BRANCH   6   7
ATOM      7  C   UNL     1      21.374  -0.271  12.992  1.00  0.00     0.000 C 
BRANCH   7   8
ATOM      8  C   UNL     1      22.018   0.920  13.722  1.00  0.00     0.000 C 
BRANCH   8   9
ATOM      9  C   UNL     1      23.156   0.508  14.682  1.00  0.00     0.000 C 
BRANCH   9  10
ATOM     10  C   UNL     1      22.802   0.610  16.176  1.00  0.00     0.000 C 
BRANCH  10  11
ATOM     11  C   UNL     1      21.643   1.586  16.461  1.00  0.00     0.000 C 
BRANCH  11  12
ATOM     12  C   UNL     1      20.560   0.980  17.373  1.00  0.00     0.000 C 
BRANCH  12  13
ATOM     13  C   UNL     1      20.892  -0.426  17.923  1.00  0.00     0.006 C 
BRANCH  13  14
ATOM     14  C   UNL     1      19.706  -1.406  17.949  1.00  0.00     0.053 C 
BRANCH  14  15
ATOM     15  C   UNL     1      19.326  -1.787  19.345  1.00  0.00     0.041 C 
ATOM     16  O   UNL     1      18.202  -1.452  19.805  1.00  0.00    -0.550 OA
ATOM     17  O   UNL     1      20.220  -2.490  20.147  1.00  0.00    -0.550 OA
ENDBRANCH  14  15
ENDBRANCH  13  14
ENDBRANCH  12  13
ENDBRANCH  11  12
ENDBRANCH  10  11
ENDBRANCH   9  10
ENDBRANCH   8   9
ENDBRANCH   7   8
ENDBRANCH   6   7
ENDBRANCH   5   6
ENDBRANCH   4   5
ENDBRANCH   3   4
ENDBRANCH   2   3
ENDBRANCH   1   2
BRANCH   1  18
ATOM     18  C   UNL     1      24.289  -3.218  18.684  1.00  0.00     0.000 C 
BRANCH  18  19
ATOM     19  C   UNL     1      24.153  -2.105  19.734  1.00  0.00     0.000 C 
BRANCH  19  20
ATOM     20  C   UNL     1      24.418  -0.724  19.119  1.00  0.00     0.000 C 
BRANCH  20  21
ATOM     21  C   UNL     1      24.269   0.374  20.179  1.00  0.00     0.000 C 
BRANCH  21  22
ATOM     22  C   UNL     1      23.519   1.593  19.619  1.00  0.00     0.000 C 
BRANCH  22  23
ATOM     23  C   UNL     1      24.458   2.751  19.241  1.00  0.00     0.000 C 
BRANCH  23  24
ATOM     24  C   UNL     1      25.841   2.332  18.698  1.00  0.00    -0.000 C 
BRANCH  24  25
ATOM     25  C   UNL     1      26.015   2.552  17.181  1.00  0.00    -0.000 C 
BRANCH  25  26
ATOM     26  C   UNL     1      25.021   3.575  16.602  1.00  0.00    -0.000 C 
BRANCH  26  27
ATOM     27  C   UNL     1      24.823   3.427  15.082  1.00  0.00    -0.000 C 
BRANCH  27  28
ATOM     28  C   UNL     1      23.677   4.267  14.488  1.00  0.00    -0.000 C 
BRANCH  28  29
ATOM     29  C   UNL     1      24.066   4.984  13.186  1.00  0.00    -0.000 C 
BRANCH  29  30
ATOM     30  C   UNL     1      25.378   5.759  13.360  1.00  0.00    -0.000 C 
BRANCH  30  31
ATOM     31  C   UNL     1      25.113   7.262  13.524  1.00  0.00    -0.003 C 
ATOM     32  C   UNL     1      25.124   7.663  14.996  1.00  0.00     0.004 C 
ENDBRANCH  30  31
ENDBRANCH  29  30
ENDBRANCH  28  29
ENDBRANCH  27  28
ENDBRANCH  26  27
ENDBRANCH  25  26
ENDBRANCH  24  25
ENDBRANCH  23  24
ENDBRANCH  22  23
ENDBRANCH  21  22
ENDBRANCH  20  21
ENDBRANCH  19  20
ENDBRANCH  18  19
ENDBRANCH   1  18
TORSDOF 28
ENDMDL
