MODEL 1
REMARK VINA RESULT:    -3.290      0.000      0.000
REMARK INTER + INTRA:          -9.690
REMARK INTER:                  -7.521
REMARK INTRA:                  -2.169
REMARK UNBOUND:                -2.169
REMARK SMILES CCCCCCCCCCCCCCCCCCCCCCCC(=O)[O-]
REMARK SMILES IDX 13 1 14 2 15 3 16 4 17 5 18 6 19 7 20 8 21 9 22 10 23 11
REMARK SMILES IDX 24 12 25 13 26 14 12 15 11 16 10 17 9 18 8 19 7 20 6 21 5 22
REMARK SMILES IDX 4 23 3 24 2 25 1 26
REMARK H PARENT
REMARK Flexibility Score: inf
ROOT
ATOM      1  C   UNL     1      -2.837  12.762  -4.621  1.00  0.00     0.000 C 
ENDROOT
BRANCH   1   2
ATOM      2  C   UNL     1      -1.552  11.932  -4.428  1.00  0.00     0.000 C 
BRANCH   2   3
ATOM      3  C   UNL     1      -0.268  12.752  -4.192  1.00  0.00     0.000 C 
BRANCH   3   4
ATOM      4  C   UNL     1       0.870  11.991  -3.487  1.00  0.00     0.000 C 
BRANCH   4   5
ATOM      5  C   UNL     1       0.360  10.837  -2.607  1.00  0.00     0.000 C 
BRANCH   5   6
ATOM      6  C   UNL     1       1.498  10.097  -1.883  1.00  0.00     0.000 C 
BRANCH   6   7
ATOM      7  C   UNL     1       2.771   9.986  -2.742  1.00  0.00     0.000 C 
BRANCH   7   8
ATOM      8  C   UNL     1       3.919   9.280  -2.002  1.00  0.00     0.000 C 
BRANCH   8   9
ATOM      9  C   UNL     1       3.957   7.767  -2.271  1.00  0.00     0.000 C 
BRANCH   9  10
ATOM     10  C   UNL     1       3.944   6.976  -0.955  1.00  0.00     0.006 C 
BRANCH  10  11
ATOM     11  C   UNL     1       3.646   7.869   0.258  1.00  0.00     0.053 C 
BRANCH  11  12
ATOM     12  C   UNL     1       2.630   7.250   1.168  1.00  0.00     0.041 C 
ATOM     13  O   UNL     1       2.997   6.523   2.127  1.00  0.00    -0.550 OA
ATOM     14  O   UNL     1       1.274   7.449   0.936  1.00  0.00    -0.550 OA
ENDBRANCH  11  12
ENDBRANCH  10  11
ENDBRANCH   9  10
ENDBRANCH   8   9
ENDBRANCH   7   8
ENDBRANCH   6   7
ENDBRANCH   5   6
ENDBRANCH   4   5
ENDBRANCH   3   4
ENDBRANCH   2   3
ENDBRANCH   1   2
BRANCH   1  15
ATOM     15  C   UNL     1      -3.097  13.239  -6.061  1.00  0.00     0.000 C 
BRANCH  15  16
ATOM     16  C   UNL     1      -3.605  14.689  -6.125  1.00  0.00     0.000 C 
BRANCH  16  17
ATOM     17  C   UNL     1      -2.840  15.628  -5.177  1.00  0.00     0.000 C 
BRANCH  17  18
ATOM     18  C   UNL     1      -2.499  16.979  -5.830  1.00  0.00    -0.000 C 
BRANCH  18  19
ATOM     19  C   UNL     1      -0.984  17.223  -5.938  1.00  0.00    -0.000 C 
BRANCH  19  20
ATOM     20  C   UNL     1      -0.103  15.993  -5.639  1.00  0.00    -0.000 C 
BRANCH  20  21
ATOM     21  C   UNL     1       0.659  16.083  -4.299  1.00  0.00    -0.000 C 
BRANCH  21  22
ATOM     22  C   UNL     1      -0.192  16.722  -3.186  1.00  0.00    -0.000 C 
BRANCH  22  23
ATOM     23  C   UNL     1      -0.617  15.695  -2.114  1.00  0.00    -0.000 C 
BRANCH  23  24
ATOM     24  C   UNL     1      -0.482  16.215  -0.673  1.00  0.00    -0.000 C 
BRANCH  24  25
ATOM     25  C   UNL     1       0.900  15.939  -0.066  1.00  0.00    -0.003 C 
ATOM     26  C   UNL     1       1.065  16.651   1.274  1.00  0.00     0.004 C 
ENDBRANCH  24  25
ENDBRANCH  23  24
ENDBRANCH  22  23
ENDBRANCH  21  22
ENDBRANCH  20  21
ENDBRANCH  19  20
ENDBRANCH  18  19
ENDBRANCH  17  18
ENDBRANCH  16  17
ENDBRANCH  15  16
ENDBRANCH   1  15
TORSDOF 22
ENDMDL
MODEL 2
REMARK VINA RESULT:    -2.870      1.350      2.938
REMARK INTER + INTRA:          -8.731
REMARK INTER:                  -6.780
REMARK INTRA:                  -1.951
REMARK UNBOUND:                -2.169
REMARK SMILES CCCCCCCCCCCCCCCCCCCCCCCC(=O)[O-]
REMARK SMILES IDX 13 1 14 2 15 3 16 4 17 5 18 6 19 7 20 8 21 9 22 10 23 11
REMARK SMILES IDX 24 12 25 13 26 14 12 15 11 16 10 17 9 18 8 19 7 20 6 21 5 22
REMARK SMILES IDX 4 23 3 24 2 25 1 26
REMARK H PARENT
REMARK Flexibility Score: inf
ROOT
ATOM      1  C   UNL     1      -2.981  15.630  -5.338  1.00  0.00     0.000 C 
ENDROOT
BRANCH   1   2
ATOM      2  C   UNL     1      -3.743  14.454  -5.980  1.00  0.00     0.000 C 
BRANCH   2   3
ATOM      3  C   UNL     1      -3.002  13.101  -5.963  1.00  0.00     0.000 C 
BRANCH   3   4
ATOM      4  C   UNL     1      -2.602  12.596  -4.564  1.00  0.00     0.000 C 
BRANCH   4   5
ATOM      5  C   UNL     1      -2.413  11.070  -4.515  1.00  0.00     0.000 C 
BRANCH   5   6
ATOM      6  C   UNL     1      -1.119  10.658  -3.792  1.00  0.00     0.000 C 
BRANCH   6   7
ATOM      7  C   UNL     1      -0.131  11.828  -3.634  1.00  0.00     0.000 C 
BRANCH   7   8
ATOM      8  C   UNL     1       1.010  11.505  -2.656  1.00  0.00     0.000 C 
BRANCH   8   9
ATOM      9  C   UNL     1       1.894  10.344  -3.136  1.00  0.00     0.000 C 
BRANCH   9  10
ATOM     10  C   UNL     1       2.447   9.547  -1.946  1.00  0.00     0.006 C 
BRANCH  10  11
ATOM     11  C   UNL     1       1.442   9.459  -0.788  1.00  0.00     0.053 C 
BRANCH  11  12
ATOM     12  C   UNL     1       1.847   8.430   0.223  1.00  0.00     0.041 C 
ATOM     13  O   UNL     1       1.068   7.485   0.513  1.00  0.00    -0.550 OA
ATOM     14  O   UNL     1       3.073   8.534   0.870  1.00  0.00    -0.550 OA
ENDBRANCH  11  12
ENDBRANCH  10  11
ENDBRANCH   9  10
ENDBRANCH   8   9
ENDBRANCH   7   8
ENDBRANCH   6   7
ENDBRANCH   5   6
ENDBRANCH   4   5
ENDBRANCH   3   4
ENDBRANCH   2   3
ENDBRANCH   1   2
BRANCH   1  15
ATOM     15  C   UNL     1      -3.035  16.952  -6.125  1.00  0.00     0.000 C 
BRANCH  15  16
ATOM     16  C   UNL     1      -2.148  18.047  -5.511  1.00  0.00     0.000 C 
BRANCH  16  17
ATOM     17  C   UNL     1      -0.724  18.052  -6.092  1.00  0.00     0.000 C 
BRANCH  17  18
ATOM     18  C   UNL     1       0.297  18.717  -5.153  1.00  0.00    -0.000 C 
BRANCH  18  19
ATOM     19  C   UNL     1       1.257  17.704  -4.504  1.00  0.00    -0.000 C 
BRANCH  19  20
ATOM     20  C   UNL     1       1.920  16.716  -5.484  1.00  0.00    -0.000 C 
BRANCH  20  21
ATOM     21  C   UNL     1       1.470  15.251  -5.292  1.00  0.00    -0.000 C 
BRANCH  21  22
ATOM     22  C   UNL     1       0.036  15.150  -4.740  1.00  0.00    -0.000 C 
BRANCH  22  23
ATOM     23  C   UNL     1       0.008  15.082  -3.197  1.00  0.00    -0.000 C 
BRANCH  23  24
ATOM     24  C   UNL     1      -1.162  15.857  -2.566  1.00  0.00    -0.000 C 
BRANCH  24  25
ATOM     25  C   UNL     1      -0.974  16.102  -1.063  1.00  0.00    -0.003 C 
ATOM     26  C   UNL     1       0.447  15.763  -0.623  1.00  0.00     0.004 C 
ENDBRANCH  24  25
ENDBRANCH  23  24
ENDBRANCH  22  23
ENDBRANCH  21  22
ENDBRANCH  20  21
ENDBRANCH  19  20
ENDBRANCH  18  19
ENDBRANCH  17  18
ENDBRANCH  16  17
ENDBRANCH  15  16
ENDBRANCH   1  15
TORSDOF 22
ENDMDL
MODEL 3
REMARK VINA RESULT:    -2.632      7.273     10.161
REMARK INTER + INTRA:          -8.186
REMARK INTER:                  -7.198
REMARK INTRA:                  -0.988
REMARK UNBOUND:                -2.169
REMARK SMILES CCCCCCCCCCCCCCCCCCCCCCCC(=O)[O-]
REMARK SMILES IDX 13 1 14 2 15 3 16 4 17 5 18 6 19 7 20 8 21 9 22 10 23 11
REMARK SMILES IDX 24 12 25 13 26 14 12 15 11 16 10 17 9 18 8 19 7 20 6 21 5 22
REMARK SMILES IDX 4 23 3 24 2 25 1 26
REMARK H PARENT
REMARK Flexibility Score: inf
ROOT
ATOM      1  C   UNL     1      -4.601  19.234  -5.597  1.00  0.00     0.000 C 
ENDROOT
BRANCH   1   2
ATOM      2  C   UNL     1      -3.220  19.708  -6.095  1.00  0.00     0.000 C 
BRANCH   2   3
ATOM      3  C   UNL     1      -2.121  18.626  -6.115  1.00  0.00     0.000 C 
BRANCH   3   4
ATOM      4  C   UNL     1      -2.551  17.251  -5.572  1.00  0.00     0.000 C 
BRANCH   4   5
ATOM      5  C   UNL     1      -1.530  16.654  -4.587  1.00  0.00     0.000 C 
BRANCH   5   6
ATOM      6  C   UNL     1      -0.364  17.614  -4.292  1.00  0.00     0.000 C 
BRANCH   6   7
ATOM      7  C   UNL     1       0.889  16.882  -3.781  1.00  0.00     0.000 C 
BRANCH   7   8
ATOM      8  C   UNL     1       2.153  17.256  -4.573  1.00  0.00     0.000 C 
BRANCH   8   9
ATOM      9  C   UNL     1       2.574  16.165  -5.569  1.00  0.00     0.000 C 
BRANCH   9  10
ATOM     10  C   UNL     1       1.383  15.268  -5.937  1.00  0.00     0.006 C 
BRANCH  10  11
ATOM     11  C   UNL     1       1.552  13.834  -5.417  1.00  0.00     0.053 C 
BRANCH  11  12
ATOM     12  C   UNL     1       0.377  13.397  -4.596  1.00  0.00     0.041 C 
ATOM     13  O   UNL     1       0.535  12.592  -3.641  1.00  0.00    -0.550 OA
ATOM     14  O   UNL     1      -0.898  13.853  -4.907  1.00  0.00    -0.550 OA
ENDBRANCH  11  12
ENDBRANCH  10  11
ENDBRANCH   9  10
ENDBRANCH   8   9
ENDBRANCH   7   8
ENDBRANCH   6   7
ENDBRANCH   5   6
ENDBRANCH   4   5
ENDBRANCH   3   4
ENDBRANCH   2   3
ENDBRANCH   1   2
BRANCH   1  15
ATOM     15  C   UNL     1      -5.799  20.044  -6.125  1.00  0.00     0.000 C 
BRANCH  15  16
ATOM     16  C   UNL     1      -7.129  19.280  -6.012  1.00  0.00     0.000 C 
BRANCH  16  17
ATOM     17  C   UNL     1      -8.353  20.209  -6.077  1.00  0.00     0.000 C 
BRANCH  17  18
ATOM     18  C   UNL     1      -9.024  20.402  -4.706  1.00  0.00    -0.000 C 
BRANCH  18  19
ATOM     19  C   UNL     1      -8.535  21.665  -3.977  1.00  0.00    -0.000 C 
BRANCH  19  20
ATOM     20  C   UNL     1      -9.600  22.377  -3.120  1.00  0.00    -0.000 C 
BRANCH  20  21
ATOM     21  C   UNL     1     -10.397  23.457  -3.885  1.00  0.00    -0.000 C 
BRANCH  21  22
ATOM     22  C   UNL     1     -11.727  22.915  -4.440  1.00  0.00    -0.000 C 
BRANCH  22  23
ATOM     23  C   UNL     1     -12.218  21.671  -3.669  1.00  0.00    -0.000 C 
BRANCH  23  24
ATOM     24  C   UNL     1     -13.739  21.643  -3.445  1.00  0.00    -0.000 C 
BRANCH  24  25
ATOM     25  C   UNL     1     -14.344  23.043  -3.280  1.00  0.00    -0.003 C 
ATOM     26  C   UNL     1     -15.440  23.048  -2.218  1.00  0.00     0.004 C 
ENDBRANCH  24  25
ENDBRANCH  23  24
ENDBRANCH  22  23
ENDBRANCH  21  22
ENDBRANCH  20  21
ENDBRANCH  19  20
ENDBRANCH  18  19
ENDBRANCH  17  18
ENDBRANCH  16  17
ENDBRANCH  15  16
ENDBRANCH   1  15
TORSDOF 22
ENDMDL
MODEL 4
REMARK VINA RESULT:    -2.465      1.409      2.680
REMARK INTER + INTRA:          -7.805
REMARK INTER:                  -6.553
REMARK INTRA:                  -1.252
REMARK UNBOUND:                -2.169
REMARK SMILES CCCCCCCCCCCCCCCCCCCCCCCC(=O)[O-]
REMARK SMILES IDX 13 1 14 2 15 3 16 4 17 5 18 6 19 7 20 8 21 9 22 10 23 11
REMARK SMILES IDX 24 12 25 13 26 14 12 15 11 16 10 17 9 18 8 19 7 20 6 21 5 22
REMARK SMILES IDX 4 23 3 24 2 25 1 26
REMARK H PARENT
REMARK Flexibility Score: inf
ROOT
ATOM      1  C   UNL     1      -2.669  13.635  -4.844  1.00  0.00     0.000 C 
ENDROOT
BRANCH   1   2
ATOM      2  C   UNL     1      -2.526  12.160  -5.271  1.00  0.00     0.000 C 
BRANCH   2   3
ATOM      3  C   UNL     1      -1.607  11.303  -4.377  1.00  0.00     0.000 C 
BRANCH   3   4
ATOM      4  C   UNL     1      -0.591  12.097  -3.536  1.00  0.00     0.000 C 
BRANCH   4   5
ATOM      5  C   UNL     1       0.864  11.671  -3.802  1.00  0.00     0.000 C 
BRANCH   5   6
ATOM      6  C   UNL     1       1.376  10.646  -2.776  1.00  0.00     0.000 C 
BRANCH   6   7
ATOM      7  C   UNL     1       2.622   9.888  -3.268  1.00  0.00     0.000 C 
BRANCH   7   8
ATOM      8  C   UNL     1       3.629   9.615  -2.139  1.00  0.00     0.000 C 
BRANCH   8   9
ATOM      9  C   UNL     1       3.884   8.116  -1.920  1.00  0.00     0.000 C 
BRANCH   9  10
ATOM     10  C   UNL     1       3.939   7.782  -0.422  1.00  0.00     0.006 C 
BRANCH  10  11
ATOM     11  C   UNL     1       3.066   8.726   0.416  1.00  0.00     0.053 C 
BRANCH  11  12
ATOM     12  C   UNL     1       1.677   8.193   0.590  1.00  0.00     0.041 C 
ATOM     13  O   UNL     1       1.497   7.013   0.991  1.00  0.00    -0.550 OA
ATOM     14  O   UNL     1       0.581   8.987   0.278  1.00  0.00    -0.550 OA
ENDBRANCH  11  12
ENDBRANCH  10  11
ENDBRANCH   9  10
ENDBRANCH   8   9
ENDBRANCH   7   8
ENDBRANCH   6   7
ENDBRANCH   5   6
ENDBRANCH   4   5
ENDBRANCH   3   4
ENDBRANCH   2   3
ENDBRANCH   1   2
BRANCH   1  15
ATOM     15  C   UNL     1      -3.237  14.575  -5.922  1.00  0.00     0.000 C 
BRANCH  15  16
ATOM     16  C   UNL     1      -2.578  15.964  -5.907  1.00  0.00     0.000 C 
BRANCH  16  17
ATOM     17  C   UNL     1      -1.300  16.005  -5.053  1.00  0.00     0.000 C 
BRANCH  17  18
ATOM     18  C   UNL     1      -1.577  16.393  -3.590  1.00  0.00    -0.000 C 
BRANCH  18  19
ATOM     19  C   UNL     1      -0.568  15.773  -2.608  1.00  0.00    -0.000 C 
BRANCH  19  20
ATOM     20  C   UNL     1      -0.748  16.193  -1.136  1.00  0.00    -0.000 C 
BRANCH  20  21
ATOM     21  C   UNL     1       0.447  15.824  -0.231  1.00  0.00    -0.000 C 
BRANCH  21  22
ATOM     22  C   UNL     1       0.701  16.883   0.858  1.00  0.00    -0.000 C 
BRANCH  22  23
ATOM     23  C   UNL     1       1.928  16.539   1.731  1.00  0.00    -0.000 C 
BRANCH  23  24
ATOM     24  C   UNL     1       2.033  17.388   3.010  1.00  0.00    -0.000 C 
BRANCH  24  25
ATOM     25  C   UNL     1       1.328  16.746   4.212  1.00  0.00    -0.003 C 
ATOM     26  C   UNL     1       1.674  17.475   5.507  1.00  0.00     0.004 C 
ENDBRANCH  24  25
ENDBRANCH  23  24
ENDBRANCH  22  23
ENDBRANCH  21  22
ENDBRANCH  20  21
ENDBRANCH  19  20
ENDBRANCH  18  19
ENDBRANCH  17  18
ENDBRANCH  16  17
ENDBRANCH  15  16
ENDBRANCH   1  15
TORSDOF 22
ENDMDL
MODEL 5
REMARK VINA RESULT:    -2.328      7.326     10.075
REMARK INTER + INTRA:          -7.490
REMARK INTER:                  -5.786
REMARK INTRA:                  -1.704
REMARK UNBOUND:                -2.169
REMARK SMILES CCCCCCCCCCCCCCCCCCCCCCCC(=O)[O-]
REMARK SMILES IDX 13 1 14 2 15 3 16 4 17 5 18 6 19 7 20 8 21 9 22 10 23 11
REMARK SMILES IDX 24 12 25 13 26 14 12 15 11 16 10 17 9 18 8 19 7 20 6 21 5 22
REMARK SMILES IDX 4 23 3 24 2 25 1 26
REMARK H PARENT
REMARK Flexibility Score: inf
ROOT
ATOM      1  C   UNL     1      -3.666  18.700  -5.192  1.00  0.00     0.000 C 
ENDROOT
BRANCH   1   2
ATOM      2  C   UNL     1      -2.361  18.392  -5.953  1.00  0.00     0.000 C 
BRANCH   2   3
ATOM      3  C   UNL     1      -1.665  17.074  -5.559  1.00  0.00     0.000 C 
BRANCH   3   4
ATOM      4  C   UNL     1      -2.615  15.923  -5.182  1.00  0.00     0.000 C 
BRANCH   4   5
ATOM      5  C   UNL     1      -2.094  15.083  -4.003  1.00  0.00     0.000 C 
BRANCH   5   6
ATOM      6  C   UNL     1      -0.559  15.104  -3.894  1.00  0.00     0.000 C 
BRANCH   6   7
ATOM      7  C   UNL     1       0.041  13.698  -3.718  1.00  0.00     0.000 C 
BRANCH   7   8
ATOM      8  C   UNL     1       1.134  13.391  -4.754  1.00  0.00     0.000 C 
BRANCH   8   9
ATOM      9  C   UNL     1       1.148  14.395  -5.918  1.00  0.00     0.000 C 
BRANCH   9  10
ATOM     10  C   UNL     1       2.315  15.383  -5.775  1.00  0.00     0.006 C 
BRANCH  10  11
ATOM     11  C   UNL     1       1.906  16.821  -6.124  1.00  0.00     0.053 C 
BRANCH  11  12
ATOM     12  C   UNL     1       2.589  17.822  -5.245  1.00  0.00     0.041 C 
ATOM     13  O   UNL     1       2.093  18.130  -4.129  1.00  0.00    -0.550 OA
ATOM     14  O   UNL     1       3.757  18.443  -5.672  1.00  0.00    -0.550 OA
ENDBRANCH  11  12
ENDBRANCH  10  11
ENDBRANCH   9  10
ENDBRANCH   8   9
ENDBRANCH   7   8
ENDBRANCH   6   7
ENDBRANCH   5   6
ENDBRANCH   4   5
ENDBRANCH   3   4
ENDBRANCH   2   3
ENDBRANCH   1   2
BRANCH   1  15
ATOM     15  C   UNL     1      -4.712  19.502  -5.987  1.00  0.00     0.000 C 
BRANCH  15  16
ATOM     16  C   UNL     1      -6.153  19.045  -5.705  1.00  0.00     0.000 C 
BRANCH  16  17
ATOM     17  C   UNL     1      -7.200  20.096  -6.111  1.00  0.00     0.000 C 
BRANCH  17  18
ATOM     18  C   UNL     1      -8.369  20.183  -5.115  1.00  0.00    -0.000 C 
BRANCH  18  19
ATOM     19  C   UNL     1      -8.273  21.411  -4.192  1.00  0.00    -0.000 C 
BRANCH  19  20
ATOM     20  C   UNL     1      -9.539  21.702  -3.362  1.00  0.00    -0.000 C 
BRANCH  20  21
ATOM     21  C   UNL     1      -9.689  23.183  -2.950  1.00  0.00    -0.000 C 
BRANCH  21  22
ATOM     22  C   UNL     1     -11.070  23.482  -2.342  1.00  0.00    -0.000 C 
BRANCH  22  23
ATOM     23  C   UNL     1     -12.126  23.810  -3.421  1.00  0.00    -0.000 C 
BRANCH  23  24
ATOM     24  C   UNL     1     -13.447  23.041  -3.246  1.00  0.00    -0.000 C 
BRANCH  24  25
ATOM     25  C   UNL     1     -13.399  21.628  -3.842  1.00  0.00    -0.003 C 
ATOM     26  C   UNL     1     -12.749  21.634  -5.222  1.00  0.00     0.004 C 
ENDBRANCH  24  25
ENDBRANCH  23  24
ENDBRANCH  22  23
ENDBRANCH  21  22
ENDBRANCH  20  21
ENDBRANCH  19  20
ENDBRANCH  18  19
ENDBRANCH  17  18
ENDBRANCH  16  17
ENDBRANCH  15  16
ENDBRANCH   1  15
TORSDOF 22
ENDMDL
MODEL 6
REMARK VINA RESULT:    -2.323      1.331      3.849
REMARK INTER + INTRA:          -7.480
REMARK INTER:                  -5.458
REMARK INTRA:                  -2.022
REMARK UNBOUND:                -2.169
REMARK SMILES CCCCCCCCCCCCCCCCCCCCCCCC(=O)[O-]
REMARK SMILES IDX 13 1 14 2 15 3 16 4 17 5 18 6 19 7 20 8 21 9 22 10 23 11
REMARK SMILES IDX 24 12 25 13 26 14 12 15 11 16 10 17 9 18 8 19 7 20 6 21 5 22
REMARK SMILES IDX 4 23 3 24 2 25 1 26
REMARK H PARENT
REMARK Flexibility Score: inf
ROOT
ATOM      1  C   UNL     1      -2.153  17.530  -5.165  1.00  0.00     0.000 C 
ENDROOT
BRANCH   1   2
ATOM      2  C   UNL     1      -2.937  16.427  -5.906  1.00  0.00     0.000 C 
BRANCH   2   3
ATOM      3  C   UNL     1      -2.293  15.026  -5.872  1.00  0.00     0.000 C 
BRANCH   3   4
ATOM      4  C   UNL     1      -3.081  13.966  -5.082  1.00  0.00     0.000 C 
BRANCH   4   5
ATOM      5  C   UNL     1      -2.685  12.527  -5.458  1.00  0.00     0.000 C 
BRANCH   5   6
ATOM      6  C   UNL     1      -1.959  11.797  -4.316  1.00  0.00     0.000 C 
BRANCH   6   7
ATOM      7  C   UNL     1      -0.441  12.052  -4.321  1.00  0.00     0.000 C 
BRANCH   7   8
ATOM      8  C   UNL     1       0.185  11.907  -2.924  1.00  0.00     0.000 C 
BRANCH   8   9
ATOM      9  C   UNL     1       1.107  10.683  -2.810  1.00  0.00     0.000 C 
BRANCH   9  10
ATOM     10  C   UNL     1       0.988  10.033  -1.424  1.00  0.00     0.006 C 
BRANCH  10  11
ATOM     11  C   UNL     1       2.349   9.588  -0.871  1.00  0.00     0.053 C 
BRANCH  11  12
ATOM     12  C   UNL     1       2.232   8.353  -0.032  1.00  0.00     0.041 C 
ATOM     13  O   UNL     1       1.340   7.500  -0.280  1.00  0.00    -0.550 OA
ATOM     14  O   UNL     1       3.086   8.161   1.048  1.00  0.00    -0.550 OA
ENDBRANCH  11  12
ENDBRANCH  10  11
ENDBRANCH   9  10
ENDBRANCH   8   9
ENDBRANCH   7   8
ENDBRANCH   6   7
ENDBRANCH   5   6
ENDBRANCH   4   5
ENDBRANCH   3   4
ENDBRANCH   2   3
ENDBRANCH   1   2
BRANCH   1  15
ATOM     15  C   UNL     1      -1.151  18.314  -6.031  1.00  0.00     0.000 C 
BRANCH  15  16
ATOM     16  C   UNL     1       0.109  18.729  -5.254  1.00  0.00     0.000 C 
BRANCH  16  17
ATOM     17  C   UNL     1       1.272  17.739  -5.437  1.00  0.00     0.000 C 
BRANCH  17  18
ATOM     18  C   UNL     1       0.958  16.344  -4.869  1.00  0.00    -0.000 C 
BRANCH  18  19
ATOM     19  C   UNL     1       0.721  16.360  -3.348  1.00  0.00    -0.000 C 
BRANCH  19  20
ATOM     20  C   UNL     1      -0.408  15.434  -2.855  1.00  0.00    -0.000 C 
BRANCH  20  21
ATOM     21  C   UNL     1      -0.839  15.699  -1.396  1.00  0.00    -0.000 C 
BRANCH  21  22
ATOM     22  C   UNL     1       0.082  16.711  -0.691  1.00  0.00    -0.000 C 
BRANCH  22  23
ATOM     23  C   UNL     1       0.533  16.219   0.702  1.00  0.00    -0.000 C 
BRANCH  23  24
ATOM     24  C   UNL     1       1.433  17.219   1.448  1.00  0.00    -0.000 C 
BRANCH  24  25
ATOM     25  C   UNL     1       2.233  16.570   2.585  1.00  0.00    -0.003 C 
ATOM     26  C   UNL     1       1.605  16.873   3.943  1.00  0.00     0.004 C 
ENDBRANCH  24  25
ENDBRANCH  23  24
ENDBRANCH  22  23
ENDBRANCH  21  22
ENDBRANCH  20  21
ENDBRANCH  19  20
ENDBRANCH  18  19
ENDBRANCH  17  18
ENDBRANCH  16  17
ENDBRANCH  15  16
ENDBRANCH   1  15
TORSDOF 22
ENDMDL
MODEL 7
REMARK VINA RESULT:    -2.246      1.288      2.030
REMARK INTER + INTRA:          -7.304
REMARK INTER:                  -5.164
REMARK INTRA:                  -2.140
REMARK UNBOUND:                -2.169
REMARK SMILES CCCCCCCCCCCCCCCCCCCCCCCC(=O)[O-]
REMARK SMILES IDX 13 1 14 2 15 3 16 4 17 5 18 6 19 7 20 8 21 9 22 10 23 11
REMARK SMILES IDX 24 12 25 13 26 14 12 15 11 16 10 17 9 18 8 19 7 20 6 21 5 22
REMARK SMILES IDX 4 23 3 24 2 25 1 26
REMARK H PARENT
REMARK Flexibility Score: inf
ROOT
ATOM      1  C   UNL     1      -2.635  11.393  -4.628  1.00  0.00     0.000 C 
ENDROOT
BRANCH   1   2
ATOM      2  C   UNL     1      -1.226  11.008  -4.133  1.00  0.00     0.000 C 
BRANCH   2   3
ATOM      3  C   UNL     1      -0.208  12.165  -4.082  1.00  0.00     0.000 C 
BRANCH   3   4
ATOM      4  C   UNL     1       1.102  11.849  -3.337  1.00  0.00     0.000 C 
BRANCH   4   5
ATOM      5  C   UNL     1       2.336  11.903  -4.254  1.00  0.00     0.000 C 
BRANCH   5   6
ATOM      6  C   UNL     1       3.208  10.640  -4.146  1.00  0.00     0.000 C 
BRANCH   6   7
ATOM      7  C   UNL     1       4.051  10.612  -2.858  1.00  0.00     0.000 C 
BRANCH   7   8
ATOM      8  C   UNL     1       4.073   9.222  -2.201  1.00  0.00     0.000 C 
BRANCH   8   9
ATOM      9  C   UNL     1       2.681   8.575  -2.132  1.00  0.00     0.000 C 
BRANCH   9  10
ATOM     10  C   UNL     1       2.362   8.112  -0.703  1.00  0.00     0.006 C 
BRANCH  10  11
ATOM     11  C   UNL     1       3.630   7.816   0.109  1.00  0.00     0.053 C 
BRANCH  11  12
ATOM     12  C   UNL     1       3.315   7.134   1.405  1.00  0.00     0.041 C 
ATOM     13  O   UNL     1       4.125   7.193   2.367  1.00  0.00    -0.550 OA
ATOM     14  O   UNL     1       2.140   6.404   1.540  1.00  0.00    -0.550 OA
ENDBRANCH  11  12
ENDBRANCH  10  11
ENDBRANCH   9  10
ENDBRANCH   8   9
ENDBRANCH   7   8
ENDBRANCH   6   7
ENDBRANCH   5   6
ENDBRANCH   4   5
ENDBRANCH   3   4
ENDBRANCH   2   3
ENDBRANCH   1   2
BRANCH   1  15
ATOM     15  C   UNL     1      -2.702  12.676  -5.476  1.00  0.00     0.000 C 
BRANCH  15  16
ATOM     16  C   UNL     1      -2.987  13.930  -4.633  1.00  0.00     0.000 C 
BRANCH  16  17
ATOM     17  C   UNL     1      -3.686  15.039  -5.438  1.00  0.00     0.000 C 
BRANCH  17  18
ATOM     18  C   UNL     1      -2.690  15.991  -6.124  1.00  0.00    -0.000 C 
BRANCH  18  19
ATOM     19  C   UNL     1      -2.371  17.232  -5.273  1.00  0.00    -0.000 C 
BRANCH  19  20
ATOM     20  C   UNL     1      -1.439  18.260  -5.944  1.00  0.00    -0.000 C 
BRANCH  20  21
ATOM     21  C   UNL     1       0.025  18.186  -5.457  1.00  0.00    -0.000 C 
BRANCH  21  22
ATOM     22  C   UNL     1       0.786  17.000  -6.077  1.00  0.00    -0.000 C 
BRANCH  22  23
ATOM     23  C   UNL     1       1.155  15.930  -5.027  1.00  0.00    -0.000 C 
BRANCH  23  24
ATOM     24  C   UNL     1       0.838  16.348  -3.581  1.00  0.00    -0.000 C 
BRANCH  24  25
ATOM     25  C   UNL     1      -0.414  15.661  -3.022  1.00  0.00    -0.003 C 
ATOM     26  C   UNL     1      -0.624  16.011  -1.551  1.00  0.00     0.004 C 
ENDBRANCH  24  25
ENDBRANCH  23  24
ENDBRANCH  22  23
ENDBRANCH  21  22
ENDBRANCH  20  21
ENDBRANCH  19  20
ENDBRANCH  18  19
ENDBRANCH  17  18
ENDBRANCH  16  17
ENDBRANCH  15  16
ENDBRANCH   1  15
TORSDOF 22
ENDMDL
MODEL 8
REMARK VINA RESULT:    -2.203      1.582      3.278
REMARK INTER + INTRA:          -7.205
REMARK INTER:                  -4.894
REMARK INTRA:                  -2.311
REMARK UNBOUND:                -2.169
REMARK SMILES CCCCCCCCCCCCCCCCCCCCCCCC(=O)[O-]
REMARK SMILES IDX 13 1 14 2 15 3 16 4 17 5 18 6 19 7 20 8 21 9 22 10 23 11
REMARK SMILES IDX 24 12 25 13 26 14 12 15 11 16 10 17 9 18 8 19 7 20 6 21 5 22
REMARK SMILES IDX 4 23 3 24 2 25 1 26
REMARK H PARENT
REMARK Flexibility Score: inf
ROOT
ATOM      1  C   UNL     1      -0.624  14.775  -6.125  1.00  0.00     0.000 C 
ENDROOT
BRANCH   1   2
ATOM      2  C   UNL     1      -1.933  14.419  -5.390  1.00  0.00     0.000 C 
BRANCH   2   3
ATOM      3  C   UNL     1      -2.599  13.101  -5.834  1.00  0.00     0.000 C 
BRANCH   3   4
ATOM      4  C   UNL     1      -3.155  12.234  -4.689  1.00  0.00     0.000 C 
BRANCH   4   5
ATOM      5  C   UNL     1      -2.160  11.159  -4.220  1.00  0.00     0.000 C 
BRANCH   5   6
ATOM      6  C   UNL     1      -0.773  11.738  -3.896  1.00  0.00     0.000 C 
BRANCH   6   7
ATOM      7  C   UNL     1      -0.014  10.906  -2.846  1.00  0.00     0.000 C 
BRANCH   7   8
ATOM      8  C   UNL     1       1.503  11.149  -2.888  1.00  0.00     0.000 C 
BRANCH   8   9
ATOM      9  C   UNL     1       2.310   9.847  -3.006  1.00  0.00     0.000 C 
BRANCH   9  10
ATOM     10  C   UNL     1       3.140   9.599  -1.738  1.00  0.00     0.006 C 
BRANCH  10  11
ATOM     11  C   UNL     1       2.260   9.401  -0.496  1.00  0.00     0.053 C 
BRANCH  11  12
ATOM     12  C   UNL     1       2.753   8.276   0.362  1.00  0.00     0.041 C 
ATOM     13  O   UNL     1       3.934   8.283   0.798  1.00  0.00    -0.550 OA
ATOM     14  O   UNL     1       1.920   7.203   0.652  1.00  0.00    -0.550 OA
ENDBRANCH  11  12
ENDBRANCH  10  11
ENDBRANCH   9  10
ENDBRANCH   8   9
ENDBRANCH   7   8
ENDBRANCH   6   7
ENDBRANCH   5   6
ENDBRANCH   4   5
ENDBRANCH   3   4
ENDBRANCH   2   3
ENDBRANCH   1   2
BRANCH   1  15
ATOM     15  C   UNL     1       0.636  14.797  -5.241  1.00  0.00     0.000 C 
BRANCH  15  16
ATOM     16  C   UNL     1       1.936  14.851  -6.060  1.00  0.00     0.000 C 
BRANCH  16  17
ATOM     17  C   UNL     1       3.040  15.667  -5.368  1.00  0.00     0.000 C 
BRANCH  17  18
ATOM     18  C   UNL     1       2.529  17.012  -4.823  1.00  0.00    -0.000 C 
BRANCH  18  19
ATOM     19  C   UNL     1       2.351  18.071  -5.925  1.00  0.00    -0.000 C 
BRANCH  19  20
ATOM     20  C   UNL     1       0.904  18.566  -6.125  1.00  0.00    -0.000 C 
BRANCH  20  21
ATOM     21  C   UNL     1       0.070  18.596  -4.825  1.00  0.00    -0.000 C 
BRANCH  21  22
ATOM     22  C   UNL     1      -1.349  18.038  -5.031  1.00  0.00    -0.000 C 
BRANCH  22  23
ATOM     23  C   UNL     1      -1.799  17.139  -3.858  1.00  0.00    -0.000 C 
BRANCH  23  24
ATOM     24  C   UNL     1      -0.757  17.026  -2.732  1.00  0.00    -0.000 C 
BRANCH  24  25
ATOM     25  C   UNL     1      -0.888  15.727  -1.926  1.00  0.00    -0.003 C 
ATOM     26  C   UNL     1       0.270  15.569  -0.945  1.00  0.00     0.004 C 
ENDBRANCH  24  25
ENDBRANCH  23  24
ENDBRANCH  22  23
ENDBRANCH  21  22
ENDBRANCH  20  21
ENDBRANCH  19  20
ENDBRANCH  18  19
ENDBRANCH  17  18
ENDBRANCH  16  17
ENDBRANCH  15  16
ENDBRANCH   1  15
TORSDOF 22
ENDMDL
