MODEL 1
REMARK VINA RESULT:     5.648      0.000      0.000
REMARK INTER + INTRA:          13.522
REMARK INTER:                  14.893
REMARK INTRA:                  -1.370
REMARK UNBOUND:                -1.370
REMARK SMILES CCCCCCCCCCCCCCCCCCCCCCCCCCCCCC(=O)[O-]
REMARK SMILES IDX 16 1 17 2 18 3 19 4 20 5 21 6 22 7 23 8 24 9 25 10 26 11
REMARK SMILES IDX 27 12 28 13 29 14 30 15 31 16 32 17 15 18 14 19 13 20 12 21
REMARK SMILES IDX 11 22 10 23 9 24 8 25 7 26 6 27 5 28 4 29 3 30 2 31 1 32
REMARK H PARENT
REMARK Flexibility Score: inf
ROOT
ATOM      1  C   UNL     1       2.546  66.563  -4.929  1.00  0.00     0.000 C 
ENDROOT
BRANCH   1   2
ATOM      2  C   UNL     1       2.724  65.966  -6.333  1.00  0.00     0.000 C 
BRANCH   2   3
ATOM      3  C   UNL     1       2.508  64.445  -6.320  1.00  0.00     0.000 C 
BRANCH   3   4
ATOM      4  C   UNL     1       2.378  63.861  -7.738  1.00  0.00     0.000 C 
BRANCH   4   5
ATOM      5  C   UNL     1       3.455  62.805  -8.036  1.00  0.00     0.000 C 
BRANCH   5   6
ATOM      6  C   UNL     1       3.489  61.677  -6.993  1.00  0.00     0.000 C 
BRANCH   6   7
ATOM      7  C   UNL     1       3.989  60.345  -7.571  1.00  0.00     0.000 C 
BRANCH   7   8
ATOM      8  C   UNL     1       3.138  59.177  -7.054  1.00  0.00     0.000 C 
BRANCH   8   9
ATOM      9  C   UNL     1       2.388  59.568  -5.774  1.00  0.00     0.000 C 
BRANCH   9  10
ATOM     10  C   UNL     1       0.974  58.964  -5.699  1.00  0.00     0.000 C 
BRANCH  10  11
ATOM     11  C   UNL     1       0.156  59.051  -7.003  1.00  0.00     0.000 C 
BRANCH  11  12
ATOM     12  C   UNL     1      -1.369  58.949  -6.826  1.00  0.00     0.000 C 
BRANCH  12  13
ATOM     13  C   UNL     1      -1.815  59.128  -5.364  1.00  0.00     0.006 C 
BRANCH  13  14
ATOM     14  C   UNL     1      -3.331  58.959  -5.191  1.00  0.00     0.053 C 
BRANCH  14  15
ATOM     15  C   UNL     1      -4.101  59.970  -5.985  1.00  0.00     0.041 C 
ATOM     16  O   UNL     1      -4.559  59.669  -7.121  1.00  0.00    -0.550 OA
ATOM     17  O   UNL     1      -4.348  61.229  -5.454  1.00  0.00    -0.550 OA
ENDBRANCH  14  15
ENDBRANCH  13  14
ENDBRANCH  12  13
ENDBRANCH  11  12
ENDBRANCH  10  11
ENDBRANCH   9  10
ENDBRANCH   8   9
ENDBRANCH   7   8
ENDBRANCH   6   7
ENDBRANCH   5   6
ENDBRANCH   4   5
ENDBRANCH   3   4
ENDBRANCH   2   3
ENDBRANCH   1   2
BRANCH   1  18
ATOM     18  C   UNL     1       1.827  67.922  -4.961  1.00  0.00     0.000 C 
BRANCH  18  19
ATOM     19  C   UNL     1       0.694  67.960  -6.003  1.00  0.00     0.000 C 
BRANCH  19  20
ATOM     20  C   UNL     1      -0.026  69.324  -6.059  1.00  0.00     0.000 C 
BRANCH  20  21
ATOM     21  C   UNL     1      -1.486  69.254  -6.547  1.00  0.00     0.000 C 
BRANCH  21  22
ATOM     22  C   UNL     1      -2.557  69.549  -5.480  1.00  0.00     0.000 C 
BRANCH  22  23
ATOM     23  C   UNL     1      -3.967  69.002  -5.786  1.00  0.00     0.000 C 
BRANCH  23  24
ATOM     24  C   UNL     1      -5.102  70.036  -5.687  1.00  0.00    -0.000 C 
BRANCH  24  25
ATOM     25  C   UNL     1      -5.105  71.035  -6.853  1.00  0.00    -0.000 C 
BRANCH  25  26
ATOM     26  C   UNL     1      -4.966  72.475  -6.332  1.00  0.00    -0.000 C 
BRANCH  26  27
ATOM     27  C   UNL     1      -5.125  73.533  -7.434  1.00  0.00    -0.000 C 
BRANCH  27  28
ATOM     28  C   UNL     1      -5.032  74.971  -6.899  1.00  0.00    -0.000 C 
BRANCH  28  29
ATOM     29  C   UNL     1      -4.802  75.993  -8.027  1.00  0.00    -0.000 C 
BRANCH  29  30
ATOM     30  C   UNL     1      -3.466  76.738  -7.868  1.00  0.00    -0.000 C 
BRANCH  30  31
ATOM     31  C   UNL     1      -3.631  78.265  -7.957  1.00  0.00    -0.003 C 
ATOM     32  C   UNL     1      -2.459  79.013  -7.319  1.00  0.00     0.004 C 
ENDBRANCH  30  31
ENDBRANCH  29  30
ENDBRANCH  28  29
ENDBRANCH  27  28
ENDBRANCH  26  27
ENDBRANCH  25  26
ENDBRANCH  24  25
ENDBRANCH  23  24
ENDBRANCH  22  23
ENDBRANCH  21  22
ENDBRANCH  20  21
ENDBRANCH  19  20
ENDBRANCH  18  19
ENDBRANCH   1  18
TORSDOF 28
ENDMDL
MODEL 2
REMARK VINA RESULT:     6.614      4.634     13.268
REMARK INTER + INTRA:          16.070
REMARK INTER:                  16.973
REMARK INTRA:                  -0.903
REMARK UNBOUND:                -1.370
REMARK SMILES CCCCCCCCCCCCCCCCCCCCCCCCCCCCCC(=O)[O-]
REMARK SMILES IDX 16 1 17 2 18 3 19 4 20 5 21 6 22 7 23 8 24 9 25 10 26 11
REMARK SMILES IDX 27 12 28 13 29 14 30 15 31 16 32 17 15 18 14 19 13 20 12 21
REMARK SMILES IDX 11 22 10 23 9 24 8 25 7 26 6 27 5 28 4 29 3 30 2 31 1 32
REMARK H PARENT
REMARK Flexibility Score: inf
ROOT
ATOM      1  C   UNL     1       3.617  66.928  -4.735  1.00  0.00     0.000 C 
ENDROOT
BRANCH   1   2
ATOM      2  C   UNL     1       2.659  68.103  -4.487  1.00  0.00     0.000 C 
BRANCH   2   3
ATOM      3  C   UNL     1       1.532  68.128  -5.531  1.00  0.00     0.000 C 
BRANCH   3   4
ATOM      4  C   UNL     1       0.210  68.661  -4.950  1.00  0.00     0.000 C 
BRANCH   4   5
ATOM      5  C   UNL     1      -1.006  68.260  -5.802  1.00  0.00     0.000 C 
BRANCH   5   6
ATOM      6  C   UNL     1      -2.093  69.344  -5.837  1.00  0.00     0.000 C 
BRANCH   6   7
ATOM      7  C   UNL     1      -3.253  68.997  -6.781  1.00  0.00     0.000 C 
BRANCH   7   8
ATOM      8  C   UNL     1      -4.543  69.700  -6.337  1.00  0.00     0.000 C 
BRANCH   8   9
ATOM      9  C   UNL     1      -4.229  70.959  -5.519  1.00  0.00     0.000 C 
BRANCH   9  10
ATOM     10  C   UNL     1      -3.965  72.195  -6.397  1.00  0.00     0.000 C 
BRANCH  10  11
ATOM     11  C   UNL     1      -4.861  73.414  -6.097  1.00  0.00     0.000 C 
BRANCH  11  12
ATOM     12  C   UNL     1      -5.121  74.344  -7.295  1.00  0.00     0.000 C 
BRANCH  12  13
ATOM     13  C   UNL     1      -4.729  75.806  -7.014  1.00  0.00     0.006 C 
BRANCH  13  14
ATOM     14  C   UNL     1      -3.525  76.258  -7.852  1.00  0.00     0.053 C 
BRANCH  14  15
ATOM     15  C   UNL     1      -3.379  77.749  -7.862  1.00  0.00     0.041 C 
ATOM     16  O   UNL     1      -4.368  78.485  -7.594  1.00  0.00    -0.550 OA
ATOM     17  O   UNL     1      -2.144  78.325  -8.125  1.00  0.00    -0.550 OA
ENDBRANCH  14  15
ENDBRANCH  13  14
ENDBRANCH  12  13
ENDBRANCH  11  12
ENDBRANCH  10  11
ENDBRANCH   9  10
ENDBRANCH   8   9
ENDBRANCH   7   8
ENDBRANCH   6   7
ENDBRANCH   5   6
ENDBRANCH   4   5
ENDBRANCH   3   4
ENDBRANCH   2   3
ENDBRANCH   1   2
BRANCH   1  18
ATOM     18  C   UNL     1       3.365  66.246  -6.090  1.00  0.00     0.000 C 
BRANCH  18  19
ATOM     19  C   UNL     1       2.976  64.764  -5.935  1.00  0.00     0.000 C 
BRANCH  19  20
ATOM     20  C   UNL     1       2.603  64.098  -7.277  1.00  0.00     0.000 C 
BRANCH  20  21
ATOM     21  C   UNL     1       2.087  62.651  -7.148  1.00  0.00     0.000 C 
BRANCH  21  22
ATOM     22  C   UNL     1       2.911  61.584  -7.892  1.00  0.00     0.000 C 
BRANCH  22  23
ATOM     23  C   UNL     1       3.307  60.349  -7.056  1.00  0.00     0.000 C 
BRANCH  23  24
ATOM     24  C   UNL     1       2.863  58.997  -7.642  1.00  0.00    -0.000 C 
BRANCH  24  25
ATOM     25  C   UNL     1       1.385  58.980  -8.058  1.00  0.00    -0.000 C 
BRANCH  25  26
ATOM     26  C   UNL     1       0.474  58.983  -6.819  1.00  0.00    -0.000 C 
BRANCH  26  27
ATOM     27  C   UNL     1       1.237  59.237  -5.510  1.00  0.00    -0.000 C 
BRANCH  27  28
ATOM     28  C   UNL     1       0.394  59.979  -4.461  1.00  0.00    -0.000 C 
BRANCH  28  29
ATOM     29  C   UNL     1      -1.113  59.889  -4.764  1.00  0.00    -0.000 C 
BRANCH  29  30
ATOM     30  C   UNL     1      -1.932  60.885  -3.926  1.00  0.00    -0.000 C 
BRANCH  30  31
ATOM     31  C   UNL     1      -3.441  60.783  -4.201  1.00  0.00    -0.003 C 
ATOM     32  C   UNL     1      -3.788  59.595  -5.102  1.00  0.00     0.004 C 
ENDBRANCH  30  31
ENDBRANCH  29  30
ENDBRANCH  28  29
ENDBRANCH  27  28
ENDBRANCH  26  27
ENDBRANCH  25  26
ENDBRANCH  24  25
ENDBRANCH  23  24
ENDBRANCH  22  23
ENDBRANCH  21  22
ENDBRANCH  20  21
ENDBRANCH  19  20
ENDBRANCH  18  19
ENDBRANCH   1  18
TORSDOF 28
ENDMDL
MODEL 3
REMARK VINA RESULT:     7.625      4.541     12.868
REMARK INTER + INTRA:          18.735
REMARK INTER:                  19.888
REMARK INTRA:                  -1.153
REMARK UNBOUND:                -1.370
REMARK SMILES CCCCCCCCCCCCCCCCCCCCCCCCCCCCCC(=O)[O-]
REMARK SMILES IDX 16 1 17 2 18 3 19 4 20 5 21 6 22 7 23 8 24 9 25 10 26 11
REMARK SMILES IDX 27 12 28 13 29 14 30 15 31 16 32 17 15 18 14 19 13 20 12 21
REMARK SMILES IDX 11 22 10 23 9 24 8 25 7 26 6 27 5 28 4 29 3 30 2 31 1 32
REMARK H PARENT
REMARK Flexibility Score: inf
ROOT
ATOM      1  C   UNL     1       3.004  66.489  -4.101  1.00  0.00     0.000 C 
ENDROOT
BRANCH   1   2
ATOM      2  C   UNL     1       2.511  67.521  -5.127  1.00  0.00     0.000 C 
BRANCH   2   3
ATOM      3  C   UNL     1       1.431  68.430  -4.524  1.00  0.00     0.000 C 
BRANCH   3   4
ATOM      4  C   UNL     1       0.019  68.067  -5.017  1.00  0.00     0.000 C 
BRANCH   4   5
ATOM      5  C   UNL     1      -0.251  68.575  -6.443  1.00  0.00     0.000 C 
BRANCH   5   6
ATOM      6  C   UNL     1      -1.427  69.560  -6.513  1.00  0.00     0.000 C 
BRANCH   6   7
ATOM      7  C   UNL     1      -1.575  70.404  -5.239  1.00  0.00     0.000 C 
BRANCH   7   8
ATOM      8  C   UNL     1      -3.051  70.521  -4.834  1.00  0.00     0.000 C 
BRANCH   8   9
ATOM      9  C   UNL     1      -3.962  70.512  -6.069  1.00  0.00     0.000 C 
BRANCH   9  10
ATOM     10  C   UNL     1      -5.096  71.549  -5.985  1.00  0.00     0.000 C 
BRANCH  10  11
ATOM     11  C   UNL     1      -4.973  72.732  -6.967  1.00  0.00     0.000 C 
BRANCH  11  12
ATOM     12  C   UNL     1      -4.264  73.977  -6.404  1.00  0.00     0.000 C 
BRANCH  12  13
ATOM     13  C   UNL     1      -4.999  75.287  -6.738  1.00  0.00     0.006 C 
BRANCH  13  14
ATOM     14  C   UNL     1      -4.531  75.898  -8.066  1.00  0.00     0.053 C 
BRANCH  14  15
ATOM     15  C   UNL     1      -4.200  77.352  -7.927  1.00  0.00     0.041 C 
ATOM     16  O   UNL     1      -5.120  78.202  -7.789  1.00  0.00    -0.550 OA
ATOM     17  O   UNL     1      -2.874  77.764  -7.909  1.00  0.00    -0.550 OA
ENDBRANCH  14  15
ENDBRANCH  13  14
ENDBRANCH  12  13
ENDBRANCH  11  12
ENDBRANCH  10  11
ENDBRANCH   9  10
ENDBRANCH   8   9
ENDBRANCH   7   8
ENDBRANCH   6   7
ENDBRANCH   5   6
ENDBRANCH   4   5
ENDBRANCH   3   4
ENDBRANCH   2   3
ENDBRANCH   1   2
BRANCH   1  18
ATOM     18  C   UNL     1       3.048  65.066  -4.681  1.00  0.00     0.000 C 
BRANCH  18  19
ATOM     19  C   UNL     1       3.048  65.061  -6.221  1.00  0.00     0.000 C 
BRANCH  19  20
ATOM     20  C   UNL     1       2.942  63.642  -6.818  1.00  0.00     0.000 C 
BRANCH  20  21
ATOM     21  C   UNL     1       2.142  62.647  -5.955  1.00  0.00     0.000 C 
BRANCH  21  22
ATOM     22  C   UNL     1       2.405  61.157  -6.245  1.00  0.00     0.000 C 
BRANCH  22  23
ATOM     23  C   UNL     1       1.668  60.162  -5.324  1.00  0.00     0.000 C 
BRANCH  23  24
ATOM     24  C   UNL     1       0.660  59.242  -6.034  1.00  0.00    -0.000 C 
BRANCH  24  25
ATOM     25  C   UNL     1      -0.682  59.139  -5.293  1.00  0.00    -0.000 C 
BRANCH  25  26
ATOM     26  C   UNL     1      -0.922  60.391  -4.433  1.00  0.00    -0.000 C 
BRANCH  26  27
ATOM     27  C   UNL     1      -2.060  60.214  -3.416  1.00  0.00    -0.000 C 
BRANCH  27  28
ATOM     28  C   UNL     1      -3.136  59.225  -3.891  1.00  0.00    -0.000 C 
BRANCH  28  29
ATOM     29  C   UNL     1      -4.400  59.946  -4.394  1.00  0.00    -0.000 C 
BRANCH  29  30
ATOM     30  C   UNL     1      -4.063  61.121  -5.326  1.00  0.00    -0.000 C 
BRANCH  30  31
ATOM     31  C   UNL     1      -3.922  60.686  -6.794  1.00  0.00    -0.003 C 
ATOM     32  C   UNL     1      -3.283  59.302  -6.930  1.00  0.00     0.004 C 
ENDBRANCH  30  31
ENDBRANCH  29  30
ENDBRANCH  28  29
ENDBRANCH  27  28
ENDBRANCH  26  27
ENDBRANCH  25  26
ENDBRANCH  24  25
ENDBRANCH  23  24
ENDBRANCH  22  23
ENDBRANCH  21  22
ENDBRANCH  20  21
ENDBRANCH  19  20
ENDBRANCH  18  19
ENDBRANCH   1  18
TORSDOF 28
ENDMDL
MODEL 4
REMARK VINA RESULT:     7.884      3.914     11.434
REMARK INTER + INTRA:          19.419
REMARK INTER:                  20.294
REMARK INTRA:                  -0.875
REMARK UNBOUND:                -1.370
REMARK SMILES CCCCCCCCCCCCCCCCCCCCCCCCCCCCCC(=O)[O-]
REMARK SMILES IDX 16 1 17 2 18 3 19 4 20 5 21 6 22 7 23 8 24 9 25 10 26 11
REMARK SMILES IDX 27 12 28 13 29 14 30 15 31 16 32 17 15 18 14 19 13 20 12 21
REMARK SMILES IDX 11 22 10 23 9 24 8 25 7 26 6 27 5 28 4 29 3 30 2 31 1 32
REMARK H PARENT
REMARK Flexibility Score: inf
ROOT
ATOM      1  C   UNL     1       2.925  62.829  -6.288  1.00  0.00     0.000 C 
ENDROOT
BRANCH   1   2
ATOM      2  C   UNL     1       1.952  64.016  -6.206  1.00  0.00     0.000 C 
BRANCH   2   3
ATOM      3  C   UNL     1       2.699  65.353  -6.320  1.00  0.00     0.000 C 
BRANCH   3   4
ATOM      4  C   UNL     1       3.480  65.698  -5.040  1.00  0.00     0.000 C 
BRANCH   4   5
ATOM      5  C   UNL     1       3.723  67.210  -4.893  1.00  0.00     0.000 C 
BRANCH   5   6
ATOM      6  C   UNL     1       2.426  68.031  -4.953  1.00  0.00     0.000 C 
BRANCH   6   7
ATOM      7  C   UNL     1       1.325  67.474  -4.040  1.00  0.00     0.000 C 
BRANCH   7   8
ATOM      8  C   UNL     1      -0.050  68.009  -4.462  1.00  0.00     0.000 C 
BRANCH   8   9
ATOM      9  C   UNL     1      -0.417  69.269  -3.667  1.00  0.00     0.000 C 
BRANCH   9  10
ATOM     10  C   UNL     1      -1.802  69.829  -4.037  1.00  0.00     0.000 C 
BRANCH  10  11
ATOM     11  C   UNL     1      -1.935  70.343  -5.485  1.00  0.00     0.000 C 
BRANCH  11  12
ATOM     12  C   UNL     1      -2.243  69.262  -6.537  1.00  0.00     0.000 C 
BRANCH  12  13
ATOM     13  C   UNL     1      -3.713  69.275  -6.994  1.00  0.00     0.006 C 
BRANCH  13  14
ATOM     14  C   UNL     1      -4.635  69.963  -5.978  1.00  0.00     0.053 C 
BRANCH  14  15
ATOM     15  C   UNL     1      -4.726  71.439  -6.216  1.00  0.00     0.041 C 
ATOM     16  O   UNL     1      -4.407  72.249  -5.304  1.00  0.00    -0.550 OA
ATOM     17  O   UNL     1      -5.125  71.920  -7.456  1.00  0.00    -0.550 OA
ENDBRANCH  14  15
ENDBRANCH  13  14
ENDBRANCH  12  13
ENDBRANCH  11  12
ENDBRANCH  10  11
ENDBRANCH   9  10
ENDBRANCH   8   9
ENDBRANCH   7   8
ENDBRANCH   6   7
ENDBRANCH   5   6
ENDBRANCH   4   5
ENDBRANCH   3   4
ENDBRANCH   2   3
ENDBRANCH   1   2
BRANCH   1  18
ATOM     18  C   UNL     1       2.682  61.963  -7.535  1.00  0.00     0.000 C 
BRANCH  18  19
ATOM     19  C   UNL     1       2.976  60.473  -7.279  1.00  0.00     0.000 C 
BRANCH  19  20
ATOM     20  C   UNL     1       2.371  59.961  -5.954  1.00  0.00     0.000 C 
BRANCH  20  21
ATOM     21  C   UNL     1       0.841  60.114  -5.851  1.00  0.00     0.000 C 
BRANCH  21  22
ATOM     22  C   UNL     1       0.022  58.875  -6.260  1.00  0.00     0.000 C 
BRANCH  22  23
ATOM     23  C   UNL     1      -0.997  59.100  -7.397  1.00  0.00     0.000 C 
BRANCH  23  24
ATOM     24  C   UNL     1      -2.250  59.901  -7.000  1.00  0.00    -0.000 C 
BRANCH  24  25
ATOM     25  C   UNL     1      -3.316  59.039  -6.306  1.00  0.00    -0.000 C 
BRANCH  25  26
ATOM     26  C   UNL     1      -3.903  59.778  -5.092  1.00  0.00    -0.000 C 
BRANCH  26  27
ATOM     27  C   UNL     1      -3.482  59.162  -3.750  1.00  0.00    -0.000 C 
BRANCH  27  28
ATOM     28  C   UNL     1      -1.957  59.134  -3.558  1.00  0.00    -0.000 C 
BRANCH  28  29
ATOM     29  C   UNL     1      -1.373  60.547  -3.377  1.00  0.00    -0.000 C 
BRANCH  29  30
ATOM     30  C   UNL     1       0.083  60.511  -2.883  1.00  0.00    -0.000 C 
BRANCH  30  31
ATOM     31  C   UNL     1       0.216  60.941  -1.412  1.00  0.00    -0.003 C 
ATOM     32  C   UNL     1       1.030  59.943  -0.587  1.00  0.00     0.004 C 
ENDBRANCH  30  31
ENDBRANCH  29  30
ENDBRANCH  28  29
ENDBRANCH  27  28
ENDBRANCH  26  27
ENDBRANCH  25  26
ENDBRANCH  24  25
ENDBRANCH  23  24
ENDBRANCH  22  23
ENDBRANCH  21  22
ENDBRANCH  20  21
ENDBRANCH  19  20
ENDBRANCH  18  19
ENDBRANCH   1  18
TORSDOF 28
ENDMDL
MODEL 5
REMARK VINA RESULT:     8.205      2.033      3.892
REMARK INTER + INTRA:          20.264
REMARK INTER:                  20.124
REMARK INTRA:                   0.140
REMARK UNBOUND:                -1.370
REMARK SMILES CCCCCCCCCCCCCCCCCCCCCCCCCCCCCC(=O)[O-]
REMARK SMILES IDX 16 1 17 2 18 3 19 4 20 5 21 6 22 7 23 8 24 9 25 10 26 11
REMARK SMILES IDX 27 12 28 13 29 14 30 15 31 16 32 17 15 18 14 19 13 20 12 21
REMARK SMILES IDX 11 22 10 23 9 24 8 25 7 26 6 27 5 28 4 29 3 30 2 31 1 32
REMARK H PARENT
REMARK Flexibility Score: inf
ROOT
ATOM      1  C   UNL     1       2.313  65.221  -6.673  1.00  0.00     0.000 C 
ENDROOT
BRANCH   1   2
ATOM      2  C   UNL     1       2.894  63.981  -7.369  1.00  0.00     0.000 C 
BRANCH   2   3
ATOM      3  C   UNL     1       2.437  62.690  -6.674  1.00  0.00     0.000 C 
BRANCH   3   4
ATOM      4  C   UNL     1       2.706  61.439  -7.528  1.00  0.00     0.000 C 
BRANCH   4   5
ATOM      5  C   UNL     1       2.897  60.176  -6.672  1.00  0.00     0.000 C 
BRANCH   5   6
ATOM      6  C   UNL     1       2.333  58.912  -7.339  1.00  0.00     0.000 C 
BRANCH   6   7
ATOM      7  C   UNL     1       0.959  59.140  -7.985  1.00  0.00     0.000 C 
BRANCH   7   8
ATOM      8  C   UNL     1      -0.166  58.877  -6.976  1.00  0.00     0.000 C 
BRANCH   8   9
ATOM      9  C   UNL     1      -1.543  59.015  -7.639  1.00  0.00     0.000 C 
BRANCH   9  10
ATOM     10  C   UNL     1      -2.670  59.289  -6.627  1.00  0.00     0.000 C 
BRANCH  10  11
ATOM     11  C   UNL     1      -2.348  58.904  -5.169  1.00  0.00     0.000 C 
BRANCH  11  12
ATOM     12  C   UNL     1      -1.895  60.068  -4.270  1.00  0.00     0.000 C 
BRANCH  12  13
ATOM     13  C   UNL     1      -0.567  60.696  -4.728  1.00  0.00     0.006 C 
BRANCH  13  14
ATOM     14  C   UNL     1       0.575  60.435  -3.736  1.00  0.00     0.053 C 
BRANCH  14  15
ATOM     15  C   UNL     1       0.102  60.473  -2.316  1.00  0.00     0.041 C 
ATOM     16  O   UNL     1      -1.095  60.190  -2.038  1.00  0.00    -0.550 OA
ATOM     17  O   UNL     1       0.992  60.778  -1.295  1.00  0.00    -0.550 OA
ENDBRANCH  14  15
ENDBRANCH  13  14
ENDBRANCH  12  13
ENDBRANCH  11  12
ENDBRANCH  10  11
ENDBRANCH   9  10
ENDBRANCH   8   9
ENDBRANCH   7   8
ENDBRANCH   6   7
ENDBRANCH   5   6
ENDBRANCH   4   5
ENDBRANCH   3   4
ENDBRANCH   2   3
ENDBRANCH   1   2
BRANCH   1  18
ATOM     18  C   UNL     1       3.046  65.550  -5.362  1.00  0.00     0.000 C 
BRANCH  18  19
ATOM     19  C   UNL     1       2.743  66.976  -4.865  1.00  0.00     0.000 C 
BRANCH  19  20
ATOM     20  C   UNL     1       1.289  67.413  -5.143  1.00  0.00     0.000 C 
BRANCH  20  21
ATOM     21  C   UNL     1       1.148  68.498  -6.229  1.00  0.00     0.000 C 
BRANCH  21  22
ATOM     22  C   UNL     1       0.063  68.236  -7.290  1.00  0.00     0.000 C 
BRANCH  22  23
ATOM     23  C   UNL     1      -1.245  69.034  -7.113  1.00  0.00     0.000 C 
BRANCH  23  24
ATOM     24  C   UNL     1      -1.416  69.707  -5.739  1.00  0.00    -0.000 C 
BRANCH  24  25
ATOM     25  C   UNL     1      -2.084  68.792  -4.702  1.00  0.00    -0.000 C 
BRANCH  25  26
ATOM     26  C   UNL     1      -3.050  69.594  -3.815  1.00  0.00    -0.000 C 
BRANCH  26  27
ATOM     27  C   UNL     1      -3.891  70.609  -4.603  1.00  0.00    -0.000 C 
BRANCH  27  28
ATOM     28  C   UNL     1      -4.328  70.082  -5.979  1.00  0.00    -0.000 C 
BRANCH  28  29
ATOM     29  C   UNL     1      -4.817  71.213  -6.902  1.00  0.00    -0.000 C 
BRANCH  29  30
ATOM     30  C   UNL     1      -5.112  72.506  -6.124  1.00  0.00    -0.000 C 
BRANCH  30  31
ATOM     31  C   UNL     1      -5.123  73.748  -7.031  1.00  0.00    -0.003 C 
ATOM     32  C   UNL     1      -4.215  74.860  -6.503  1.00  0.00     0.004 C 
ENDBRANCH  30  31
ENDBRANCH  29  30
ENDBRANCH  28  29
ENDBRANCH  27  28
ENDBRANCH  26  27
ENDBRANCH  25  26
ENDBRANCH  24  25
ENDBRANCH  23  24
ENDBRANCH  22  23
ENDBRANCH  21  22
ENDBRANCH  20  21
ENDBRANCH  19  20
ENDBRANCH  18  19
ENDBRANCH   1  18
TORSDOF 28
ENDMDL
