MODEL 1
REMARK VINA RESULT:     6.062      0.000      0.000
REMARK INTER + INTRA:           9.824
REMARK INTER:                  10.315
REMARK INTRA:                  -0.491
REMARK UNBOUND:                -0.491
REMARK SMILES CCCCCCCCCCCCCC(=O)[O-]
REMARK SMILES IDX 8 1 9 2 10 3 11 4 12 5 13 6 14 7 15 8 16 9 7 10 6 11 5 12
REMARK SMILES IDX 4 13 3 14 2 15 1 16
REMARK H PARENT
REMARK Flexibility Score: inf
ROOT
ATOM      1  C   UNL     1      27.863  44.408   3.239  1.00  0.00     0.000 C 
ENDROOT
BRANCH   1   2
ATOM      2  C   UNL     1      29.364  44.663   3.050  1.00  0.00     0.000 C 
BRANCH   2   3
ATOM      3  C   UNL     1      29.726  44.735   1.560  1.00  0.00     0.000 C 
BRANCH   3   4
ATOM      4  C   UNL     1      29.713  43.358   0.879  1.00  0.00     0.000 C 
BRANCH   4   5
ATOM      5  C   UNL     1      30.522  43.335  -0.426  1.00  0.00     0.006 C 
BRANCH   5   6
ATOM      6  C   UNL     1      30.087  42.169  -1.320  1.00  0.00     0.053 C 
BRANCH   6   7
ATOM      7  C   UNL     1      29.379  42.676  -2.536  1.00  0.00     0.041 C 
ATOM      8  O   UNL     1      29.454  43.892  -2.853  1.00  0.00    -0.550 OA
ATOM      9  O   UNL     1      28.595  41.814  -3.293  1.00  0.00    -0.550 OA
ENDBRANCH   6   7
ENDBRANCH   5   6
ENDBRANCH   4   5
ENDBRANCH   3   4
ENDBRANCH   2   3
ENDBRANCH   1   2
BRANCH   1  10
ATOM     10  C   UNL     1      27.429  44.705   4.679  1.00  0.00     0.000 C 
BRANCH  10  11
ATOM     11  C   UNL     1      26.253  43.811   5.095  1.00  0.00    -0.000 C 
BRANCH  11  12
ATOM     12  C   UNL     1      25.474  43.249   3.893  1.00  0.00    -0.000 C 
BRANCH  12  13
ATOM     13  C   UNL     1      24.507  42.094   4.226  1.00  0.00    -0.000 C 
BRANCH  13  14
ATOM     14  C   UNL     1      23.015  42.480   4.266  1.00  0.00    -0.000 C 
BRANCH  14  15
ATOM     15  C   UNL     1      22.328  42.547   2.891  1.00  0.00    -0.003 C 
ATOM     16  C   UNL     1      23.033  41.700   1.832  1.00  0.00     0.004 C 
ENDBRANCH  14  15
ENDBRANCH  13  14
ENDBRANCH  12  13
ENDBRANCH  11  12
ENDBRANCH  10  11
ENDBRANCH   1  10
TORSDOF 12
ENDMDL
MODEL 2
REMARK VINA RESULT:     6.704      3.004      6.777
REMARK INTER + INTRA:          10.916
REMARK INTER:                  11.497
REMARK INTRA:                  -0.581
REMARK UNBOUND:                -0.491
REMARK SMILES CCCCCCCCCCCCCC(=O)[O-]
REMARK SMILES IDX 8 1 9 2 10 3 11 4 12 5 13 6 14 7 15 8 16 9 7 10 6 11 5 12
REMARK SMILES IDX 4 13 3 14 2 15 1 16
REMARK H PARENT
REMARK Flexibility Score: inf
ROOT
ATOM      1  C   UNL     1      28.938  44.406   3.496  1.00  0.00     0.000 C 
ENDROOT
BRANCH   1   2
ATOM      2  C   UNL     1      27.528  44.973   3.701  1.00  0.00     0.000 C 
BRANCH   2   3
ATOM      3  C   UNL     1      26.975  44.584   5.079  1.00  0.00     0.000 C 
BRANCH   3   4
ATOM      4  C   UNL     1      26.095  43.325   5.032  1.00  0.00     0.000 C 
BRANCH   4   5
ATOM      5  C   UNL     1      25.372  43.157   3.687  1.00  0.00     0.006 C 
BRANCH   5   6
ATOM      6  C   UNL     1      24.302  42.064   3.773  1.00  0.00     0.053 C 
BRANCH   6   7
ATOM      7  C   UNL     1      23.222  42.307   2.767  1.00  0.00     0.041 C 
ATOM      8  O   UNL     1      23.154  41.602   1.726  1.00  0.00    -0.550 OA
ATOM      9  O   UNL     1      22.320  43.347   2.954  1.00  0.00    -0.550 OA
ENDBRANCH   6   7
ENDBRANCH   5   6
ENDBRANCH   4   5
ENDBRANCH   3   4
ENDBRANCH   2   3
ENDBRANCH   1   2
BRANCH   1  10
ATOM     10  C   UNL     1      29.434  44.665   2.068  1.00  0.00     0.000 C 
BRANCH  10  11
ATOM     11  C   UNL     1      29.388  43.380   1.228  1.00  0.00    -0.000 C 
BRANCH  11  12
ATOM     12  C   UNL     1      30.425  43.370   0.091  1.00  0.00    -0.000 C 
BRANCH  12  13
ATOM     13  C   UNL     1      30.086  42.439  -1.091  1.00  0.00    -0.000 C 
BRANCH  13  14
ATOM     14  C   UNL     1      29.968  43.137  -2.461  1.00  0.00    -0.000 C 
BRANCH  14  15
ATOM     15  C   UNL     1      29.114  42.386  -3.497  1.00  0.00    -0.003 C 
ATOM     16  C   UNL     1      28.158  41.377  -2.860  1.00  0.00     0.004 C 
ENDBRANCH  14  15
ENDBRANCH  13  14
ENDBRANCH  12  13
ENDBRANCH  11  12
ENDBRANCH  10  11
ENDBRANCH   1  10
TORSDOF 12
ENDMDL
MODEL 3
REMARK VINA RESULT:     6.833     12.889     14.845
REMARK INTER + INTRA:          11.136
REMARK INTER:                  11.701
REMARK INTRA:                  -0.565
REMARK UNBOUND:                -0.491
REMARK SMILES CCCCCCCCCCCCCC(=O)[O-]
REMARK SMILES IDX 8 1 9 2 10 3 11 4 12 5 13 6 14 7 15 8 16 9 7 10 6 11 5 12
REMARK SMILES IDX 4 13 3 14 2 15 1 16
REMARK H PARENT
REMARK Flexibility Score: inf
ROOT
ATOM      1  C   UNL     1      25.563  31.271  -5.416  1.00  0.00     0.000 C 
ENDROOT
BRANCH   1   2
ATOM      2  C   UNL     1      26.705  30.947  -4.444  1.00  0.00     0.000 C 
BRANCH   2   3
ATOM      3  C   UNL     1      26.461  31.594  -3.074  1.00  0.00     0.000 C 
BRANCH   3   4
ATOM      4  C   UNL     1      27.257  30.916  -1.948  1.00  0.00     0.000 C 
BRANCH   4   5
ATOM      5  C   UNL     1      26.355  30.362  -0.835  1.00  0.00     0.006 C 
BRANCH   5   6
ATOM      6  C   UNL     1      26.879  29.016  -0.323  1.00  0.00     0.053 C 
BRANCH   6   7
ATOM      7  C   UNL     1      27.111  29.070   1.154  1.00  0.00     0.041 C 
ATOM      8  O   UNL     1      27.944  28.297   1.694  1.00  0.00    -0.550 OA
ATOM      9  O   UNL     1      26.369  29.942   1.941  1.00  0.00    -0.550 OA
ENDBRANCH   6   7
ENDBRANCH   5   6
ENDBRANCH   4   5
ENDBRANCH   3   4
ENDBRANCH   2   3
ENDBRANCH   1   2
BRANCH   1  10
ATOM     10  C   UNL     1      25.950  30.923  -6.858  1.00  0.00     0.000 C 
BRANCH  10  11
ATOM     11  C   UNL     1      24.904  31.450  -7.851  1.00  0.00    -0.000 C 
BRANCH  11  12
ATOM     12  C   UNL     1      23.792  32.268  -7.171  1.00  0.00    -0.000 C 
BRANCH  12  13
ATOM     13  C   UNL     1      23.280  33.473  -7.985  1.00  0.00    -0.000 C 
BRANCH  13  14
ATOM     14  C   UNL     1      23.916  34.830  -7.618  1.00  0.00    -0.000 C 
BRANCH  14  15
ATOM     15  C   UNL     1      25.355  35.027  -8.125  1.00  0.00    -0.003 C 
ATOM     16  C   UNL     1      25.929  36.398  -7.768  1.00  0.00     0.004 C 
ENDBRANCH  14  15
ENDBRANCH  13  14
ENDBRANCH  12  13
ENDBRANCH  11  12
ENDBRANCH  10  11
ENDBRANCH   1  10
TORSDOF 12
ENDMDL
MODEL 4
REMARK VINA RESULT:     6.904     13.521     15.177
REMARK INTER + INTRA:          11.256
REMARK INTER:                  11.689
REMARK INTRA:                  -0.432
REMARK UNBOUND:                -0.491
REMARK SMILES CCCCCCCCCCCCCC(=O)[O-]
REMARK SMILES IDX 8 1 9 2 10 3 11 4 12 5 13 6 14 7 15 8 16 9 7 10 6 11 5 12
REMARK SMILES IDX 4 13 3 14 2 15 1 16
REMARK H PARENT
REMARK Flexibility Score: inf
ROOT
ATOM      1  C   UNL     1      26.313  31.228  -3.441  1.00  0.00     0.000 C 
ENDROOT
BRANCH   1   2
ATOM      2  C   UNL     1      27.482  31.263  -2.449  1.00  0.00     0.000 C 
BRANCH   2   3
ATOM      3  C   UNL     1      27.436  30.055  -1.503  1.00  0.00     0.000 C 
BRANCH   3   4
ATOM      4  C   UNL     1      27.184  30.456  -0.041  1.00  0.00     0.000 C 
BRANCH   4   5
ATOM      5  C   UNL     1      26.348  29.417   0.722  1.00  0.00     0.006 C 
BRANCH   5   6
ATOM      6  C   UNL     1      27.062  28.062   0.763  1.00  0.00     0.053 C 
BRANCH   6   7
ATOM      7  C   UNL     1      28.344  28.167   1.525  1.00  0.00     0.041 C 
ATOM      8  O   UNL     1      28.339  28.131   2.783  1.00  0.00    -0.550 OA
ATOM      9  O   UNL     1      29.542  28.355   0.847  1.00  0.00    -0.550 OA
ENDBRANCH   6   7
ENDBRANCH   5   6
ENDBRANCH   4   5
ENDBRANCH   3   4
ENDBRANCH   2   3
ENDBRANCH   1   2
BRANCH   1  10
ATOM     10  C   UNL     1      26.693  30.465  -4.716  1.00  0.00     0.000 C 
BRANCH  10  11
ATOM     11  C   UNL     1      26.290  31.253  -5.970  1.00  0.00    -0.000 C 
BRANCH  11  12
ATOM     12  C   UNL     1      24.965  30.767  -6.583  1.00  0.00    -0.000 C 
BRANCH  12  13
ATOM     13  C   UNL     1      24.648  31.334  -7.982  1.00  0.00    -0.000 C 
BRANCH  13  14
ATOM     14  C   UNL     1      23.569  32.436  -8.012  1.00  0.00    -0.000 C 
BRANCH  14  15
ATOM     15  C   UNL     1      24.107  33.869  -7.856  1.00  0.00    -0.003 C 
ATOM     16  C   UNL     1      25.608  33.974  -8.125  1.00  0.00     0.004 C 
ENDBRANCH  14  15
ENDBRANCH  13  14
ENDBRANCH  12  13
ENDBRANCH  11  12
ENDBRANCH  10  11
ENDBRANCH   1  10
TORSDOF 12
ENDMDL
MODEL 5
REMARK VINA RESULT:     7.064      3.948      6.454
REMARK INTER + INTRA:          11.528
REMARK INTER:                  11.821
REMARK INTRA:                  -0.293
REMARK UNBOUND:                -0.491
REMARK SMILES CCCCCCCCCCCCCC(=O)[O-]
REMARK SMILES IDX 8 1 9 2 10 3 11 4 12 5 13 6 14 7 15 8 16 9 7 10 6 11 5 12
REMARK SMILES IDX 4 13 3 14 2 15 1 16
REMARK H PARENT
REMARK Flexibility Score: inf
ROOT
ATOM      1  C   UNL     1      28.240  45.431   3.851  1.00  0.00     0.000 C 
ENDROOT
BRANCH   1   2
ATOM      2  C   UNL     1      27.719  44.039   3.473  1.00  0.00     0.000 C 
BRANCH   2   3
ATOM      3  C   UNL     1      26.630  43.575   4.452  1.00  0.00     0.000 C 
BRANCH   3   4
ATOM      4  C   UNL     1      25.300  43.255   3.752  1.00  0.00     0.000 C 
BRANCH   4   5
ATOM      5  C   UNL     1      24.612  42.010   4.329  1.00  0.00     0.006 C 
BRANCH   5   6
ATOM      6  C   UNL     1      23.087  42.149   4.269  1.00  0.00     0.053 C 
BRANCH   6   7
ATOM      7  C   UNL     1      22.648  42.506   2.884  1.00  0.00     0.041 C 
ATOM      8  O   UNL     1      23.013  41.808   1.902  1.00  0.00    -0.550 OA
ATOM      9  O   UNL     1      21.875  43.641   2.672  1.00  0.00    -0.550 OA
ENDBRANCH   6   7
ENDBRANCH   5   6
ENDBRANCH   4   5
ENDBRANCH   3   4
ENDBRANCH   2   3
ENDBRANCH   1   2
BRANCH   1  10
ATOM     10  C   UNL     1      27.467  46.004   5.045  1.00  0.00     0.000 C 
BRANCH  10  11
ATOM     11  C   UNL     1      27.915  47.441   5.351  1.00  0.00    -0.000 C 
BRANCH  11  12
ATOM     12  C   UNL     1      27.393  47.954   6.705  1.00  0.00    -0.000 C 
BRANCH  12  13
ATOM     13  C   UNL     1      27.022  46.854   7.720  1.00  0.00    -0.000 C 
BRANCH  13  14
ATOM     14  C   UNL     1      25.648  46.190   7.494  1.00  0.00    -0.000 C 
BRANCH  14  15
ATOM     15  C   UNL     1      24.439  47.070   7.855  1.00  0.00    -0.003 C 
ATOM     16  C   UNL     1      23.592  46.482   8.985  1.00  0.00     0.004 C 
ENDBRANCH  14  15
ENDBRANCH  13  14
ENDBRANCH  12  13
ENDBRANCH  11  12
ENDBRANCH  10  11
ENDBRANCH   1  10
TORSDOF 12
ENDMDL
MODEL 6
REMARK VINA RESULT:     7.791      4.792      7.374
REMARK INTER + INTRA:          12.765
REMARK INTER:                  13.425
REMARK INTRA:                  -0.660
REMARK UNBOUND:                -0.491
REMARK SMILES CCCCCCCCCCCCCC(=O)[O-]
REMARK SMILES IDX 8 1 9 2 10 3 11 4 12 5 13 6 14 7 15 8 16 9 7 10 6 11 5 12
REMARK SMILES IDX 4 13 3 14 2 15 1 16
REMARK H PARENT
REMARK Flexibility Score: inf
ROOT
ATOM      1  C   UNL     1      25.747  43.430   3.779  1.00  0.00     0.000 C 
ENDROOT
BRANCH   1   2
ATOM      2  C   UNL     1      24.753  42.921   2.728  1.00  0.00     0.000 C 
BRANCH   2   3
ATOM      3  C   UNL     1      23.725  41.971   3.358  1.00  0.00     0.000 C 
BRANCH   3   4
ATOM      4  C   UNL     1      24.034  41.654   4.830  1.00  0.00     0.000 C 
BRANCH   4   5
ATOM      5  C   UNL     1      24.744  40.303   5.008  1.00  0.00     0.006 C 
BRANCH   5   6
ATOM      6  C   UNL     1      24.786  39.898   6.485  1.00  0.00     0.053 C 
BRANCH   6   7
ATOM      7  C   UNL     1      25.682  38.715   6.679  1.00  0.00     0.041 C 
ATOM      8  O   UNL     1      26.459  38.663   7.668  1.00  0.00    -0.550 OA
ATOM      9  O   UNL     1      25.695  37.693   5.739  1.00  0.00    -0.550 OA
ENDBRANCH   6   7
ENDBRANCH   5   6
ENDBRANCH   4   5
ENDBRANCH   3   4
ENDBRANCH   2   3
ENDBRANCH   1   2
BRANCH   1  10
ATOM     10  C   UNL     1      27.019  43.974   3.117  1.00  0.00     0.000 C 
BRANCH  10  11
ATOM     11  C   UNL     1      27.930  44.652   4.151  1.00  0.00    -0.000 C 
BRANCH  11  12
ATOM     12  C   UNL     1      27.156  45.196   5.365  1.00  0.00    -0.000 C 
BRANCH  12  13
ATOM     13  C   UNL     1      27.368  46.697   5.652  1.00  0.00    -0.000 C 
BRANCH  13  14
ATOM     14  C   UNL     1      26.829  47.185   7.012  1.00  0.00    -0.000 C 
BRANCH  14  15
ATOM     15  C   UNL     1      25.826  46.235   7.689  1.00  0.00    -0.003 C 
ATOM     16  C   UNL     1      24.479  46.898   7.976  1.00  0.00     0.004 C 
ENDBRANCH  14  15
ENDBRANCH  13  14
ENDBRANCH  12  13
ENDBRANCH  11  12
ENDBRANCH  10  11
ENDBRANCH   1  10
TORSDOF 12
ENDMDL
MODEL 7
REMARK VINA RESULT:     8.217      5.053      6.722
REMARK INTER + INTRA:          13.491
REMARK INTER:                  14.151
REMARK INTRA:                  -0.660
REMARK UNBOUND:                -0.491
REMARK SMILES CCCCCCCCCCCCCC(=O)[O-]
REMARK SMILES IDX 8 1 9 2 10 3 11 4 12 5 13 6 14 7 15 8 16 9 7 10 6 11 5 12
REMARK SMILES IDX 4 13 3 14 2 15 1 16
REMARK H PARENT
REMARK Flexibility Score: inf
ROOT
ATOM      1  C   UNL     1      24.699  42.481   2.410  1.00  0.00     0.000 C 
ENDROOT
BRANCH   1   2
ATOM      2  C   UNL     1      25.230  43.781   3.025  1.00  0.00     0.000 C 
BRANCH   2   3
ATOM      3  C   UNL     1      26.311  43.491   4.076  1.00  0.00     0.000 C 
BRANCH   3   4
ATOM      4  C   UNL     1      27.529  44.420   3.948  1.00  0.00     0.000 C 
BRANCH   4   5
ATOM      5  C   UNL     1      27.479  45.600   4.929  1.00  0.00     0.006 C 
BRANCH   5   6
ATOM      6  C   UNL     1      26.663  45.242   6.175  1.00  0.00     0.053 C 
BRANCH   6   7
ATOM      7  C   UNL     1      26.395  46.464   6.996  1.00  0.00     0.041 C 
ATOM      8  O   UNL     1      27.250  47.385   7.060  1.00  0.00    -0.550 OA
ATOM      9  O   UNL     1      25.220  46.563   7.731  1.00  0.00    -0.550 OA
ENDBRANCH   6   7
ENDBRANCH   5   6
ENDBRANCH   4   5
ENDBRANCH   3   4
ENDBRANCH   2   3
ENDBRANCH   1   2
BRANCH   1  10
ATOM     10  C   UNL     1      23.250  42.219   2.839  1.00  0.00     0.000 C 
BRANCH  10  11
ATOM     11  C   UNL     1      23.033  42.604   4.309  1.00  0.00    -0.000 C 
BRANCH  11  12
ATOM     12  C   UNL     1      23.024  41.388   5.251  1.00  0.00    -0.000 C 
BRANCH  12  13
ATOM     13  C   UNL     1      24.396  40.713   5.457  1.00  0.00    -0.000 C 
BRANCH  13  14
ATOM     14  C   UNL     1      24.469  39.724   6.638  1.00  0.00    -0.000 C 
BRANCH  14  15
ATOM     15  C   UNL     1      25.807  38.977   6.774  1.00  0.00    -0.003 C 
ATOM     16  C   UNL     1      25.854  37.688   5.953  1.00  0.00     0.004 C 
ENDBRANCH  14  15
ENDBRANCH  13  14
ENDBRANCH  12  13
ENDBRANCH  11  12
ENDBRANCH  10  11
ENDBRANCH   1  10
TORSDOF 12
ENDMDL
MODEL 8
REMARK VINA RESULT:     8.535     13.032     14.108
REMARK INTER + INTRA:          14.031
REMARK INTER:                  14.557
REMARK INTRA:                  -0.526
REMARK UNBOUND:                -0.491
REMARK SMILES CCCCCCCCCCCCCC(=O)[O-]
REMARK SMILES IDX 8 1 9 2 10 3 11 4 12 5 13 6 14 7 15 8 16 9 7 10 6 11 5 12
REMARK SMILES IDX 4 13 3 14 2 15 1 16
REMARK H PARENT
REMARK Flexibility Score: inf
ROOT
ATOM      1  C   UNL     1      25.741  31.192  -3.394  1.00  0.00     0.000 C 
ENDROOT
BRANCH   1   2
ATOM      2  C   UNL     1      26.597  30.793  -4.602  1.00  0.00     0.000 C 
BRANCH   2   3
ATOM      3  C   UNL     1      26.178  31.577  -5.855  1.00  0.00     0.000 C 
BRANCH   3   4
ATOM      4  C   UNL     1      25.182  30.803  -6.733  1.00  0.00     0.000 C 
BRANCH   4   5
ATOM      5  C   UNL     1      24.142  31.718  -7.396  1.00  0.00     0.006 C 
BRANCH   5   6
ATOM      6  C   UNL     1      24.820  32.883  -8.123  1.00  0.00     0.053 C 
BRANCH   6   7
ATOM      7  C   UNL     1      23.934  34.088  -8.125  1.00  0.00     0.041 C 
ATOM      8  O   UNL     1      24.434  35.243  -8.098  1.00  0.00    -0.550 OA
ATOM      9  O   UNL     1      22.554  33.935  -8.105  1.00  0.00    -0.550 OA
ENDBRANCH   6   7
ENDBRANCH   5   6
ENDBRANCH   4   5
ENDBRANCH   3   4
ENDBRANCH   2   3
ENDBRANCH   1   2
BRANCH   1  10
ATOM     10  C   UNL     1      26.222  30.487  -2.120  1.00  0.00     0.000 C 
BRANCH  10  11
ATOM     11  C   UNL     1      27.601  31.007  -1.690  1.00  0.00    -0.000 C 
BRANCH  11  12
ATOM     12  C   UNL     1      28.000  30.547  -0.276  1.00  0.00    -0.000 C 
BRANCH  12  13
ATOM     13  C   UNL     1      27.127  29.420   0.312  1.00  0.00    -0.000 C 
BRANCH  13  14
ATOM     14  C   UNL     1      26.750  29.592   1.798  1.00  0.00    -0.000 C 
BRANCH  14  15
ATOM     15  C   UNL     1      27.492  28.654   2.766  1.00  0.00    -0.003 C 
ATOM     16  C   UNL     1      28.623  27.877   2.091  1.00  0.00     0.004 C 
ENDBRANCH  14  15
ENDBRANCH  13  14
ENDBRANCH  12  13
ENDBRANCH  11  12
ENDBRANCH  10  11
ENDBRANCH   1  10
TORSDOF 12
ENDMDL
