MODEL 1
REMARK VINA RESULT:    -5.363      0.000      0.000
REMARK INTER + INTRA:          -5.520
REMARK INTER:                  -5.520
REMARK INTRA:                   0.000
REMARK UNBOUND:                 0.000
REMARK SMILES O=c1ccc2ccc(O)cc2o1
REMARK SMILES IDX 6 1 7 2 8 3 10 4 11 5 5 6 4 7 3 8 2 9 1 10 12 11 9 12
REMARK H PARENT 9 13
REMARK Flexibility Score: inf
ROOT
ATOM      1  C   UNL     1      21.415  -0.502 -22.383  1.00  0.00     0.016 A 
ATOM      2  C   UNL     1      21.860   0.630 -23.075  1.00  0.00     0.047 A 
ATOM      3  C   UNL     1      21.895   1.880 -22.439  1.00  0.00     0.119 A 
ATOM      4  C   UNL     1      21.482   1.996 -21.107  1.00  0.00     0.094 A 
ATOM      5  C   UNL     1      21.035   0.871 -20.408  1.00  0.00     0.142 A 
ATOM      6  C   UNL     1      21.001  -0.388 -21.049  1.00  0.00     0.018 A 
ATOM      7  C   UNL     1      20.550  -1.494 -20.324  1.00  0.00     0.019 A 
ATOM      8  C   UNL     1      20.149  -1.326 -18.999  1.00  0.00     0.094 A 
ATOM      9  C   UNL     1      20.210  -0.051 -18.428  1.00  0.00     0.336 A 
ATOM     10  O   UNL     1      19.852   0.120 -17.233  1.00  0.00    -0.246 OA
ATOM     11  O   UNL     1      20.643   0.986 -19.140  1.00  0.00    -0.423 OA
ENDROOT
BRANCH   3  12
ATOM     12  O   UNL     1      22.337   3.010 -23.122  1.00  0.00    -0.508 OA
ATOM     13  H   UNL     1      23.273   3.065 -23.507  1.00  0.00     0.293 HD
ENDBRANCH   3  12
TORSDOF 1
ENDMDL
MODEL 2
REMARK VINA RESULT:    -5.322      1.205      4.234
REMARK INTER + INTRA:          -5.478
REMARK INTER:                  -5.478
REMARK INTRA:                   0.000
REMARK UNBOUND:                 0.000
REMARK SMILES O=c1ccc2ccc(O)cc2o1
REMARK SMILES IDX 6 1 7 2 8 3 10 4 11 5 5 6 4 7 3 8 2 9 1 10 12 11 9 12
REMARK H PARENT 9 13
REMARK Flexibility Score: inf
ROOT
ATOM      1  C   UNL     1      19.632  -1.258 -19.353  1.00  0.00     0.016 A 
ATOM      2  C   UNL     1      19.624  -0.746 -18.051  1.00  0.00     0.047 A 
ATOM      3  C   UNL     1      20.353   0.412 -17.742  1.00  0.00     0.119 A 
ATOM      4  C   UNL     1      21.094   1.057 -18.739  1.00  0.00     0.094 A 
ATOM      5  C   UNL     1      21.109   0.552 -20.043  1.00  0.00     0.142 A 
ATOM      6  C   UNL     1      20.373  -0.614 -20.353  1.00  0.00     0.018 A 
ATOM      7  C   UNL     1      20.408  -1.095 -21.665  1.00  0.00     0.019 A 
ATOM      8  C   UNL     1      21.160  -0.416 -22.623  1.00  0.00     0.094 A 
ATOM      9  C   UNL     1      21.864   0.732 -22.245  1.00  0.00     0.336 A 
ATOM     10  O   UNL     1      22.549   1.358 -23.095  1.00  0.00    -0.246 OA
ATOM     11  O   UNL     1      21.814   1.169 -20.988  1.00  0.00    -0.423 OA
ENDROOT
BRANCH   3  12
ATOM     12  O   UNL     1      20.349   0.927 -16.448  1.00  0.00    -0.508 OA
ATOM     13  H   UNL     1      21.151   1.420 -16.071  1.00  0.00     0.293 HD
ENDBRANCH   3  12
TORSDOF 1
ENDMDL
MODEL 3
REMARK VINA RESULT:    -5.267     16.675     19.412
REMARK INTER + INTRA:          -5.421
REMARK INTER:                  -5.421
REMARK INTRA:                   0.000
REMARK UNBOUND:                 0.000
REMARK SMILES O=c1ccc2ccc(O)cc2o1
REMARK SMILES IDX 6 1 7 2 8 3 10 4 11 5 5 6 4 7 3 8 2 9 1 10 12 11 9 12
REMARK H PARENT 9 13
REMARK Flexibility Score: inf
ROOT
ATOM      1  C   UNL     1       8.151  -8.034  -6.629  1.00  0.00     0.016 A 
ATOM      2  C   UNL     1       7.573  -7.134  -5.729  1.00  0.00     0.047 A 
ATOM      3  C   UNL     1       8.057  -5.820  -5.631  1.00  0.00     0.119 A 
ATOM      4  C   UNL     1       9.126  -5.410  -6.437  1.00  0.00     0.094 A 
ATOM      5  C   UNL     1       9.711  -6.303  -7.339  1.00  0.00     0.142 A 
ATOM      6  C   UNL     1       9.221  -7.625  -7.437  1.00  0.00     0.018 A 
ATOM      7  C   UNL     1       9.827  -8.495  -8.348  1.00  0.00     0.019 A 
ATOM      8  C   UNL     1      10.888  -8.038  -9.129  1.00  0.00     0.094 A 
ATOM      9  C   UNL     1      11.320  -6.716  -8.980  1.00  0.00     0.336 A 
ATOM     10  O   UNL     1      12.277  -6.286  -9.675  1.00  0.00    -0.246 OA
ATOM     11  O   UNL     1      10.727  -5.909  -8.104  1.00  0.00    -0.423 OA
ENDROOT
BRANCH   3  12
ATOM     12  O   UNL     1       7.486  -4.919  -4.737  1.00  0.00    -0.508 OA
ATOM     13  H   UNL     1       6.498  -4.695  -4.769  1.00  0.00     0.293 HD
ENDBRANCH   3  12
TORSDOF 1
ENDMDL
MODEL 4
REMARK VINA RESULT:    -5.134     18.564     20.272
REMARK INTER + INTRA:          -5.284
REMARK INTER:                  -5.284
REMARK INTRA:                   0.000
REMARK UNBOUND:                 0.000
REMARK SMILES O=c1ccc2ccc(O)cc2o1
REMARK SMILES IDX 6 1 7 2 8 3 10 4 11 5 5 6 4 7 3 8 2 9 1 10 12 11 9 12
REMARK H PARENT 9 13
REMARK Flexibility Score: inf
ROOT
ATOM      1  C   UNL     1       4.917   3.891  -7.251  1.00  0.00     0.016 A 
ATOM      2  C   UNL     1       5.958   2.960  -7.176  1.00  0.00     0.047 A 
ATOM      3  C   UNL     1       6.987   2.970  -8.130  1.00  0.00     0.119 A 
ATOM      4  C   UNL     1       6.971   3.915  -9.162  1.00  0.00     0.094 A 
ATOM      5  C   UNL     1       5.934   4.848  -9.246  1.00  0.00     0.142 A 
ATOM      6  C   UNL     1       4.899   4.837  -8.284  1.00  0.00     0.018 A 
ATOM      7  C   UNL     1       3.875   5.783  -8.394  1.00  0.00     0.019 A 
ATOM      8  C   UNL     1       3.904   6.703  -9.442  1.00  0.00     0.094 A 
ATOM      9  C   UNL     1       4.960   6.657 -10.358  1.00  0.00     0.336 A 
ATOM     10  O   UNL     1       5.004   7.479 -11.309  1.00  0.00    -0.246 OA
ATOM     11  O   UNL     1       5.922   5.745 -10.230  1.00  0.00    -0.423 OA
ENDROOT
BRANCH   3  12
ATOM     12  O   UNL     1       8.027   2.047  -8.061  1.00  0.00    -0.508 OA
ATOM     13  H   UNL     1       8.562   1.914  -7.210  1.00  0.00     0.293 HD
ENDBRANCH   3  12
TORSDOF 1
ENDMDL
MODEL 5
REMARK VINA RESULT:    -5.073      2.720      4.032
REMARK INTER + INTRA:          -5.222
REMARK INTER:                  -5.222
REMARK INTRA:                   0.000
REMARK UNBOUND:                 0.000
REMARK SMILES O=c1ccc2ccc(O)cc2o1
REMARK SMILES IDX 6 1 7 2 8 3 10 4 11 5 5 6 4 7 3 8 2 9 1 10 12 11 9 12
REMARK H PARENT 9 13
REMARK Flexibility Score: inf
ROOT
ATOM      1  C   UNL     1      21.220   0.917 -20.035  1.00  0.00     0.016 A 
ATOM      2  C   UNL     1      20.088   0.175 -20.391  1.00  0.00     0.047 A 
ATOM      3  C   UNL     1      19.257  -0.369 -19.400  1.00  0.00     0.119 A 
ATOM      4  C   UNL     1      19.562  -0.170 -18.049  1.00  0.00     0.094 A 
ATOM      5  C   UNL     1      20.691   0.569 -17.683  1.00  0.00     0.142 A 
ATOM      6  C   UNL     1      21.527   1.116 -18.682  1.00  0.00     0.018 A 
ATOM      7  C   UNL     1      22.648   1.850 -18.285  1.00  0.00     0.019 A 
ATOM      8  C   UNL     1      22.909   2.020 -16.926  1.00  0.00     0.094 A 
ATOM      9  C   UNL     1      22.038   1.450 -15.991  1.00  0.00     0.336 A 
ATOM     10  O   UNL     1      22.257   1.592 -14.760  1.00  0.00    -0.246 OA
ATOM     11  O   UNL     1      20.977   0.755 -16.396  1.00  0.00    -0.423 OA
ENDROOT
BRANCH   3  12
ATOM     12  O   UNL     1      18.129  -1.108 -19.748  1.00  0.00    -0.508 OA
ATOM     13  H   UNL     1      17.197  -0.802 -19.494  1.00  0.00     0.293 HD
ENDBRANCH   3  12
TORSDOF 1
ENDMDL
MODEL 6
REMARK VINA RESULT:    -4.973      2.603      4.901
REMARK INTER + INTRA:          -5.118
REMARK INTER:                  -5.118
REMARK INTRA:                   0.000
REMARK UNBOUND:                 0.000
REMARK SMILES O=c1ccc2ccc(O)cc2o1
REMARK SMILES IDX 6 1 7 2 8 3 10 4 11 5 5 6 4 7 3 8 2 9 1 10 12 11 9 12
REMARK H PARENT 9 13
REMARK Flexibility Score: inf
ROOT
ATOM      1  C   UNL     1      19.076   0.470 -16.200  1.00  0.00     0.016 A 
ATOM      2  C   UNL     1      19.963   1.173 -15.378  1.00  0.00     0.047 A 
ATOM      3  C   UNL     1      21.254   1.484 -15.833  1.00  0.00     0.119 A 
ATOM      4  C   UNL     1      21.656   1.088 -17.114  1.00  0.00     0.094 A 
ATOM      5  C   UNL     1      20.776   0.384 -17.942  1.00  0.00     0.142 A 
ATOM      6  C   UNL     1      19.477   0.072 -17.482  1.00  0.00     0.018 A 
ATOM      7  C   UNL     1      18.620  -0.633 -18.332  1.00  0.00     0.019 A 
ATOM      8  C   UNL     1      19.068  -1.006 -19.599  1.00  0.00     0.094 A 
ATOM      9  C   UNL     1      20.367  -0.663 -19.988  1.00  0.00     0.336 A 
ATOM     10  O   UNL     1      20.789  -0.990 -21.128  1.00  0.00    -0.246 OA
ATOM     11  O   UNL     1      21.163   0.008 -19.159  1.00  0.00    -0.423 OA
ENDROOT
BRANCH   3  12
ATOM     12  O   UNL     1      22.142   2.185 -15.021  1.00  0.00    -0.508 OA
ATOM     13  H   UNL     1      21.830   2.942 -14.424  1.00  0.00     0.293 HD
ENDBRANCH   3  12
TORSDOF 1
ENDMDL
MODEL 7
REMARK VINA RESULT:    -4.937     17.045     19.877
REMARK INTER + INTRA:          -5.081
REMARK INTER:                  -5.081
REMARK INTRA:                   0.000
REMARK UNBOUND:                 0.000
REMARK SMILES O=c1ccc2ccc(O)cc2o1
REMARK SMILES IDX 6 1 7 2 8 3 10 4 11 5 5 6 4 7 3 8 2 9 1 10 12 11 9 12
REMARK H PARENT 9 13
REMARK Flexibility Score: inf
ROOT
ATOM      1  C   UNL     1       8.698  -5.957  -6.523  1.00  0.00     0.016 A 
ATOM      2  C   UNL     1       7.713  -6.617  -5.780  1.00  0.00     0.047 A 
ATOM      3  C   UNL     1       7.478  -7.986  -5.975  1.00  0.00     0.119 A 
ATOM      4  C   UNL     1       8.230  -8.695  -6.919  1.00  0.00     0.094 A 
ATOM      5  C   UNL     1       9.216  -8.044  -7.667  1.00  0.00     0.142 A 
ATOM      6  C   UNL     1       9.452  -6.665  -7.469  1.00  0.00     0.018 A 
ATOM      7  C   UNL     1      10.443  -6.041  -8.231  1.00  0.00     0.019 A 
ATOM      8  C   UNL     1      11.166  -6.792  -9.159  1.00  0.00     0.094 A 
ATOM      9  C   UNL     1      10.879  -8.153  -9.302  1.00  0.00     0.336 A 
ATOM     10  O   UNL     1      11.521  -8.846 -10.134  1.00  0.00    -0.246 OA
ATOM     11  O   UNL     1       9.929  -8.722  -8.563  1.00  0.00    -0.423 OA
ENDROOT
BRANCH   3  12
ATOM     12  O   UNL     1       6.500  -8.650  -5.239  1.00  0.00    -0.508 OA
ATOM     13  H   UNL     1       6.629  -8.861  -4.256  1.00  0.00     0.293 HD
ENDBRANCH   3  12
TORSDOF 1
ENDMDL
MODEL 8
REMARK VINA RESULT:    -4.919     15.466     18.191
REMARK INTER + INTRA:          -5.063
REMARK INTER:                  -5.063
REMARK INTRA:                   0.000
REMARK UNBOUND:                 0.000
REMARK SMILES O=c1ccc2ccc(O)cc2o1
REMARK SMILES IDX 6 1 7 2 8 3 10 4 11 5 5 6 4 7 3 8 2 9 1 10 12 11 9 12
REMARK H PARENT 9 13
REMARK Flexibility Score: inf
ROOT
ATOM      1  C   UNL     1       8.896  -6.344  -6.936  1.00  0.00     0.016 A 
ATOM      2  C   UNL     1       7.604  -5.809  -6.958  1.00  0.00     0.047 A 
ATOM      3  C   UNL     1       7.138  -5.130  -8.094  1.00  0.00     0.119 A 
ATOM      4  C   UNL     1       7.970  -4.986  -9.210  1.00  0.00     0.094 A 
ATOM      5  C   UNL     1       9.263  -5.517  -9.198  1.00  0.00     0.142 A 
ATOM      6  C   UNL     1       9.731  -6.201  -8.053  1.00  0.00     0.018 A 
ATOM      7  C   UNL     1      11.028  -6.721  -8.070  1.00  0.00     0.019 A 
ATOM      8  C   UNL     1      11.818  -6.552  -9.207  1.00  0.00     0.094 A 
ATOM      9  C   UNL     1      11.290  -5.864 -10.304  1.00  0.00     0.336 A 
ATOM     10  O   UNL     1      11.988  -5.701 -11.339  1.00  0.00    -0.246 OA
ATOM     11  O   UNL     1      10.051  -5.378 -10.262  1.00  0.00    -0.423 OA
ENDROOT
BRANCH   3  12
ATOM     12  O   UNL     1       5.853  -4.595  -8.122  1.00  0.00    -0.508 OA
ATOM     13  H   UNL     1       5.122  -5.003  -8.693  1.00  0.00     0.293 HD
ENDBRANCH   3  12
TORSDOF 1
ENDMDL
MODEL 9
REMARK VINA RESULT:    -4.874     16.901     18.515
REMARK INTER + INTRA:          -5.016
REMARK INTER:                  -5.016
REMARK INTRA:                   0.000
REMARK UNBOUND:                 0.000
REMARK SMILES O=c1ccc2ccc(O)cc2o1
REMARK SMILES IDX 6 1 7 2 8 3 10 4 11 5 5 6 4 7 3 8 2 9 1 10 12 11 9 12
REMARK H PARENT 9 13
REMARK Flexibility Score: inf
ROOT
ATOM      1  C   UNL     1       7.713  -6.681  -7.768  1.00  0.00     0.016 A 
ATOM      2  C   UNL     1       8.404  -5.971  -6.780  1.00  0.00     0.047 A 
ATOM      3  C   UNL     1       9.766  -5.677  -6.941  1.00  0.00     0.119 A 
ATOM      4  C   UNL     1      10.439  -6.097  -8.094  1.00  0.00     0.094 A 
ATOM      5  C   UNL     1       9.757  -6.808  -9.087  1.00  0.00     0.142 A 
ATOM      6  C   UNL     1       8.385  -7.103  -8.923  1.00  0.00     0.018 A 
ATOM      7  C   UNL     1       7.731  -7.816  -9.933  1.00  0.00     0.019 A 
ATOM      8  C   UNL     1       8.445  -8.212 -11.063  1.00  0.00     0.094 A 
ATOM      9  C   UNL     1       9.802  -7.885 -11.158  1.00  0.00     0.336 A 
ATOM     10  O   UNL     1      10.463  -8.234 -12.170  1.00  0.00    -0.246 OA
ATOM     11  O   UNL     1      10.401  -7.206 -10.182  1.00  0.00    -0.423 OA
ENDROOT
BRANCH   3  12
ATOM     12  O   UNL     1      10.459  -4.970  -5.961  1.00  0.00    -0.508 OA
ATOM     13  H   UNL     1      11.098  -4.221  -6.201  1.00  0.00     0.293 HD
ENDBRANCH   3  12
TORSDOF 1
ENDMDL
