MODEL 1
REMARK VINA RESULT:    -4.609      0.000      0.000
REMARK INTER + INTRA:          -5.715
REMARK INTER:                  -5.418
REMARK INTRA:                  -0.297
REMARK UNBOUND:                -0.297
REMARK SMILES O=c1cc(-c2ccc(O)c(O)c2)oc2cc(O)cc(O)c12
REMARK SMILES IDX 4 1 3 2 2 3 1 4 21 5 19 6 18 7 16 8 15 9 14 10 13 11 5 12
REMARK SMILES IDX 6 13 7 14 8 15 12 16 10 17 9 18 11 20 20 22 17 24
REMARK H PARENT 9 19 11 21 20 23 17 25
REMARK Flexibility Score: inf
ROOT
ATOM      1  C   UNL     1      11.485   6.118  -2.077  1.00  0.00     0.138 A 
ATOM      2  C   UNL     1      10.106   6.118  -1.825  1.00  0.00     0.100 A 
ATOM      3  C   UNL     1       9.432   7.331  -1.681  1.00  0.00     0.197 A 
ATOM      4  O   UNL     1       8.207   7.299  -1.394  1.00  0.00    -0.289 OA
ATOM      5  C   UNL     1      10.138   8.550  -1.821  1.00  0.00     0.107 A 
ATOM      6  C   UNL     1       9.547   9.846  -1.735  1.00  0.00     0.134 A 
ATOM      7  C   UNL     1      10.365  10.982  -1.774  1.00  0.00     0.093 A 
ATOM      8  C   UNL     1      11.744  10.871  -1.956  1.00  0.00     0.123 A 
ATOM      9  C   UNL     1      12.326   9.610  -2.095  1.00  0.00     0.094 A 
ATOM     10  C   UNL     1      11.540   8.457  -2.026  1.00  0.00     0.146 A 
ATOM     11  O   UNL     1      12.135   7.275  -2.149  1.00  0.00    -0.456 OA
ENDROOT
BRANCH   1  12
ATOM     12  C   UNL     1      12.252   4.856  -2.239  1.00  0.00     0.021 A 
ATOM     13  C   UNL     1      11.687   3.792  -2.963  1.00  0.00     0.016 A 
ATOM     14  C   UNL     1      12.385   2.593  -3.124  1.00  0.00     0.051 A 
ATOM     15  C   UNL     1      13.655   2.432  -2.556  1.00  0.00     0.157 A 
ATOM     16  C   UNL     1      13.524   4.684  -1.661  1.00  0.00     0.062 A 
ATOM     17  C   UNL     1      14.225   3.482  -1.818  1.00  0.00     0.158 A 
BRANCH  15  18
ATOM     18  O   UNL     1      14.349   1.234  -2.721  1.00  0.00    -0.504 OA
ATOM     19  H   UNL     1      15.078   0.950  -2.076  1.00  0.00     0.293 HD
ENDBRANCH  15  18
BRANCH  17  20
ATOM     20  O   UNL     1      15.483   3.350  -1.232  1.00  0.00    -0.504 OA
ATOM     21  H   UNL     1      16.266   3.935  -1.500  1.00  0.00     0.293 HD
ENDBRANCH  17  20
ENDBRANCH   1  12
BRANCH   6  22
ATOM     22  O   UNL     1       8.171  10.072  -1.637  1.00  0.00    -0.507 OA
ATOM     23  H   UNL     1       7.567  10.301  -2.411  1.00  0.00     0.293 HD
ENDBRANCH   6  22
BRANCH   8  24
ATOM     24  O   UNL     1      12.524  12.023  -2.005  1.00  0.00    -0.508 OA
ATOM     25  H   UNL     1      12.756  12.542  -1.166  1.00  0.00     0.293 HD
ENDBRANCH   8  24
TORSDOF 5
ENDMDL
MODEL 2
REMARK VINA RESULT:    -4.223      1.627      6.980
REMARK INTER + INTRA:          -5.260
REMARK INTER:                  -4.963
REMARK INTRA:                  -0.297
REMARK UNBOUND:                -0.297
REMARK SMILES O=c1cc(-c2ccc(O)c(O)c2)oc2cc(O)cc(O)c12
REMARK SMILES IDX 4 1 3 2 2 3 1 4 21 5 19 6 18 7 16 8 15 9 14 10 13 11 5 12
REMARK SMILES IDX 6 13 7 14 8 15 12 16 10 17 9 18 11 20 20 22 17 24
REMARK H PARENT 9 19 11 21 20 23 17 25
REMARK Flexibility Score: inf
ROOT
ATOM      1  C   UNL     1      10.574   7.560  -2.252  1.00  0.00     0.138 A 
ATOM      2  C   UNL     1       9.441   6.788  -2.544  1.00  0.00     0.100 A 
ATOM      3  C   UNL     1       9.584   5.425  -2.806  1.00  0.00     0.197 A 
ATOM      4  O   UNL     1       8.558   4.771  -3.125  1.00  0.00    -0.289 OA
ATOM      5  C   UNL     1      10.865   4.827  -2.746  1.00  0.00     0.107 A 
ATOM      6  C   UNL     1      11.126   3.439  -2.954  1.00  0.00     0.134 A 
ATOM      7  C   UNL     1      12.449   2.982  -2.984  1.00  0.00     0.093 A 
ATOM      8  C   UNL     1      13.517   3.850  -2.753  1.00  0.00     0.123 A 
ATOM      9  C   UNL     1      13.270   5.199  -2.495  1.00  0.00     0.094 A 
ATOM     10  C   UNL     1      11.963   5.692  -2.493  1.00  0.00     0.146 A 
ATOM     11  O   UNL     1      11.772   6.986  -2.255  1.00  0.00    -0.456 OA
ENDROOT
BRANCH   1  12
ATOM     12  C   UNL     1      10.479   9.014  -1.965  1.00  0.00     0.021 A 
ATOM     13  C   UNL     1      11.630   9.716  -1.568  1.00  0.00     0.016 A 
ATOM     14  C   UNL     1      11.565  11.083  -1.285  1.00  0.00     0.051 A 
ATOM     15  C   UNL     1      10.348  11.769  -1.382  1.00  0.00     0.157 A 
ATOM     16  C   UNL     1       9.256   9.706  -2.049  1.00  0.00     0.062 A 
ATOM     17  C   UNL     1       9.188  11.075  -1.762  1.00  0.00     0.158 A 
BRANCH  15  18
ATOM     18  O   UNL     1      10.288  13.133  -1.101  1.00  0.00    -0.504 OA
ATOM     19  H   UNL     1       9.565  13.521  -0.505  1.00  0.00     0.293 HD
ENDBRANCH  15  18
BRANCH  17  20
ATOM     20  O   UNL     1       7.959  11.727  -1.858  1.00  0.00    -0.504 OA
ATOM     21  H   UNL     1       7.782  12.613  -1.399  1.00  0.00     0.293 HD
ENDBRANCH  17  20
ENDBRANCH   1  12
BRANCH   6  22
ATOM     22  O   UNL     1      10.128   2.473  -3.110  1.00  0.00    -0.507 OA
ATOM     23  H   UNL     1      10.094   1.793  -3.854  1.00  0.00     0.293 HD
ENDBRANCH   6  22
BRANCH   8  24
ATOM     24  O   UNL     1      14.819   3.356  -2.775  1.00  0.00    -0.508 OA
ATOM     25  H   UNL     1      15.301   3.096  -1.923  1.00  0.00     0.293 HD
ENDBRANCH   8  24
TORSDOF 5
ENDMDL
MODEL 3
REMARK VINA RESULT:    -4.070      2.246      4.383
REMARK INTER + INTRA:          -5.081
REMARK INTER:                  -4.784
REMARK INTRA:                  -0.297
REMARK UNBOUND:                -0.297
REMARK SMILES O=c1cc(-c2ccc(O)c(O)c2)oc2cc(O)cc(O)c12
REMARK SMILES IDX 4 1 3 2 2 3 1 4 21 5 19 6 18 7 16 8 15 9 14 10 13 11 5 12
REMARK SMILES IDX 6 13 7 14 8 15 12 16 10 17 9 18 11 20 20 22 17 24
REMARK H PARENT 9 19 11 21 20 23 17 25
REMARK Flexibility Score: inf
ROOT
ATOM      1  C   UNL     1      11.655   9.510  -1.951  1.00  0.00     0.138 A 
ATOM      2  C   UNL     1      12.839  10.108  -2.404  1.00  0.00     0.100 A 
ATOM      3  C   UNL     1      12.974  11.496  -2.352  1.00  0.00     0.197 A 
ATOM      4  O   UNL     1      14.022  12.008  -2.823  1.00  0.00    -0.289 OA
ATOM      5  C   UNL     1      11.929  12.285  -1.815  1.00  0.00     0.107 A 
ATOM      6  C   UNL     1      11.973  13.705  -1.674  1.00  0.00     0.134 A 
ATOM      7  C   UNL     1      10.833  14.390  -1.237  1.00  0.00     0.093 A 
ATOM      8  C   UNL     1       9.673  13.704  -0.877  1.00  0.00     0.123 A 
ATOM      9  C   UNL     1       9.637  12.311  -0.959  1.00  0.00     0.094 A 
ATOM     10  C   UNL     1      10.746  11.602  -1.425  1.00  0.00     0.146 A 
ATOM     11  O   UNL     1      10.667  10.277  -1.501  1.00  0.00    -0.456 OA
ENDROOT
BRANCH   1  12
ATOM     12  C   UNL     1      11.458   8.038  -1.982  1.00  0.00     0.021 A 
ATOM     13  C   UNL     1      10.215   7.499  -1.610  1.00  0.00     0.016 A 
ATOM     14  C   UNL     1      10.007   6.117  -1.623  1.00  0.00     0.051 A 
ATOM     15  C   UNL     1      11.041   5.250  -1.999  1.00  0.00     0.157 A 
ATOM     16  C   UNL     1      12.497   7.160  -2.346  1.00  0.00     0.062 A 
ATOM     17  C   UNL     1      12.293   5.775  -2.358  1.00  0.00     0.158 A 
BRANCH  15  18
ATOM     18  O   UNL     1      10.830   3.872  -2.013  1.00  0.00    -0.504 OA
ATOM     19  H   UNL     1      10.934   3.328  -2.862  1.00  0.00     0.293 HD
ENDBRANCH  15  18
BRANCH  17  20
ATOM     20  O   UNL     1      13.346   4.939  -2.726  1.00  0.00    -0.504 OA
ATOM     21  H   UNL     1      14.308   5.258  -2.739  1.00  0.00     0.293 HD
ENDBRANCH  17  20
ENDBRANCH   1  12
BRANCH   6  22
ATOM     22  O   UNL     1      13.109  14.479  -1.925  1.00  0.00    -0.507 OA
ATOM     23  H   UNL     1      14.059  14.157  -1.833  1.00  0.00     0.293 HD
ENDBRANCH   6  22
BRANCH   8  24
ATOM     24  O   UNL     1       8.563  14.419  -0.431  1.00  0.00    -0.508 OA
ATOM     25  H   UNL     1       8.246  15.256  -0.907  1.00  0.00     0.293 HD
ENDBRANCH   8  24
TORSDOF 5
ENDMDL
MODEL 4
REMARK VINA RESULT:    -4.069      3.356      5.664
REMARK INTER + INTRA:          -5.079
REMARK INTER:                  -4.761
REMARK INTRA:                  -0.318
REMARK UNBOUND:                -0.297
REMARK SMILES O=c1cc(-c2ccc(O)c(O)c2)oc2cc(O)cc(O)c12
REMARK SMILES IDX 4 1 3 2 2 3 1 4 21 5 19 6 18 7 16 8 15 9 14 10 13 11 5 12
REMARK SMILES IDX 6 13 7 14 8 15 12 16 10 17 9 18 11 20 20 22 17 24
REMARK H PARENT 9 19 11 21 20 23 17 25
REMARK Flexibility Score: inf
ROOT
ATOM      1  C   UNL     1      11.647  11.705  -1.663  1.00  0.00     0.138 A 
ATOM      2  C   UNL     1      10.328  11.886  -1.224  1.00  0.00     0.100 A 
ATOM      3  C   UNL     1       9.883  13.165  -0.886  1.00  0.00     0.197 A 
ATOM      4  O   UNL     1       8.715  13.288  -0.437  1.00  0.00    -0.289 OA
ATOM      5  C   UNL     1      10.756  14.271  -1.019  1.00  0.00     0.107 A 
ATOM      6  C   UNL     1      10.399  15.626  -0.744  1.00  0.00     0.134 A 
ATOM      7  C   UNL     1      11.380  16.623  -0.800  1.00  0.00     0.093 A 
ATOM      8  C   UNL     1      12.689  16.326  -1.179  1.00  0.00     0.123 A 
ATOM      9  C   UNL     1      13.037  15.013  -1.503  1.00  0.00     0.094 A 
ATOM     10  C   UNL     1      12.088  13.991  -1.423  1.00  0.00     0.146 A 
ATOM     11  O   UNL     1      12.463  12.752  -1.727  1.00  0.00    -0.456 OA
ENDROOT
BRANCH   1  12
ATOM     12  C   UNL     1      12.172  10.366  -2.036  1.00  0.00     0.021 A 
ATOM     13  C   UNL     1      11.321   9.250  -1.982  1.00  0.00     0.016 A 
ATOM     14  C   UNL     1      11.792   7.979  -2.321  1.00  0.00     0.051 A 
ATOM     15  C   UNL     1      13.126   7.800  -2.709  1.00  0.00     0.157 A 
ATOM     16  C   UNL     1      13.516  10.178  -2.415  1.00  0.00     0.062 A 
ATOM     17  C   UNL     1      13.992   8.905  -2.752  1.00  0.00     0.158 A 
BRANCH  15  18
ATOM     18  O   UNL     1      13.593   6.531  -3.048  1.00  0.00    -0.504 OA
ATOM     19  H   UNL     1      14.138   5.975  -2.400  1.00  0.00     0.293 HD
ENDBRANCH  15  18
BRANCH  17  20
ATOM     20  O   UNL     1      15.328   8.759  -3.123  1.00  0.00    -0.504 OA
ATOM     21  H   UNL     1      16.031   9.450  -2.886  1.00  0.00     0.293 HD
ENDBRANCH  17  20
ENDBRANCH   1  12
BRANCH   6  22
ATOM     22  O   UNL     1       9.101  16.044  -0.439  1.00  0.00    -0.507 OA
ATOM     23  H   UNL     1       8.513  16.593  -1.046  1.00  0.00     0.293 HD
ENDBRANCH   6  22
BRANCH   8  24
ATOM     24  O   UNL     1      13.635  17.347  -1.239  1.00  0.00    -0.508 OA
ATOM     25  H   UNL     1      14.558  17.237  -0.834  1.00  0.00     0.293 HD
ENDBRANCH   8  24
TORSDOF 5
ENDMDL
MODEL 5
REMARK VINA RESULT:    -4.063      2.446      8.100
REMARK INTER + INTRA:          -5.073
REMARK INTER:                  -4.755
REMARK INTRA:                  -0.317
REMARK UNBOUND:                -0.297
REMARK SMILES O=c1cc(-c2ccc(O)c(O)c2)oc2cc(O)cc(O)c12
REMARK SMILES IDX 4 1 3 2 2 3 1 4 21 5 19 6 18 7 16 8 15 9 14 10 13 11 5 12
REMARK SMILES IDX 6 13 7 14 8 15 12 16 10 17 9 18 11 20 20 22 17 24
REMARK H PARENT 9 19 11 21 20 23 17 25
REMARK Flexibility Score: inf
ROOT
ATOM      1  C   UNL     1      11.200  10.627  -1.761  1.00  0.00     0.138 A 
ATOM      2  C   UNL     1      12.550  10.398  -2.060  1.00  0.00     0.100 A 
ATOM      3  C   UNL     1      12.986   9.100  -2.328  1.00  0.00     0.197 A 
ATOM      4  O   UNL     1      14.214   8.916  -2.533  1.00  0.00    -0.289 OA
ATOM      5  C   UNL     1      12.058   8.032  -2.327  1.00  0.00     0.107 A 
ATOM      6  C   UNL     1      12.381   6.674  -2.627  1.00  0.00     0.134 A 
ATOM      7  C   UNL     1      11.402   5.683  -2.480  1.00  0.00     0.093 A 
ATOM      8  C   UNL     1      10.098   6.007  -2.105  1.00  0.00     0.123 A 
ATOM      9  C   UNL     1       9.758   7.339  -1.861  1.00  0.00     0.094 A 
ATOM     10  C   UNL     1      10.721   8.346  -1.965  1.00  0.00     0.146 A 
ATOM     11  O   UNL     1      10.359   9.600  -1.712  1.00  0.00    -0.456 OA
ENDROOT
BRANCH   1  12
ATOM     12  C   UNL     1      10.682  11.988  -1.469  1.00  0.00     0.021 A 
ATOM     13  C   UNL     1      11.517  13.102  -1.661  1.00  0.00     0.016 A 
ATOM     14  C   UNL     1      11.056  14.392  -1.386  1.00  0.00     0.051 A 
ATOM     15  C   UNL     1       9.756  14.591  -0.905  1.00  0.00     0.157 A 
ATOM     16  C   UNL     1       9.380  12.194  -0.972  1.00  0.00     0.062 A 
ATOM     17  C   UNL     1       8.916  13.485  -0.694  1.00  0.00     0.158 A 
BRANCH  15  18
ATOM     18  O   UNL     1       9.299  15.880  -0.634  1.00  0.00    -0.504 OA
ATOM     19  H   UNL     1       9.867  16.696  -0.827  1.00  0.00     0.293 HD
ENDBRANCH  15  18
BRANCH  17  20
ATOM     20  O   UNL     1       7.620  13.648  -0.205  1.00  0.00    -0.504 OA
ATOM     21  H   UNL     1       7.377  13.436   0.756  1.00  0.00     0.293 HD
ENDBRANCH  17  20
ENDBRANCH   1  12
BRANCH   6  22
ATOM     22  O   UNL     1      13.630   6.253  -3.092  1.00  0.00    -0.507 OA
ATOM     23  H   UNL     1      14.246   6.804  -3.670  1.00  0.00     0.293 HD
ENDBRANCH   6  22
BRANCH   8  24
ATOM     24  O   UNL     1       9.147   4.997  -1.984  1.00  0.00    -0.508 OA
ATOM     25  H   UNL     1       8.155   5.203  -1.973  1.00  0.00     0.293 HD
ENDBRANCH   8  24
TORSDOF 5
ENDMDL
MODEL 6
REMARK VINA RESULT:    -4.015      1.920      7.300
REMARK INTER + INTRA:          -5.016
REMARK INTER:                  -4.722
REMARK INTRA:                  -0.295
REMARK UNBOUND:                -0.297
REMARK SMILES O=c1cc(-c2ccc(O)c(O)c2)oc2cc(O)cc(O)c12
REMARK SMILES IDX 4 1 3 2 2 3 1 4 21 5 19 6 18 7 16 8 15 9 14 10 13 11 5 12
REMARK SMILES IDX 6 13 7 14 8 15 12 16 10 17 9 18 11 20 20 22 17 24
REMARK H PARENT 9 19 11 21 20 23 17 25
REMARK Flexibility Score: inf
ROOT
ATOM      1  C   UNL     1      10.376   9.531  -1.777  1.00  0.00     0.138 A 
ATOM      2  C   UNL     1       9.100   8.965  -1.903  1.00  0.00     0.100 A 
ATOM      3  C   UNL     1       8.969   7.584  -2.049  1.00  0.00     0.197 A 
ATOM      4  O   UNL     1       7.817   7.111  -2.222  1.00  0.00    -0.289 OA
ATOM      5  C   UNL     1      10.122   6.763  -2.036  1.00  0.00     0.107 A 
ATOM      6  C   UNL     1      10.108   5.339  -2.135  1.00  0.00     0.134 A 
ATOM      7  C   UNL     1      11.318   4.641  -2.229  1.00  0.00     0.093 A 
ATOM      8  C   UNL     1      12.541   5.308  -2.166  1.00  0.00     0.123 A 
ATOM      9  C   UNL     1      12.568   6.695  -2.015  1.00  0.00     0.094 A 
ATOM     10  C   UNL     1      11.377   7.423  -1.953  1.00  0.00     0.146 A 
ATOM     11  O   UNL     1      11.446   8.744  -1.823  1.00  0.00    -0.456 OA
ENDROOT
BRANCH   1  12
ATOM     12  C   UNL     1      10.573  10.995  -1.619  1.00  0.00     0.021 A 
ATOM     13  C   UNL     1      11.855  11.543  -1.790  1.00  0.00     0.016 A 
ATOM     14  C   UNL     1      12.068  12.915  -1.639  1.00  0.00     0.051 A 
ATOM     15  C   UNL     1      11.004  13.763  -1.304  1.00  0.00     0.157 A 
ATOM     16  C   UNL     1       9.510  11.851  -1.270  1.00  0.00     0.062 A 
ATOM     17  C   UNL     1       9.721  13.226  -1.115  1.00  0.00     0.158 A 
BRANCH  15  18
ATOM     18  O   UNL     1      11.219  15.132  -1.157  1.00  0.00    -0.504 OA
ATOM     19  H   UNL     1      11.517  15.531  -0.274  1.00  0.00     0.293 HD
ENDBRANCH  15  18
BRANCH  17  20
ATOM     20  O   UNL     1       8.643  14.041  -0.771  1.00  0.00    -0.504 OA
ATOM     21  H   UNL     1       7.735  13.660  -0.532  1.00  0.00     0.293 HD
ENDBRANCH  17  20
ENDBRANCH   1  12
BRANCH   6  22
ATOM     22  O   UNL     1       8.942   4.568  -2.120  1.00  0.00    -0.507 OA
ATOM     23  H   UNL     1       8.021   4.909  -2.349  1.00  0.00     0.293 HD
ENDBRANCH   6  22
BRANCH   8  24
ATOM     24  O   UNL     1      13.726   4.579  -2.246  1.00  0.00    -0.508 OA
ATOM     25  H   UNL     1      14.143   4.345  -3.140  1.00  0.00     0.293 HD
ENDBRANCH   8  24
TORSDOF 5
ENDMDL
MODEL 7
REMARK VINA RESULT:    -3.930      3.614      8.828
REMARK INTER + INTRA:          -4.916
REMARK INTER:                  -4.626
REMARK INTRA:                  -0.290
REMARK UNBOUND:                -0.297
REMARK SMILES O=c1cc(-c2ccc(O)c(O)c2)oc2cc(O)cc(O)c12
REMARK SMILES IDX 4 1 3 2 2 3 1 4 21 5 19 6 18 7 16 8 15 9 14 10 13 11 5 12
REMARK SMILES IDX 6 13 7 14 8 15 12 16 10 17 9 18 11 20 20 22 17 24
REMARK H PARENT 9 19 11 21 20 23 17 25
REMARK Flexibility Score: inf
ROOT
ATOM      1  C   UNL     1      11.760  13.305  -1.351  1.00  0.00     0.138 A 
ATOM      2  C   UNL     1      10.361  13.352  -1.276  1.00  0.00     0.100 A 
ATOM      3  C   UNL     1       9.623  12.177  -1.421  1.00  0.00     0.197 A 
ATOM      4  O   UNL     1       8.368  12.260  -1.410  1.00  0.00    -0.289 OA
ATOM      5  C   UNL     1      10.291  10.945  -1.611  1.00  0.00     0.107 A 
ATOM      6  C   UNL     1       9.644   9.678  -1.730  1.00  0.00     0.134 A 
ATOM      7  C   UNL     1      10.403   8.541  -2.033  1.00  0.00     0.093 A 
ATOM      8  C   UNL     1      11.790   8.612  -2.161  1.00  0.00     0.123 A 
ATOM      9  C   UNL     1      12.439   9.837  -1.993  1.00  0.00     0.094 A 
ATOM     10  C   UNL     1      11.706  10.995  -1.725  1.00  0.00     0.146 A 
ATOM     11  O   UNL     1      12.362  12.143  -1.585  1.00  0.00    -0.456 OA
ENDROOT
BRANCH   1  12
ATOM     12  C   UNL     1      12.595  14.524  -1.203  1.00  0.00     0.021 A 
ATOM     13  C   UNL     1      13.871  14.564  -1.790  1.00  0.00     0.016 A 
ATOM     14  C   UNL     1      14.679  15.696  -1.658  1.00  0.00     0.051 A 
ATOM     15  C   UNL     1      14.230  16.805  -0.930  1.00  0.00     0.157 A 
ATOM     16  C   UNL     1      12.154  15.637  -0.461  1.00  0.00     0.062 A 
ATOM     17  C   UNL     1      12.963  16.772  -0.326  1.00  0.00     0.158 A 
BRANCH  15  18
ATOM     18  O   UNL     1      15.037  17.934  -0.803  1.00  0.00    -0.504 OA
ATOM     19  H   UNL     1      14.742  18.740  -0.264  1.00  0.00     0.293 HD
ENDBRANCH  15  18
BRANCH  17  20
ATOM     20  O   UNL     1      12.490  17.855   0.416  1.00  0.00    -0.504 OA
ATOM     21  H   UNL     1      12.059  17.737   1.326  1.00  0.00     0.293 HD
ENDBRANCH  17  20
ENDBRANCH   1  12
BRANCH   6  22
ATOM     22  O   UNL     1       8.274   9.481  -1.537  1.00  0.00    -0.507 OA
ATOM     23  H   UNL     1       7.561  10.172  -1.711  1.00  0.00     0.293 HD
ENDBRANCH   6  22
BRANCH   8  24
ATOM     24  O   UNL     1      12.514   7.457  -2.447  1.00  0.00    -0.508 OA
ATOM     25  H   UNL     1      13.517   7.414  -2.312  1.00  0.00     0.293 HD
ENDBRANCH   8  24
TORSDOF 5
ENDMDL
MODEL 8
REMARK VINA RESULT:    -3.897      1.370      2.893
REMARK INTER + INTRA:          -4.878
REMARK INTER:                  -4.581
REMARK INTRA:                  -0.297
REMARK UNBOUND:                -0.297
REMARK SMILES O=c1cc(-c2ccc(O)c(O)c2)oc2cc(O)cc(O)c12
REMARK SMILES IDX 4 1 3 2 2 3 1 4 21 5 19 6 18 7 16 8 15 9 14 10 13 11 5 12
REMARK SMILES IDX 6 13 7 14 8 15 12 16 10 17 9 18 11 20 20 22 17 24
REMARK H PARENT 9 19 11 21 20 23 17 25
REMARK Flexibility Score: inf
ROOT
ATOM      1  C   UNL     1      11.839   7.258  -2.442  1.00  0.00     0.138 A 
ATOM      2  C   UNL     1      12.974   8.080  -2.493  1.00  0.00     0.100 A 
ATOM      3  C   UNL     1      12.837   9.457  -2.310  1.00  0.00     0.197 A 
ATOM      4  O   UNL     1      13.863  10.176  -2.423  1.00  0.00    -0.289 OA
ATOM      5  C   UNL     1      11.561  10.007  -2.044  1.00  0.00     0.107 A 
ATOM      6  C   UNL     1      11.307  11.391  -1.800  1.00  0.00     0.134 A 
ATOM      7  C   UNL     1       9.986  11.837  -1.663  1.00  0.00     0.093 A 
ATOM      8  C   UNL     1       8.916  10.943  -1.700  1.00  0.00     0.123 A 
ATOM      9  C   UNL     1       9.157   9.580  -1.885  1.00  0.00     0.094 A 
ATOM     10  C   UNL     1      10.460   9.110  -2.059  1.00  0.00     0.146 A 
ATOM     11  O   UNL     1      10.645   7.806  -2.245  1.00  0.00    -0.456 OA
ENDROOT
BRANCH   1  12
ATOM     12  C   UNL     1      11.928   5.787  -2.629  1.00  0.00     0.021 A 
ATOM     13  C   UNL     1      10.751   5.019  -2.636  1.00  0.00     0.016 A 
ATOM     14  C   UNL     1      10.808   3.633  -2.802  1.00  0.00     0.051 A 
ATOM     15  C   UNL     1      12.043   2.989  -2.954  1.00  0.00     0.157 A 
ATOM     16  C   UNL     1      13.167   5.133  -2.769  1.00  0.00     0.062 A 
ATOM     17  C   UNL     1      13.227   3.743  -2.934  1.00  0.00     0.158 A 
BRANCH  15  18
ATOM     18  O   UNL     1      12.096   1.606  -3.122  1.00  0.00    -0.504 OA
ATOM     19  H   UNL     1      11.569   1.140  -3.852  1.00  0.00     0.293 HD
ENDBRANCH  15  18
BRANCH  17  20
ATOM     20  O   UNL     1      14.473   3.132  -3.071  1.00  0.00    -0.504 OA
ATOM     21  H   UNL     1      14.567   2.152  -3.314  1.00  0.00     0.293 HD
ENDBRANCH  17  20
ENDBRANCH   1  12
BRANCH   6  22
ATOM     22  O   UNL     1      12.309  12.355  -1.659  1.00  0.00    -0.507 OA
ATOM     23  H   UNL     1      12.821  12.771  -2.422  1.00  0.00     0.293 HD
ENDBRANCH   6  22
BRANCH   8  24
ATOM     24  O   UNL     1       7.617  11.421  -1.545  1.00  0.00    -0.508 OA
ATOM     25  H   UNL     1       7.415  12.414  -1.544  1.00  0.00     0.293 HD
ENDBRANCH   8  24
TORSDOF 5
ENDMDL
