MODEL 1
REMARK VINA RESULT:    -4.810      0.000      0.000
REMARK INTER + INTRA:         -11.407
REMARK INTER:                  -9.027
REMARK INTRA:                  -2.379
REMARK UNBOUND:                -2.379
REMARK SMILES CCCCCCCCC=CCCCCCCCC(=O)[O-]
REMARK SMILES IDX 10 1 9 2 11 3 12 4 13 5 14 6 15 7 16 8 17 9 18 10 19 11
REMARK SMILES IDX 20 12 8 13 7 14 6 15 5 16 4 17 3 18 2 19 1 20
REMARK H PARENT
REMARK Flexibility Score: inf
ROOT
ATOM      1  C   UNL     1     -25.490 -62.179   3.405  1.00  0.00    -0.031 C 
ATOM      2  C   UNL     1     -24.856 -63.348   3.240  1.00  0.00    -0.031 C 
ENDROOT
BRANCH   1   3
ATOM      3  C   UNL     1     -25.221 -61.023   2.481  1.00  0.00     0.027 C 
BRANCH   3   4
ATOM      4  C   UNL     1     -23.746 -60.985   2.054  1.00  0.00     0.004 C 
BRANCH   4   5
ATOM      5  C   UNL     1     -23.134 -59.581   2.178  1.00  0.00     0.000 C 
BRANCH   5   6
ATOM      6  C   UNL     1     -22.322 -59.181   0.935  1.00  0.00     0.000 C 
BRANCH   6   7
ATOM      7  C   UNL     1     -22.072 -60.370  -0.009  1.00  0.00     0.000 C 
BRANCH   7   8
ATOM      8  C   UNL     1     -22.807 -60.214  -1.352  1.00  0.00     0.006 C 
BRANCH   8   9
ATOM      9  C   UNL     1     -23.773 -59.024  -1.350  1.00  0.00     0.053 C 
BRANCH   9  10
ATOM     10  C   UNL     1     -25.172 -59.440  -1.690  1.00  0.00     0.041 C 
ATOM     11  O   UNL     1     -25.988 -59.725  -0.775  1.00  0.00    -0.550 OA
ATOM     12  O   UNL     1     -25.583 -59.487  -3.017  1.00  0.00    -0.550 OA
ENDBRANCH   9  10
ENDBRANCH   8   9
ENDBRANCH   7   8
ENDBRANCH   6   7
ENDBRANCH   5   6
ENDBRANCH   4   5
ENDBRANCH   3   4
ENDBRANCH   1   3
BRANCH   2  13
ATOM     13  C   UNL     1     -25.122 -64.531   4.135  1.00  0.00     0.027 C 
BRANCH  13  14
ATOM     14  C   UNL     1     -23.910 -64.903   5.012  1.00  0.00     0.004 C 
BRANCH  14  15
ATOM     15  C   UNL     1     -23.427 -63.769   5.936  1.00  0.00     0.000 C 
BRANCH  15  16
ATOM     16  C   UNL     1     -22.177 -63.057   5.395  1.00  0.00     0.000 C 
BRANCH  16  17
ATOM     17  C   UNL     1     -22.249 -61.526   5.551  1.00  0.00    -0.000 C 
BRANCH  17  18
ATOM     18  C   UNL     1     -23.584 -61.031   6.143  1.00  0.00    -0.000 C 
BRANCH  18  19
ATOM     19  C   UNL     1     -23.700 -59.501   6.114  1.00  0.00    -0.003 C 
ATOM     20  C   UNL     1     -25.066 -59.063   5.598  1.00  0.00     0.004 C 
ENDBRANCH  18  19
ENDBRANCH  17  18
ENDBRANCH  16  17
ENDBRANCH  15  16
ENDBRANCH  14  15
ENDBRANCH  13  14
ENDBRANCH   2  13
TORSDOF 15
ENDMDL
MODEL 2
REMARK VINA RESULT:    -4.759      1.727      3.383
REMARK INTER + INTRA:         -11.312
REMARK INTER:                  -8.489
REMARK INTRA:                  -2.823
REMARK UNBOUND:                -2.379
REMARK SMILES CCCCCCCCC=CCCCCCCCC(=O)[O-]
REMARK SMILES IDX 10 1 9 2 11 3 12 4 13 5 14 6 15 7 16 8 17 9 18 10 19 11
REMARK SMILES IDX 20 12 8 13 7 14 6 15 5 16 4 17 3 18 2 19 1 20
REMARK H PARENT
REMARK Flexibility Score: inf
ROOT
ATOM      1  C   UNL     1     -24.969 -62.589   3.094  1.00  0.00    -0.031 C 
ATOM      2  C   UNL     1     -25.230 -61.320   2.752  1.00  0.00    -0.031 C 
ENDROOT
BRANCH   1   3
ATOM      3  C   UNL     1     -23.742 -63.287   2.576  1.00  0.00     0.027 C 
BRANCH   3   4
ATOM      4  C   UNL     1     -22.621 -62.283   2.267  1.00  0.00     0.004 C 
BRANCH   4   5
ATOM      5  C   UNL     1     -21.951 -62.548   0.909  1.00  0.00     0.000 C 
BRANCH   5   6
ATOM      6  C   UNL     1     -22.136 -61.383  -0.077  1.00  0.00     0.000 C 
BRANCH   6   7
ATOM      7  C   UNL     1     -22.400 -60.047   0.638  1.00  0.00     0.000 C 
BRANCH   7   8
ATOM      8  C   UNL     1     -23.695 -59.372   0.153  1.00  0.00     0.006 C 
BRANCH   8   9
ATOM      9  C   UNL     1     -24.121 -59.861  -1.236  1.00  0.00     0.053 C 
BRANCH   9  10
ATOM     10  C   UNL     1     -24.851 -58.800  -2.002  1.00  0.00     0.041 C 
ATOM     11  O   UNL     1     -25.764 -59.116  -2.810  1.00  0.00    -0.550 OA
ATOM     12  O   UNL     1     -24.544 -57.459  -1.802  1.00  0.00    -0.550 OA
ENDBRANCH   9  10
ENDBRANCH   8   9
ENDBRANCH   7   8
ENDBRANCH   6   7
ENDBRANCH   5   6
ENDBRANCH   4   5
ENDBRANCH   3   4
ENDBRANCH   1   3
BRANCH   2  13
ATOM     13  C   UNL     1     -26.439 -60.587   3.274  1.00  0.00     0.027 C 
BRANCH  13  14
ATOM     14  C   UNL     1     -26.428 -59.086   2.921  1.00  0.00     0.004 C 
BRANCH  14  15
ATOM     15  C   UNL     1     -26.227 -58.154   4.130  1.00  0.00     0.000 C 
BRANCH  15  16
ATOM     16  C   UNL     1     -24.984 -57.261   3.990  1.00  0.00     0.000 C 
BRANCH  16  17
ATOM     17  C   UNL     1     -23.694 -58.068   3.751  1.00  0.00    -0.000 C 
BRANCH  17  18
ATOM     18  C   UNL     1     -22.987 -58.496   5.052  1.00  0.00    -0.000 C 
BRANCH  18  19
ATOM     19  C   UNL     1     -23.002 -60.017   5.249  1.00  0.00    -0.003 C 
ATOM     20  C   UNL     1     -24.074 -60.432   6.250  1.00  0.00     0.004 C 
ENDBRANCH  18  19
ENDBRANCH  17  18
ENDBRANCH  16  17
ENDBRANCH  15  16
ENDBRANCH  14  15
ENDBRANCH  13  14
ENDBRANCH   2  13
TORSDOF 15
ENDMDL
MODEL 3
REMARK VINA RESULT:    -4.732      1.413      1.988
REMARK INTER + INTRA:         -11.262
REMARK INTER:                  -8.878
REMARK INTRA:                  -2.383
REMARK UNBOUND:                -2.379
REMARK SMILES CCCCCCCCC=CCCCCCCCC(=O)[O-]
REMARK SMILES IDX 10 1 9 2 11 3 12 4 13 5 14 6 15 7 16 8 17 9 18 10 19 11
REMARK SMILES IDX 20 12 8 13 7 14 6 15 5 16 4 17 3 18 2 19 1 20
REMARK H PARENT
REMARK Flexibility Score: inf
ROOT
ATOM      1  C   UNL     1     -25.117 -61.680   2.825  1.00  0.00    -0.031 C 
ATOM      2  C   UNL     1     -24.856 -62.931   3.228  1.00  0.00    -0.031 C 
ENDROOT
BRANCH   1   3
ATOM      3  C   UNL     1     -24.275 -61.023   1.766  1.00  0.00     0.027 C 
BRANCH   3   4
ATOM      4  C   UNL     1     -22.849 -61.596   1.757  1.00  0.00     0.004 C 
BRANCH   4   5
ATOM      5  C   UNL     1     -22.046 -61.153   0.523  1.00  0.00     0.000 C 
BRANCH   5   6
ATOM      6  C   UNL     1     -21.881 -59.627   0.443  1.00  0.00     0.000 C 
BRANCH   6   7
ATOM      7  C   UNL     1     -22.637 -59.017  -0.749  1.00  0.00     0.000 C 
BRANCH   7   8
ATOM      8  C   UNL     1     -23.753 -58.056  -0.304  1.00  0.00     0.006 C 
BRANCH   8   9
ATOM      9  C   UNL     1     -25.128 -58.474  -0.839  1.00  0.00     0.053 C 
BRANCH   9  10
ATOM     10  C   UNL     1     -25.222 -58.308  -2.325  1.00  0.00     0.041 C 
ATOM     11  O   UNL     1     -25.635 -59.257  -3.043  1.00  0.00    -0.550 OA
ATOM     12  O   UNL     1     -24.880 -57.097  -2.915  1.00  0.00    -0.550 OA
ENDBRANCH   9  10
ENDBRANCH   8   9
ENDBRANCH   7   8
ENDBRANCH   6   7
ENDBRANCH   5   6
ENDBRANCH   4   5
ENDBRANCH   3   4
ENDBRANCH   1   3
BRANCH   2  13
ATOM     13  C   UNL     1     -25.697 -63.623   4.270  1.00  0.00     0.027 C 
BRANCH  13  14
ATOM     14  C   UNL     1     -26.117 -62.685   5.419  1.00  0.00     0.004 C 
BRANCH  14  15
ATOM     15  C   UNL     1     -25.029 -62.464   6.486  1.00  0.00     0.000 C 
BRANCH  15  16
ATOM     16  C   UNL     1     -24.476 -61.031   6.481  1.00  0.00     0.000 C 
BRANCH  16  17
ATOM     17  C   UNL     1     -23.073 -60.935   5.852  1.00  0.00    -0.000 C 
BRANCH  17  18
ATOM     18  C   UNL     1     -22.665 -59.496   5.476  1.00  0.00    -0.000 C 
BRANCH  18  19
ATOM     19  C   UNL     1     -23.722 -58.802   4.607  1.00  0.00    -0.003 C 
ATOM     20  C   UNL     1     -23.071 -57.912   3.555  1.00  0.00     0.004 C 
ENDBRANCH  18  19
ENDBRANCH  17  18
ENDBRANCH  16  17
ENDBRANCH  15  16
ENDBRANCH  14  15
ENDBRANCH  13  14
ENDBRANCH   2  13
TORSDOF 15
ENDMDL
MODEL 4
REMARK VINA RESULT:    -4.694      1.635      2.621
REMARK INTER + INTRA:         -11.189
REMARK INTER:                  -8.789
REMARK INTRA:                  -2.400
REMARK UNBOUND:                -2.379
REMARK SMILES CCCCCCCCC=CCCCCCCCC(=O)[O-]
REMARK SMILES IDX 10 1 9 2 11 3 12 4 13 5 14 6 15 7 16 8 17 9 18 10 19 11
REMARK SMILES IDX 20 12 8 13 7 14 6 15 5 16 4 17 3 18 2 19 1 20
REMARK H PARENT
REMARK Flexibility Score: inf
ROOT
ATOM      1  C   UNL     1     -22.761 -61.654   1.467  1.00  0.00    -0.031 C 
ATOM      2  C   UNL     1     -23.150 -62.906   1.745  1.00  0.00    -0.031 C 
ENDROOT
BRANCH   1   3
ATOM      3  C   UNL     1     -21.881 -61.370   0.280  1.00  0.00     0.027 C 
BRANCH   3   4
ATOM      4  C   UNL     1     -21.875 -59.872  -0.061  1.00  0.00     0.004 C 
BRANCH   4   5
ATOM      5  C   UNL     1     -22.232 -58.993   1.149  1.00  0.00     0.000 C 
BRANCH   5   6
ATOM      6  C   UNL     1     -23.526 -58.191   0.933  1.00  0.00     0.000 C 
BRANCH   6   7
ATOM      7  C   UNL     1     -24.787 -59.037   1.180  1.00  0.00     0.000 C 
BRANCH   7   8
ATOM      8  C   UNL     1     -25.787 -58.947   0.015  1.00  0.00     0.006 C 
BRANCH   8   9
ATOM      9  C   UNL     1     -25.217 -59.524  -1.287  1.00  0.00     0.053 C 
BRANCH   9  10
ATOM     10  C   UNL     1     -25.325 -58.553  -2.422  1.00  0.00     0.041 C 
ATOM     11  O   UNL     1     -25.895 -58.890  -3.493  1.00  0.00    -0.550 OA
ATOM     12  O   UNL     1     -24.821 -57.264  -2.288  1.00  0.00    -0.550 OA
ENDBRANCH   9  10
ENDBRANCH   8   9
ENDBRANCH   7   8
ENDBRANCH   6   7
ENDBRANCH   5   6
ENDBRANCH   4   5
ENDBRANCH   3   4
ENDBRANCH   1   3
BRANCH   2  13
ATOM     13  C   UNL     1     -24.051 -63.217   2.913  1.00  0.00     0.027 C 
BRANCH  13  14
ATOM     14  C   UNL     1     -25.189 -62.190   3.082  1.00  0.00     0.004 C 
BRANCH  14  15
ATOM     15  C   UNL     1     -25.196 -61.473   4.444  1.00  0.00     0.000 C 
BRANCH  15  16
ATOM     16  C   UNL     1     -23.800 -61.395   5.081  1.00  0.00     0.000 C 
BRANCH  16  17
ATOM     17  C   UNL     1     -23.016 -60.143   4.645  1.00  0.00    -0.000 C 
BRANCH  17  18
ATOM     18  C   UNL     1     -23.004 -59.024   5.706  1.00  0.00    -0.000 C 
BRANCH  18  19
ATOM     19  C   UNL     1     -23.184 -57.633   5.085  1.00  0.00    -0.003 C 
ATOM     20  C   UNL     1     -24.585 -57.464   4.510  1.00  0.00     0.004 C 
ENDBRANCH  18  19
ENDBRANCH  17  18
ENDBRANCH  16  17
ENDBRANCH  15  16
ENDBRANCH  14  15
ENDBRANCH  13  14
ENDBRANCH   2  13
TORSDOF 15
ENDMDL
MODEL 5
REMARK VINA RESULT:    -4.675      1.904      3.953
REMARK INTER + INTRA:         -11.155
REMARK INTER:                  -8.582
REMARK INTRA:                  -2.572
REMARK UNBOUND:                -2.379
REMARK SMILES CCCCCCCCC=CCCCCCCCC(=O)[O-]
REMARK SMILES IDX 10 1 9 2 11 3 12 4 13 5 14 6 15 7 16 8 17 9 18 10 19 11
REMARK SMILES IDX 20 12 8 13 7 14 6 15 5 16 4 17 3 18 2 19 1 20
REMARK H PARENT
REMARK Flexibility Score: inf
ROOT
ATOM      1  C   UNL     1     -25.013 -60.393   2.949  1.00  0.00    -0.031 C 
ATOM      2  C   UNL     1     -25.605 -59.466   2.183  1.00  0.00    -0.031 C 
ENDROOT
BRANCH   1   3
ATOM      3  C   UNL     1     -25.520 -61.809   2.969  1.00  0.00     0.027 C 
BRANCH   3   4
ATOM      4  C   UNL     1     -24.368 -62.813   2.814  1.00  0.00     0.004 C 
BRANCH   4   5
ATOM      5  C   UNL     1     -23.020 -62.125   2.544  1.00  0.00     0.000 C 
BRANCH   5   6
ATOM      6  C   UNL     1     -22.257 -62.764   1.372  1.00  0.00     0.000 C 
BRANCH   6   7
ATOM      7  C   UNL     1     -22.043 -61.782   0.208  1.00  0.00     0.000 C 
BRANCH   7   8
ATOM      8  C   UNL     1     -22.211 -60.316   0.642  1.00  0.00     0.006 C 
BRANCH   8   9
ATOM      9  C   UNL     1     -22.010 -59.338  -0.523  1.00  0.00     0.053 C 
BRANCH   9  10
ATOM     10  C   UNL     1     -23.314 -58.910  -1.123  1.00  0.00     0.041 C 
ATOM     11  O   UNL     1     -23.686 -57.710  -1.039  1.00  0.00    -0.550 OA
ATOM     12  O   UNL     1     -24.105 -59.829  -1.801  1.00  0.00    -0.550 OA
ENDBRANCH   9  10
ENDBRANCH   8   9
ENDBRANCH   7   8
ENDBRANCH   6   7
ENDBRANCH   5   6
ENDBRANCH   4   5
ENDBRANCH   3   4
ENDBRANCH   1   3
BRANCH   2  13
ATOM     13  C   UNL     1     -25.105 -58.045   2.124  1.00  0.00     0.027 C 
BRANCH  13  14
ATOM     14  C   UNL     1     -25.759 -57.136   3.184  1.00  0.00     0.004 C 
BRANCH  14  15
ATOM     15  C   UNL     1     -24.825 -56.744   4.344  1.00  0.00     0.000 C 
BRANCH  15  16
ATOM     16  C   UNL     1     -23.339 -56.823   3.962  1.00  0.00     0.000 C 
BRANCH  16  17
ATOM     17  C   UNL     1     -22.501 -57.611   4.986  1.00  0.00    -0.000 C 
BRANCH  17  18
ATOM     18  C   UNL     1     -23.298 -58.710   5.717  1.00  0.00    -0.000 C 
BRANCH  18  19
ATOM     19  C   UNL     1     -22.594 -60.072   5.661  1.00  0.00    -0.003 C 
ATOM     20  C   UNL     1     -23.507 -61.184   6.164  1.00  0.00     0.004 C 
ENDBRANCH  18  19
ENDBRANCH  17  18
ENDBRANCH  16  17
ENDBRANCH  15  16
ENDBRANCH  14  15
ENDBRANCH  13  14
ENDBRANCH   2  13
TORSDOF 15
ENDMDL
MODEL 6
REMARK VINA RESULT:    -4.612      1.460      2.990
REMARK INTER + INTRA:         -11.036
REMARK INTER:                  -8.263
REMARK INTRA:                  -2.773
REMARK UNBOUND:                -2.379
REMARK SMILES CCCCCCCCC=CCCCCCCCC(=O)[O-]
REMARK SMILES IDX 10 1 9 2 11 3 12 4 13 5 14 6 15 7 16 8 17 9 18 10 19 11
REMARK SMILES IDX 20 12 8 13 7 14 6 15 5 16 4 17 3 18 2 19 1 20
REMARK H PARENT
REMARK Flexibility Score: inf
ROOT
ATOM      1  C   UNL     1     -22.964 -59.618   4.768  1.00  0.00    -0.031 C 
ATOM      2  C   UNL     1     -23.195 -60.443   5.798  1.00  0.00    -0.031 C 
ENDROOT
BRANCH   1   3
ATOM      3  C   UNL     1     -23.506 -58.215   4.771  1.00  0.00     0.027 C 
BRANCH   3   4
ATOM      4  C   UNL     1     -22.770 -57.333   3.751  1.00  0.00     0.004 C 
BRANCH   4   5
ATOM      5  C   UNL     1     -23.195 -57.628   2.303  1.00  0.00     0.000 C 
BRANCH   5   6
ATOM      6  C   UNL     1     -22.000 -57.962   1.395  1.00  0.00     0.000 C 
BRANCH   6   7
ATOM      7  C   UNL     1     -22.014 -59.427   0.925  1.00  0.00     0.000 C 
BRANCH   7   8
ATOM      8  C   UNL     1     -22.132 -59.547  -0.605  1.00  0.00     0.006 C 
BRANCH   8   9
ATOM      9  C   UNL     1     -23.544 -59.950  -1.048  1.00  0.00     0.053 C 
BRANCH   9  10
ATOM     10  C   UNL     1     -24.450 -58.763  -1.169  1.00  0.00     0.041 C 
ATOM     11  O   UNL     1     -25.545 -58.735  -0.546  1.00  0.00    -0.550 OA
ATOM     12  O   UNL     1     -24.075 -57.674  -1.947  1.00  0.00    -0.550 OA
ENDBRANCH   9  10
ENDBRANCH   8   9
ENDBRANCH   7   8
ENDBRANCH   6   7
ENDBRANCH   5   6
ENDBRANCH   4   5
ENDBRANCH   3   4
ENDBRANCH   1   3
BRANCH   2  13
ATOM     13  C   UNL     1     -22.645 -61.846   5.833  1.00  0.00     0.027 C 
BRANCH  13  14
ATOM     14  C   UNL     1     -22.715 -62.550   4.463  1.00  0.00     0.004 C 
BRANCH  14  15
ATOM     15  C   UNL     1     -23.898 -63.525   4.313  1.00  0.00     0.000 C 
BRANCH  15  16
ATOM     16  C   UNL     1     -24.871 -63.109   3.200  1.00  0.00     0.000 C 
BRANCH  16  17
ATOM     17  C   UNL     1     -24.346 -61.929   2.359  1.00  0.00    -0.000 C 
BRANCH  17  18
ATOM     18  C   UNL     1     -25.284 -60.704   2.367  1.00  0.00    -0.000 C 
BRANCH  18  19
ATOM     19  C   UNL     1     -26.548 -60.946   3.202  1.00  0.00    -0.003 C 
ATOM     20  C   UNL     1     -26.634 -59.967   4.366  1.00  0.00     0.004 C 
ENDBRANCH  18  19
ENDBRANCH  17  18
ENDBRANCH  16  17
ENDBRANCH  15  16
ENDBRANCH  14  15
ENDBRANCH  13  14
ENDBRANCH   2  13
TORSDOF 15
ENDMDL
MODEL 7
REMARK VINA RESULT:    -4.592      2.191      3.612
REMARK INTER + INTRA:         -10.999
REMARK INTER:                  -8.500
REMARK INTRA:                  -2.499
REMARK UNBOUND:                -2.379
REMARK SMILES CCCCCCCCC=CCCCCCCCC(=O)[O-]
REMARK SMILES IDX 10 1 9 2 11 3 12 4 13 5 14 6 15 7 16 8 17 9 18 10 19 11
REMARK SMILES IDX 20 12 8 13 7 14 6 15 5 16 4 17 3 18 2 19 1 20
REMARK H PARENT
REMARK Flexibility Score: inf
ROOT
ATOM      1  C   UNL     1     -22.558 -61.648   1.411  1.00  0.00    -0.031 C 
ATOM      2  C   UNL     1     -23.013 -62.814   1.891  1.00  0.00    -0.031 C 
ENDROOT
BRANCH   1   3
ATOM      3  C   UNL     1     -21.967 -61.565   0.031  1.00  0.00     0.027 C 
BRANCH   3   4
ATOM      4  C   UNL     1     -21.875 -60.108  -0.447  1.00  0.00     0.004 C 
BRANCH   4   5
ATOM      5  C   UNL     1     -23.196 -59.344  -0.260  1.00  0.00     0.000 C 
BRANCH   5   6
ATOM      6  C   UNL     1     -24.302 -59.840  -1.205  1.00  0.00     0.000 C 
BRANCH   6   7
ATOM      7  C   UNL     1     -25.559 -58.955  -1.152  1.00  0.00     0.000 C 
BRANCH   7   8
ATOM      8  C   UNL     1     -25.255 -57.540  -0.629  1.00  0.00     0.006 C 
BRANCH   8   9
ATOM      9  C   UNL     1     -26.161 -56.479  -1.264  1.00  0.00     0.053 C 
BRANCH   9  10
ATOM     10  C   UNL     1     -26.201 -56.601  -2.757  1.00  0.00     0.041 C 
ATOM     11  O   UNL     1     -25.182 -56.328  -3.443  1.00  0.00    -0.550 OA
ATOM     12  O   UNL     1     -27.357 -57.043  -3.389  1.00  0.00    -0.550 OA
ENDBRANCH   9  10
ENDBRANCH   8   9
ENDBRANCH   7   8
ENDBRANCH   6   7
ENDBRANCH   5   6
ENDBRANCH   4   5
ENDBRANCH   3   4
ENDBRANCH   1   3
BRANCH   2  13
ATOM     13  C   UNL     1     -23.632 -62.923   3.261  1.00  0.00     0.027 C 
BRANCH  13  14
ATOM     14  C   UNL     1     -25.173 -62.958   3.220  1.00  0.00     0.004 C 
BRANCH  14  15
ATOM     15  C   UNL     1     -25.854 -61.909   4.119  1.00  0.00     0.000 C 
BRANCH  15  16
ATOM     16  C   UNL     1     -26.669 -60.882   3.319  1.00  0.00     0.000 C 
BRANCH  16  17
ATOM     17  C   UNL     1     -25.811 -60.095   2.309  1.00  0.00    -0.000 C 
BRANCH  17  18
ATOM     18  C   UNL     1     -25.244 -58.780   2.879  1.00  0.00    -0.000 C 
BRANCH  18  19
ATOM     19  C   UNL     1     -23.813 -58.945   3.406  1.00  0.00    -0.003 C 
ATOM     20  C   UNL     1     -22.960 -57.726   3.071  1.00  0.00     0.004 C 
ENDBRANCH  18  19
ENDBRANCH  17  18
ENDBRANCH  16  17
ENDBRANCH  15  16
ENDBRANCH  14  15
ENDBRANCH  13  14
ENDBRANCH   2  13
TORSDOF 15
ENDMDL
MODEL 8
REMARK VINA RESULT:    -4.551      1.769      2.580
REMARK INTER + INTRA:         -10.921
REMARK INTER:                  -8.391
REMARK INTRA:                  -2.530
REMARK UNBOUND:                -2.379
REMARK SMILES CCCCCCCCC=CCCCCCCCC(=O)[O-]
REMARK SMILES IDX 10 1 9 2 11 3 12 4 13 5 14 6 15 7 16 8 17 9 18 10 19 11
REMARK SMILES IDX 20 12 8 13 7 14 6 15 5 16 4 17 3 18 2 19 1 20
REMARK H PARENT
REMARK Flexibility Score: inf
ROOT
ATOM      1  C   UNL     1     -23.747 -63.059   2.498  1.00  0.00    -0.031 C 
ATOM      2  C   UNL     1     -24.760 -62.229   2.778  1.00  0.00    -0.031 C 
ENDROOT
BRANCH   1   3
ATOM      3  C   UNL     1     -22.621 -62.622   1.602  1.00  0.00     0.027 C 
BRANCH   3   4
ATOM      4  C   UNL     1     -22.669 -61.107   1.350  1.00  0.00     0.004 C 
BRANCH   4   5
ATOM      5  C   UNL     1     -21.952 -60.704   0.051  1.00  0.00     0.000 C 
BRANCH   5   6
ATOM      6  C   UNL     1     -22.706 -59.610  -0.722  1.00  0.00     0.000 C 
BRANCH   6   7
ATOM      7  C   UNL     1     -24.206 -59.920  -0.863  1.00  0.00     0.000 C 
BRANCH   7   8
ATOM      8  C   UNL     1     -25.091 -58.801  -0.287  1.00  0.00     0.006 C 
BRANCH   8   9
ATOM      9  C   UNL     1     -25.786 -59.221   1.014  1.00  0.00     0.053 C 
BRANCH   9  10
ATOM     10  C   UNL     1     -27.151 -58.616   1.137  1.00  0.00     0.041 C 
ATOM     11  O   UNL     1     -28.177 -59.335   1.007  1.00  0.00    -0.550 OA
ATOM     12  O   UNL     1     -27.292 -57.263   1.424  1.00  0.00    -0.550 OA
ENDBRANCH   9  10
ENDBRANCH   8   9
ENDBRANCH   7   8
ENDBRANCH   6   7
ENDBRANCH   5   6
ENDBRANCH   4   5
ENDBRANCH   3   4
ENDBRANCH   1   3
BRANCH   2  13
ATOM     13  C   UNL     1     -25.890 -62.632   3.691  1.00  0.00     0.027 C 
BRANCH  13  14
ATOM     14  C   UNL     1     -25.632 -63.973   4.406  1.00  0.00     0.004 C 
BRANCH  14  15
ATOM     15  C   UNL     1     -25.701 -63.894   5.942  1.00  0.00     0.000 C 
BRANCH  15  16
ATOM     16  C   UNL     1     -24.802 -62.790   6.520  1.00  0.00     0.000 C 
BRANCH  16  17
ATOM     17  C   UNL     1     -23.310 -63.013   6.211  1.00  0.00    -0.000 C 
BRANCH  17  18
ATOM     18  C   UNL     1     -22.571 -61.728   5.787  1.00  0.00    -0.000 C 
BRANCH  18  19
ATOM     19  C   UNL     1     -23.474 -60.489   5.856  1.00  0.00    -0.003 C 
ATOM     20  C   UNL     1     -23.145 -59.505   4.740  1.00  0.00     0.004 C 
ENDBRANCH  18  19
ENDBRANCH  17  18
ENDBRANCH  16  17
ENDBRANCH  15  16
ENDBRANCH  14  15
ENDBRANCH  13  14
ENDBRANCH   2  13
TORSDOF 15
ENDMDL
MODEL 9
REMARK VINA RESULT:    -4.510      2.264      4.722
REMARK INTER + INTRA:         -10.844
REMARK INTER:                  -7.843
REMARK INTRA:                  -3.001
REMARK UNBOUND:                -2.379
REMARK SMILES CCCCCCCCC=CCCCCCCCC(=O)[O-]
REMARK SMILES IDX 10 1 9 2 11 3 12 4 13 5 14 6 15 7 16 8 17 9 18 10 19 11
REMARK SMILES IDX 20 12 8 13 7 14 6 15 5 16 4 17 3 18 2 19 1 20
REMARK H PARENT
REMARK Flexibility Score: inf
ROOT
ATOM      1  C   UNL     1     -22.239 -58.382   0.893  1.00  0.00    -0.031 C 
ATOM      2  C   UNL     1     -22.529 -58.700   2.162  1.00  0.00    -0.031 C 
ENDROOT
BRANCH   1   3
ATOM      3  C   UNL     1     -21.966 -59.456  -0.124  1.00  0.00     0.027 C 
BRANCH   3   4
ATOM      4  C   UNL     1     -23.250 -60.223  -0.478  1.00  0.00     0.004 C 
BRANCH   4   5
ATOM      5  C   UNL     1     -24.155 -59.441  -1.444  1.00  0.00     0.000 C 
BRANCH   5   6
ATOM      6  C   UNL     1     -25.606 -59.349  -0.946  1.00  0.00     0.000 C 
BRANCH   6   7
ATOM      7  C   UNL     1     -25.727 -59.627   0.562  1.00  0.00     0.000 C 
BRANCH   7   8
ATOM      8  C   UNL     1     -26.004 -58.347   1.371  1.00  0.00     0.006 C 
BRANCH   8   9
ATOM      9  C   UNL     1     -27.116 -58.545   2.408  1.00  0.00     0.053 C 
BRANCH   9  10
ATOM     10  C   UNL     1     -28.426 -58.882   1.763  1.00  0.00     0.041 C 
ATOM     11  O   UNL     1     -29.059 -59.912   2.115  1.00  0.00    -0.550 OA
ATOM     12  O   UNL     1     -28.962 -58.044   0.792  1.00  0.00    -0.550 OA
ENDBRANCH   9  10
ENDBRANCH   8   9
ENDBRANCH   7   8
ENDBRANCH   6   7
ENDBRANCH   5   6
ENDBRANCH   4   5
ENDBRANCH   3   4
ENDBRANCH   1   3
BRANCH   2  13
ATOM     13  C   UNL     1     -22.830 -57.646   3.197  1.00  0.00     0.027 C 
BRANCH  13  14
ATOM     14  C   UNL     1     -23.709 -58.173   4.349  1.00  0.00     0.004 C 
BRANCH  14  15
ATOM     15  C   UNL     1     -22.982 -59.126   5.315  1.00  0.00     0.000 C 
BRANCH  15  16
ATOM     16  C   UNL     1     -23.433 -60.587   5.158  1.00  0.00     0.000 C 
BRANCH  16  17
ATOM     17  C   UNL     1     -24.700 -60.730   4.294  1.00  0.00    -0.000 C 
BRANCH  17  18
ATOM     18  C   UNL     1     -24.601 -61.849   3.238  1.00  0.00    -0.000 C 
BRANCH  18  19
ATOM     19  C   UNL     1     -23.147 -62.197   2.896  1.00  0.00    -0.003 C 
ATOM     20  C   UNL     1     -23.075 -63.179   1.732  1.00  0.00     0.004 C 
ENDBRANCH  18  19
ENDBRANCH  17  18
ENDBRANCH  16  17
ENDBRANCH  15  16
ENDBRANCH  14  15
ENDBRANCH  13  14
ENDBRANCH   2  13
TORSDOF 15
ENDMDL
