MODEL 1
REMARK VINA RESULT:    -5.331      0.000      0.000
REMARK INTER + INTRA:         -14.715
REMARK INTER:                 -12.188
REMARK INTRA:                  -2.527
REMARK UNBOUND:                -2.527
REMARK SMILES CCCCCCCCCCCCCCCCCCCCCCCC(=O)[O-]
REMARK SMILES IDX 13 1 14 2 15 3 16 4 17 5 18 6 19 7 20 8 21 9 22 10 23 11
REMARK SMILES IDX 24 12 25 13 26 14 12 15 11 16 10 17 9 18 8 19 7 20 6 21 5 22
REMARK SMILES IDX 4 23 3 24 2 25 1 26
REMARK H PARENT
REMARK Flexibility Score: inf
ROOT
ATOM      1  C   UNL     1      22.649  11.717  32.565  1.00  0.00     0.000 C 
ENDROOT
BRANCH   1   2
ATOM      2  C   UNL     1      23.977  11.434  31.840  1.00  0.00     0.000 C 
BRANCH   2   3
ATOM      3  C   UNL     1      23.942  10.139  31.006  1.00  0.00     0.000 C 
BRANCH   3   4
ATOM      4  C   UNL     1      25.317   9.605  30.560  1.00  0.00     0.000 C 
BRANCH   4   5
ATOM      5  C   UNL     1      26.527  10.222  31.288  1.00  0.00     0.000 C 
BRANCH   5   6
ATOM      6  C   UNL     1      27.475  11.014  30.363  1.00  0.00     0.000 C 
BRANCH   6   7
ATOM      7  C   UNL     1      28.274  12.089  31.113  1.00  0.00     0.000 C 
BRANCH   7   8
ATOM      8  C   UNL     1      27.646  12.387  32.479  1.00  0.00     0.000 C 
BRANCH   8   9
ATOM      9  C   UNL     1      28.486  11.790  33.617  1.00  0.00     0.000 C 
BRANCH   9  10
ATOM     10  C   UNL     1      27.641  11.332  34.818  1.00  0.00     0.006 C 
BRANCH  10  11
ATOM     11  C   UNL     1      26.162  11.752  34.739  1.00  0.00     0.053 C 
BRANCH  11  12
ATOM     12  C   UNL     1      25.841  12.906  35.640  1.00  0.00     0.041 C 
ATOM     13  O   UNL     1      26.613  13.899  35.704  1.00  0.00    -0.550 OA
ATOM     14  O   UNL     1      24.708  12.865  36.443  1.00  0.00    -0.550 OA
ENDBRANCH  11  12
ENDBRANCH  10  11
ENDBRANCH   9  10
ENDBRANCH   8   9
ENDBRANCH   7   8
ENDBRANCH   6   7
ENDBRANCH   5   6
ENDBRANCH   4   5
ENDBRANCH   3   4
ENDBRANCH   2   3
ENDBRANCH   1   2
BRANCH   1  15
ATOM     15  C   UNL     1      21.418  11.412  31.693  1.00  0.00     0.000 C 
BRANCH  15  16
ATOM     16  C   UNL     1      20.116  11.145  32.471  1.00  0.00     0.000 C 
BRANCH  16  17
ATOM     17  C   UNL     1      18.994  12.136  32.112  1.00  0.00     0.000 C 
BRANCH  17  18
ATOM     18  C   UNL     1      19.486  13.590  32.035  1.00  0.00    -0.000 C 
BRANCH  18  19
ATOM     19  C   UNL     1      19.302  14.352  33.359  1.00  0.00    -0.000 C 
BRANCH  19  20
ATOM     20  C   UNL     1      20.497  14.178  34.313  1.00  0.00    -0.000 C 
BRANCH  20  21
ATOM     21  C   UNL     1      20.160  13.372  35.587  1.00  0.00    -0.000 C 
BRANCH  21  22
ATOM     22  C   UNL     1      18.646  13.315  35.854  1.00  0.00    -0.000 C 
BRANCH  22  23
ATOM     23  C   UNL     1      18.255  12.214  36.857  1.00  0.00    -0.000 C 
BRANCH  23  24
ATOM     24  C   UNL     1      18.552  10.775  36.394  1.00  0.00    -0.000 C 
BRANCH  24  25
ATOM     25  C   UNL     1      18.106   9.714  37.410  1.00  0.00    -0.003 C 
ATOM     26  C   UNL     1      18.950   8.447  37.292  1.00  0.00     0.004 C 
ENDBRANCH  24  25
ENDBRANCH  23  24
ENDBRANCH  22  23
ENDBRANCH  21  22
ENDBRANCH  20  21
ENDBRANCH  19  20
ENDBRANCH  18  19
ENDBRANCH  17  18
ENDBRANCH  16  17
ENDBRANCH  15  16
ENDBRANCH   1  15
TORSDOF 22
ENDMDL
MODEL 2
REMARK VINA RESULT:    -5.207      2.487      4.753
REMARK INTER + INTRA:         -14.431
REMARK INTER:                 -11.454
REMARK INTRA:                  -2.978
REMARK UNBOUND:                -2.527
REMARK SMILES CCCCCCCCCCCCCCCCCCCCCCCC(=O)[O-]
REMARK SMILES IDX 13 1 14 2 15 3 16 4 17 5 18 6 19 7 20 8 21 9 22 10 23 11
REMARK SMILES IDX 24 12 25 13 26 14 12 15 11 16 10 17 9 18 8 19 7 20 6 21 5 22
REMARK SMILES IDX 4 23 3 24 2 25 1 26
REMARK H PARENT
REMARK Flexibility Score: inf
ROOT
ATOM      1  C   UNL     1      27.654  12.777  35.250  1.00  0.00     0.000 C 
ENDROOT
BRANCH   1   2
ATOM      2  C   UNL     1      27.980  12.696  33.748  1.00  0.00     0.000 C 
BRANCH   2   3
ATOM      3  C   UNL     1      26.918  13.378  32.864  1.00  0.00     0.000 C 
BRANCH   3   4
ATOM      4  C   UNL     1      26.021  12.421  32.056  1.00  0.00     0.000 C 
BRANCH   4   5
ATOM      5  C   UNL     1      26.269  10.921  32.306  1.00  0.00     0.000 C 
BRANCH   5   6
ATOM      6  C   UNL     1      26.887  10.181  31.102  1.00  0.00     0.000 C 
BRANCH   6   7
ATOM      7  C   UNL     1      25.971   9.078  30.551  1.00  0.00     0.000 C 
BRANCH   7   8
ATOM      8  C   UNL     1      25.463   9.434  29.149  1.00  0.00     0.000 C 
BRANCH   8   9
ATOM      9  C   UNL     1      24.147  10.221  29.221  1.00  0.00     0.000 C 
BRANCH   9  10
ATOM     10  C   UNL     1      23.243   9.784  30.386  1.00  0.00     0.006 C 
BRANCH  10  11
ATOM     11  C   UNL     1      22.561  10.951  31.121  1.00  0.00     0.053 C 
BRANCH  11  12
ATOM     12  C   UNL     1      21.072  10.953  30.950  1.00  0.00     0.041 C 
ATOM     13  O   UNL     1      20.469   9.901  30.610  1.00  0.00    -0.550 OA
ATOM     14  O   UNL     1      20.354  12.130  31.123  1.00  0.00    -0.550 OA
ENDBRANCH  11  12
ENDBRANCH  10  11
ENDBRANCH   9  10
ENDBRANCH   8   9
ENDBRANCH   7   8
ENDBRANCH   6   7
ENDBRANCH   5   6
ENDBRANCH   4   5
ENDBRANCH   3   4
ENDBRANCH   2   3
ENDBRANCH   1   2
BRANCH   1  15
ATOM     15  C   UNL     1      26.419  13.648  35.544  1.00  0.00     0.000 C 
BRANCH  15  16
ATOM     16  C   UNL     1      25.273  12.929  36.281  1.00  0.00     0.000 C 
BRANCH  16  17
ATOM     17  C   UNL     1      24.316  12.198  35.324  1.00  0.00     0.000 C 
BRANCH  17  18
ATOM     18  C   UNL     1      22.844  12.576  35.550  1.00  0.00    -0.000 C 
BRANCH  18  19
ATOM     19  C   UNL     1      22.038  12.646  34.242  1.00  0.00    -0.000 C 
BRANCH  19  20
ATOM     20  C   UNL     1      20.893  13.671  34.306  1.00  0.00    -0.000 C 
BRANCH  20  21
ATOM     21  C   UNL     1      19.491  13.028  34.393  1.00  0.00    -0.000 C 
BRANCH  21  22
ATOM     22  C   UNL     1      18.793  13.334  35.730  1.00  0.00    -0.000 C 
BRANCH  22  23
ATOM     23  C   UNL     1      18.790  12.133  36.694  1.00  0.00    -0.000 C 
BRANCH  23  24
ATOM     24  C   UNL     1      18.615  10.759  36.021  1.00  0.00    -0.000 C 
BRANCH  24  25
ATOM     25  C   UNL     1      19.877   9.887  36.101  1.00  0.00    -0.003 C 
ATOM     26  C   UNL     1      19.568   8.524  36.716  1.00  0.00     0.004 C 
ENDBRANCH  24  25
ENDBRANCH  23  24
ENDBRANCH  22  23
ENDBRANCH  21  22
ENDBRANCH  20  21
ENDBRANCH  19  20
ENDBRANCH  18  19
ENDBRANCH  17  18
ENDBRANCH  16  17
ENDBRANCH  15  16
ENDBRANCH   1  15
TORSDOF 22
ENDMDL
MODEL 3
REMARK VINA RESULT:    -5.201      1.280      1.937
REMARK INTER + INTRA:         -14.418
REMARK INTER:                 -11.931
REMARK INTRA:                  -2.487
REMARK UNBOUND:                -2.527
REMARK SMILES CCCCCCCCCCCCCCCCCCCCCCCC(=O)[O-]
REMARK SMILES IDX 13 1 14 2 15 3 16 4 17 5 18 6 19 7 20 8 21 9 22 10 23 11
REMARK SMILES IDX 24 12 25 13 26 14 12 15 11 16 10 17 9 18 8 19 7 20 6 21 5 22
REMARK SMILES IDX 4 23 3 24 2 25 1 26
REMARK H PARENT
REMARK Flexibility Score: inf
ROOT
ATOM      1  C   UNL     1      23.497  10.375  29.520  1.00  0.00     0.000 C 
ENDROOT
BRANCH   1   2
ATOM      2  C   UNL     1      24.154   9.760  30.768  1.00  0.00     0.000 C 
BRANCH   2   3
ATOM      3  C   UNL     1      25.567   9.210  30.494  1.00  0.00     0.000 C 
BRANCH   3   4
ATOM      4  C   UNL     1      26.207   9.669  29.170  1.00  0.00     0.000 C 
BRANCH   4   5
ATOM      5  C   UNL     1      27.327  10.718  29.312  1.00  0.00     0.000 C 
BRANCH   5   6
ATOM      6  C   UNL     1      26.817  12.173  29.372  1.00  0.00     0.000 C 
BRANCH   6   7
ATOM      7  C   UNL     1      26.528  12.640  30.806  1.00  0.00     0.000 C 
BRANCH   7   8
ATOM      8  C   UNL     1      27.820  12.733  31.625  1.00  0.00     0.000 C 
BRANCH   8   9
ATOM      9  C   UNL     1      27.904  11.601  32.658  1.00  0.00     0.000 C 
BRANCH   9  10
ATOM     10  C   UNL     1      26.557  11.301  33.339  1.00  0.00     0.006 C 
BRANCH  10  11
ATOM     11  C   UNL     1      26.608  11.352  34.876  1.00  0.00     0.053 C 
BRANCH  11  12
ATOM     12  C   UNL     1      25.907  12.552  35.438  1.00  0.00     0.041 C 
ATOM     13  O   UNL     1      26.539  13.622  35.640  1.00  0.00    -0.550 OA
ATOM     14  O   UNL     1      24.563  12.474  35.781  1.00  0.00    -0.550 OA
ENDBRANCH  11  12
ENDBRANCH  10  11
ENDBRANCH   9  10
ENDBRANCH   8   9
ENDBRANCH   7   8
ENDBRANCH   6   7
ENDBRANCH   5   6
ENDBRANCH   4   5
ENDBRANCH   3   4
ENDBRANCH   2   3
ENDBRANCH   1   2
BRANCH   1  15
ATOM     15  C   UNL     1      22.010  10.712  29.735  1.00  0.00     0.000 C 
BRANCH  15  16
ATOM     16  C   UNL     1      21.463  10.390  31.137  1.00  0.00     0.000 C 
BRANCH  16  17
ATOM     17  C   UNL     1      21.050  11.649  31.920  1.00  0.00     0.000 C 
BRANCH  17  18
ATOM     18  C   UNL     1      21.961  11.926  33.126  1.00  0.00    -0.000 C 
BRANCH  18  19
ATOM     19  C   UNL     1      21.445  13.074  34.011  1.00  0.00    -0.000 C 
BRANCH  19  20
ATOM     20  C   UNL     1      21.014  12.595  35.409  1.00  0.00    -0.000 C 
BRANCH  20  21
ATOM     21  C   UNL     1      19.488  12.667  35.644  1.00  0.00    -0.000 C 
BRANCH  21  22
ATOM     22  C   UNL     1      18.956  11.426  36.381  1.00  0.00    -0.000 C 
BRANCH  22  23
ATOM     23  C   UNL     1      19.658  10.125  35.951  1.00  0.00    -0.000 C 
BRANCH  23  24
ATOM     24  C   UNL     1      18.861   8.835  36.219  1.00  0.00    -0.000 C 
BRANCH  24  25
ATOM     25  C   UNL     1      19.289   8.121  37.510  1.00  0.00    -0.003 C 
ATOM     26  C   UNL     1      19.438   6.619  37.287  1.00  0.00     0.004 C 
ENDBRANCH  24  25
ENDBRANCH  23  24
ENDBRANCH  22  23
ENDBRANCH  21  22
ENDBRANCH  20  21
ENDBRANCH  19  20
ENDBRANCH  18  19
ENDBRANCH  17  18
ENDBRANCH  16  17
ENDBRANCH  15  16
ENDBRANCH   1  15
TORSDOF 22
ENDMDL
MODEL 4
REMARK VINA RESULT:    -5.169      2.887      7.463
REMARK INTER + INTRA:         -14.345
REMARK INTER:                 -11.438
REMARK INTRA:                  -2.907
REMARK UNBOUND:                -2.527
REMARK SMILES CCCCCCCCCCCCCCCCCCCCCCCC(=O)[O-]
REMARK SMILES IDX 13 1 14 2 15 3 16 4 17 5 18 6 19 7 20 8 21 9 22 10 23 11
REMARK SMILES IDX 24 12 25 13 26 14 12 15 11 16 10 17 9 18 8 19 7 20 6 21 5 22
REMARK SMILES IDX 4 23 3 24 2 25 1 26
REMARK H PARENT
REMARK Flexibility Score: inf
ROOT
ATOM      1  C   UNL     1      27.626  11.742  34.733  1.00  0.00     0.000 C 
ENDROOT
BRANCH   1   2
ATOM      2  C   UNL     1      27.373  13.145  35.313  1.00  0.00     0.000 C 
BRANCH   2   3
ATOM      3  C   UNL     1      25.951  13.312  35.881  1.00  0.00     0.000 C 
BRANCH   3   4
ATOM      4  C   UNL     1      24.908  12.308  35.353  1.00  0.00     0.000 C 
BRANCH   4   5
ATOM      5  C   UNL     1      23.455  12.585  35.783  1.00  0.00     0.000 C 
BRANCH   5   6
ATOM      6  C   UNL     1      22.423  12.401  34.651  1.00  0.00     0.000 C 
BRANCH   6   7
ATOM      7  C   UNL     1      21.144  13.221  34.876  1.00  0.00     0.000 C 
BRANCH   7   8
ATOM      8  C   UNL     1      20.102  12.411  35.656  1.00  0.00     0.000 C 
BRANCH   8   9
ATOM      9  C   UNL     1      20.164  10.924  35.284  1.00  0.00     0.000 C 
BRANCH   9  10
ATOM     10  C   UNL     1      19.159  10.061  36.066  1.00  0.00     0.006 C 
BRANCH  10  11
ATOM     11  C   UNL     1      19.797   8.868  36.799  1.00  0.00     0.053 C 
BRANCH  11  12
ATOM     12  C   UNL     1      19.239   7.550  36.355  1.00  0.00     0.041 C 
ATOM     13  O   UNL     1      18.557   7.470  35.300  1.00  0.00    -0.550 OA
ATOM     14  O   UNL     1      19.436   6.414  37.132  1.00  0.00    -0.550 OA
ENDBRANCH  11  12
ENDBRANCH  10  11
ENDBRANCH   9  10
ENDBRANCH   8   9
ENDBRANCH   7   8
ENDBRANCH   6   7
ENDBRANCH   5   6
ENDBRANCH   4   5
ENDBRANCH   3   4
ENDBRANCH   2   3
ENDBRANCH   1   2
BRANCH   1  15
ATOM     15  C   UNL     1      28.402  11.779  33.403  1.00  0.00     0.000 C 
BRANCH  15  16
ATOM     16  C   UNL     1      28.044  12.950  32.470  1.00  0.00     0.000 C 
BRANCH  16  17
ATOM     17  C   UNL     1      27.380  12.487  31.161  1.00  0.00     0.000 C 
BRANCH  17  18
ATOM     18  C   UNL     1      25.868  12.761  31.131  1.00  0.00    -0.000 C 
BRANCH  18  19
ATOM     19  C   UNL     1      25.048  11.648  31.806  1.00  0.00    -0.000 C 
BRANCH  19  20
ATOM     20  C   UNL     1      25.634  10.247  31.556  1.00  0.00    -0.000 C 
BRANCH  20  21
ATOM     21  C   UNL     1      24.988   9.510  30.362  1.00  0.00    -0.000 C 
BRANCH  21  22
ATOM     22  C   UNL     1      23.660  10.155  29.932  1.00  0.00    -0.000 C 
BRANCH  22  23
ATOM     23  C   UNL     1      22.427   9.393  30.452  1.00  0.00    -0.000 C 
BRANCH  23  24
ATOM     24  C   UNL     1      21.116  10.202  30.457  1.00  0.00    -0.000 C 
BRANCH  24  25
ATOM     25  C   UNL     1      21.003  11.154  31.657  1.00  0.00    -0.003 C 
ATOM     26  C   UNL     1      19.837  12.123  31.485  1.00  0.00     0.004 C 
ENDBRANCH  24  25
ENDBRANCH  23  24
ENDBRANCH  22  23
ENDBRANCH  21  22
ENDBRANCH  20  21
ENDBRANCH  19  20
ENDBRANCH  18  19
ENDBRANCH  17  18
ENDBRANCH  16  17
ENDBRANCH  15  16
ENDBRANCH   1  15
TORSDOF 22
ENDMDL
MODEL 5
REMARK VINA RESULT:    -5.165      2.506      7.548
REMARK INTER + INTRA:         -14.335
REMARK INTER:                 -11.467
REMARK INTRA:                  -2.868
REMARK UNBOUND:                -2.527
REMARK SMILES CCCCCCCCCCCCCCCCCCCCCCCC(=O)[O-]
REMARK SMILES IDX 13 1 14 2 15 3 16 4 17 5 18 6 19 7 20 8 21 9 22 10 23 11
REMARK SMILES IDX 24 12 25 13 26 14 12 15 11 16 10 17 9 18 8 19 7 20 6 21 5 22
REMARK SMILES IDX 4 23 3 24 2 25 1 26
REMARK H PARENT
REMARK Flexibility Score: inf
ROOT
ATOM      1  C   UNL     1      23.902  10.785  31.412  1.00  0.00     0.000 C 
ENDROOT
BRANCH   1   2
ATOM      2  C   UNL     1      22.395  10.907  31.121  1.00  0.00     0.000 C 
BRANCH   2   3
ATOM      3  C   UNL     1      21.601  11.498  32.301  1.00  0.00     0.000 C 
BRANCH   3   4
ATOM      4  C   UNL     1      20.154  11.916  31.978  1.00  0.00     0.000 C 
BRANCH   4   5
ATOM      5  C   UNL     1      19.619  13.109  32.793  1.00  0.00     0.000 C 
BRANCH   5   6
ATOM      6  C   UNL     1      20.677  13.772  33.699  1.00  0.00     0.000 C 
BRANCH   6   7
ATOM      7  C   UNL     1      20.180  13.980  35.137  1.00  0.00     0.000 C 
BRANCH   7   8
ATOM      8  C   UNL     1      18.968  13.090  35.434  1.00  0.00     0.000 C 
BRANCH   8   9
ATOM      9  C   UNL     1      19.343  11.944  36.383  1.00  0.00     0.000 C 
BRANCH   9  10
ATOM     10  C   UNL     1      20.085  10.794  35.681  1.00  0.00     0.006 C 
BRANCH  10  11
ATOM     11  C   UNL     1      19.195   9.581  35.356  1.00  0.00     0.053 C 
BRANCH  11  12
ATOM     12  C   UNL     1      19.138   8.588  36.477  1.00  0.00     0.041 C 
ATOM     13  O   UNL     1      19.840   7.543  36.439  1.00  0.00    -0.550 OA
ATOM     14  O   UNL     1      18.275   8.795  37.546  1.00  0.00    -0.550 OA
ENDBRANCH  11  12
ENDBRANCH  10  11
ENDBRANCH   9  10
ENDBRANCH   8   9
ENDBRANCH   7   8
ENDBRANCH   6   7
ENDBRANCH   5   6
ENDBRANCH   4   5
ENDBRANCH   3   4
ENDBRANCH   2   3
ENDBRANCH   1   2
BRANCH   1  15
ATOM     15  C   UNL     1      24.610   9.789  30.475  1.00  0.00     0.000 C 
BRANCH  15  16
ATOM     16  C   UNL     1      26.083   9.501  30.821  1.00  0.00     0.000 C 
BRANCH  16  17
ATOM     17  C   UNL     1      27.068  10.211  29.876  1.00  0.00     0.000 C 
BRANCH  17  18
ATOM     18  C   UNL     1      27.906  11.285  30.587  1.00  0.00    -0.000 C 
BRANCH  18  19
ATOM     19  C   UNL     1      27.127  12.592  30.819  1.00  0.00    -0.000 C 
BRANCH  19  20
ATOM     20  C   UNL     1      26.996  12.945  32.311  1.00  0.00    -0.000 C 
BRANCH  20  21
ATOM     21  C   UNL     1      28.196  12.479  33.165  1.00  0.00    -0.000 C 
BRANCH  21  22
ATOM     22  C   UNL     1      27.821  12.303  34.647  1.00  0.00    -0.000 C 
BRANCH  22  23
ATOM     23  C   UNL     1      27.156  13.554  35.249  1.00  0.00    -0.000 C 
BRANCH  23  24
ATOM     24  C   UNL     1      25.863  13.286  36.043  1.00  0.00    -0.000 C 
BRANCH  24  25
ATOM     25  C   UNL     1      25.008  12.165  35.434  1.00  0.00    -0.003 C 
ATOM     26  C   UNL     1      23.519  12.456  35.600  1.00  0.00     0.004 C 
ENDBRANCH  24  25
ENDBRANCH  23  24
ENDBRANCH  22  23
ENDBRANCH  21  22
ENDBRANCH  20  21
ENDBRANCH  19  20
ENDBRANCH  18  19
ENDBRANCH  17  18
ENDBRANCH  16  17
ENDBRANCH  15  16
ENDBRANCH   1  15
TORSDOF 22
ENDMDL
MODEL 6
REMARK VINA RESULT:    -5.135      1.097      1.855
REMARK INTER + INTRA:         -14.266
REMARK INTER:                 -11.658
REMARK INTRA:                  -2.607
REMARK UNBOUND:                -2.527
REMARK SMILES CCCCCCCCCCCCCCCCCCCCCCCC(=O)[O-]
REMARK SMILES IDX 13 1 14 2 15 3 16 4 17 5 18 6 19 7 20 8 21 9 22 10 23 11
REMARK SMILES IDX 24 12 25 13 26 14 12 15 11 16 10 17 9 18 8 19 7 20 6 21 5 22
REMARK SMILES IDX 4 23 3 24 2 25 1 26
REMARK H PARENT
REMARK Flexibility Score: inf
ROOT
ATOM      1  C   UNL     1      22.094  10.848  31.813  1.00  0.00     0.000 C 
ENDROOT
BRANCH   1   2
ATOM      2  C   UNL     1      22.322  10.000  30.549  1.00  0.00     0.000 C 
BRANCH   2   3
ATOM      3  C   UNL     1      23.802   9.938  30.126  1.00  0.00     0.000 C 
BRANCH   3   4
ATOM      4  C   UNL     1      24.797  10.569  31.118  1.00  0.00     0.000 C 
BRANCH   4   5
ATOM      5  C   UNL     1      26.180   9.892  31.180  1.00  0.00     0.000 C 
BRANCH   5   6
ATOM      6  C   UNL     1      27.277  10.638  30.393  1.00  0.00     0.000 C 
BRANCH   6   7
ATOM      7  C   UNL     1      27.279  12.149  30.665  1.00  0.00     0.000 C 
BRANCH   7   8
ATOM      8  C   UNL     1      28.362  12.524  31.683  1.00  0.00     0.000 C 
BRANCH   8   9
ATOM      9  C   UNL     1      27.742  13.098  32.964  1.00  0.00     0.000 C 
BRANCH   9  10
ATOM     10  C   UNL     1      27.583  12.053  34.081  1.00  0.00     0.006 C 
BRANCH  10  11
ATOM     11  C   UNL     1      26.120  11.727  34.429  1.00  0.00     0.053 C 
BRANCH  11  12
ATOM     12  C   UNL     1      25.560  12.633  35.483  1.00  0.00     0.041 C 
ATOM     13  O   UNL     1      26.256  13.573  35.950  1.00  0.00    -0.550 OA
ATOM     14  O   UNL     1      24.282  12.413  35.982  1.00  0.00    -0.550 OA
ENDBRANCH  11  12
ENDBRANCH  10  11
ENDBRANCH   9  10
ENDBRANCH   8   9
ENDBRANCH   7   8
ENDBRANCH   6   7
ENDBRANCH   5   6
ENDBRANCH   4   5
ENDBRANCH   3   4
ENDBRANCH   2   3
ENDBRANCH   1   2
BRANCH   1  15
ATOM     15  C   UNL     1      20.610  11.189  32.041  1.00  0.00     0.000 C 
BRANCH  15  16
ATOM     16  C   UNL     1      20.238  12.668  31.825  1.00  0.00     0.000 C 
BRANCH  16  17
ATOM     17  C   UNL     1      19.768  13.360  33.116  1.00  0.00     0.000 C 
BRANCH  17  18
ATOM     18  C   UNL     1      20.922  13.656  34.087  1.00  0.00    -0.000 C 
BRANCH  18  19
ATOM     19  C   UNL     1      20.787  12.901  35.421  1.00  0.00    -0.000 C 
BRANCH  19  20
ATOM     20  C   UNL     1      19.346  12.906  35.960  1.00  0.00    -0.000 C 
BRANCH  20  21
ATOM     21  C   UNL     1      18.827  11.505  36.353  1.00  0.00    -0.000 C 
BRANCH  21  22
ATOM     22  C   UNL     1      19.602  10.380  35.646  1.00  0.00    -0.000 C 
BRANCH  22  23
ATOM     23  C   UNL     1      18.704   9.499  34.758  1.00  0.00    -0.000 C 
BRANCH  23  24
ATOM     24  C   UNL     1      18.679   8.005  35.136  1.00  0.00    -0.000 C 
BRANCH  24  25
ATOM     25  C   UNL     1      18.432   7.769  36.633  1.00  0.00    -0.003 C 
ATOM     26  C   UNL     1      19.459   6.802  37.216  1.00  0.00     0.004 C 
ENDBRANCH  24  25
ENDBRANCH  23  24
ENDBRANCH  22  23
ENDBRANCH  21  22
ENDBRANCH  20  21
ENDBRANCH  19  20
ENDBRANCH  18  19
ENDBRANCH  17  18
ENDBRANCH  16  17
ENDBRANCH  15  16
ENDBRANCH   1  15
TORSDOF 22
ENDMDL
MODEL 7
REMARK VINA RESULT:    -5.098      2.727      7.299
REMARK INTER + INTRA:         -14.182
REMARK INTER:                 -10.991
REMARK INTRA:                  -3.191
REMARK UNBOUND:                -2.527
REMARK SMILES CCCCCCCCCCCCCCCCCCCCCCCC(=O)[O-]
REMARK SMILES IDX 13 1 14 2 15 3 16 4 17 5 18 6 19 7 20 8 21 9 22 10 23 11
REMARK SMILES IDX 24 12 25 13 26 14 12 15 11 16 10 17 9 18 8 19 7 20 6 21 5 22
REMARK SMILES IDX 4 23 3 24 2 25 1 26
REMARK H PARENT
REMARK Flexibility Score: inf
ROOT
ATOM      1  C   UNL     1      25.392   9.275  30.329  1.00  0.00     0.000 C 
ENDROOT
BRANCH   1   2
ATOM      2  C   UNL     1      24.081   9.846  30.897  1.00  0.00     0.000 C 
BRANCH   2   3
ATOM      3  C   UNL     1      23.067  10.227  29.801  1.00  0.00     0.000 C 
BRANCH   3   4
ATOM      4  C   UNL     1      21.896  11.113  30.267  1.00  0.00     0.000 C 
BRANCH   4   5
ATOM      5  C   UNL     1      21.384  10.827  31.692  1.00  0.00     0.000 C 
BRANCH   5   6
ATOM      6  C   UNL     1      21.226  12.090  32.564  1.00  0.00     0.000 C 
BRANCH   6   7
ATOM      7  C   UNL     1      22.442  12.341  33.468  1.00  0.00     0.000 C 
BRANCH   7   8
ATOM      8  C   UNL     1      22.010  12.560  34.922  1.00  0.00     0.000 C 
BRANCH   8   9
ATOM      9  C   UNL     1      20.539  12.993  35.004  1.00  0.00     0.000 C 
BRANCH   9  10
ATOM     10  C   UNL     1      19.698  12.109  35.941  1.00  0.00     0.006 C 
BRANCH  10  11
ATOM     11  C   UNL     1      19.989  10.604  35.809  1.00  0.00     0.053 C 
BRANCH  11  12
ATOM     12  C   UNL     1      18.985   9.893  34.953  1.00  0.00     0.041 C 
ATOM     13  O   UNL     1      18.767   8.663  35.114  1.00  0.00    -0.550 OA
ATOM     14  O   UNL     1      18.320  10.581  33.945  1.00  0.00    -0.550 OA
ENDBRANCH  11  12
ENDBRANCH  10  11
ENDBRANCH   9  10
ENDBRANCH   8   9
ENDBRANCH   7   8
ENDBRANCH   6   7
ENDBRANCH   5   6
ENDBRANCH   4   5
ENDBRANCH   3   4
ENDBRANCH   2   3
ENDBRANCH   1   2
BRANCH   1  15
ATOM     15  C   UNL     1      25.790   9.917  28.988  1.00  0.00     0.000 C 
BRANCH  15  16
ATOM     16  C   UNL     1      26.927  10.953  29.071  1.00  0.00     0.000 C 
BRANCH  16  17
ATOM     17  C   UNL     1      26.421  12.368  29.401  1.00  0.00     0.000 C 
BRANCH  17  18
ATOM     18  C   UNL     1      26.622  12.743  30.878  1.00  0.00    -0.000 C 
BRANCH  18  19
ATOM     19  C   UNL     1      28.089  12.629  31.326  1.00  0.00    -0.000 C 
BRANCH  19  20
ATOM     20  C   UNL     1      28.270  11.674  32.520  1.00  0.00    -0.000 C 
BRANCH  20  21
ATOM     21  C   UNL     1      26.958  10.998  32.976  1.00  0.00    -0.000 C 
BRANCH  21  22
ATOM     22  C   UNL     1      26.769  11.068  34.502  1.00  0.00    -0.000 C 
BRANCH  22  23
ATOM     23  C   UNL     1      25.594  11.972  34.919  1.00  0.00    -0.000 C 
BRANCH  23  24
ATOM     24  C   UNL     1      25.956  13.097  35.906  1.00  0.00    -0.000 C 
BRANCH  24  25
ATOM     25  C   UNL     1      27.368  13.658  35.684  1.00  0.00    -0.003 C 
ATOM     26  C   UNL     1      27.429  14.516  34.423  1.00  0.00     0.004 C 
ENDBRANCH  24  25
ENDBRANCH  23  24
ENDBRANCH  22  23
ENDBRANCH  21  22
ENDBRANCH  20  21
ENDBRANCH  19  20
ENDBRANCH  18  19
ENDBRANCH  17  18
ENDBRANCH  16  17
ENDBRANCH  15  16
ENDBRANCH   1  15
TORSDOF 22
ENDMDL
MODEL 8
REMARK VINA RESULT:    -5.023      2.421      8.251
REMARK INTER + INTRA:         -14.010
REMARK INTER:                 -11.609
REMARK INTRA:                  -2.402
REMARK UNBOUND:                -2.527
REMARK SMILES CCCCCCCCCCCCCCCCCCCCCCCC(=O)[O-]
REMARK SMILES IDX 13 1 14 2 15 3 16 4 17 5 18 6 19 7 20 8 21 9 22 10 23 11
REMARK SMILES IDX 24 12 25 13 26 14 12 15 11 16 10 17 9 18 8 19 7 20 6 21 5 22
REMARK SMILES IDX 4 23 3 24 2 25 1 26
REMARK H PARENT
REMARK Flexibility Score: inf
ROOT
ATOM      1  C   UNL     1      25.744  13.324  36.130  1.00  0.00     0.000 C 
ENDROOT
BRANCH   1   2
ATOM      2  C   UNL     1      24.655  12.256  35.930  1.00  0.00     0.000 C 
BRANCH   2   3
ATOM      3  C   UNL     1      23.651  12.621  34.820  1.00  0.00     0.000 C 
BRANCH   3   4
ATOM      4  C   UNL     1      22.182  12.269  35.118  1.00  0.00     0.000 C 
BRANCH   4   5
ATOM      5  C   UNL     1      21.222  12.390  33.919  1.00  0.00     0.000 C 
BRANCH   5   6
ATOM      6  C   UNL     1      20.113  13.446  34.110  1.00  0.00     0.000 C 
BRANCH   6   7
ATOM      7  C   UNL     1      19.766  13.679  35.587  1.00  0.00     0.000 C 
BRANCH   7   8
ATOM      8  C   UNL     1      18.270  13.468  35.841  1.00  0.00     0.000 C 
BRANCH   8   9
ATOM      9  C   UNL     1      18.035  12.350  36.867  1.00  0.00     0.000 C 
BRANCH   9  10
ATOM     10  C   UNL     1      18.664  11.008  36.455  1.00  0.00     0.006 C 
BRANCH  10  11
ATOM     11  C   UNL     1      18.031   9.785  37.141  1.00  0.00     0.053 C 
BRANCH  11  12
ATOM     12  C   UNL     1      18.834   8.533  36.947  1.00  0.00     0.041 C 
ATOM     13  O   UNL     1      20.017   8.596  36.522  1.00  0.00    -0.550 OA
ATOM     14  O   UNL     1      18.258   7.293  37.194  1.00  0.00    -0.550 OA
ENDBRANCH  11  12
ENDBRANCH  10  11
ENDBRANCH   9  10
ENDBRANCH   8   9
ENDBRANCH   7   8
ENDBRANCH   6   7
ENDBRANCH   5   6
ENDBRANCH   4   5
ENDBRANCH   3   4
ENDBRANCH   2   3
ENDBRANCH   1   2
BRANCH   1  15
ATOM     15  C   UNL     1      26.896  13.197  35.117  1.00  0.00     0.000 C 
BRANCH  15  16
ATOM     16  C   UNL     1      27.281  11.753  34.743  1.00  0.00     0.000 C 
BRANCH  16  17
ATOM     17  C   UNL     1      28.299  11.688  33.591  1.00  0.00     0.000 C 
BRANCH  17  18
ATOM     18  C   UNL     1      28.221  12.906  32.658  1.00  0.00    -0.000 C 
BRANCH  18  19
ATOM     19  C   UNL     1      28.503  12.549  31.188  1.00  0.00    -0.000 C 
BRANCH  19  20
ATOM     20  C   UNL     1      27.239  12.087  30.439  1.00  0.00    -0.000 C 
BRANCH  20  21
ATOM     21  C   UNL     1      25.944  12.772  30.930  1.00  0.00    -0.000 C 
BRANCH  21  22
ATOM     22  C   UNL     1      25.022  11.797  31.683  1.00  0.00    -0.000 C 
BRANCH  22  23
ATOM     23  C   UNL     1      25.435  10.324  31.508  1.00  0.00    -0.000 C 
BRANCH  23  24
ATOM     24  C   UNL     1      24.541   9.505  30.558  1.00  0.00    -0.000 C 
BRANCH  24  25
ATOM     25  C   UNL     1      23.632  10.383  29.685  1.00  0.00    -0.003 C 
ATOM     26  C   UNL     1      22.377   9.626  29.259  1.00  0.00     0.004 C 
ENDBRANCH  24  25
ENDBRANCH  23  24
ENDBRANCH  22  23
ENDBRANCH  21  22
ENDBRANCH  20  21
ENDBRANCH  19  20
ENDBRANCH  18  19
ENDBRANCH  17  18
ENDBRANCH  16  17
ENDBRANCH  15  16
ENDBRANCH   1  15
TORSDOF 22
ENDMDL
MODEL 9
REMARK VINA RESULT:    -5.016      2.236      4.447
REMARK INTER + INTRA:         -13.995
REMARK INTER:                 -11.608
REMARK INTRA:                  -2.387
REMARK UNBOUND:                -2.527
REMARK SMILES CCCCCCCCCCCCCCCCCCCCCCCC(=O)[O-]
REMARK SMILES IDX 13 1 14 2 15 3 16 4 17 5 18 6 19 7 20 8 21 9 22 10 23 11
REMARK SMILES IDX 24 12 25 13 26 14 12 15 11 16 10 17 9 18 8 19 7 20 6 21 5 22
REMARK SMILES IDX 4 23 3 24 2 25 1 26
REMARK H PARENT
REMARK Flexibility Score: inf
ROOT
ATOM      1  C   UNL     1      26.253  11.157  34.892  1.00  0.00     0.000 C 
ENDROOT
BRANCH   1   2
ATOM      2  C   UNL     1      27.711  11.648  34.852  1.00  0.00     0.000 C 
BRANCH   2   3
ATOM      3  C   UNL     1      27.833  13.140  34.485  1.00  0.00     0.000 C 
BRANCH   3   4
ATOM      4  C   UNL     1      27.597  13.474  33.000  1.00  0.00     0.000 C 
BRANCH   4   5
ATOM      5  C   UNL     1      28.092  12.410  32.001  1.00  0.00     0.000 C 
BRANCH   5   6
ATOM      6  C   UNL     1      27.157  12.206  30.790  1.00  0.00     0.000 C 
BRANCH   6   7
ATOM      7  C   UNL     1      25.721  11.856  31.204  1.00  0.00     0.000 C 
BRANCH   7   8
ATOM      8  C   UNL     1      25.613  10.387  31.628  1.00  0.00     0.000 C 
BRANCH   8   9
ATOM      9  C   UNL     1      25.322   9.482  30.422  1.00  0.00     0.000 C 
BRANCH   9  10
ATOM     10  C   UNL     1      24.056   9.890  29.650  1.00  0.00     0.006 C 
BRANCH  10  11
ATOM     11  C   UNL     1      22.743   9.573  30.388  1.00  0.00     0.053 C 
BRANCH  11  12
ATOM     12  C   UNL     1      21.959  10.803  30.730  1.00  0.00     0.041 C 
ATOM     13  O   UNL     1      21.147  11.292  29.901  1.00  0.00    -0.550 OA
ATOM     14  O   UNL     1      22.158  11.437  31.951  1.00  0.00    -0.550 OA
ENDBRANCH  11  12
ENDBRANCH  10  11
ENDBRANCH   9  10
ENDBRANCH   8   9
ENDBRANCH   7   8
ENDBRANCH   6   7
ENDBRANCH   5   6
ENDBRANCH   4   5
ENDBRANCH   3   4
ENDBRANCH   2   3
ENDBRANCH   1   2
BRANCH   1  15
ATOM     15  C   UNL     1      25.287  12.206  35.475  1.00  0.00     0.000 C 
BRANCH  15  16
ATOM     16  C   UNL     1      23.918  12.295  34.775  1.00  0.00     0.000 C 
BRANCH  16  17
ATOM     17  C   UNL     1      22.768  12.592  35.752  1.00  0.00     0.000 C 
BRANCH  17  18
ATOM     18  C   UNL     1      21.483  11.820  35.411  1.00  0.00    -0.000 C 
BRANCH  18  19
ATOM     19  C   UNL     1      20.380  12.725  34.836  1.00  0.00    -0.000 C 
BRANCH  19  20
ATOM     20  C   UNL     1      19.335  13.127  35.892  1.00  0.00    -0.000 C 
BRANCH  20  21
ATOM     21  C   UNL     1      18.775  11.932  36.695  1.00  0.00    -0.000 C 
BRANCH  21  22
ATOM     22  C   UNL     1      17.875  11.026  35.837  1.00  0.00    -0.000 C 
BRANCH  22  23
ATOM     23  C   UNL     1      18.271   9.540  35.916  1.00  0.00    -0.000 C 
BRANCH  23  24
ATOM     24  C   UNL     1      18.302   8.949  37.338  1.00  0.00    -0.000 C 
BRANCH  24  25
ATOM     25  C   UNL     1      19.462   7.966  37.555  1.00  0.00    -0.003 C 
ATOM     26  C   UNL     1      19.097   6.566  37.071  1.00  0.00     0.004 C 
ENDBRANCH  24  25
ENDBRANCH  23  24
ENDBRANCH  22  23
ENDBRANCH  21  22
ENDBRANCH  20  21
ENDBRANCH  19  20
ENDBRANCH  18  19
ENDBRANCH  17  18
ENDBRANCH  16  17
ENDBRANCH  15  16
ENDBRANCH   1  15
TORSDOF 22
ENDMDL
