MODEL 1
REMARK VINA RESULT:    -5.965      0.000      0.000
REMARK INTER + INTRA:          -7.477
REMARK INTER:                  -7.186
REMARK INTRA:                  -0.291
REMARK UNBOUND:                -0.291
REMARK SMILES O=c1c(O)c(-c2ccc(O)c(O)c2)oc2cc(O)cc(O)c12
REMARK SMILES IDX 5 1 3 2 2 3 1 4 22 5 20 6 19 7 17 8 16 9 15 10 14 11 6 12
REMARK SMILES IDX 7 13 8 14 9 15 13 16 11 17 10 18 12 20 4 22 21 24 18 26
REMARK H PARENT 10 19 12 21 4 23 21 25 18 27
REMARK Flexibility Score: inf
ROOT
ATOM      1  C   UNL     1      -7.871  18.631 -20.884  1.00  0.00     0.180 A 
ATOM      2  C   UNL     1      -8.049  17.385 -20.252  1.00  0.00     0.208 A 
ATOM      3  C   UNL     1      -7.932  16.214 -21.015  1.00  0.00     0.238 A 
ATOM      4  O   UNL     1      -8.078  15.092 -20.457  1.00  0.00    -0.285 OA
ATOM      5  C   UNL     1      -7.662  16.306 -22.396  1.00  0.00     0.111 A 
ATOM      6  C   UNL     1      -7.534  15.175 -23.237  1.00  0.00     0.134 A 
ATOM      7  C   UNL     1      -7.273  15.351 -24.605  1.00  0.00     0.093 A 
ATOM      8  C   UNL     1      -7.140  16.631 -25.146  1.00  0.00     0.123 A 
ATOM      9  C   UNL     1      -7.266  17.753 -24.319  1.00  0.00     0.094 A 
ATOM     10  C   UNL     1      -7.523  17.599 -22.954  1.00  0.00     0.146 A 
ATOM     11  O   UNL     1      -7.632  18.680 -22.191  1.00  0.00    -0.452 OA
ENDROOT
BRANCH   1  12
ATOM     12  C   UNL     1      -7.960  19.910 -20.142  1.00  0.00     0.025 A 
ATOM     13  C   UNL     1      -6.875  20.332 -19.361  1.00  0.00     0.016 A 
ATOM     14  C   UNL     1      -6.946  21.523 -18.638  1.00  0.00     0.051 A 
ATOM     15  C   UNL     1      -8.103  22.309 -18.667  1.00  0.00     0.157 A 
ATOM     16  C   UNL     1      -9.133  20.684 -20.156  1.00  0.00     0.062 A 
ATOM     17  C   UNL     1      -9.215  21.880 -19.431  1.00  0.00     0.158 A 
BRANCH  15  18
ATOM     18  O   UNL     1      -8.106  23.493 -17.927  1.00  0.00    -0.504 OA
ATOM     19  H   UNL     1      -8.299  23.540 -16.937  1.00  0.00     0.293 HD
ENDBRANCH  15  18
BRANCH  17  20
ATOM     20  O   UNL     1     -10.409  22.600 -19.492  1.00  0.00    -0.504 OA
ATOM     21  H   UNL     1     -11.321  22.175 -19.584  1.00  0.00     0.293 HD
ENDBRANCH  17  20
ENDBRANCH   1  12
BRANCH   2  22
ATOM     22  O   UNL     1      -8.364  17.323 -18.891  1.00  0.00    -0.502 OA
ATOM     23  H   UNL     1      -8.256  18.118 -18.272  1.00  0.00     0.293 HD
ENDBRANCH   2  22
BRANCH   6  24
ATOM     24  O   UNL     1      -7.663  13.882 -22.728  1.00  0.00    -0.507 OA
ATOM     25  H   UNL     1      -8.127  13.701 -21.845  1.00  0.00     0.293 HD
ENDBRANCH   6  24
BRANCH   8  26
ATOM     26  O   UNL     1      -6.883  16.778 -26.507  1.00  0.00    -0.508 OA
ATOM     27  H   UNL     1      -6.192  16.206 -26.980  1.00  0.00     0.293 HD
ENDBRANCH   8  26
TORSDOF 6
ENDMDL
MODEL 2
REMARK VINA RESULT:    -5.411      1.269      2.896
REMARK INTER + INTRA:          -6.810
REMARK INTER:                  -6.478
REMARK INTRA:                  -0.332
REMARK UNBOUND:                -0.291
REMARK SMILES O=c1c(O)c(-c2ccc(O)c(O)c2)oc2cc(O)cc(O)c12
REMARK SMILES IDX 5 1 3 2 2 3 1 4 22 5 20 6 19 7 17 8 16 9 15 10 14 11 6 12
REMARK SMILES IDX 7 13 8 14 9 15 13 16 11 17 10 18 12 20 4 22 21 24 18 26
REMARK H PARENT 10 19 12 21 4 23 21 25 18 27
REMARK Flexibility Score: inf
ROOT
ATOM      1  C   UNL     1      -7.829  19.059 -20.895  1.00  0.00     0.180 A 
ATOM      2  C   UNL     1      -7.356  19.132 -22.219  1.00  0.00     0.208 A 
ATOM      3  C   UNL     1      -7.287  17.955 -22.980  1.00  0.00     0.238 A 
ATOM      4  O   UNL     1      -6.875  18.010 -24.171  1.00  0.00    -0.285 OA
ATOM      5  C   UNL     1      -7.669  16.727 -22.402  1.00  0.00     0.111 A 
ATOM      6  C   UNL     1      -7.625  15.496 -23.099  1.00  0.00     0.134 A 
ATOM      7  C   UNL     1      -8.014  14.315 -22.450  1.00  0.00     0.093 A 
ATOM      8  C   UNL     1      -8.444  14.340 -21.121  1.00  0.00     0.123 A 
ATOM      9  C   UNL     1      -8.490  15.554 -20.428  1.00  0.00     0.094 A 
ATOM     10  C   UNL     1      -8.109  16.742 -21.057  1.00  0.00     0.146 A 
ATOM     11  O   UNL     1      -8.167  17.882 -20.378  1.00  0.00    -0.452 OA
ENDROOT
BRANCH   1  12
ATOM     12  C   UNL     1      -7.949  20.259 -20.035  1.00  0.00     0.025 A 
ATOM     13  C   UNL     1      -6.879  20.625 -19.207  1.00  0.00     0.016 A 
ATOM     14  C   UNL     1      -6.979  21.740 -18.374  1.00  0.00     0.051 A 
ATOM     15  C   UNL     1      -8.151  22.503 -18.339  1.00  0.00     0.157 A 
ATOM     16  C   UNL     1      -9.137  21.010 -19.987  1.00  0.00     0.062 A 
ATOM     17  C   UNL     1      -9.248  22.129 -19.152  1.00  0.00     0.158 A 
BRANCH  15  18
ATOM     18  O   UNL     1      -8.184  23.611 -17.490  1.00  0.00    -0.504 OA
ATOM     19  H   UNL     1      -8.211  24.568 -17.811  1.00  0.00     0.293 HD
ENDBRANCH  15  18
BRANCH  17  20
ATOM     20  O   UNL     1     -10.456  22.829 -19.157  1.00  0.00    -0.504 OA
ATOM     21  H   UNL     1     -10.541  23.807 -19.393  1.00  0.00     0.293 HD
ENDBRANCH  17  20
ENDBRANCH   1  12
BRANCH   2  22
ATOM     22  O   UNL     1      -6.937  20.354 -22.753  1.00  0.00    -0.502 OA
ATOM     23  H   UNL     1      -7.140  20.627 -23.708  1.00  0.00     0.293 HD
ENDBRANCH   2  22
BRANCH   6  24
ATOM     24  O   UNL     1      -7.199  15.436 -24.427  1.00  0.00    -0.507 OA
ATOM     25  H   UNL     1      -6.215  15.421 -24.670  1.00  0.00     0.293 HD
ENDBRANCH   6  24
BRANCH   8  26
ATOM     26  O   UNL     1      -8.824  13.153 -20.499  1.00  0.00    -0.508 OA
ATOM     27  H   UNL     1      -8.145  12.554 -20.041  1.00  0.00     0.293 HD
ENDBRANCH   8  26
TORSDOF 6
ENDMDL
MODEL 3
REMARK VINA RESULT:    -4.342      2.148      3.052
REMARK INTER + INTRA:          -5.522
REMARK INTER:                  -5.491
REMARK INTRA:                  -0.031
REMARK UNBOUND:                -0.291
REMARK SMILES O=c1c(O)c(-c2ccc(O)c(O)c2)oc2cc(O)cc(O)c12
REMARK SMILES IDX 5 1 3 2 2 3 1 4 22 5 20 6 19 7 17 8 16 9 15 10 14 11 6 12
REMARK SMILES IDX 7 13 8 14 9 15 13 16 11 17 10 18 12 20 4 22 21 24 18 26
REMARK H PARENT 10 19 12 21 4 23 21 25 18 27
REMARK Flexibility Score: inf
ROOT
ATOM      1  C   UNL     1      -7.569  17.268 -20.844  1.00  0.00     0.180 A 
ATOM      2  C   UNL     1      -7.260  16.762 -19.567  1.00  0.00     0.208 A 
ATOM      3  C   UNL     1      -7.163  15.373 -19.392  1.00  0.00     0.238 A 
ATOM      4  O   UNL     1      -6.876  14.910 -18.254  1.00  0.00    -0.285 OA
ATOM      5  C   UNL     1      -7.397  14.515 -20.486  1.00  0.00     0.111 A 
ATOM      6  C   UNL     1      -7.325  13.104 -20.393  1.00  0.00     0.134 A 
ATOM      7  C   UNL     1      -7.580  12.318 -21.526  1.00  0.00     0.093 A 
ATOM      8  C   UNL     1      -7.908  12.913 -22.747  1.00  0.00     0.123 A 
ATOM      9  C   UNL     1      -7.981  14.306 -22.844  1.00  0.00     0.094 A 
ATOM     10  C   UNL     1      -7.727  15.107 -21.728  1.00  0.00     0.146 A 
ATOM     11  O   UNL     1      -7.798  16.428 -21.849  1.00  0.00    -0.452 OA
ENDROOT
BRANCH   1  12
ATOM     12  C   UNL     1      -7.670  18.721 -21.112  1.00  0.00     0.025 A 
ATOM     13  C   UNL     1      -6.877  19.294 -22.115  1.00  0.00     0.016 A 
ATOM     14  C   UNL     1      -6.941  20.664 -22.370  1.00  0.00     0.051 A 
ATOM     15  C   UNL     1      -7.784  21.492 -21.621  1.00  0.00     0.157 A 
ATOM     16  C   UNL     1      -8.502  19.551 -20.341  1.00  0.00     0.062 A 
ATOM     17  C   UNL     1      -8.571  20.928 -20.588  1.00  0.00     0.158 A 
BRANCH  15  18
ATOM     18  O   UNL     1      -7.808  22.853 -21.931  1.00  0.00    -0.504 OA
ATOM     19  H   UNL     1      -7.302  23.266 -22.702  1.00  0.00     0.293 HD
ENDBRANCH  15  18
BRANCH  17  20
ATOM     20  O   UNL     1      -9.420  21.693 -19.785  1.00  0.00    -0.504 OA
ATOM     21  H   UNL     1      -9.184  22.604 -19.420  1.00  0.00     0.293 HD
ENDBRANCH  17  20
ENDBRANCH   1  12
BRANCH   2  22
ATOM     22  O   UNL     1      -7.080  17.633 -18.488  1.00  0.00    -0.502 OA
ATOM     23  H   UNL     1      -7.856  17.985 -17.939  1.00  0.00     0.293 HD
ENDBRANCH   2  22
BRANCH   6  24
ATOM     24  O   UNL     1      -7.002  12.479 -19.187  1.00  0.00    -0.507 OA
ATOM     25  H   UNL     1      -7.478  12.710 -18.323  1.00  0.00     0.293 HD
ENDBRANCH   6  24
BRANCH   8  26
ATOM     26  O   UNL     1      -8.159  12.109 -23.857  1.00  0.00    -0.508 OA
ATOM     27  H   UNL     1      -9.098  11.810 -24.092  1.00  0.00     0.293 HD
ENDBRANCH   8  26
TORSDOF 6
ENDMDL
MODEL 4
REMARK VINA RESULT:    -4.320      1.468      3.230
REMARK INTER + INTRA:          -5.495
REMARK INTER:                  -5.190
REMARK INTRA:                  -0.306
REMARK UNBOUND:                -0.291
REMARK SMILES O=c1c(O)c(-c2ccc(O)c(O)c2)oc2cc(O)cc(O)c12
REMARK SMILES IDX 5 1 3 2 2 3 1 4 22 5 20 6 19 7 17 8 16 9 15 10 14 11 6 12
REMARK SMILES IDX 7 13 8 14 9 15 13 16 11 17 10 18 12 20 4 22 21 24 18 26
REMARK H PARENT 10 19 12 21 4 23 21 25 18 27
REMARK Flexibility Score: inf
ROOT
ATOM      1  C   UNL     1      -8.198  19.214 -20.886  1.00  0.00     0.180 A 
ATOM      2  C   UNL     1      -7.604  19.314 -22.158  1.00  0.00     0.208 A 
ATOM      3  C   UNL     1      -7.397  18.144 -22.904  1.00  0.00     0.238 A 
ATOM      4  O   UNL     1      -6.875  18.223 -24.050  1.00  0.00    -0.285 OA
ATOM      5  C   UNL     1      -7.765  16.896 -22.360  1.00  0.00     0.111 A 
ATOM      6  C   UNL     1      -7.586  15.670 -23.044  1.00  0.00     0.134 A 
ATOM      7  C   UNL     1      -7.971  14.468 -22.431  1.00  0.00     0.093 A 
ATOM      8  C   UNL     1      -8.528  14.468 -21.150  1.00  0.00     0.123 A 
ATOM      9  C   UNL     1      -8.707  15.678 -20.470  1.00  0.00     0.094 A 
ATOM     10  C   UNL     1      -8.333  16.885 -21.065  1.00  0.00     0.146 A 
ATOM     11  O   UNL     1      -8.519  18.020 -20.399  1.00  0.00    -0.452 OA
ENDROOT
BRANCH   1  12
ATOM     12  C   UNL     1      -8.467  20.405 -20.047  1.00  0.00     0.025 A 
ATOM     13  C   UNL     1      -9.609  21.179 -20.293  1.00  0.00     0.016 A 
ATOM     14  C   UNL     1      -9.870  22.316 -19.528  1.00  0.00     0.051 A 
ATOM     15  C   UNL     1      -8.992  22.713 -18.514  1.00  0.00     0.157 A 
ATOM     16  C   UNL     1      -7.569  20.812 -19.045  1.00  0.00     0.062 A 
ATOM     17  C   UNL     1      -7.821  21.954 -18.274  1.00  0.00     0.158 A 
BRANCH  15  18
ATOM     18  O   UNL     1      -9.314  23.856 -17.780  1.00  0.00    -0.504 OA
ATOM     19  H   UNL     1     -10.136  23.941 -17.198  1.00  0.00     0.293 HD
ENDBRANCH  15  18
BRANCH  17  20
ATOM     20  O   UNL     1      -6.888  22.298 -17.294  1.00  0.00    -0.504 OA
ATOM     21  H   UNL     1      -6.772  21.799 -16.424  1.00  0.00     0.293 HD
ENDBRANCH  17  20
ENDBRANCH   1  12
BRANCH   2  22
ATOM     22  O   UNL     1      -7.203  20.558 -22.654  1.00  0.00    -0.502 OA
ATOM     23  H   UNL     1      -6.424  20.662 -23.294  1.00  0.00     0.293 HD
ENDBRANCH   2  22
BRANCH   6  24
ATOM     24  O   UNL     1      -7.030  15.635 -24.325  1.00  0.00    -0.507 OA
ATOM     25  H   UNL     1      -7.426  15.063 -25.061  1.00  0.00     0.293 HD
ENDBRANCH   6  24
BRANCH   8  26
ATOM     26  O   UNL     1      -8.900  13.261 -20.563  1.00  0.00    -0.508 OA
ATOM     27  H   UNL     1      -9.495  13.233 -19.742  1.00  0.00     0.293 HD
ENDBRANCH   8  26
TORSDOF 6
ENDMDL
MODEL 5
REMARK VINA RESULT:    -3.709      1.713      3.280
REMARK INTER + INTRA:          -4.758
REMARK INTER:                  -4.427
REMARK INTRA:                  -0.331
REMARK UNBOUND:                -0.291
REMARK SMILES O=c1c(O)c(-c2ccc(O)c(O)c2)oc2cc(O)cc(O)c12
REMARK SMILES IDX 5 1 3 2 2 3 1 4 22 5 20 6 19 7 17 8 16 9 15 10 14 11 6 12
REMARK SMILES IDX 7 13 8 14 9 15 13 16 11 17 10 18 12 20 4 22 21 24 18 26
REMARK H PARENT 10 19 12 21 4 23 21 25 18 27
REMARK Flexibility Score: inf
ROOT
ATOM      1  C   UNL     1      -8.037  17.599 -21.413  1.00  0.00     0.180 A 
ATOM      2  C   UNL     1      -7.475  17.431 -22.692  1.00  0.00     0.208 A 
ATOM      3  C   UNL     1      -7.502  16.159 -23.283  1.00  0.00     0.238 A 
ATOM      4  O   UNL     1      -7.010  15.998 -24.434  1.00  0.00    -0.285 OA
ATOM      5  C   UNL     1      -8.069  15.075 -22.581  1.00  0.00     0.111 A 
ATOM      6  C   UNL     1      -8.131  13.761 -23.103  1.00  0.00     0.134 A 
ATOM      7  C   UNL     1      -8.704  12.735 -22.337  1.00  0.00     0.093 A 
ATOM      8  C   UNL     1      -9.212  12.995 -21.062  1.00  0.00     0.123 A 
ATOM      9  C   UNL     1      -9.153  14.292 -20.541  1.00  0.00     0.094 A 
ATOM     10  C   UNL     1      -8.589  15.329 -21.290  1.00  0.00     0.146 A 
ATOM     11  O   UNL     1      -8.550  16.553 -20.773  1.00  0.00    -0.452 OA
ENDROOT
BRANCH   1  12
ATOM     12  C   UNL     1      -8.064  18.914 -20.732  1.00  0.00     0.025 A 
ATOM     13  C   UNL     1      -7.048  19.242 -19.824  1.00  0.00     0.016 A 
ATOM     14  C   UNL     1      -7.065  20.467 -19.156  1.00  0.00     0.051 A 
ATOM     15  C   UNL     1      -8.101  21.382 -19.368  1.00  0.00     0.157 A 
ATOM     16  C   UNL     1      -9.120  19.821 -20.931  1.00  0.00     0.062 A 
ATOM     17  C   UNL     1      -9.147  21.051 -20.263  1.00  0.00     0.158 A 
BRANCH  15  18
ATOM     18  O   UNL     1      -8.056  22.593 -18.674  1.00  0.00    -0.504 OA
ATOM     19  H   UNL     1      -8.874  23.114 -18.393  1.00  0.00     0.293 HD
ENDBRANCH  15  18
BRANCH  17  20
ATOM     20  O   UNL     1     -10.225  21.904 -20.510  1.00  0.00    -0.504 OA
ATOM     21  H   UNL     1     -10.710  21.961 -21.394  1.00  0.00     0.293 HD
ENDBRANCH  17  20
ENDBRANCH   1  12
BRANCH   2  22
ATOM     22  O   UNL     1      -6.875  18.511 -23.348  1.00  0.00    -0.502 OA
ATOM     23  H   UNL     1      -6.194  19.109 -22.896  1.00  0.00     0.293 HD
ENDBRANCH   2  22
BRANCH   6  24
ATOM     24  O   UNL     1      -7.631  13.468 -24.373  1.00  0.00    -0.507 OA
ATOM     25  H   UNL     1      -6.797  12.906 -24.500  1.00  0.00     0.293 HD
ENDBRANCH   6  24
BRANCH   8  26
ATOM     26  O   UNL     1      -9.774  11.958 -20.322  1.00  0.00    -0.508 OA
ATOM     27  H   UNL     1     -10.633  12.086 -19.798  1.00  0.00     0.293 HD
ENDBRANCH   8  26
TORSDOF 6
ENDMDL
MODEL 6
REMARK VINA RESULT:    -3.653     14.619     17.175
REMARK INTER + INTRA:          -4.692
REMARK INTER:                  -4.432
REMARK INTRA:                  -0.260
REMARK UNBOUND:                -0.291
REMARK SMILES O=c1c(O)c(-c2ccc(O)c(O)c2)oc2cc(O)cc(O)c12
REMARK SMILES IDX 5 1 3 2 2 3 1 4 22 5 20 6 19 7 17 8 16 9 15 10 14 11 6 12
REMARK SMILES IDX 7 13 8 14 9 15 13 16 11 17 10 18 12 20 4 22 21 24 18 26
REMARK H PARENT 10 19 12 21 4 23 21 25 18 27
REMARK Flexibility Score: inf
ROOT
ATOM      1  C   UNL     1     -19.383  29.491 -27.222  1.00  0.00     0.180 A 
ATOM      2  C   UNL     1     -18.907  29.944 -25.977  1.00  0.00     0.208 A 
ATOM      3  C   UNL     1     -17.595  29.625 -25.596  1.00  0.00     0.238 A 
ATOM      4  O   UNL     1     -17.154  30.035 -24.487  1.00  0.00    -0.285 OA
ATOM      5  C   UNL     1     -16.791  28.842 -26.450  1.00  0.00     0.111 A 
ATOM      6  C   UNL     1     -15.461  28.472 -26.138  1.00  0.00     0.134 A 
ATOM      7  C   UNL     1     -14.729  27.683 -27.038  1.00  0.00     0.093 A 
ATOM      8  C   UNL     1     -15.299  27.257 -28.239  1.00  0.00     0.123 A 
ATOM      9  C   UNL     1     -16.614  27.620 -28.553  1.00  0.00     0.094 A 
ATOM     10  C   UNL     1     -17.359  28.408 -27.671  1.00  0.00     0.146 A 
ATOM     11  O   UNL     1     -18.603  28.742 -27.995  1.00  0.00    -0.452 OA
ENDROOT
BRANCH   1  12
ATOM     12  C   UNL     1     -20.749  29.803 -27.704  1.00  0.00     0.025 A 
ATOM     13  C   UNL     1     -20.928  30.801 -28.671  1.00  0.00     0.016 A 
ATOM     14  C   UNL     1     -22.208  31.125 -29.123  1.00  0.00     0.051 A 
ATOM     15  C   UNL     1     -23.334  30.473 -28.610  1.00  0.00     0.157 A 
ATOM     16  C   UNL     1     -21.878  29.161 -27.168  1.00  0.00     0.062 A 
ATOM     17  C   UNL     1     -23.167  29.481 -27.613  1.00  0.00     0.158 A 
BRANCH  15  18
ATOM     18  O   UNL     1     -24.585  30.838 -29.110  1.00  0.00    -0.504 OA
ATOM     19  H   UNL     1     -25.462  30.584 -28.678  1.00  0.00     0.293 HD
ENDBRANCH  15  18
BRANCH  17  20
ATOM     20  O   UNL     1     -24.243  28.802 -27.039  1.00  0.00    -0.504 OA
ATOM     21  H   UNL     1     -25.161  29.203 -26.911  1.00  0.00     0.293 HD
ENDBRANCH  17  20
ENDBRANCH   1  12
BRANCH   2  22
ATOM     22  O   UNL     1     -19.740  30.678 -25.127  1.00  0.00    -0.502 OA
ATOM     23  H   UNL     1     -19.542  31.636 -24.867  1.00  0.00     0.293 HD
ENDBRANCH   2  22
BRANCH   6  24
ATOM     24  O   UNL     1     -14.862  28.880 -24.945  1.00  0.00    -0.507 OA
ATOM     25  H   UNL     1     -14.001  28.464 -24.612  1.00  0.00     0.293 HD
ENDBRANCH   6  24
BRANCH   8  26
ATOM     26  O   UNL     1     -14.551  26.474 -29.115  1.00  0.00    -0.508 OA
ATOM     27  H   UNL     1     -14.996  25.845 -29.774  1.00  0.00     0.293 HD
ENDBRANCH   8  26
TORSDOF 6
ENDMDL
MODEL 7
REMARK VINA RESULT:    -3.274     14.529     16.850
REMARK INTER + INTRA:          -4.234
REMARK INTER:                  -4.196
REMARK INTRA:                  -0.038
REMARK UNBOUND:                -0.291
REMARK SMILES O=c1c(O)c(-c2ccc(O)c(O)c2)oc2cc(O)cc(O)c12
REMARK SMILES IDX 5 1 3 2 2 3 1 4 22 5 20 6 19 7 17 8 16 9 15 10 14 11 6 12
REMARK SMILES IDX 7 13 8 14 9 15 13 16 11 17 10 18 12 20 4 22 21 24 18 26
REMARK H PARENT 10 19 12 21 4 23 21 25 18 27
REMARK Flexibility Score: inf
ROOT
ATOM      1  C   UNL     1     -19.036  28.684 -28.129  1.00  0.00     0.180 A 
ATOM      2  C   UNL     1     -18.802  27.313 -28.351  1.00  0.00     0.208 A 
ATOM      3  C   UNL     1     -17.500  26.814 -28.195  1.00  0.00     0.238 A 
ATOM      4  O   UNL     1     -17.280  25.585 -28.380  1.00  0.00    -0.285 OA
ATOM      5  C   UNL     1     -16.454  27.691 -27.842  1.00  0.00     0.111 A 
ATOM      6  C   UNL     1     -15.114  27.270 -27.669  1.00  0.00     0.134 A 
ATOM      7  C   UNL     1     -14.128  28.207 -27.325  1.00  0.00     0.093 A 
ATOM      8  C   UNL     1     -14.455  29.554 -27.154  1.00  0.00     0.123 A 
ATOM      9  C   UNL     1     -15.778  29.976 -27.323  1.00  0.00     0.094 A 
ATOM     10  C   UNL     1     -16.775  29.058 -27.663  1.00  0.00     0.146 A 
ATOM     11  O   UNL     1     -18.024  29.484 -27.813  1.00  0.00    -0.452 OA
ENDROOT
BRANCH   1  12
ATOM     12  C   UNL     1     -20.386  29.281 -28.256  1.00  0.00     0.025 A 
ATOM     13  C   UNL     1     -20.554  30.452 -29.009  1.00  0.00     0.016 A 
ATOM     14  C   UNL     1     -21.812  31.042 -29.125  1.00  0.00     0.051 A 
ATOM     15  C   UNL     1     -22.924  30.489 -28.481  1.00  0.00     0.157 A 
ATOM     16  C   UNL     1     -21.495  28.734 -27.589  1.00  0.00     0.062 A 
ATOM     17  C   UNL     1     -22.761  29.321 -27.696  1.00  0.00     0.158 A 
BRANCH  15  18
ATOM     18  O   UNL     1     -24.157  31.124 -28.643  1.00  0.00    -0.504 OA
ATOM     19  H   UNL     1     -25.021  30.791 -28.240  1.00  0.00     0.293 HD
ENDBRANCH  15  18
BRANCH  17  20
ATOM     20  O   UNL     1     -23.819  28.723 -27.009  1.00  0.00    -0.504 OA
ATOM     21  H   UNL     1     -23.840  28.590 -26.008  1.00  0.00     0.293 HD
ENDBRANCH  17  20
ENDBRANCH   1  12
BRANCH   2  22
ATOM     22  O   UNL     1     -19.847  26.473 -28.748  1.00  0.00    -0.502 OA
ATOM     23  H   UNL     1     -20.008  26.229 -29.718  1.00  0.00     0.293 HD
ENDBRANCH   2  22
BRANCH   6  24
ATOM     24  O   UNL     1     -14.755  25.931 -27.835  1.00  0.00    -0.507 OA
ATOM     25  H   UNL     1     -14.101  25.473 -27.209  1.00  0.00     0.293 HD
ENDBRANCH   6  24
BRANCH   8  26
ATOM     26  O   UNL     1     -13.457  30.465 -26.814  1.00  0.00    -0.508 OA
ATOM     27  H   UNL     1     -13.054  30.486 -25.884  1.00  0.00     0.293 HD
ENDBRANCH   8  26
TORSDOF 6
ENDMDL
MODEL 8
REMARK VINA RESULT:    -3.117      2.007      6.866
REMARK INTER + INTRA:          -4.046
REMARK INTER:                  -3.737
REMARK INTRA:                  -0.309
REMARK UNBOUND:                -0.291
REMARK SMILES O=c1c(O)c(-c2ccc(O)c(O)c2)oc2cc(O)cc(O)c12
REMARK SMILES IDX 5 1 3 2 2 3 1 4 22 5 20 6 19 7 17 8 16 9 15 10 14 11 6 12
REMARK SMILES IDX 7 13 8 14 9 15 13 16 11 17 10 18 12 20 4 22 21 24 18 26
REMARK H PARENT 10 19 12 21 4 23 21 25 18 27
REMARK Flexibility Score: inf
ROOT
ATOM      1  C   UNL     1      -7.949  17.563 -21.180  1.00  0.00     0.180 A 
ATOM      2  C   UNL     1      -7.442  18.186 -22.336  1.00  0.00     0.208 A 
ATOM      3  C   UNL     1      -7.338  19.585 -22.363  1.00  0.00     0.238 A 
ATOM      4  O   UNL     1      -6.875  20.154 -23.390  1.00  0.00    -0.285 OA
ATOM      5  C   UNL     1      -7.761  20.338 -21.248  1.00  0.00     0.111 A 
ATOM      6  C   UNL     1      -7.695  21.750 -21.197  1.00  0.00     0.134 A 
ATOM      7  C   UNL     1      -8.145  22.427 -20.053  1.00  0.00     0.093 A 
ATOM      8  C   UNL     1      -8.660  21.721 -18.963  1.00  0.00     0.123 A 
ATOM      9  C   UNL     1      -8.727  20.324 -19.009  1.00  0.00     0.094 A 
ATOM     10  C   UNL     1      -8.282  19.632 -20.138  1.00  0.00     0.146 A 
ATOM     11  O   UNL     1      -8.352  18.305 -20.153  1.00  0.00    -0.452 OA
ENDROOT
BRANCH   1  12
ATOM     12  C   UNL     1      -8.071  16.092 -21.068  1.00  0.00     0.025 A 
ATOM     13  C   UNL     1      -6.947  15.331 -20.718  1.00  0.00     0.016 A 
ATOM     14  C   UNL     1      -7.035  13.941 -20.627  1.00  0.00     0.051 A 
ATOM     15  C   UNL     1      -8.238  13.282 -20.898  1.00  0.00     0.157 A 
ATOM     16  C   UNL     1      -9.276  15.432 -21.364  1.00  0.00     0.062 A 
ATOM     17  C   UNL     1      -9.374  14.038 -21.278  1.00  0.00     0.158 A 
BRANCH  15  18
ATOM     18  O   UNL     1      -8.262  11.890 -20.781  1.00  0.00    -0.504 OA
ATOM     19  H   UNL     1      -8.603  11.397 -19.969  1.00  0.00     0.293 HD
ENDBRANCH  15  18
BRANCH  17  20
ATOM     20  O   UNL     1     -10.602  13.449 -21.583  1.00  0.00    -0.504 OA
ATOM     21  H   UNL     1     -11.070  13.545 -22.473  1.00  0.00     0.293 HD
ENDBRANCH  17  20
ENDBRANCH   1  12
BRANCH   2  22
ATOM     22  O   UNL     1      -7.074  17.421 -23.447  1.00  0.00    -0.502 OA
ATOM     23  H   UNL     1      -6.487  16.599 -23.370  1.00  0.00     0.293 HD
ENDBRANCH   2  22
BRANCH   6  24
ATOM     24  O   UNL     1      -7.188  22.486 -22.270  1.00  0.00    -0.507 OA
ATOM     25  H   UNL     1      -7.496  22.321 -23.221  1.00  0.00     0.293 HD
ENDBRANCH   6  24
BRANCH   8  26
ATOM     26  O   UNL     1      -9.100  22.416 -17.840  1.00  0.00    -0.508 OA
ATOM     27  H   UNL     1      -9.958  22.957 -17.855  1.00  0.00     0.293 HD
ENDBRANCH   8  26
TORSDOF 6
ENDMDL
