MODEL 1
REMARK VINA RESULT:    -7.625      0.000      0.000
REMARK INTER + INTRA:          -9.653
REMARK INTER:                  -9.409
REMARK INTRA:                  -0.244
REMARK UNBOUND:                -0.244
REMARK SMILES Oc1cc(O)c2cc(O)c(-c3cc(O)c(O)c(O)c3)[o+]c2c1.[Cl-]
REMARK SMILES IDX 10 1 20 2 21 3 22 4 2 5 3 6 4 7 6 8 7 9 8 10 11 11 12 12
REMARK SMILES IDX 13 13 19 14 15 15 17 16 14 17 16 19 18 21 9 23 1 25 5 27
REMARK H PARENT 14 18 16 20 18 22 9 24 1 26 5 28
REMARK Flexibility Score: inf
ROOT
ATOM      1  C   UNL     1       7.322  -1.517  -2.008  1.00  0.00     0.402 A 
ATOM      2  O   UNL     1       7.325  -2.373  -0.987  1.00  0.00    -0.202 OA
ATOM      3  C   UNL     1       7.874  -2.099   0.192  1.00  0.00     0.368 A 
ATOM      4  C   UNL     1       7.830  -3.053   1.214  1.00  0.00     0.162 A 
ATOM      5  C   UNL     1       8.401  -2.776   2.460  1.00  0.00     0.128 A 
ATOM      6  C   UNL     1       9.020  -1.539   2.686  1.00  0.00     0.093 A 
ATOM      7  C   UNL     1       9.073  -0.573   1.670  1.00  0.00     0.136 A 
ATOM      8  C   UNL     1       8.498  -0.853   0.416  1.00  0.00     0.125 A 
ATOM      9  C   UNL     1       8.527   0.069  -0.637  1.00  0.00     0.078 A 
ATOM     10  C   UNL     1       7.948  -0.261  -1.865  1.00  0.00     0.223 A 
ENDROOT
BRANCH   1  11
ATOM     11  C   UNL     1       6.671  -1.933  -3.270  1.00  0.00     0.091 A 
ATOM     12  C   UNL     1       7.457  -2.172  -4.406  1.00  0.00     0.068 A 
ATOM     13  C   UNL     1       6.876  -2.587  -5.611  1.00  0.00     0.162 A 
ATOM     14  C   UNL     1       5.286  -2.151  -3.340  1.00  0.00     0.068 A 
ATOM     15  C   UNL     1       5.476  -2.782  -5.680  1.00  0.00     0.200 A 
ATOM     16  C   UNL     1       4.692  -2.566  -4.538  1.00  0.00     0.162 A 
BRANCH  13  17
ATOM     17  O   UNL     1       7.722  -2.792  -6.703  1.00  0.00    -0.504 OA
ATOM     18  H   UNL     1       8.456  -3.485  -6.728  1.00  0.00     0.293 HD
ENDBRANCH  13  17
BRANCH  15  19
ATOM     19  O   UNL     1       4.832  -3.188  -6.852  1.00  0.00    -0.502 OA
ATOM     20  H   UNL     1       4.251  -2.585  -7.416  1.00  0.00     0.293 HD
ENDBRANCH  15  19
BRANCH  16  21
ATOM     21  O   UNL     1       3.314  -2.773  -4.602  1.00  0.00    -0.504 OA
ATOM     22  H   UNL     1       2.922  -3.618  -5.000  1.00  0.00     0.293 HD
ENDBRANCH  16  21
ENDBRANCH   1  11
BRANCH  10  23
ATOM     23  O   UNL     1       8.018   0.632  -2.935  1.00  0.00    -0.500 OA
ATOM     24  H   UNL     1       7.570   1.541  -2.898  1.00  0.00     0.294 HD
ENDBRANCH  10  23
BRANCH   5  25
ATOM     25  O   UNL     1       8.347  -3.737   3.468  1.00  0.00    -0.507 OA
ATOM     26  H   UNL     1       7.469  -4.005   3.897  1.00  0.00     0.293 HD
ENDBRANCH   5  25
BRANCH   7  27
ATOM     27  O   UNL     1       9.694   0.653   1.906  1.00  0.00    -0.507 OA
ATOM     28  H   UNL     1      10.008   0.920   2.831  1.00  0.00     0.293 HD
ENDBRANCH   7  27
TORSDOF 7
ENDMDL
MODEL 2
REMARK VINA RESULT:    -7.386      1.952      2.930
REMARK INTER + INTRA:          -9.358
REMARK INTER:                  -8.974
REMARK INTRA:                  -0.384
REMARK UNBOUND:                -0.244
REMARK SMILES Oc1cc(O)c2cc(O)c(-c3cc(O)c(O)c(O)c3)[o+]c2c1.[Cl-]
REMARK SMILES IDX 10 1 20 2 21 3 22 4 2 5 3 6 4 7 6 8 7 9 8 10 11 11 12 12
REMARK SMILES IDX 13 13 19 14 15 15 17 16 14 17 16 19 18 21 9 23 1 25 5 27
REMARK H PARENT 14 18 16 20 18 22 9 24 1 26 5 28
REMARK Flexibility Score: inf
ROOT
ATOM      1  C   UNL     1       8.256  -2.119   0.457  1.00  0.00     0.402 A 
ATOM      2  O   UNL     1       8.301  -3.309   1.053  1.00  0.00    -0.202 OA
ATOM      3  C   UNL     1       8.681  -3.476   2.317  1.00  0.00     0.368 A 
ATOM      4  C   UNL     1       8.696  -4.760   2.870  1.00  0.00     0.162 A 
ATOM      5  C   UNL     1       9.090  -4.949   4.198  1.00  0.00     0.128 A 
ATOM      6  C   UNL     1       9.470  -3.849   4.979  1.00  0.00     0.093 A 
ATOM      7  C   UNL     1       9.460  -2.555   4.437  1.00  0.00     0.136 A 
ATOM      8  C   UNL     1       9.064  -2.366   3.099  1.00  0.00     0.125 A 
ATOM      9  C   UNL     1       9.042  -1.100   2.503  1.00  0.00     0.078 A 
ATOM     10  C   UNL     1       8.647  -0.967   1.169  1.00  0.00     0.223 A 
ENDROOT
BRANCH   1  11
ATOM     11  C   UNL     1       7.808  -2.059  -0.953  1.00  0.00     0.091 A 
ATOM     12  C   UNL     1       8.728  -2.311  -1.980  1.00  0.00     0.068 A 
ATOM     13  C   UNL     1       8.335  -2.283  -3.324  1.00  0.00     0.162 A 
ATOM     14  C   UNL     1       6.467  -1.812  -1.284  1.00  0.00     0.068 A 
ATOM     15  C   UNL     1       6.985  -2.009  -3.651  1.00  0.00     0.200 A 
ATOM     16  C   UNL     1       6.059  -1.781  -2.623  1.00  0.00     0.162 A 
BRANCH  13  17
ATOM     17  O   UNL     1       9.310  -2.531  -4.292  1.00  0.00    -0.504 OA
ATOM     18  H   UNL     1       9.541  -1.892  -5.039  1.00  0.00     0.293 HD
ENDBRANCH  13  17
BRANCH  15  19
ATOM     19  O   UNL     1       6.528  -1.960  -4.970  1.00  0.00    -0.502 OA
ATOM     20  H   UNL     1       7.117  -1.765  -5.766  1.00  0.00     0.293 HD
ENDBRANCH  15  19
BRANCH  16  21
ATOM     21  O   UNL     1       4.726  -1.527  -2.944  1.00  0.00    -0.504 OA
ATOM     22  H   UNL     1       4.284  -1.952  -3.751  1.00  0.00     0.293 HD
ENDBRANCH  16  21
ENDBRANCH   1  11
BRANCH  10  23
ATOM     23  O   UNL     1       8.671   0.285   0.554  1.00  0.00    -0.500 OA
ATOM     24  H   UNL     1       9.535   0.695   0.219  1.00  0.00     0.294 HD
ENDBRANCH  10  23
BRANCH   5  25
ATOM     25  O   UNL     1       9.099  -6.236   4.734  1.00  0.00    -0.507 OA
ATOM     26  H   UNL     1       9.242  -7.052   4.151  1.00  0.00     0.293 HD
ENDBRANCH   5  25
BRANCH   7  27
ATOM     27  O   UNL     1       9.842  -1.468   5.222  1.00  0.00    -0.507 OA
ATOM     28  H   UNL     1       9.544  -0.524   5.005  1.00  0.00     0.293 HD
ENDBRANCH   7  27
TORSDOF 7
ENDMDL
MODEL 3
REMARK VINA RESULT:    -7.293      1.949      3.412
REMARK INTER + INTRA:          -9.243
REMARK INTER:                  -8.870
REMARK INTRA:                  -0.373
REMARK UNBOUND:                -0.244
REMARK SMILES Oc1cc(O)c2cc(O)c(-c3cc(O)c(O)c(O)c3)[o+]c2c1.[Cl-]
REMARK SMILES IDX 10 1 20 2 21 3 22 4 2 5 3 6 4 7 6 8 7 9 8 10 11 11 12 12
REMARK SMILES IDX 13 13 19 14 15 15 17 16 14 17 16 19 18 21 9 23 1 25 5 27
REMARK H PARENT 14 18 16 20 18 22 9 24 1 26 5 28
REMARK Flexibility Score: inf
ROOT
ATOM      1  C   UNL     1       8.342  -2.223   0.390  1.00  0.00     0.402 A 
ATOM      2  O   UNL     1       8.358  -3.394   1.023  1.00  0.00    -0.202 OA
ATOM      3  C   UNL     1       8.703  -3.527   2.301  1.00  0.00     0.368 A 
ATOM      4  C   UNL     1       8.688  -4.794   2.892  1.00  0.00     0.162 A 
ATOM      5  C   UNL     1       9.046  -4.947   4.235  1.00  0.00     0.128 A 
ATOM      6  C   UNL     1       9.419  -3.828   4.992  1.00  0.00     0.093 A 
ATOM      7  C   UNL     1       9.438  -2.551   4.411  1.00  0.00     0.136 A 
ATOM      8  C   UNL     1       9.079  -2.398   3.058  1.00  0.00     0.125 A 
ATOM      9  C   UNL     1       9.088  -1.150   2.424  1.00  0.00     0.078 A 
ATOM     10  C   UNL     1       8.729  -1.053   1.077  1.00  0.00     0.223 A 
ENDROOT
BRANCH   1  11
ATOM     11  C   UNL     1       7.932  -2.200  -1.032  1.00  0.00     0.091 A 
ATOM     12  C   UNL     1       6.608  -1.876  -1.363  1.00  0.00     0.068 A 
ATOM     13  C   UNL     1       6.190  -1.825  -2.699  1.00  0.00     0.162 A 
ATOM     14  C   UNL     1       8.853  -2.441  -2.063  1.00  0.00     0.068 A 
ATOM     15  C   UNL     1       7.120  -2.092  -3.732  1.00  0.00     0.200 A 
ATOM     16  C   UNL     1       8.450  -2.393  -3.403  1.00  0.00     0.162 A 
BRANCH  13  17
ATOM     17  O   UNL     1       4.853  -1.508  -2.950  1.00  0.00    -0.504 OA
ATOM     18  H   UNL     1       4.270  -0.977  -2.320  1.00  0.00     0.293 HD
ENDBRANCH  13  17
BRANCH  15  19
ATOM     19  O   UNL     1       6.768  -2.065  -5.084  1.00  0.00    -0.502 OA
ATOM     20  H   UNL     1       7.410  -1.848  -5.831  1.00  0.00     0.293 HD
ENDBRANCH  15  19
BRANCH  16  21
ATOM     21  O   UNL     1       9.369  -2.641  -4.421  1.00  0.00    -0.504 OA
ATOM     22  H   UNL     1      10.306  -2.969  -4.221  1.00  0.00     0.293 HD
ENDBRANCH  16  21
ENDBRANCH   1  11
BRANCH  10  23
ATOM     23  O   UNL     1       8.784   0.179   0.425  1.00  0.00    -0.500 OA
ATOM     24  H   UNL     1       8.610   1.048   0.916  1.00  0.00     0.294 HD
ENDBRANCH  10  23
BRANCH   5  25
ATOM     25  O   UNL     1       9.025  -6.216   4.810  1.00  0.00    -0.507 OA
ATOM     26  H   UNL     1       9.286  -7.041   4.282  1.00  0.00     0.293 HD
ENDBRANCH   5  25
BRANCH   7  27
ATOM     27  O   UNL     1       9.813  -1.444   5.173  1.00  0.00    -0.507 OA
ATOM     28  H   UNL     1       9.751  -0.502   4.807  1.00  0.00     0.293 HD
ENDBRANCH   7  27
TORSDOF 7
ENDMDL
MODEL 4
REMARK VINA RESULT:    -7.166      3.495      5.930
REMARK INTER + INTRA:          -9.086
REMARK INTER:                  -9.141
REMARK INTRA:                   0.055
REMARK UNBOUND:                -0.244
REMARK SMILES Oc1cc(O)c2cc(O)c(-c3cc(O)c(O)c(O)c3)[o+]c2c1.[Cl-]
REMARK SMILES IDX 10 1 20 2 21 3 22 4 2 5 3 6 4 7 6 8 7 9 8 10 11 11 12 12
REMARK SMILES IDX 13 13 19 14 15 15 17 16 14 17 16 19 18 21 9 23 1 25 5 27
REMARK H PARENT 14 18 16 20 18 22 9 24 1 26 5 28
REMARK Flexibility Score: inf
ROOT
ATOM      1  C   UNL     1       9.236  -2.985   2.637  1.00  0.00     0.402 A 
ATOM      2  O   UNL     1       9.368  -2.275   3.756  1.00  0.00    -0.202 OA
ATOM      3  C   UNL     1       9.610  -2.825   4.943  1.00  0.00     0.368 A 
ATOM      4  C   UNL     1       9.739  -2.006   6.070  1.00  0.00     0.162 A 
ATOM      5  C   UNL     1       9.996  -2.571   7.323  1.00  0.00     0.128 A 
ATOM      6  C   UNL     1      10.125  -3.960   7.451  1.00  0.00     0.093 A 
ATOM      7  C   UNL     1       9.997  -4.793   6.329  1.00  0.00     0.136 A 
ATOM      8  C   UNL     1       9.738  -4.224   5.068  1.00  0.00     0.125 A 
ATOM      9  C   UNL     1       9.592  -5.006   3.916  1.00  0.00     0.078 A 
ATOM     10  C   UNL     1       9.328  -4.391   2.689  1.00  0.00     0.223 A 
ENDROOT
BRANCH   1  11
ATOM     11  C   UNL     1       8.977  -2.259   1.373  1.00  0.00     0.091 A 
ATOM     12  C   UNL     1       9.634  -2.660   0.201  1.00  0.00     0.068 A 
ATOM     13  C   UNL     1       9.397  -2.009  -1.017  1.00  0.00     0.162 A 
ATOM     14  C   UNL     1       8.044  -1.214   1.309  1.00  0.00     0.068 A 
ATOM     15  C   UNL     1       8.472  -0.940  -1.068  1.00  0.00     0.200 A 
ATOM     16  C   UNL     1       7.797  -0.554   0.099  1.00  0.00     0.162 A 
BRANCH  13  17
ATOM     17  O   UNL     1      10.099  -2.456  -2.139  1.00  0.00    -0.504 OA
ATOM     18  H   UNL     1       9.706  -2.507  -3.068  1.00  0.00     0.293 HD
ENDBRANCH  13  17
BRANCH  15  19
ATOM     19  O   UNL     1       8.194  -0.244  -2.248  1.00  0.00    -0.502 OA
ATOM     20  H   UNL     1       7.269  -0.135  -2.636  1.00  0.00     0.293 HD
ENDBRANCH  15  19
BRANCH  16  21
ATOM     21  O   UNL     1       6.873   0.489   0.045  1.00  0.00    -0.504 OA
ATOM     22  H   UNL     1       6.273   0.625  -0.760  1.00  0.00     0.293 HD
ENDBRANCH  16  21
ENDBRANCH   1  11
BRANCH  10  23
ATOM     23  O   UNL     1       9.132  -5.167   1.546  1.00  0.00    -0.500 OA
ATOM     24  H   UNL     1       9.330  -4.807   0.619  1.00  0.00     0.294 HD
ENDBRANCH  10  23
BRANCH   5  25
ATOM     25  O   UNL     1      10.123  -1.741   8.435  1.00  0.00    -0.507 OA
ATOM     26  H   UNL     1      10.213  -0.737   8.339  1.00  0.00     0.293 HD
ENDBRANCH   5  25
BRANCH   7  27
ATOM     27  O   UNL     1      10.125  -6.175   6.469  1.00  0.00    -0.507 OA
ATOM     28  H   UNL     1      10.381  -6.598   7.353  1.00  0.00     0.293 HD
ENDBRANCH   7  27
TORSDOF 7
ENDMDL
MODEL 5
REMARK VINA RESULT:    -7.006      3.163      7.193
REMARK INTER + INTRA:          -8.889
REMARK INTER:                  -9.330
REMARK INTRA:                   0.441
REMARK UNBOUND:                -0.244
REMARK SMILES Oc1cc(O)c2cc(O)c(-c3cc(O)c(O)c(O)c3)[o+]c2c1.[Cl-]
REMARK SMILES IDX 10 1 20 2 21 3 22 4 2 5 3 6 4 7 6 8 7 9 8 10 11 11 12 12
REMARK SMILES IDX 13 13 19 14 15 15 17 16 14 17 16 19 18 21 9 23 1 25 5 27
REMARK H PARENT 14 18 16 20 18 22 9 24 1 26 5 28
REMARK Flexibility Score: inf
ROOT
ATOM      1  C   UNL     1       9.018  -1.505   1.346  1.00  0.00     0.402 A 
ATOM      2  O   UNL     1       9.006  -1.566   0.015  1.00  0.00    -0.202 OA
ATOM      3  C   UNL     1       8.753  -0.514  -0.759  1.00  0.00     0.368 A 
ATOM      4  C   UNL     1       8.764  -0.661  -2.150  1.00  0.00     0.162 A 
ATOM      5  C   UNL     1       8.502   0.436  -2.975  1.00  0.00     0.128 A 
ATOM      6  C   UNL     1       8.227   1.688  -2.408  1.00  0.00     0.093 A 
ATOM      7  C   UNL     1       8.211   1.850  -1.015  1.00  0.00     0.136 A 
ATOM      8  C   UNL     1       8.475   0.744  -0.184  1.00  0.00     0.125 A 
ATOM      9  C   UNL     1       8.465   0.844   1.211  1.00  0.00     0.078 A 
ATOM     10  C   UNL     1       8.726  -0.286   1.991  1.00  0.00     0.223 A 
ENDROOT
BRANCH   1  11
ATOM     11  C   UNL     1       9.323  -2.742   2.100  1.00  0.00     0.091 A 
ATOM     12  C   UNL     1       9.483  -2.679   3.492  1.00  0.00     0.068 A 
ATOM     13  C   UNL     1       9.752  -3.832   4.240  1.00  0.00     0.162 A 
ATOM     14  C   UNL     1       9.398  -3.989   1.460  1.00  0.00     0.068 A 
ATOM     15  C   UNL     1       9.850  -5.083   3.584  1.00  0.00     0.200 A 
ATOM     16  C   UNL     1       9.666  -5.150   2.195  1.00  0.00     0.162 A 
BRANCH  13  17
ATOM     17  O   UNL     1       9.912  -3.689   5.620  1.00  0.00    -0.504 OA
ATOM     18  H   UNL     1      10.441  -2.946   6.054  1.00  0.00     0.293 HD
ENDBRANCH  13  17
BRANCH  15  19
ATOM     19  O   UNL     1      10.122  -6.270   4.269  1.00  0.00    -0.502 OA
ATOM     20  H   UNL     1      10.567  -7.074   3.852  1.00  0.00     0.293 HD
ENDBRANCH  15  19
BRANCH  16  21
ATOM     21  O   UNL     1       9.747  -6.384   1.551  1.00  0.00    -0.504 OA
ATOM     22  H   UNL     1       8.943  -6.995   1.472  1.00  0.00     0.293 HD
ENDBRANCH  16  21
ENDBRANCH   1  11
BRANCH  10  23
ATOM     23  O   UNL     1       8.668  -0.205   3.383  1.00  0.00    -0.500 OA
ATOM     24  H   UNL     1       8.516  -1.027   3.956  1.00  0.00     0.294 HD
ENDBRANCH  10  23
BRANCH   5  25
ATOM     25  O   UNL     1       8.519   0.273  -4.359  1.00  0.00    -0.507 OA
ATOM     26  H   UNL     1       8.461  -0.645  -4.785  1.00  0.00     0.293 HD
ENDBRANCH   5  25
BRANCH   7  27
ATOM     27  O   UNL     1       7.934   3.100  -0.462  1.00  0.00    -0.507 OA
ATOM     28  H   UNL     1       8.427   3.441   0.355  1.00  0.00     0.293 HD
ENDBRANCH   7  27
TORSDOF 7
ENDMDL
MODEL 6
REMARK VINA RESULT:    -6.968      2.665      3.879
REMARK INTER + INTRA:          -8.842
REMARK INTER:                  -8.461
REMARK INTRA:                  -0.380
REMARK UNBOUND:                -0.244
REMARK SMILES Oc1cc(O)c2cc(O)c(-c3cc(O)c(O)c(O)c3)[o+]c2c1.[Cl-]
REMARK SMILES IDX 10 1 20 2 21 3 22 4 2 5 3 6 4 7 6 8 7 9 8 10 11 11 12 12
REMARK SMILES IDX 13 13 19 14 15 15 17 16 14 17 16 19 18 21 9 23 1 25 5 27
REMARK H PARENT 14 18 16 20 18 22 9 24 1 26 5 28
REMARK Flexibility Score: inf
ROOT
ATOM      1  C   UNL     1       7.646  -1.879  -4.490  1.00  0.00     0.402 A 
ATOM      2  O   UNL     1       7.417  -1.642  -3.199  1.00  0.00    -0.202 OA
ATOM      3  C   UNL     1       7.704  -0.486  -2.608  1.00  0.00     0.368 A 
ATOM      4  C   UNL     1       7.427  -0.318  -1.248  1.00  0.00     0.162 A 
ATOM      5  C   UNL     1       7.722   0.894  -0.615  1.00  0.00     0.128 A 
ATOM      6  C   UNL     1       8.296   1.943  -1.345  1.00  0.00     0.093 A 
ATOM      7  C   UNL     1       8.579   1.788  -2.711  1.00  0.00     0.136 A 
ATOM      8  C   UNL     1       8.283   0.567  -3.347  1.00  0.00     0.125 A 
ATOM      9  C   UNL     1       8.551   0.353  -4.704  1.00  0.00     0.078 A 
ATOM     10  C   UNL     1       8.244  -0.880  -5.286  1.00  0.00     0.223 A 
ENDROOT
BRANCH   1  11
ATOM     11  C   UNL     1       7.275  -3.203  -5.036  1.00  0.00     0.091 A 
ATOM     12  C   UNL     1       8.140  -4.292  -4.854  1.00  0.00     0.068 A 
ATOM     13  C   UNL     1       7.811  -5.563  -5.340  1.00  0.00     0.162 A 
ATOM     14  C   UNL     1       6.047  -3.409  -5.684  1.00  0.00     0.068 A 
ATOM     15  C   UNL     1       6.581  -5.757  -6.013  1.00  0.00     0.200 A 
ATOM     16  C   UNL     1       5.705  -4.675  -6.174  1.00  0.00     0.162 A 
BRANCH  13  17
ATOM     17  O   UNL     1       8.729  -6.595  -5.132  1.00  0.00    -0.504 OA
ATOM     18  H   UNL     1       9.112  -7.169  -5.870  1.00  0.00     0.293 HD
ENDBRANCH  13  17
BRANCH  15  19
ATOM     19  O   UNL     1       6.195  -6.998  -6.527  1.00  0.00    -0.502 OA
ATOM     20  H   UNL     1       5.330  -7.161  -7.020  1.00  0.00     0.293 HD
ENDBRANCH  15  19
BRANCH  16  21
ATOM     21  O   UNL     1       4.486  -4.869  -6.823  1.00  0.00    -0.504 OA
ATOM     22  H   UNL     1       3.935  -5.707  -6.678  1.00  0.00     0.293 HD
ENDBRANCH  16  21
ENDBRANCH   1  11
BRANCH  10  23
ATOM     23  O   UNL     1       8.555  -1.119  -6.625  1.00  0.00    -0.500 OA
ATOM     24  H   UNL     1       9.254  -1.801  -6.894  1.00  0.00     0.294 HD
ENDBRANCH  10  23
BRANCH   5  25
ATOM     25  O   UNL     1       7.439   1.045   0.741  1.00  0.00    -0.507 OA
ATOM     26  H   UNL     1       7.092   1.921   1.115  1.00  0.00     0.293 HD
ENDBRANCH   5  25
BRANCH   7  27
ATOM     27  O   UNL     1       9.152   2.839  -3.427  1.00  0.00    -0.507 OA
ATOM     28  H   UNL     1      10.034   2.731  -3.915  1.00  0.00     0.293 HD
ENDBRANCH   7  27
TORSDOF 7
ENDMDL
MODEL 7
REMARK VINA RESULT:    -6.943      1.943      7.058
REMARK INTER + INTRA:          -8.811
REMARK INTER:                  -8.439
REMARK INTRA:                  -0.372
REMARK UNBOUND:                -0.244
REMARK SMILES Oc1cc(O)c2cc(O)c(-c3cc(O)c(O)c(O)c3)[o+]c2c1.[Cl-]
REMARK SMILES IDX 10 1 20 2 21 3 22 4 2 5 3 6 4 7 6 8 7 9 8 10 11 11 12 12
REMARK SMILES IDX 13 13 19 14 15 15 17 16 14 17 16 19 18 21 9 23 1 25 5 27
REMARK H PARENT 14 18 16 20 18 22 9 24 1 26 5 28
REMARK Flexibility Score: inf
ROOT
ATOM      1  C   UNL     1       6.768  -2.106  -3.441  1.00  0.00     0.402 A 
ATOM      2  O   UNL     1       7.749  -2.813  -4.000  1.00  0.00    -0.202 OA
ATOM      3  C   UNL     1       7.575  -3.577  -5.075  1.00  0.00     0.368 A 
ATOM      4  C   UNL     1       8.660  -4.284  -5.603  1.00  0.00     0.162 A 
ATOM      5  C   UNL     1       8.491  -5.088  -6.734  1.00  0.00     0.128 A 
ATOM      6  C   UNL     1       7.232  -5.186  -7.342  1.00  0.00     0.093 A 
ATOM      7  C   UNL     1       6.135  -4.482  -6.823  1.00  0.00     0.136 A 
ATOM      8  C   UNL     1       6.306  -3.673  -5.683  1.00  0.00     0.125 A 
ATOM      9  C   UNL     1       5.246  -2.955  -5.117  1.00  0.00     0.078 A 
ATOM     10  C   UNL     1       5.467  -2.172  -3.980  1.00  0.00     0.223 A 
ENDROOT
BRANCH   1  11
ATOM     11  C   UNL     1       7.086  -1.286  -2.250  1.00  0.00     0.091 A 
ATOM     12  C   UNL     1       7.545   0.028  -2.421  1.00  0.00     0.068 A 
ATOM     13  C   UNL     1       7.837   0.839  -1.318  1.00  0.00     0.162 A 
ATOM     14  C   UNL     1       6.883  -1.774  -0.951  1.00  0.00     0.068 A 
ATOM     15  C   UNL     1       7.652   0.332  -0.010  1.00  0.00     0.200 A 
ATOM     16  C   UNL     1       7.170  -0.974   0.162  1.00  0.00     0.162 A 
BRANCH  13  17
ATOM     17  O   UNL     1       8.303   2.132  -1.567  1.00  0.00    -0.504 OA
ATOM     18  H   UNL     1       7.703   2.929  -1.724  1.00  0.00     0.293 HD
ENDBRANCH  13  17
BRANCH  15  19
ATOM     19  O   UNL     1       7.929   1.085   1.134  1.00  0.00    -0.502 OA
ATOM     20  H   UNL     1       8.837   1.136   1.571  1.00  0.00     0.293 HD
ENDBRANCH  15  19
BRANCH  16  21
ATOM     21  O   UNL     1       6.972  -1.469   1.451  1.00  0.00    -0.504 OA
ATOM     22  H   UNL     1       6.883  -0.851   2.248  1.00  0.00     0.293 HD
ENDBRANCH  16  21
ENDBRANCH   1  11
BRANCH  10  23
ATOM     23  O   UNL     1       4.405  -1.494  -3.380  1.00  0.00    -0.500 OA
ATOM     24  H   UNL     1       3.499  -1.424  -3.829  1.00  0.00     0.294 HD
ENDBRANCH  10  23
BRANCH   5  25
ATOM     25  O   UNL     1       9.583  -5.785  -7.248  1.00  0.00    -0.507 OA
ATOM     26  H   UNL     1       9.475  -6.700  -7.670  1.00  0.00     0.293 HD
ENDBRANCH   5  25
BRANCH   7  27
ATOM     27  O   UNL     1       4.886  -4.588  -7.435  1.00  0.00    -0.507 OA
ATOM     28  H   UNL     1       4.370  -3.769  -7.734  1.00  0.00     0.293 HD
ENDBRANCH   7  27
TORSDOF 7
ENDMDL
MODEL 8
REMARK VINA RESULT:    -6.888      1.782      7.143
REMARK INTER + INTRA:          -8.743
REMARK INTER:                  -8.868
REMARK INTRA:                   0.125
REMARK UNBOUND:                -0.244
REMARK SMILES Oc1cc(O)c2cc(O)c(-c3cc(O)c(O)c(O)c3)[o+]c2c1.[Cl-]
REMARK SMILES IDX 10 1 20 2 21 3 22 4 2 5 3 6 4 7 6 8 7 9 8 10 11 11 12 12
REMARK SMILES IDX 13 13 19 14 15 15 17 16 14 17 16 19 18 21 9 23 1 25 5 27
REMARK H PARENT 14 18 16 20 18 22 9 24 1 26 5 28
REMARK Flexibility Score: inf
ROOT
ATOM      1  C   UNL     1       8.217  -2.243  -1.104  1.00  0.00     0.402 A 
ATOM      2  O   UNL     1       8.902  -3.016  -1.946  1.00  0.00    -0.202 OA
ATOM      3  C   UNL     1       8.636  -3.088  -3.247  1.00  0.00     0.368 A 
ATOM      4  C   UNL     1       9.406  -3.921  -4.065  1.00  0.00     0.162 A 
ATOM      5  C   UNL     1       9.139  -4.004  -5.434  1.00  0.00     0.128 A 
ATOM      6  C   UNL     1       8.096  -3.251  -5.991  1.00  0.00     0.093 A 
ATOM      7  C   UNL     1       7.315  -2.412  -5.183  1.00  0.00     0.136 A 
ATOM      8  C   UNL     1       7.585  -2.329  -3.803  1.00  0.00     0.125 A 
ATOM      9  C   UNL     1       6.833  -1.515  -2.948  1.00  0.00     0.078 A 
ATOM     10  C   UNL     1       7.137  -1.474  -1.584  1.00  0.00     0.223 A 
ENDROOT
BRANCH   1  11
ATOM     11  C   UNL     1       8.613  -2.240   0.323  1.00  0.00     0.091 A 
ATOM     12  C   UNL     1       9.178  -3.394   0.885  1.00  0.00     0.068 A 
ATOM     13  C   UNL     1       9.582  -3.420   2.225  1.00  0.00     0.162 A 
ATOM     14  C   UNL     1       8.490  -1.087   1.113  1.00  0.00     0.068 A 
ATOM     15  C   UNL     1       9.433  -2.260   3.022  1.00  0.00     0.200 A 
ATOM     16  C   UNL     1       8.891  -1.098   2.454  1.00  0.00     0.162 A 
BRANCH  13  17
ATOM     17  O   UNL     1      10.124  -4.610   2.717  1.00  0.00    -0.504 OA
ATOM     18  H   UNL     1      11.090  -4.879   2.609  1.00  0.00     0.293 HD
ENDBRANCH  13  17
BRANCH  15  19
ATOM     19  O   UNL     1       9.810  -2.220   4.367  1.00  0.00    -0.502 OA
ATOM     20  H   UNL     1       9.170  -2.345   5.137  1.00  0.00     0.293 HD
ENDBRANCH  15  19
BRANCH  16  21
ATOM     21  O   UNL     1       8.758   0.050   3.235  1.00  0.00    -0.504 OA
ATOM     22  H   UNL     1       8.861   0.021   4.242  1.00  0.00     0.293 HD
ENDBRANCH  16  21
ENDBRANCH   1  11
BRANCH  10  23
ATOM     23  O   UNL     1       6.361  -0.705  -0.717  1.00  0.00    -0.500 OA
ATOM     24  H   UNL     1       5.348  -0.725  -0.751  1.00  0.00     0.294 HD
ENDBRANCH  10  23
BRANCH   5  25
ATOM     25  O   UNL     1       9.917  -4.839  -6.235  1.00  0.00    -0.507 OA
ATOM     26  H   UNL     1       9.512  -5.372  -6.995  1.00  0.00     0.293 HD
ENDBRANCH   5  25
BRANCH   7  27
ATOM     27  O   UNL     1       6.279  -1.668  -5.747  1.00  0.00    -0.507 OA
ATOM     28  H   UNL     1       5.661  -2.063  -6.446  1.00  0.00     0.293 HD
ENDBRANCH   7  27
TORSDOF 7
ENDMDL
MODEL 9
REMARK VINA RESULT:    -6.825      2.648      7.674
REMARK INTER + INTRA:          -8.666
REMARK INTER:                  -9.050
REMARK INTRA:                   0.384
REMARK UNBOUND:                -0.244
REMARK SMILES Oc1cc(O)c2cc(O)c(-c3cc(O)c(O)c(O)c3)[o+]c2c1.[Cl-]
REMARK SMILES IDX 10 1 20 2 21 3 22 4 2 5 3 6 4 7 6 8 7 9 8 10 11 11 12 12
REMARK SMILES IDX 13 13 19 14 15 15 17 16 14 17 16 19 18 21 9 23 1 25 5 27
REMARK H PARENT 14 18 16 20 18 22 9 24 1 26 5 28
REMARK Flexibility Score: inf
ROOT
ATOM      1  C   UNL     1       8.958  -2.004   1.961  1.00  0.00     0.402 A 
ATOM      2  O   UNL     1       8.918  -2.514   0.731  1.00  0.00    -0.202 OA
ATOM      3  C   UNL     1       8.684  -1.781  -0.354  1.00  0.00     0.368 A 
ATOM      4  C   UNL     1       8.663  -2.393  -1.611  1.00  0.00     0.162 A 
ATOM      5  C   UNL     1       8.421  -1.633  -2.760  1.00  0.00     0.128 A 
ATOM      6  C   UNL     1       8.201  -0.254  -2.652  1.00  0.00     0.093 A 
ATOM      7  C   UNL     1       8.219   0.374  -1.398  1.00  0.00     0.136 A 
ATOM      8  C   UNL     1       8.462  -0.392  -0.241  1.00  0.00     0.125 A 
ATOM      9  C   UNL     1       8.483   0.179   1.036  1.00  0.00     0.078 A 
ATOM     10  C   UNL     1       8.722  -0.627   2.153  1.00  0.00     0.223 A 
ENDROOT
BRANCH   1  11
ATOM     11  C   UNL     1       9.236  -2.921   3.090  1.00  0.00     0.091 A 
ATOM     12  C   UNL     1       9.439  -4.285   2.837  1.00  0.00     0.068 A 
ATOM     13  C   UNL     1       9.724  -5.177   3.879  1.00  0.00     0.162 A 
ATOM     14  C   UNL     1       9.358  -2.444   4.404  1.00  0.00     0.068 A 
ATOM     15  C   UNL     1       9.822  -4.692   5.205  1.00  0.00     0.200 A 
ATOM     16  C   UNL     1       9.644  -3.325   5.455  1.00  0.00     0.162 A 
BRANCH  13  17
ATOM     17  O   UNL     1       9.900  -6.523   3.551  1.00  0.00    -0.504 OA
ATOM     18  H   UNL     1       9.482  -7.288   4.059  1.00  0.00     0.293 HD
ENDBRANCH  13  17
BRANCH  15  19
ATOM     19  O   UNL     1      10.097  -5.529   6.290  1.00  0.00    -0.502 OA
ATOM     20  H   UNL     1       9.752  -6.473   6.379  1.00  0.00     0.293 HD
ENDBRANCH  15  19
BRANCH  16  21
ATOM     21  O   UNL     1       9.756  -2.845   6.760  1.00  0.00    -0.504 OA
ATOM     22  H   UNL     1       9.458  -1.909   7.009  1.00  0.00     0.293 HD
ENDBRANCH  16  21
ENDBRANCH   1  11
BRANCH  10  23
ATOM     23  O   UNL     1       8.695  -0.075   3.434  1.00  0.00    -0.500 OA
ATOM     24  H   UNL     1       7.832   0.002   3.960  1.00  0.00     0.294 HD
ENDBRANCH  10  23
BRANCH   5  25
ATOM     25  O   UNL     1       8.404  -2.260  -4.005  1.00  0.00    -0.507 OA
ATOM     26  H   UNL     1       8.443  -1.727  -4.866  1.00  0.00     0.293 HD
ENDBRANCH   5  25
BRANCH   7  27
ATOM     27  O   UNL     1       7.996   1.748  -1.303  1.00  0.00    -0.507 OA
ATOM     28  H   UNL     1       8.331   2.287  -0.513  1.00  0.00     0.293 HD
ENDBRANCH   7  27
TORSDOF 7
ENDMDL
