MODEL 1
REMARK VINA RESULT:    -5.935      0.000      0.000
REMARK INTER + INTRA:          -6.109
REMARK INTER:                  -6.109
REMARK INTRA:                   0.000
REMARK UNBOUND:                 0.000
REMARK SMILES O=c1ccc2ccc(O)cc2o1
REMARK SMILES IDX 6 1 7 2 8 3 10 4 11 5 5 6 4 7 3 8 2 9 1 10 12 11 9 12
REMARK H PARENT 9 13
REMARK Flexibility Score: inf
ROOT
ATOM      1  C   UNL     1      50.388  76.670  24.823  1.00  0.00     0.016 A 
ATOM      2  C   UNL     1      51.688  76.179  24.986  1.00  0.00     0.047 A 
ATOM      3  C   UNL     1      52.508  75.963  23.868  1.00  0.00     0.119 A 
ATOM      4  C   UNL     1      52.025  76.240  22.584  1.00  0.00     0.094 A 
ATOM      5  C   UNL     1      50.727  76.731  22.410  1.00  0.00     0.142 A 
ATOM      6  C   UNL     1      49.902  76.948  23.538  1.00  0.00     0.018 A 
ATOM      7  C   UNL     1      48.610  77.439  23.333  1.00  0.00     0.019 A 
ATOM      8  C   UNL     1      48.174  77.700  22.035  1.00  0.00     0.094 A 
ATOM      9  C   UNL     1      49.046  77.461  20.966  1.00  0.00     0.336 A 
ATOM     10  O   UNL     1      48.671  77.690  19.787  1.00  0.00    -0.246 OA
ATOM     11  O   UNL     1      50.271  76.992  21.188  1.00  0.00    -0.423 OA
ENDROOT
BRANCH   3  12
ATOM     12  O   UNL     1      53.803  75.474  24.023  1.00  0.00    -0.508 OA
ATOM     13  H   UNL     1      54.606  75.975  23.661  1.00  0.00     0.293 HD
ENDBRANCH   3  12
TORSDOF 1
ENDMDL
MODEL 2
REMARK VINA RESULT:    -5.674      0.840      4.224
REMARK INTER + INTRA:          -5.839
REMARK INTER:                  -5.839
REMARK INTRA:                   0.000
REMARK UNBOUND:                 0.000
REMARK SMILES O=c1ccc2ccc(O)cc2o1
REMARK SMILES IDX 6 1 7 2 8 3 10 4 11 5 5 6 4 7 3 8 2 9 1 10 12 11 9 12
REMARK H PARENT 9 13
REMARK Flexibility Score: inf
ROOT
ATOM      1  C   UNL     1      48.514  77.409  23.571  1.00  0.00     0.016 A 
ATOM      2  C   UNL     1      48.030  77.625  22.276  1.00  0.00     0.047 A 
ATOM      3  C   UNL     1      48.858  77.400  21.166  1.00  0.00     0.119 A 
ATOM      4  C   UNL     1      50.173  76.957  21.353  1.00  0.00     0.094 A 
ATOM      5  C   UNL     1      50.665  76.739  22.644  1.00  0.00     0.142 A 
ATOM      6  C   UNL     1      49.830  76.965  23.761  1.00  0.00     0.018 A 
ATOM      7  C   UNL     1      50.350  76.738  25.039  1.00  0.00     0.019 A 
ATOM      8  C   UNL     1      51.665  76.297  25.174  1.00  0.00     0.094 A 
ATOM      9  C   UNL     1      52.434  76.093  24.022  1.00  0.00     0.336 A 
ATOM     10  O   UNL     1      53.624  75.696  24.124  1.00  0.00    -0.246 OA
ATOM     11  O   UNL     1      51.916  76.318  22.817  1.00  0.00    -0.423 OA
ENDROOT
BRANCH   3  12
ATOM     12  O   UNL     1      48.383  77.614  19.874  1.00  0.00    -0.508 OA
ATOM     13  H   UNL     1      47.783  76.941  19.412  1.00  0.00     0.293 HD
ENDBRANCH   3  12
TORSDOF 1
ENDMDL
MODEL 3
REMARK VINA RESULT:    -5.551      2.471      3.662
REMARK INTER + INTRA:          -5.713
REMARK INTER:                  -5.713
REMARK INTRA:                   0.000
REMARK UNBOUND:                 0.000
REMARK SMILES O=c1ccc2ccc(O)cc2o1
REMARK SMILES IDX 6 1 7 2 8 3 10 4 11 5 5 6 4 7 3 8 2 9 1 10 12 11 9 12
REMARK H PARENT 9 13
REMARK Flexibility Score: inf
ROOT
ATOM      1  C   UNL     1      52.080  76.435  24.756  1.00  0.00     0.016 A 
ATOM      2  C   UNL     1      52.292  76.147  23.403  1.00  0.00     0.047 A 
ATOM      3  C   UNL     1      51.237  76.252  22.484  1.00  0.00     0.119 A 
ATOM      4  C   UNL     1      49.967  76.647  22.920  1.00  0.00     0.094 A 
ATOM      5  C   UNL     1      49.746  76.938  24.271  1.00  0.00     0.142 A 
ATOM      6  C   UNL     1      50.809  76.832  25.195  1.00  0.00     0.018 A 
ATOM      7  C   UNL     1      50.557  77.128  26.538  1.00  0.00     0.019 A 
ATOM      8  C   UNL     1      49.275  77.518  26.923  1.00  0.00     0.094 A 
ATOM      9  C   UNL     1      48.271  77.602  25.953  1.00  0.00     0.336 A 
ATOM     10  O   UNL     1      47.108  77.952  26.282  1.00  0.00    -0.246 OA
ATOM     11  O   UNL     1      48.537  77.313  24.681  1.00  0.00    -0.423 OA
ENDROOT
BRANCH   3  12
ATOM     12  O   UNL     1      51.441  75.966  21.136  1.00  0.00    -0.508 OA
ATOM     13  H   UNL     1      51.040  76.542  20.406  1.00  0.00     0.293 HD
ENDBRANCH   3  12
TORSDOF 1
ENDMDL
MODEL 4
REMARK VINA RESULT:    -5.423      2.319      3.118
REMARK INTER + INTRA:          -5.582
REMARK INTER:                  -5.582
REMARK INTRA:                   0.000
REMARK UNBOUND:                 0.000
REMARK SMILES O=c1ccc2ccc(O)cc2o1
REMARK SMILES IDX 6 1 7 2 8 3 10 4 11 5 5 6 4 7 3 8 2 9 1 10 12 11 9 12
REMARK H PARENT 9 13
REMARK Flexibility Score: inf
ROOT
ATOM      1  C   UNL     1      50.854  76.350  22.294  1.00  0.00     0.016 A 
ATOM      2  C   UNL     1      52.179  75.976  22.543  1.00  0.00     0.047 A 
ATOM      3  C   UNL     1      52.681  75.980  23.853  1.00  0.00     0.119 A 
ATOM      4  C   UNL     1      51.853  76.360  24.916  1.00  0.00     0.094 A 
ATOM      5  C   UNL     1      50.528  76.736  24.677  1.00  0.00     0.142 A 
ATOM      6  C   UNL     1      50.024  76.731  23.357  1.00  0.00     0.018 A 
ATOM      7  C   UNL     1      48.695  77.112  23.149  1.00  0.00     0.019 A 
ATOM      8  C   UNL     1      47.911  77.481  24.241  1.00  0.00     0.094 A 
ATOM      9  C   UNL     1      48.476  77.462  25.520  1.00  0.00     0.336 A 
ATOM     10  O   UNL     1      47.784  77.793  26.518  1.00  0.00    -0.246 OA
ATOM     11  O   UNL     1      49.744  77.097  25.691  1.00  0.00    -0.423 OA
ENDROOT
BRANCH   3  12
ATOM     12  O   UNL     1      53.999  75.609  24.108  1.00  0.00    -0.508 OA
ATOM     13  H   UNL     1      54.741  76.297  24.164  1.00  0.00     0.293 HD
ENDBRANCH   3  12
TORSDOF 1
ENDMDL
MODEL 5
REMARK VINA RESULT:    -5.399      2.427      4.035
REMARK INTER + INTRA:          -5.557
REMARK INTER:                  -5.557
REMARK INTRA:                   0.000
REMARK UNBOUND:                 0.000
REMARK SMILES O=c1ccc2ccc(O)cc2o1
REMARK SMILES IDX 6 1 7 2 8 3 10 4 11 5 5 6 4 7 3 8 2 9 1 10 12 11 9 12
REMARK H PARENT 9 13
REMARK Flexibility Score: inf
ROOT
ATOM      1  C   UNL     1      49.117  76.992  22.911  1.00  0.00     0.016 A 
ATOM      2  C   UNL     1      50.126  76.616  22.018  1.00  0.00     0.047 A 
ATOM      3  C   UNL     1      51.412  76.313  22.491  1.00  0.00     0.119 A 
ATOM      4  C   UNL     1      51.688  76.387  23.862  1.00  0.00     0.094 A 
ATOM      5  C   UNL     1      50.685  76.763  24.762  1.00  0.00     0.142 A 
ATOM      6  C   UNL     1      49.390  77.067  24.284  1.00  0.00     0.018 A 
ATOM      7  C   UNL     1      48.409  77.439  25.208  1.00  0.00     0.019 A 
ATOM      8  C   UNL     1      48.732  77.498  26.562  1.00  0.00     0.094 A 
ATOM      9  C   UNL     1      50.035  77.182  26.964  1.00  0.00     0.336 A 
ATOM     10  O   UNL     1      50.346  77.230  28.182  1.00  0.00    -0.246 OA
ATOM     11  O   UNL     1      50.951  76.832  26.064  1.00  0.00    -0.423 OA
ENDROOT
BRANCH   3  12
ATOM     12  O   UNL     1      52.422  75.938  21.608  1.00  0.00    -0.508 OA
ATOM     13  H   UNL     1      52.347  75.100  21.043  1.00  0.00     0.293 HD
ENDBRANCH   3  12
TORSDOF 1
ENDMDL
MODEL 6
REMARK VINA RESULT:    -4.954      2.190      4.406
REMARK INTER + INTRA:          -5.099
REMARK INTER:                  -5.099
REMARK INTRA:                   0.000
REMARK UNBOUND:                 0.000
REMARK SMILES O=c1ccc2ccc(O)cc2o1
REMARK SMILES IDX 6 1 7 2 8 3 10 4 11 5 5 6 4 7 3 8 2 9 1 10 12 11 9 12
REMARK H PARENT 9 13
REMARK Flexibility Score: inf
ROOT
ATOM      1  C   UNL     1      48.319  77.323  23.091  1.00  0.00     0.016 A 
ATOM      2  C   UNL     1      47.519  77.679  24.182  1.00  0.00     0.047 A 
ATOM      3  C   UNL     1      48.034  77.619  25.486  1.00  0.00     0.119 A 
ATOM      4  C   UNL     1      49.353  77.201  25.697  1.00  0.00     0.094 A 
ATOM      5  C   UNL     1      50.161  76.844  24.612  1.00  0.00     0.142 A 
ATOM      6  C   UNL     1      49.641  76.905  23.300  1.00  0.00     0.018 A 
ATOM      7  C   UNL     1      50.471  76.541  22.236  1.00  0.00     0.019 A 
ATOM      8  C   UNL     1      51.778  76.133  22.497  1.00  0.00     0.094 A 
ATOM      9  C   UNL     1      52.226  76.097  23.823  1.00  0.00     0.336 A 
ATOM     10  O   UNL     1      53.402  75.730  24.078  1.00  0.00    -0.246 OA
ATOM     11  O   UNL     1      51.415  76.447  24.817  1.00  0.00    -0.423 OA
ENDROOT
BRANCH   3  12
ATOM     12  O   UNL     1      47.243  77.971  26.577  1.00  0.00    -0.508 OA
ATOM     13  H   UNL     1      47.411  78.823  27.099  1.00  0.00     0.293 HD
ENDBRANCH   3  12
TORSDOF 1
ENDMDL
MODEL 7
REMARK VINA RESULT:    -4.806      2.373      3.137
REMARK INTER + INTRA:          -4.946
REMARK INTER:                  -4.946
REMARK INTRA:                   0.000
REMARK UNBOUND:                 0.000
REMARK SMILES O=c1ccc2ccc(O)cc2o1
REMARK SMILES IDX 6 1 7 2 8 3 10 4 11 5 5 6 4 7 3 8 2 9 1 10 12 11 9 12
REMARK H PARENT 9 13
REMARK Flexibility Score: inf
ROOT
ATOM      1  C   UNL     1      48.159  77.584  25.998  1.00  0.00     0.016 A 
ATOM      2  C   UNL     1      48.844  77.575  27.218  1.00  0.00     0.047 A 
ATOM      3  C   UNL     1      50.211  77.261  27.260  1.00  0.00     0.119 A 
ATOM      4  C   UNL     1      50.894  76.957  26.076  1.00  0.00     0.094 A 
ATOM      5  C   UNL     1      50.218  76.963  24.852  1.00  0.00     0.142 A 
ATOM      6  C   UNL     1      48.841  77.280  24.811  1.00  0.00     0.018 A 
ATOM      7  C   UNL     1      48.193  77.278  23.573  1.00  0.00     0.019 A 
ATOM      8  C   UNL     1      48.916  76.969  22.423  1.00  0.00     0.094 A 
ATOM      9  C   UNL     1      50.278  76.666  22.538  1.00  0.00     0.336 A 
ATOM     10  O   UNL     1      50.947  76.383  21.511  1.00  0.00    -0.246 OA
ATOM     11  O   UNL     1      50.871  76.673  23.729  1.00  0.00    -0.423 OA
ENDROOT
BRANCH   3  12
ATOM     12  O   UNL     1      50.898  77.249  28.471  1.00  0.00    -0.508 OA
ATOM     13  H   UNL     1      50.595  76.672  29.247  1.00  0.00     0.293 HD
ENDBRANCH   3  12
TORSDOF 1
ENDMDL
MODEL 8
REMARK VINA RESULT:    -4.698      3.314      4.866
REMARK INTER + INTRA:          -4.836
REMARK INTER:                  -4.836
REMARK INTRA:                   0.000
REMARK UNBOUND:                 0.000
REMARK SMILES O=c1ccc2ccc(O)cc2o1
REMARK SMILES IDX 6 1 7 2 8 3 10 4 11 5 5 6 4 7 3 8 2 9 1 10 12 11 9 12
REMARK H PARENT 9 13
REMARK Flexibility Score: inf
ROOT
ATOM      1  C   UNL     1      48.747  76.976  24.385  1.00  0.00     0.016 A 
ATOM      2  C   UNL     1      49.805  76.639  23.534  1.00  0.00     0.047 A 
ATOM      3  C   UNL     1      51.116  76.570  24.028  1.00  0.00     0.119 A 
ATOM      4  C   UNL     1      51.368  76.838  25.379  1.00  0.00     0.094 A 
ATOM      5  C   UNL     1      50.316  77.175  26.238  1.00  0.00     0.142 A 
ATOM      6  C   UNL     1      48.996  77.244  25.738  1.00  0.00     0.018 A 
ATOM      7  C   UNL     1      47.966  77.583  26.620  1.00  0.00     0.019 A 
ATOM      8  C   UNL     1      48.267  77.841  27.956  1.00  0.00     0.094 A 
ATOM      9  C   UNL     1      49.598  77.753  28.382  1.00  0.00     0.336 A 
ATOM     10  O   UNL     1      49.889  77.983  29.584  1.00  0.00    -0.246 OA
ATOM     11  O   UNL     1      50.560  77.429  27.521  1.00  0.00    -0.423 OA
ENDROOT
BRANCH   3  12
ATOM     12  O   UNL     1      52.174  76.237  23.187  1.00  0.00    -0.508 OA
ATOM     13  H   UNL     1      53.092  76.650  23.300  1.00  0.00     0.293 HD
ENDBRANCH   3  12
TORSDOF 1
ENDMDL
MODEL 9
REMARK VINA RESULT:    -4.604      6.537      8.188
REMARK INTER + INTRA:          -4.738
REMARK INTER:                  -4.738
REMARK INTRA:                   0.000
REMARK UNBOUND:                 0.000
REMARK SMILES O=c1ccc2ccc(O)cc2o1
REMARK SMILES IDX 6 1 7 2 8 3 10 4 11 5 5 6 4 7 3 8 2 9 1 10 12 11 9 12
REMARK H PARENT 9 13
REMARK Flexibility Score: inf
ROOT
ATOM      1  C   UNL     1      53.073  69.427  18.552  1.00  0.00     0.016 A 
ATOM      2  C   UNL     1      53.343  69.855  17.247  1.00  0.00     0.047 A 
ATOM      3  C   UNL     1      53.772  71.169  17.008  1.00  0.00     0.119 A 
ATOM      4  C   UNL     1      53.932  72.056  18.079  1.00  0.00     0.094 A 
ATOM      5  C   UNL     1      53.666  71.638  19.387  1.00  0.00     0.142 A 
ATOM      6  C   UNL     1      53.233  70.314  19.625  1.00  0.00     0.018 A 
ATOM      7  C   UNL     1      52.975  69.925  20.943  1.00  0.00     0.019 A 
ATOM      8  C   UNL     1      53.149  70.845  21.975  1.00  0.00     0.094 A 
ATOM      9  C   UNL     1      53.581  72.140  21.664  1.00  0.00     0.336 A 
ATOM     10  O   UNL     1      53.744  72.984  22.582  1.00  0.00    -0.246 OA
ATOM     11  O   UNL     1      53.819  72.485  20.401  1.00  0.00    -0.423 OA
ENDROOT
BRANCH   3  12
ATOM     12  O   UNL     1      54.041  71.601  15.712  1.00  0.00    -0.508 OA
ATOM     13  H   UNL     1      54.707  72.343  15.529  1.00  0.00     0.293 HD
ENDBRANCH   3  12
TORSDOF 1
ENDMDL
