MODEL 1
REMARK VINA RESULT:    -4.279      0.000      0.000
REMARK INTER + INTRA:          -8.444
REMARK INTER:                  -6.781
REMARK INTRA:                  -1.663
REMARK UNBOUND:                -1.663
REMARK SMILES CCCCCCCCCCCC(=O)[O-]
REMARK SMILES IDX 7 1 8 2 9 3 10 4 11 5 12 6 13 7 14 8 6 9 5 10 4 11 3 12 2 13
REMARK SMILES IDX 1 14
REMARK H PARENT
REMARK Flexibility Score: inf
ROOT
ATOM      1  C   UNL     1      21.077  -1.814  23.688  1.00  0.00     0.000 C 
ENDROOT
BRANCH   1   2
ATOM      2  C   UNL     1      20.926  -3.137  22.921  1.00  0.00     0.000 C 
BRANCH   2   3
ATOM      3  C   UNL     1      22.046  -3.349  21.887  1.00  0.00     0.000 C 
BRANCH   3   4
ATOM      4  C   UNL     1      21.527  -3.339  20.438  1.00  0.00     0.006 C 
BRANCH   4   5
ATOM      5  C   UNL     1      20.004  -3.175  20.316  1.00  0.00     0.053 C 
BRANCH   5   6
ATOM      6  C   UNL     1      19.358  -4.379  19.704  1.00  0.00     0.041 C 
ATOM      7  O   UNL     1      18.652  -5.148  20.409  1.00  0.00    -0.550 OA
ATOM      8  O   UNL     1      19.562  -4.671  18.361  1.00  0.00    -0.550 OA
ENDBRANCH   5   6
ENDBRANCH   4   5
ENDBRANCH   3   4
ENDBRANCH   2   3
ENDBRANCH   1   2
BRANCH   1   9
ATOM      9  C   UNL     1      20.020  -0.773  23.282  1.00  0.00     0.000 C 
BRANCH   9  10
ATOM     10  C   UNL     1      20.636   0.506  22.687  1.00  0.00    -0.000 C 
BRANCH  10  11
ATOM     11  C   UNL     1      20.827   0.485  21.158  1.00  0.00    -0.000 C 
BRANCH  11  12
ATOM     12  C   UNL     1      22.299   0.332  20.741  1.00  0.00    -0.000 C 
BRANCH  12  13
ATOM     13  C   UNL     1      23.273   0.680  21.878  1.00  0.00    -0.003 C 
ATOM     14  C   UNL     1      24.266  -0.444  22.173  1.00  0.00     0.004 C 
ENDBRANCH  12  13
ENDBRANCH  11  12
ENDBRANCH  10  11
ENDBRANCH   9  10
ENDBRANCH   1   9
TORSDOF 10
ENDMDL
MODEL 2
REMARK VINA RESULT:    -4.168      3.338      4.685
REMARK INTER + INTRA:          -8.268
REMARK INTER:                  -6.718
REMARK INTRA:                  -1.550
REMARK UNBOUND:                -1.663
REMARK SMILES CCCCCCCCCCCC(=O)[O-]
REMARK SMILES IDX 7 1 8 2 9 3 10 4 11 5 12 6 13 7 14 8 6 9 5 10 4 11 3 12 2 13
REMARK SMILES IDX 1 14
REMARK H PARENT
REMARK Flexibility Score: inf
ROOT
ATOM      1  C   UNL     1      19.700  -3.346  20.822  1.00  0.00     0.000 C 
ENDROOT
BRANCH   1   2
ATOM      2  C   UNL     1      18.386  -4.141  20.782  1.00  0.00     0.000 C 
BRANCH   2   3
ATOM      3  C   UNL     1      17.818  -4.268  19.357  1.00  0.00     0.000 C 
BRANCH   3   4
ATOM      4  C   UNL     1      16.325  -3.900  19.278  1.00  0.00     0.006 C 
BRANCH   4   5
ATOM      5  C   UNL     1      15.794  -3.732  17.845  1.00  0.00     0.053 C 
BRANCH   5   6
ATOM      6  C   UNL     1      15.368  -5.038  17.249  1.00  0.00     0.041 C 
ATOM      7  O   UNL     1      14.359  -5.642  17.699  1.00  0.00    -0.550 OA
ATOM      8  O   UNL     1      16.106  -5.605  16.218  1.00  0.00    -0.550 OA
ENDBRANCH   5   6
ENDBRANCH   4   5
ENDBRANCH   3   4
ENDBRANCH   2   3
ENDBRANCH   1   2
BRANCH   1   9
ATOM      9  C   UNL     1      19.638  -2.154  21.792  1.00  0.00     0.000 C 
BRANCH   9  10
ATOM     10  C   UNL     1      18.468  -1.199  21.495  1.00  0.00    -0.000 C 
BRANCH  10  11
ATOM     11  C   UNL     1      18.655  -0.309  20.251  1.00  0.00    -0.000 C 
BRANCH  11  12
ATOM     12  C   UNL     1      17.437  -0.325  19.313  1.00  0.00    -0.000 C 
BRANCH  12  13
ATOM     13  C   UNL     1      17.815  -0.671  17.864  1.00  0.00    -0.003 C 
ATOM     14  C   UNL     1      19.226  -1.246  17.741  1.00  0.00     0.004 C 
ENDBRANCH  12  13
ENDBRANCH  11  12
ENDBRANCH  10  11
ENDBRANCH   9  10
ENDBRANCH   1   9
TORSDOF 10
ENDMDL
MODEL 3
REMARK VINA RESULT:    -4.147      2.157      3.595
REMARK INTER + INTRA:          -8.233
REMARK INTER:                  -6.591
REMARK INTRA:                  -1.642
REMARK UNBOUND:                -1.663
REMARK SMILES CCCCCCCCCCCC(=O)[O-]
REMARK SMILES IDX 7 1 8 2 9 3 10 4 11 5 12 6 13 7 14 8 6 9 5 10 4 11 3 12 2 13
REMARK SMILES IDX 1 14
REMARK H PARENT
REMARK Flexibility Score: inf
ROOT
ATOM      1  C   UNL     1      20.369  -1.994  22.273  1.00  0.00     0.000 C 
ENDROOT
BRANCH   1   2
ATOM      2  C   UNL     1      20.277  -3.482  21.905  1.00  0.00     0.000 C 
BRANCH   2   3
ATOM      3  C   UNL     1      19.070  -3.791  21.002  1.00  0.00     0.000 C 
BRANCH   3   4
ATOM      4  C   UNL     1      19.461  -4.568  19.731  1.00  0.00     0.006 C 
BRANCH   4   5
ATOM      5  C   UNL     1      20.930  -4.396  19.316  1.00  0.00     0.053 C 
BRANCH   5   6
ATOM      6  C   UNL     1      21.170  -4.839  17.906  1.00  0.00     0.041 C 
ATOM      7  O   UNL     1      21.971  -4.205  17.169  1.00  0.00    -0.550 OA
ATOM      8  O   UNL     1      20.484  -5.934  17.395  1.00  0.00    -0.550 OA
ENDBRANCH   5   6
ENDBRANCH   4   5
ENDBRANCH   3   4
ENDBRANCH   2   3
ENDBRANCH   1   2
BRANCH   1   9
ATOM      9  C   UNL     1      21.459  -1.256  21.477  1.00  0.00     0.000 C 
BRANCH   9  10
ATOM     10  C   UNL     1      20.900  -0.485  20.267  1.00  0.00    -0.000 C 
BRANCH  10  11
ATOM     11  C   UNL     1      19.400  -0.146  20.350  1.00  0.00    -0.000 C 
BRANCH  11  12
ATOM     12  C   UNL     1      18.608  -0.630  19.123  1.00  0.00    -0.000 C 
BRANCH  12  13
ATOM     13  C   UNL     1      19.509  -1.270  18.056  1.00  0.00    -0.003 C 
ATOM     14  C   UNL     1      18.731  -2.133  17.063  1.00  0.00     0.004 C 
ENDBRANCH  12  13
ENDBRANCH  11  12
ENDBRANCH  10  11
ENDBRANCH   9  10
ENDBRANCH   1   9
TORSDOF 10
ENDMDL
MODEL 4
REMARK VINA RESULT:    -4.143      2.239      4.642
REMARK INTER + INTRA:          -8.228
REMARK INTER:                  -6.939
REMARK INTRA:                  -1.290
REMARK UNBOUND:                -1.663
REMARK SMILES CCCCCCCCCCCC(=O)[O-]
REMARK SMILES IDX 7 1 8 2 9 3 10 4 11 5 12 6 13 7 14 8 6 9 5 10 4 11 3 12 2 13
REMARK SMILES IDX 1 14
REMARK H PARENT
REMARK Flexibility Score: inf
ROOT
ATOM      1  C   UNL     1      19.683   0.469  21.213  1.00  0.00     0.000 C 
ENDROOT
BRANCH   1   2
ATOM      2  C   UNL     1      20.647   0.322  22.400  1.00  0.00     0.000 C 
BRANCH   2   3
ATOM      3  C   UNL     1      20.180  -0.742  23.410  1.00  0.00     0.000 C 
BRANCH   3   4
ATOM      4  C   UNL     1      21.238  -1.833  23.656  1.00  0.00     0.006 C 
BRANCH   4   5
ATOM      5  C   UNL     1      21.104  -3.058  22.737  1.00  0.00     0.053 C 
BRANCH   5   6
ATOM      6  C   UNL     1      22.101  -3.032  21.621  1.00  0.00     0.041 C 
ATOM      7  O   UNL     1      21.822  -3.555  20.509  1.00  0.00    -0.550 OA
ATOM      8  O   UNL     1      23.352  -2.462  21.818  1.00  0.00    -0.550 OA
ENDBRANCH   5   6
ENDBRANCH   4   5
ENDBRANCH   3   4
ENDBRANCH   2   3
ENDBRANCH   1   2
BRANCH   1   9
ATOM      9  C   UNL     1      19.996  -0.514  20.073  1.00  0.00     0.000 C 
BRANCH   9  10
ATOM     10  C   UNL     1      18.781  -1.366  19.664  1.00  0.00    -0.000 C 
BRANCH  10  11
ATOM     11  C   UNL     1      17.791  -1.675  20.803  1.00  0.00    -0.000 C 
BRANCH  11  12
ATOM     12  C   UNL     1      17.250  -3.114  20.754  1.00  0.00    -0.000 C 
BRANCH  12  13
ATOM     13  C   UNL     1      18.360  -4.164  20.916  1.00  0.00    -0.003 C 
ATOM     14  C   UNL     1      18.515  -5.058  19.684  1.00  0.00     0.004 C 
ENDBRANCH  12  13
ENDBRANCH  11  12
ENDBRANCH  10  11
ENDBRANCH   9  10
ENDBRANCH   1   9
TORSDOF 10
ENDMDL
MODEL 5
REMARK VINA RESULT:    -4.133      1.875      3.002
REMARK INTER + INTRA:          -8.212
REMARK INTER:                  -6.492
REMARK INTRA:                  -1.720
REMARK UNBOUND:                -1.663
REMARK SMILES CCCCCCCCCCCC(=O)[O-]
REMARK SMILES IDX 7 1 8 2 9 3 10 4 11 5 12 6 13 7 14 8 6 9 5 10 4 11 3 12 2 13
REMARK SMILES IDX 1 14
REMARK H PARENT
REMARK Flexibility Score: inf
ROOT
ATOM      1  C   UNL     1      21.646  -3.343  21.613  1.00  0.00     0.000 C 
ENDROOT
BRANCH   1   2
ATOM      2  C   UNL     1      20.596  -3.371  20.492  1.00  0.00     0.000 C 
BRANCH   2   3
ATOM      3  C   UNL     1      19.156  -3.372  21.034  1.00  0.00     0.000 C 
BRANCH   3   4
ATOM      4  C   UNL     1      18.338  -2.159  20.552  1.00  0.00     0.006 C 
BRANCH   4   5
ATOM      5  C   UNL     1      19.013  -1.350  19.434  1.00  0.00     0.053 C 
BRANCH   5   6
ATOM      6  C   UNL     1      18.351  -1.564  18.108  1.00  0.00     0.041 C 
ATOM      7  O   UNL     1      17.967  -0.579  17.424  1.00  0.00    -0.550 OA
ATOM      8  O   UNL     1      18.126  -2.854  17.644  1.00  0.00    -0.550 OA
ENDBRANCH   5   6
ENDBRANCH   4   5
ENDBRANCH   3   4
ENDBRANCH   2   3
ENDBRANCH   1   2
BRANCH   1   9
ATOM      9  C   UNL     1      21.013  -3.228  23.011  1.00  0.00     0.000 C 
BRANCH   9  10
ATOM     10  C   UNL     1      21.283  -1.869  23.681  1.00  0.00    -0.000 C 
BRANCH  10  11
ATOM     11  C   UNL     1      20.115  -0.867  23.614  1.00  0.00    -0.000 C 
BRANCH  11  12
ATOM     12  C   UNL     1      20.368   0.283  22.625  1.00  0.00    -0.000 C 
BRANCH  12  13
ATOM     13  C   UNL     1      21.843   0.384  22.205  1.00  0.00    -0.003 C 
ATOM     14  C   UNL     1      22.034   0.316  20.690  1.00  0.00     0.004 C 
ENDBRANCH  12  13
ENDBRANCH  11  12
ENDBRANCH  10  11
ENDBRANCH   9  10
ENDBRANCH   1   9
TORSDOF 10
ENDMDL
MODEL 6
REMARK VINA RESULT:    -4.108      3.047      5.163
REMARK INTER + INTRA:          -8.173
REMARK INTER:                  -6.575
REMARK INTRA:                  -1.598
REMARK UNBOUND:                -1.663
REMARK SMILES CCCCCCCCCCCC(=O)[O-]
REMARK SMILES IDX 7 1 8 2 9 3 10 4 11 5 12 6 13 7 14 8 6 9 5 10 4 11 3 12 2 13
REMARK SMILES IDX 1 14
REMARK H PARENT
REMARK Flexibility Score: inf
ROOT
ATOM      1  C   UNL     1      17.389  -4.408  18.887  1.00  0.00     0.000 C 
ENDROOT
BRANCH   1   2
ATOM      2  C   UNL     1      18.702  -4.822  19.569  1.00  0.00     0.000 C 
BRANCH   2   3
ATOM      3  C   UNL     1      18.728  -4.461  21.065  1.00  0.00     0.000 C 
BRANCH   3   4
ATOM      4  C   UNL     1      19.781  -3.388  21.400  1.00  0.00     0.006 C 
BRANCH   4   5
ATOM      5  C   UNL     1      21.022  -3.421  20.494  1.00  0.00     0.053 C 
BRANCH   5   6
ATOM      6  C   UNL     1      22.031  -2.387  20.888  1.00  0.00     0.041 C 
ATOM      7  O   UNL     1      23.056  -2.718  21.541  1.00  0.00    -0.550 OA
ATOM      8  O   UNL     1      21.822  -1.053  20.564  1.00  0.00    -0.550 OA
ENDBRANCH   5   6
ENDBRANCH   4   5
ENDBRANCH   3   4
ENDBRANCH   2   3
ENDBRANCH   1   2
BRANCH   1   9
ATOM      9  C   UNL     1      17.615  -3.792  17.496  1.00  0.00     0.000 C 
BRANCH   9  10
ATOM     10  C   UNL     1      18.905  -2.957  17.413  1.00  0.00    -0.000 C 
BRANCH  10  11
ATOM     11  C   UNL     1      18.695  -1.431  17.441  1.00  0.00    -0.000 C 
BRANCH  11  12
ATOM     12  C   UNL     1      18.652  -0.858  18.867  1.00  0.00    -0.000 C 
BRANCH  12  13
ATOM     13  C   UNL     1      17.217  -0.613  19.360  1.00  0.00    -0.003 C 
ATOM     14  C   UNL     1      17.025  -0.981  20.832  1.00  0.00     0.004 C 
ENDBRANCH  12  13
ENDBRANCH  11  12
ENDBRANCH  10  11
ENDBRANCH   9  10
ENDBRANCH   1   9
TORSDOF 10
ENDMDL
MODEL 7
REMARK VINA RESULT:    -4.093      1.941      3.129
REMARK INTER + INTRA:          -8.149
REMARK INTER:                  -6.710
REMARK INTRA:                  -1.438
REMARK UNBOUND:                -1.663
REMARK SMILES CCCCCCCCCCCC(=O)[O-]
REMARK SMILES IDX 7 1 8 2 9 3 10 4 11 5 12 6 13 7 14 8 6 9 5 10 4 11 3 12 2 13
REMARK SMILES IDX 1 14
REMARK H PARENT
REMARK Flexibility Score: inf
ROOT
ATOM      1  C   UNL     1      20.986  -0.842  22.621  1.00  0.00     0.000 C 
ENDROOT
BRANCH   1   2
ATOM      2  C   UNL     1      21.030  -1.995  23.634  1.00  0.00     0.000 C 
BRANCH   2   3
ATOM      3  C   UNL     1      20.978  -3.376  22.957  1.00  0.00     0.000 C 
BRANCH   3   4
ATOM      4  C   UNL     1      20.387  -3.320  21.536  1.00  0.00     0.006 C 
BRANCH   4   5
ATOM      5  C   UNL     1      19.067  -4.090  21.373  1.00  0.00     0.053 C 
BRANCH   5   6
ATOM      6  C   UNL     1      18.837  -4.514  19.956  1.00  0.00     0.041 C 
ATOM      7  O   UNL     1      19.810  -4.836  19.224  1.00  0.00    -0.550 OA
ATOM      8  O   UNL     1      17.550  -4.522  19.433  1.00  0.00    -0.550 OA
ENDBRANCH   5   6
ENDBRANCH   4   5
ENDBRANCH   3   4
ENDBRANCH   2   3
ENDBRANCH   1   2
BRANCH   1   9
ATOM      9  C   UNL     1      19.880   0.179  22.937  1.00  0.00     0.000 C 
BRANCH   9  10
ATOM     10  C   UNL     1      19.002   0.508  21.716  1.00  0.00    -0.000 C 
BRANCH  10  11
ATOM     11  C   UNL     1      17.762  -0.390  21.546  1.00  0.00    -0.000 C 
BRANCH  11  12
ATOM     12  C   UNL     1      17.615  -0.945  20.119  1.00  0.00    -0.000 C 
BRANCH  12  13
ATOM     13  C   UNL     1      18.894  -0.771  19.286  1.00  0.00    -0.003 C 
ATOM     14  C   UNL     1      18.722  -1.220  17.834  1.00  0.00     0.004 C 
ENDBRANCH  12  13
ENDBRANCH  11  12
ENDBRANCH  10  11
ENDBRANCH   9  10
ENDBRANCH   1   9
TORSDOF 10
ENDMDL
MODEL 8
REMARK VINA RESULT:    -4.092      2.319      4.077
REMARK INTER + INTRA:          -8.148
REMARK INTER:                  -6.891
REMARK INTRA:                  -1.257
REMARK UNBOUND:                -1.663
REMARK SMILES CCCCCCCCCCCC(=O)[O-]
REMARK SMILES IDX 7 1 8 2 9 3 10 4 11 5 12 6 13 7 14 8 6 9 5 10 4 11 3 12 2 13
REMARK SMILES IDX 1 14
REMARK H PARENT
REMARK Flexibility Score: inf
ROOT
ATOM      1  C   UNL     1      17.331  -3.022  20.750  1.00  0.00     0.000 C 
ENDROOT
BRANCH   1   2
ATOM      2  C   UNL     1      17.802  -1.599  21.084  1.00  0.00     0.000 C 
BRANCH   2   3
ATOM      3  C   UNL     1      17.659  -0.636  19.893  1.00  0.00     0.000 C 
BRANCH   3   4
ATOM      4  C   UNL     1      18.822  -0.753  18.890  1.00  0.00     0.006 C 
BRANCH   4   5
ATOM      5  C   UNL     1      18.402  -1.235  17.493  1.00  0.00     0.053 C 
BRANCH   5   6
ATOM      6  C   UNL     1      18.665  -2.696  17.301  1.00  0.00     0.041 C 
ATOM      7  O   UNL     1      19.839  -3.145  17.380  1.00  0.00    -0.550 OA
ATOM      8  O   UNL     1      17.617  -3.558  17.002  1.00  0.00    -0.550 OA
ENDBRANCH   5   6
ENDBRANCH   4   5
ENDBRANCH   3   4
ENDBRANCH   2   3
ENDBRANCH   1   2
BRANCH   1   9
ATOM      9  C   UNL     1      18.448  -4.067  20.911  1.00  0.00     0.000 C 
BRANCH   9  10
ATOM     10  C   UNL     1      19.832  -3.434  21.140  1.00  0.00    -0.000 C 
BRANCH  10  11
ATOM     11  C   UNL     1      20.463  -3.731  22.513  1.00  0.00    -0.000 C 
BRANCH  11  12
ATOM     12  C   UNL     1      21.382  -2.601  23.008  1.00  0.00    -0.000 C 
BRANCH  12  13
ATOM     13  C   UNL     1      20.610  -1.498  23.749  1.00  0.00    -0.003 C 
ATOM     14  C   UNL     1      20.622  -0.163  23.005  1.00  0.00     0.004 C 
ENDBRANCH  12  13
ENDBRANCH  11  12
ENDBRANCH  10  11
ENDBRANCH   9  10
ENDBRANCH   1   9
TORSDOF 10
ENDMDL
MODEL 9
REMARK VINA RESULT:    -4.078      3.005      4.514
REMARK INTER + INTRA:          -8.125
REMARK INTER:                  -6.856
REMARK INTRA:                  -1.269
REMARK UNBOUND:                -1.663
REMARK SMILES CCCCCCCCCCCC(=O)[O-]
REMARK SMILES IDX 7 1 8 2 9 3 10 4 11 5 12 6 13 7 14 8 6 9 5 10 4 11 3 12 2 13
REMARK SMILES IDX 1 14
REMARK H PARENT
REMARK Flexibility Score: inf
ROOT
ATOM      1  C   UNL     1      18.909  -0.300  20.078  1.00  0.00     0.000 C 
ENDROOT
BRANCH   1   2
ATOM      2  C   UNL     1      19.439  -1.026  18.832  1.00  0.00     0.000 C 
BRANCH   2   3
ATOM      3  C   UNL     1      18.383  -1.129  17.717  1.00  0.00     0.000 C 
BRANCH   3   4
ATOM      4  C   UNL     1      18.420  -2.484  16.986  1.00  0.00     0.006 C 
BRANCH   4   5
ATOM      5  C   UNL     1      17.655  -3.607  17.704  1.00  0.00     0.053 C 
BRANCH   5   6
ATOM      6  C   UNL     1      16.203  -3.618  17.341  1.00  0.00     0.041 C 
ATOM      7  O   UNL     1      15.448  -2.681  17.714  1.00  0.00    -0.550 OA
ATOM      8  O   UNL     1      15.675  -4.680  16.618  1.00  0.00    -0.550 OA
ENDBRANCH   5   6
ENDBRANCH   4   5
ENDBRANCH   3   4
ENDBRANCH   2   3
ENDBRANCH   1   2
BRANCH   1   9
ATOM      9  C   UNL     1      18.907  -1.197  21.327  1.00  0.00     0.000 C 
BRANCH   9  10
ATOM     10  C   UNL     1      18.282  -2.580  21.071  1.00  0.00    -0.000 C 
BRANCH  10  11
ATOM     11  C   UNL     1      19.265  -3.763  21.157  1.00  0.00    -0.000 C 
BRANCH  11  12
ATOM     12  C   UNL     1      20.668  -3.344  21.628  1.00  0.00    -0.000 C 
BRANCH  12  13
ATOM     13  C   UNL     1      21.715  -3.429  20.506  1.00  0.00    -0.003 C 
ATOM     14  C   UNL     1      21.225  -4.229  19.298  1.00  0.00     0.004 C 
ENDBRANCH  12  13
ENDBRANCH  11  12
ENDBRANCH  10  11
ENDBRANCH   9  10
ENDBRANCH   1   9
TORSDOF 10
ENDMDL
