MODEL 1
REMARK VINA RESULT:    -3.499      0.000      0.000
REMARK INTER + INTRA:         -10.718
REMARK INTER:                  -7.590
REMARK INTRA:                  -3.128
REMARK UNBOUND:                -3.128
REMARK SMILES CCCCCCCCCCCCCCCCCCCCCC(=O)[O-]
REMARK SMILES IDX 12 1 11 2 10 3 9 4 8 5 7 6 6 7 5 8 4 9 3 10 2 11 1 12 13 13
REMARK SMILES IDX 14 14 15 15 16 16 17 17 18 18 19 19 20 20 21 21 22 22 23 23
REMARK SMILES IDX 24 24
REMARK H PARENT
REMARK Flexibility Score: inf
ROOT
ATOM      1  C   UNL     1      59.397  28.914  49.524  1.00  0.00     0.000 C 
ENDROOT
BRANCH   1   2
ATOM      2  C   UNL     1      58.161  29.010  50.436  1.00  0.00     0.000 C 
BRANCH   2   3
ATOM      3  C   UNL     1      58.416  29.609  51.834  1.00  0.00     0.000 C 
BRANCH   3   4
ATOM      4  C   UNL     1      57.682  28.910  52.993  1.00  0.00    -0.000 C 
BRANCH   4   5
ATOM      5  C   UNL     1      58.318  27.561  53.374  1.00  0.00    -0.000 C 
BRANCH   5   6
ATOM      6  C   UNL     1      57.279  26.534  53.850  1.00  0.00    -0.000 C 
BRANCH   6   7
ATOM      7  C   UNL     1      56.927  25.501  52.769  1.00  0.00    -0.000 C 
BRANCH   7   8
ATOM      8  C   UNL     1      55.554  25.795  52.153  1.00  0.00    -0.000 C 
BRANCH   8   9
ATOM      9  C   UNL     1      55.666  26.034  50.641  1.00  0.00    -0.000 C 
BRANCH   9  10
ATOM     10  C   UNL     1      54.884  27.273  50.168  1.00  0.00    -0.000 C 
BRANCH  10  11
ATOM     11  C   UNL     1      54.274  28.122  51.298  1.00  0.00    -0.003 C 
ATOM     12  C   UNL     1      54.516  29.620  51.116  1.00  0.00     0.004 C 
ENDBRANCH  10  11
ENDBRANCH   9  10
ENDBRANCH   8   9
ENDBRANCH   7   8
ENDBRANCH   6   7
ENDBRANCH   5   6
ENDBRANCH   4   5
ENDBRANCH   3   4
ENDBRANCH   2   3
ENDBRANCH   1   2
BRANCH   1  13
ATOM     13  C   UNL     1      60.190  27.612  49.727  1.00  0.00     0.000 C 
BRANCH  13  14
ATOM     14  C   UNL     1      59.289  26.415  50.083  1.00  0.00     0.000 C 
BRANCH  14  15
ATOM     15  C   UNL     1      60.025  25.195  50.675  1.00  0.00     0.000 C 
BRANCH  15  16
ATOM     16  C   UNL     1      61.556  25.339  50.782  1.00  0.00     0.000 C 
BRANCH  16  17
ATOM     17  C   UNL     1      62.283  24.108  51.351  1.00  0.00     0.000 C 
BRANCH  17  18
ATOM     18  C   UNL     1      61.438  22.825  51.260  1.00  0.00     0.000 C 
BRANCH  18  19
ATOM     19  C   UNL     1      61.792  21.974  50.030  1.00  0.00     0.000 C 
BRANCH  19  20
ATOM     20  C   UNL     1      60.601  21.135  49.532  1.00  0.00     0.006 C 
BRANCH  20  21
ATOM     21  C   UNL     1      60.498  19.787  50.257  1.00  0.00     0.053 C 
BRANCH  21  22
ATOM     22  C   UNL     1      59.216  19.667  51.025  1.00  0.00     0.041 C 
ATOM     23  O   UNL     1      59.043  20.336  52.076  1.00  0.00    -0.550 OA
ATOM     24  O   UNL     1      58.228  18.788  50.597  1.00  0.00    -0.550 OA
ENDBRANCH  21  22
ENDBRANCH  20  21
ENDBRANCH  19  20
ENDBRANCH  18  19
ENDBRANCH  17  18
ENDBRANCH  16  17
ENDBRANCH  15  16
ENDBRANCH  14  15
ENDBRANCH  13  14
ENDBRANCH   1  13
TORSDOF 20
ENDMDL
MODEL 2
REMARK VINA RESULT:    -3.422      9.911     12.413
REMARK INTER + INTRA:         -10.552
REMARK INTER:                  -6.919
REMARK INTRA:                  -3.633
REMARK UNBOUND:                -3.128
REMARK SMILES CCCCCCCCCCCCCCCCCCCCCC(=O)[O-]
REMARK SMILES IDX 12 1 11 2 10 3 9 4 8 5 7 6 6 7 5 8 4 9 3 10 2 11 1 12 13 13
REMARK SMILES IDX 14 14 15 15 16 16 17 17 18 18 19 19 20 20 21 21 22 22 23 23
REMARK SMILES IDX 24 24
REMARK H PARENT
REMARK Flexibility Score: inf
ROOT
ATOM      1  C   UNL     1      64.805  34.889  60.003  1.00  0.00     0.000 C 
ENDROOT
BRANCH   1   2
ATOM      2  C   UNL     1      64.379  35.206  61.448  1.00  0.00     0.000 C 
BRANCH   2   3
ATOM      3  C   UNL     1      63.691  36.572  61.649  1.00  0.00     0.000 C 
BRANCH   3   4
ATOM      4  C   UNL     1      62.483  36.842  60.733  1.00  0.00    -0.000 C 
BRANCH   4   5
ATOM      5  C   UNL     1      61.412  35.740  60.818  1.00  0.00    -0.000 C 
BRANCH   5   6
ATOM      6  C   UNL     1      60.533  35.675  59.559  1.00  0.00    -0.000 C 
BRANCH   6   7
ATOM      7  C   UNL     1      61.260  36.176  58.301  1.00  0.00    -0.000 C 
BRANCH   7   8
ATOM      8  C   UNL     1      61.915  35.014  57.545  1.00  0.00    -0.000 C 
BRANCH   8   9
ATOM      9  C   UNL     1      60.978  34.464  56.459  1.00  0.00    -0.000 C 
BRANCH   9  10
ATOM     10  C   UNL     1      60.572  33.000  56.702  1.00  0.00    -0.000 C 
BRANCH  10  11
ATOM     11  C   UNL     1      59.300  32.813  57.548  1.00  0.00    -0.003 C 
ATOM     12  C   UNL     1      58.888  31.349  57.693  1.00  0.00     0.004 C 
ENDBRANCH  10  11
ENDBRANCH   9  10
ENDBRANCH   8   9
ENDBRANCH   7   8
ENDBRANCH   6   7
ENDBRANCH   5   6
ENDBRANCH   4   5
ENDBRANCH   3   4
ENDBRANCH   2   3
ENDBRANCH   1   2
BRANCH   1  13
ATOM     13  C   UNL     1      64.521  33.431  59.603  1.00  0.00     0.000 C 
BRANCH  13  14
ATOM     14  C   UNL     1      63.504  32.744  60.534  1.00  0.00     0.000 C 
BRANCH  14  15
ATOM     15  C   UNL     1      62.245  32.192  59.835  1.00  0.00     0.000 C 
BRANCH  15  16
ATOM     16  C   UNL     1      61.004  32.043  60.738  1.00  0.00     0.000 C 
BRANCH  16  17
ATOM     17  C   UNL     1      60.891  30.690  61.464  1.00  0.00     0.000 C 
BRANCH  17  18
ATOM     18  C   UNL     1      61.100  29.493  60.522  1.00  0.00     0.000 C 
BRANCH  18  19
ATOM     19  C   UNL     1      62.168  28.516  61.039  1.00  0.00     0.000 C 
BRANCH  19  20
ATOM     20  C   UNL     1      63.528  29.197  61.271  1.00  0.00     0.006 C 
BRANCH  20  21
ATOM     21  C   UNL     1      64.474  29.025  60.076  1.00  0.00     0.053 C 
BRANCH  21  22
ATOM     22  C   UNL     1      65.481  27.942  60.316  1.00  0.00     0.041 C 
ATOM     23  O   UNL     1      66.451  28.141  61.093  1.00  0.00    -0.550 OA
ATOM     24  O   UNL     1      65.366  26.725  59.654  1.00  0.00    -0.550 OA
ENDBRANCH  21  22
ENDBRANCH  20  21
ENDBRANCH  19  20
ENDBRANCH  18  19
ENDBRANCH  17  18
ENDBRANCH  16  17
ENDBRANCH  15  16
ENDBRANCH  14  15
ENDBRANCH  13  14
ENDBRANCH   1  13
TORSDOF 20
ENDMDL
MODEL 3
REMARK VINA RESULT:    -3.382     12.365     15.686
REMARK INTER + INTRA:         -10.464
REMARK INTER:                  -8.491
REMARK INTRA:                  -1.973
REMARK UNBOUND:                -3.128
REMARK SMILES CCCCCCCCCCCCCCCCCCCCCC(=O)[O-]
REMARK SMILES IDX 12 1 11 2 10 3 9 4 8 5 7 6 6 7 5 8 4 9 3 10 2 11 1 12 13 13
REMARK SMILES IDX 14 14 15 15 16 16 17 17 18 18 19 19 20 20 21 21 22 22 23 23
REMARK SMILES IDX 24 24
REMARK H PARENT
REMARK Flexibility Score: inf
ROOT
ATOM      1  C   UNL     1      65.237  29.714  59.722  1.00  0.00     0.000 C 
ENDROOT
BRANCH   1   2
ATOM      2  C   UNL     1      66.693  29.290  59.987  1.00  0.00     0.000 C 
BRANCH   2   3
ATOM      3  C   UNL     1      66.872  28.129  60.986  1.00  0.00     0.000 C 
BRANCH   3   4
ATOM      4  C   UNL     1      68.134  28.206  61.864  1.00  0.00    -0.000 C 
BRANCH   4   5
ATOM      5  C   UNL     1      69.423  28.381  61.043  1.00  0.00    -0.000 C 
BRANCH   5   6
ATOM      6  C   UNL     1      70.261  29.581  61.510  1.00  0.00    -0.000 C 
BRANCH   6   7
ATOM      7  C   UNL     1      71.767  29.378  61.283  1.00  0.00    -0.000 C 
BRANCH   7   8
ATOM      8  C   UNL     1      72.378  30.576  60.547  1.00  0.00    -0.000 C 
BRANCH   8   9
ATOM      9  C   UNL     1      72.692  30.226  59.085  1.00  0.00    -0.000 C 
BRANCH   9  10
ATOM     10  C   UNL     1      71.881  31.063  58.079  1.00  0.00    -0.000 C 
BRANCH  10  11
ATOM     11  C   UNL     1      70.833  31.996  58.711  1.00  0.00    -0.003 C 
ATOM     12  C   UNL     1      71.138  33.476  58.487  1.00  0.00     0.004 C 
ENDBRANCH  10  11
ENDBRANCH   9  10
ENDBRANCH   8   9
ENDBRANCH   7   8
ENDBRANCH   6   7
ENDBRANCH   5   6
ENDBRANCH   4   5
ENDBRANCH   3   4
ENDBRANCH   2   3
ENDBRANCH   1   2
BRANCH   1  13
ATOM     13  C   UNL     1      64.288  28.517  59.549  1.00  0.00     0.000 C 
BRANCH  13  14
ATOM     14  C   UNL     1      63.162  28.491  60.601  1.00  0.00     0.000 C 
BRANCH  14  15
ATOM     15  C   UNL     1      63.040  29.766  61.461  1.00  0.00     0.000 C 
BRANCH  15  16
ATOM     16  C   UNL     1      61.608  30.315  61.622  1.00  0.00     0.000 C 
BRANCH  16  17
ATOM     17  C   UNL     1      60.750  30.266  60.345  1.00  0.00     0.000 C 
BRANCH  17  18
ATOM     18  C   UNL     1      60.997  31.468  59.417  1.00  0.00     0.000 C 
BRANCH  18  19
ATOM     19  C   UNL     1      61.186  32.781  60.193  1.00  0.00     0.000 C 
BRANCH  19  20
ATOM     20  C   UNL     1      62.397  33.591  59.696  1.00  0.00     0.006 C 
BRANCH  20  21
ATOM     21  C   UNL     1      63.570  33.545  60.685  1.00  0.00     0.053 C 
BRANCH  21  22
ATOM     22  C   UNL     1      63.890  34.903  61.230  1.00  0.00     0.041 C 
ATOM     23  O   UNL     1      65.065  35.183  61.583  1.00  0.00    -0.550 OA
ATOM     24  O   UNL     1      62.882  35.848  61.381  1.00  0.00    -0.550 OA
ENDBRANCH  21  22
ENDBRANCH  20  21
ENDBRANCH  19  20
ENDBRANCH  18  19
ENDBRANCH  17  18
ENDBRANCH  16  17
ENDBRANCH  15  16
ENDBRANCH  14  15
ENDBRANCH  13  14
ENDBRANCH   1  13
TORSDOF 20
ENDMDL
MODEL 4
REMARK VINA RESULT:    -3.330      2.670      7.324
REMARK INTER + INTRA:         -10.352
REMARK INTER:                  -6.849
REMARK INTRA:                  -3.504
REMARK UNBOUND:                -3.128
REMARK SMILES CCCCCCCCCCCCCCCCCCCCCC(=O)[O-]
REMARK SMILES IDX 12 1 11 2 10 3 9 4 8 5 7 6 6 7 5 8 4 9 3 10 2 11 1 12 13 13
REMARK SMILES IDX 14 14 15 15 16 16 17 17 18 18 19 19 20 20 21 21 22 22 23 23
REMARK SMILES IDX 24 24
REMARK H PARENT
REMARK Flexibility Score: inf
ROOT
ATOM      1  C   UNL     1      59.476  24.620  53.727  1.00  0.00     0.000 C 
ENDROOT
BRANCH   1   2
ATOM      2  C   UNL     1      58.784  23.282  53.410  1.00  0.00     0.000 C 
BRANCH   2   3
ATOM      3  C   UNL     1      59.573  22.018  53.807  1.00  0.00     0.000 C 
BRANCH   3   4
ATOM      4  C   UNL     1      58.849  20.683  53.555  1.00  0.00    -0.000 C 
BRANCH   4   5
ATOM      5  C   UNL     1      59.026  20.171  52.115  1.00  0.00    -0.000 C 
BRANCH   5   6
ATOM      6  C   UNL     1      60.242  19.244  51.964  1.00  0.00    -0.000 C 
BRANCH   6   7
ATOM      7  C   UNL     1      60.851  19.287  50.554  1.00  0.00    -0.000 C 
BRANCH   7   8
ATOM      8  C   UNL     1      61.774  20.501  50.392  1.00  0.00    -0.000 C 
BRANCH   8   9
ATOM      9  C   UNL     1      61.164  21.534  49.434  1.00  0.00    -0.000 C 
BRANCH   9  10
ATOM     10  C   UNL     1      61.043  22.936  50.060  1.00  0.00    -0.000 C 
BRANCH  10  11
ATOM     11  C   UNL     1      62.003  23.206  51.232  1.00  0.00    -0.003 C 
ATOM     12  C   UNL     1      62.480  24.656  51.292  1.00  0.00     0.004 C 
ENDBRANCH  10  11
ENDBRANCH   9  10
ENDBRANCH   8   9
ENDBRANCH   7   8
ENDBRANCH   6   7
ENDBRANCH   5   6
ENDBRANCH   4   5
ENDBRANCH   3   4
ENDBRANCH   2   3
ENDBRANCH   1   2
BRANCH   1  13
ATOM     13  C   UNL     1      59.044  25.754  52.782  1.00  0.00     0.000 C 
BRANCH  13  14
ATOM     14  C   UNL     1      58.503  25.236  51.436  1.00  0.00     0.000 C 
BRANCH  14  15
ATOM     15  C   UNL     1      59.000  26.000  50.192  1.00  0.00     0.000 C 
BRANCH  15  16
ATOM     16  C   UNL     1      59.884  27.229  50.486  1.00  0.00     0.000 C 
BRANCH  16  17
ATOM     17  C   UNL     1      59.576  28.467  49.625  1.00  0.00     0.000 C 
BRANCH  17  18
ATOM     18  C   UNL     1      58.348  29.247  50.124  1.00  0.00     0.000 C 
BRANCH  18  19
ATOM     19  C   UNL     1      58.144  29.115  51.642  1.00  0.00     0.000 C 
BRANCH  19  20
ATOM     20  C   UNL     1      56.695  28.757  52.013  1.00  0.00     0.006 C 
BRANCH  20  21
ATOM     21  C   UNL     1      55.838  28.451  50.777  1.00  0.00     0.053 C 
BRANCH  21  22
ATOM     22  C   UNL     1      55.245  27.076  50.839  1.00  0.00     0.041 C 
ATOM     23  O   UNL     1      54.560  26.727  51.835  1.00  0.00    -0.550 OA
ATOM     24  O   UNL     1      55.480  26.169  49.812  1.00  0.00    -0.550 OA
ENDBRANCH  21  22
ENDBRANCH  20  21
ENDBRANCH  19  20
ENDBRANCH  18  19
ENDBRANCH  17  18
ENDBRANCH  16  17
ENDBRANCH  15  16
ENDBRANCH  14  15
ENDBRANCH  13  14
ENDBRANCH   1  13
TORSDOF 20
ENDMDL
MODEL 5
REMARK VINA RESULT:    -3.272     10.455     13.818
REMARK INTER + INTRA:         -10.227
REMARK INTER:                  -6.381
REMARK INTRA:                  -3.846
REMARK UNBOUND:                -3.128
REMARK SMILES CCCCCCCCCCCCCCCCCCCCCC(=O)[O-]
REMARK SMILES IDX 12 1 11 2 10 3 9 4 8 5 7 6 6 7 5 8 4 9 3 10 2 11 1 12 13 13
REMARK SMILES IDX 14 14 15 15 16 16 17 17 18 18 19 19 20 20 21 21 22 22 23 23
REMARK SMILES IDX 24 24
REMARK H PARENT
REMARK Flexibility Score: inf
ROOT
ATOM      1  C   UNL     1      61.506  32.832  60.565  1.00  0.00     0.000 C 
ENDROOT
BRANCH   1   2
ATOM      2  C   UNL     1      60.873  31.459  60.277  1.00  0.00     0.000 C 
BRANCH   2   3
ATOM      3  C   UNL     1      61.077  30.394  61.372  1.00  0.00     0.000 C 
BRANCH   3   4
ATOM      4  C   UNL     1      61.298  28.958  60.862  1.00  0.00    -0.000 C 
BRANCH   4   5
ATOM      5  C   UNL     1      62.775  28.529  60.907  1.00  0.00    -0.000 C 
BRANCH   5   6
ATOM      6  C   UNL     1      63.717  29.694  61.247  1.00  0.00    -0.000 C 
BRANCH   6   7
ATOM      7  C   UNL     1      64.859  29.850  60.231  1.00  0.00    -0.000 C 
BRANCH   7   8
ATOM      8  C   UNL     1      64.478  29.238  58.878  1.00  0.00    -0.000 C 
BRANCH   8   9
ATOM      9  C   UNL     1      64.191  30.332  57.838  1.00  0.00    -0.000 C 
BRANCH   9  10
ATOM     10  C   UNL     1      62.728  30.334  57.357  1.00  0.00    -0.000 C 
BRANCH  10  11
ATOM     11  C   UNL     1      62.113  28.938  57.153  1.00  0.00    -0.003 C 
ATOM     12  C   UNL     1      60.593  28.927  57.309  1.00  0.00     0.004 C 
ENDBRANCH  10  11
ENDBRANCH   9  10
ENDBRANCH   8   9
ENDBRANCH   7   8
ENDBRANCH   6   7
ENDBRANCH   5   6
ENDBRANCH   4   5
ENDBRANCH   3   4
ENDBRANCH   2   3
ENDBRANCH   1   2
BRANCH   1  13
ATOM     13  C   UNL     1      62.765  33.098  59.723  1.00  0.00     0.000 C 
BRANCH  13  14
ATOM     14  C   UNL     1      63.999  33.427  60.584  1.00  0.00     0.000 C 
BRANCH  14  15
ATOM     15  C   UNL     1      64.820  34.645  60.114  1.00  0.00     0.000 C 
BRANCH  15  16
ATOM     16  C   UNL     1      65.266  35.609  61.233  1.00  0.00     0.000 C 
BRANCH  16  17
ATOM     17  C   UNL     1      64.127  36.414  61.883  1.00  0.00     0.000 C 
BRANCH  17  18
ATOM     18  C   UNL     1      63.237  37.125  60.849  1.00  0.00     0.000 C 
BRANCH  18  19
ATOM     19  C   UNL     1      61.751  37.109  61.242  1.00  0.00     0.000 C 
BRANCH  19  20
ATOM     20  C   UNL     1      60.892  36.286  60.266  1.00  0.00     0.006 C 
BRANCH  20  21
ATOM     21  C   UNL     1      61.422  36.354  58.828  1.00  0.00     0.053 C 
BRANCH  21  22
ATOM     22  C   UNL     1      60.438  35.793  57.846  1.00  0.00     0.041 C 
ATOM     23  O   UNL     1      60.245  36.370  56.745  1.00  0.00    -0.550 OA
ATOM     24  O   UNL     1      59.709  34.653  58.165  1.00  0.00    -0.550 OA
ENDBRANCH  21  22
ENDBRANCH  20  21
ENDBRANCH  19  20
ENDBRANCH  18  19
ENDBRANCH  17  18
ENDBRANCH  16  17
ENDBRANCH  15  16
ENDBRANCH  14  15
ENDBRANCH  13  14
ENDBRANCH   1  13
TORSDOF 20
ENDMDL
MODEL 6
REMARK VINA RESULT:    -3.260      2.059      4.374
REMARK INTER + INTRA:         -10.200
REMARK INTER:                  -6.449
REMARK INTRA:                  -3.751
REMARK UNBOUND:                -3.128
REMARK SMILES CCCCCCCCCCCCCCCCCCCCCC(=O)[O-]
REMARK SMILES IDX 12 1 11 2 10 3 9 4 8 5 7 6 6 7 5 8 4 9 3 10 2 11 1 12 13 13
REMARK SMILES IDX 14 14 15 15 16 16 17 17 18 18 19 19 20 20 21 21 22 22 23 23
REMARK SMILES IDX 24 24
REMARK H PARENT
REMARK Flexibility Score: inf
ROOT
ATOM      1  C   UNL     1      57.671  28.785  50.708  1.00  0.00     0.000 C 
ENDROOT
BRANCH   1   2
ATOM      2  C   UNL     1      57.432  27.286  50.969  1.00  0.00     0.000 C 
BRANCH   2   3
ATOM      3  C   UNL     1      56.139  26.707  50.359  1.00  0.00     0.000 C 
BRANCH   3   4
ATOM      4  C   UNL     1      54.838  27.096  51.084  1.00  0.00    -0.000 C 
BRANCH   4   5
ATOM      5  C   UNL     1      54.024  28.155  50.320  1.00  0.00    -0.000 C 
BRANCH   5   6
ATOM      6  C   UNL     1      54.235  29.573  50.874  1.00  0.00    -0.000 C 
BRANCH   6   7
ATOM      7  C   UNL     1      54.004  29.658  52.391  1.00  0.00    -0.000 C 
BRANCH   7   8
ATOM      8  C   UNL     1      55.197  30.317  53.092  1.00  0.00    -0.000 C 
BRANCH   8   9
ATOM      9  C   UNL     1      55.998  29.287  53.903  1.00  0.00    -0.000 C 
BRANCH   9  10
ATOM     10  C   UNL     1      57.375  29.812  54.347  1.00  0.00    -0.000 C 
BRANCH  10  11
ATOM     11  C   UNL     1      57.778  31.168  53.740  1.00  0.00    -0.003 C 
ATOM     12  C   UNL     1      59.189  31.165  53.155  1.00  0.00     0.004 C 
ENDBRANCH  10  11
ENDBRANCH   9  10
ENDBRANCH   8   9
ENDBRANCH   7   8
ENDBRANCH   6   7
ENDBRANCH   5   6
ENDBRANCH   4   5
ENDBRANCH   3   4
ENDBRANCH   2   3
ENDBRANCH   1   2
BRANCH   1  13
ATOM     13  C   UNL     1      58.934  29.051  49.873  1.00  0.00     0.000 C 
BRANCH  13  14
ATOM     14  C   UNL     1      59.762  27.777  49.619  1.00  0.00     0.000 C 
BRANCH  14  15
ATOM     15  C   UNL     1      61.243  27.864  50.042  1.00  0.00     0.000 C 
BRANCH  15  16
ATOM     16  C   UNL     1      61.515  28.680  51.321  1.00  0.00     0.000 C 
BRANCH  16  17
ATOM     17  C   UNL     1      61.613  27.847  52.611  1.00  0.00     0.000 C 
BRANCH  17  18
ATOM     18  C   UNL     1      60.253  27.670  53.308  1.00  0.00     0.000 C 
BRANCH  18  19
ATOM     19  C   UNL     1      59.814  26.199  53.379  1.00  0.00     0.000 C 
BRANCH  19  20
ATOM     20  C   UNL     1      60.627  25.295  52.435  1.00  0.00     0.006 C 
BRANCH  20  21
ATOM     21  C   UNL     1      59.823  24.076  51.964  1.00  0.00     0.053 C 
BRANCH  21  22
ATOM     22  C   UNL     1      60.597  23.243  50.988  1.00  0.00     0.041 C 
ATOM     23  O   UNL     1      60.236  22.064  50.736  1.00  0.00    -0.550 OA
ATOM     24  O   UNL     1      61.738  23.759  50.385  1.00  0.00    -0.550 OA
ENDBRANCH  21  22
ENDBRANCH  20  21
ENDBRANCH  19  20
ENDBRANCH  18  19
ENDBRANCH  17  18
ENDBRANCH  16  17
ENDBRANCH  15  16
ENDBRANCH  14  15
ENDBRANCH  13  14
ENDBRANCH   1  13
TORSDOF 20
ENDMDL
MODEL 7
REMARK VINA RESULT:    -3.258      1.813      4.339
REMARK INTER + INTRA:         -10.196
REMARK INTER:                  -6.492
REMARK INTRA:                  -3.705
REMARK UNBOUND:                -3.128
REMARK SMILES CCCCCCCCCCCCCCCCCCCCCC(=O)[O-]
REMARK SMILES IDX 12 1 11 2 10 3 9 4 8 5 7 6 6 7 5 8 4 9 3 10 2 11 1 12 13 13
REMARK SMILES IDX 14 14 15 15 16 16 17 17 18 18 19 19 20 20 21 21 22 22 23 23
REMARK SMILES IDX 24 24
REMARK H PARENT
REMARK Flexibility Score: inf
ROOT
ATOM      1  C   UNL     1      59.245  27.118  53.920  1.00  0.00     0.000 C 
ENDROOT
BRANCH   1   2
ATOM      2  C   UNL     1      57.867  26.684  54.451  1.00  0.00     0.000 C 
BRANCH   2   3
ATOM      3  C   UNL     1      56.938  26.020  53.414  1.00  0.00     0.000 C 
BRANCH   3   4
ATOM      4  C   UNL     1      56.802  26.769  52.076  1.00  0.00    -0.000 C 
BRANCH   4   5
ATOM      5  C   UNL     1      56.361  25.854  50.921  1.00  0.00    -0.000 C 
BRANCH   5   6
ATOM      6  C   UNL     1      55.075  26.345  50.239  1.00  0.00    -0.000 C 
BRANCH   6   7
ATOM      7  C   UNL     1      54.920  27.873  50.293  1.00  0.00    -0.000 C 
BRANCH   7   8
ATOM      8  C   UNL     1      53.447  28.271  50.446  1.00  0.00    -0.000 C 
BRANCH   8   9
ATOM      9  C   UNL     1      53.313  29.631  51.146  1.00  0.00    -0.000 C 
BRANCH   9  10
ATOM     10  C   UNL     1      54.611  30.081  51.840  1.00  0.00    -0.000 C 
BRANCH  10  11
ATOM     11  C   UNL     1      54.770  29.596  53.292  1.00  0.00    -0.003 C 
ATOM     12  C   UNL     1      56.068  30.073  53.942  1.00  0.00     0.004 C 
ENDBRANCH  10  11
ENDBRANCH   9  10
ENDBRANCH   8   9
ENDBRANCH   7   8
ENDBRANCH   6   7
ENDBRANCH   5   6
ENDBRANCH   4   5
ENDBRANCH   3   4
ENDBRANCH   2   3
ENDBRANCH   1   2
BRANCH   1  13
ATOM     13  C   UNL     1      59.471  28.636  54.016  1.00  0.00     0.000 C 
BRANCH  13  14
ATOM     14  C   UNL     1      60.631  29.124  53.129  1.00  0.00     0.000 C 
BRANCH  14  15
ATOM     15  C   UNL     1      60.212  29.966  51.906  1.00  0.00     0.000 C 
BRANCH  15  16
ATOM     16  C   UNL     1      58.855  29.584  51.280  1.00  0.00     0.000 C 
BRANCH  16  17
ATOM     17  C   UNL     1      58.936  29.043  49.841  1.00  0.00     0.000 C 
BRANCH  17  18
ATOM     18  C   UNL     1      60.089  28.044  49.647  1.00  0.00     0.000 C 
BRANCH  18  19
ATOM     19  C   UNL     1      59.628  26.583  49.765  1.00  0.00     0.000 C 
BRANCH  19  20
ATOM     20  C   UNL     1      60.586  25.729  50.614  1.00  0.00     0.006 C 
BRANCH  20  21
ATOM     21  C   UNL     1      59.867  24.562  51.303  1.00  0.00     0.053 C 
BRANCH  21  22
ATOM     22  C   UNL     1      60.455  23.240  50.914  1.00  0.00     0.041 C 
ATOM     23  O   UNL     1      61.238  23.159  49.932  1.00  0.00    -0.550 OA
ATOM     24  O   UNL     1      60.110  22.090  51.616  1.00  0.00    -0.550 OA
ENDBRANCH  21  22
ENDBRANCH  20  21
ENDBRANCH  19  20
ENDBRANCH  18  19
ENDBRANCH  17  18
ENDBRANCH  16  17
ENDBRANCH  15  16
ENDBRANCH  14  15
ENDBRANCH  13  14
ENDBRANCH   1  13
TORSDOF 20
ENDMDL
MODEL 8
REMARK VINA RESULT:    -3.256      4.130      5.627
REMARK INTER + INTRA:         -10.192
REMARK INTER:                  -5.952
REMARK INTRA:                  -4.240
REMARK UNBOUND:                -3.128
REMARK SMILES CCCCCCCCCCCCCCCCCCCCCC(=O)[O-]
REMARK SMILES IDX 12 1 11 2 10 3 9 4 8 5 7 6 6 7 5 8 4 9 3 10 2 11 1 12 13 13
REMARK SMILES IDX 14 14 15 15 16 16 17 17 18 18 19 19 20 20 21 21 22 22 23 23
REMARK SMILES IDX 24 24
REMARK H PARENT
REMARK Flexibility Score: inf
ROOT
ATOM      1  C   UNL     1      59.191  29.088  53.428  1.00  0.00     0.000 C 
ENDROOT
BRANCH   1   2
ATOM      2  C   UNL     1      57.940  28.193  53.381  1.00  0.00     0.000 C 
BRANCH   2   3
ATOM      3  C   UNL     1      56.765  28.652  54.267  1.00  0.00     0.000 C 
BRANCH   3   4
ATOM      4  C   UNL     1      55.916  29.800  53.691  1.00  0.00    -0.000 C 
BRANCH   4   5
ATOM      5  C   UNL     1      54.478  29.368  53.354  1.00  0.00    -0.000 C 
BRANCH   5   6
ATOM      6  C   UNL     1      53.967  29.990  52.045  1.00  0.00    -0.000 C 
BRANCH   6   7
ATOM      7  C   UNL     1      54.690  29.441  50.805  1.00  0.00    -0.000 C 
BRANCH   7   8
ATOM      8  C   UNL     1      54.448  27.936  50.649  1.00  0.00    -0.000 C 
BRANCH   8   9
ATOM      9  C   UNL     1      55.767  27.186  50.412  1.00  0.00    -0.000 C 
BRANCH   9  10
ATOM     10  C   UNL     1      55.924  25.946  51.311  1.00  0.00    -0.000 C 
BRANCH  10  11
ATOM     11  C   UNL     1      54.870  25.818  52.425  1.00  0.00    -0.003 C 
ATOM     12  C   UNL     1      55.438  25.245  53.722  1.00  0.00     0.004 C 
ENDBRANCH  10  11
ENDBRANCH   9  10
ENDBRANCH   8   9
ENDBRANCH   7   8
ENDBRANCH   6   7
ENDBRANCH   5   6
ENDBRANCH   4   5
ENDBRANCH   3   4
ENDBRANCH   2   3
ENDBRANCH   1   2
BRANCH   1  13
ATOM     13  C   UNL     1      59.437  29.841  52.110  1.00  0.00     0.000 C 
BRANCH  13  14
ATOM     14  C   UNL     1      58.458  29.428  50.995  1.00  0.00     0.000 C 
BRANCH  14  15
ATOM     15  C   UNL     1      59.092  29.237  49.602  1.00  0.00     0.000 C 
BRANCH  15  16
ATOM     16  C   UNL     1      59.994  27.995  49.455  1.00  0.00     0.000 C 
BRANCH  16  17
ATOM     17  C   UNL     1      59.373  26.682  49.964  1.00  0.00     0.000 C 
BRANCH  17  18
ATOM     18  C   UNL     1      60.184  26.046  51.106  1.00  0.00     0.000 C 
BRANCH  18  19
ATOM     19  C   UNL     1      61.677  26.404  51.039  1.00  0.00     0.000 C 
BRANCH  19  20
ATOM     20  C   UNL     1      62.149  27.197  52.271  1.00  0.00     0.006 C 
BRANCH  20  21
ATOM     21  C   UNL     1      63.398  28.038  51.975  1.00  0.00     0.053 C 
BRANCH  21  22
ATOM     22  C   UNL     1      63.043  29.445  51.600  1.00  0.00     0.041 C 
ATOM     23  O   UNL     1      62.891  29.759  50.392  1.00  0.00    -0.550 OA
ATOM     24  O   UNL     1      62.916  30.417  52.586  1.00  0.00    -0.550 OA
ENDBRANCH  21  22
ENDBRANCH  20  21
ENDBRANCH  19  20
ENDBRANCH  18  19
ENDBRANCH  17  18
ENDBRANCH  16  17
ENDBRANCH  15  16
ENDBRANCH  14  15
ENDBRANCH  13  14
ENDBRANCH   1  13
TORSDOF 20
ENDMDL
MODEL 9
REMARK VINA RESULT:    -3.237      4.181      8.188
REMARK INTER + INTRA:         -10.150
REMARK INTER:                  -6.496
REMARK INTRA:                  -3.654
REMARK UNBOUND:                -3.128
REMARK SMILES CCCCCCCCCCCCCCCCCCCCCC(=O)[O-]
REMARK SMILES IDX 12 1 11 2 10 3 9 4 8 5 7 6 6 7 5 8 4 9 3 10 2 11 1 12 13 13
REMARK SMILES IDX 14 14 15 15 16 16 17 17 18 18 19 19 20 20 21 21 22 22 23 23
REMARK SMILES IDX 24 24
REMARK H PARENT
REMARK Flexibility Score: inf
ROOT
ATOM      1  C   UNL     1      57.115  28.007  52.009  1.00  0.00     0.000 C 
ENDROOT
BRANCH   1   2
ATOM      2  C   UNL     1      57.274  28.777  50.685  1.00  0.00     0.000 C 
BRANCH   2   3
ATOM      3  C   UNL     1      58.674  29.371  50.430  1.00  0.00     0.000 C 
BRANCH   3   4
ATOM      4  C   UNL     1      59.850  28.403  50.655  1.00  0.00    -0.000 C 
BRANCH   4   5
ATOM      5  C   UNL     1      59.834  27.209  49.684  1.00  0.00    -0.000 C 
BRANCH   5   6
ATOM      6  C   UNL     1      60.031  25.864  50.401  1.00  0.00    -0.000 C 
BRANCH   6   7
ATOM      7  C   UNL     1      60.316  26.028  51.902  1.00  0.00    -0.000 C 
BRANCH   7   8
ATOM      8  C   UNL     1      61.778  25.698  52.224  1.00  0.00    -0.000 C 
BRANCH   8   9
ATOM      9  C   UNL     1      62.476  26.885  52.903  1.00  0.00    -0.000 C 
BRANCH   9  10
ATOM     10  C   UNL     1      63.423  27.646  51.958  1.00  0.00    -0.000 C 
BRANCH  10  11
ATOM     11  C   UNL     1      63.616  26.997  50.575  1.00  0.00    -0.003 C 
ATOM     12  C   UNL     1      63.455  27.987  49.423  1.00  0.00     0.004 C 
ENDBRANCH  10  11
ENDBRANCH   9  10
ENDBRANCH   8   9
ENDBRANCH   7   8
ENDBRANCH   6   7
ENDBRANCH   5   6
ENDBRANCH   4   5
ENDBRANCH   3   4
ENDBRANCH   2   3
ENDBRANCH   1   2
BRANCH   1  13
ATOM     13  C   UNL     1      56.409  26.652  51.831  1.00  0.00     0.000 C 
BRANCH  13  14
ATOM     14  C   UNL     1      56.241  26.257  50.352  1.00  0.00     0.000 C 
BRANCH  14  15
ATOM     15  C   UNL     1      54.799  25.919  49.924  1.00  0.00     0.000 C 
BRANCH  15  16
ATOM     16  C   UNL     1      53.690  26.612  50.742  1.00  0.00     0.000 C 
BRANCH  16  17
ATOM     17  C   UNL     1      53.022  27.808  50.040  1.00  0.00     0.000 C 
BRANCH  17  18
ATOM     18  C   UNL     1      53.695  29.148  50.380  1.00  0.00     0.000 C 
BRANCH  18  19
ATOM     19  C   UNL     1      53.278  29.684  51.758  1.00  0.00     0.000 C 
BRANCH  19  20
ATOM     20  C   UNL     1      54.354  30.584  52.391  1.00  0.00     0.006 C 
BRANCH  20  21
ATOM     21  C   UNL     1      54.738  30.123  53.804  1.00  0.00     0.053 C 
BRANCH  21  22
ATOM     22  C   UNL     1      55.953  30.839  54.310  1.00  0.00     0.041 C 
ATOM     23  O   UNL     1      56.118  32.061  54.061  1.00  0.00    -0.550 OA
ATOM     24  O   UNL     1      56.921  30.145  55.027  1.00  0.00    -0.550 OA
ENDBRANCH  21  22
ENDBRANCH  20  21
ENDBRANCH  19  20
ENDBRANCH  18  19
ENDBRANCH  17  18
ENDBRANCH  16  17
ENDBRANCH  15  16
ENDBRANCH  14  15
ENDBRANCH  13  14
ENDBRANCH   1  13
TORSDOF 20
ENDMDL
