MODEL 1
REMARK VINA RESULT:    -3.838      0.000      0.000
REMARK INTER + INTRA:          -6.819
REMARK INTER:                  -6.082
REMARK INTRA:                  -0.737
REMARK UNBOUND:                -0.737
REMARK SMILES CCCCCCCCCCCC(=O)[O-]
REMARK SMILES IDX 7 1 8 2 9 3 10 4 11 5 12 6 13 7 14 8 6 9 5 10 4 11 3 12 2 13
REMARK SMILES IDX 1 14
REMARK H PARENT
REMARK Flexibility Score: inf
ROOT
ATOM      1  C   UNL     1     121.026 111.447 115.333  1.00  0.00     0.000 C 
ENDROOT
BRANCH   1   2
ATOM      2  C   UNL     1     120.873 112.635 114.363  1.00  0.00     0.000 C 
BRANCH   2   3
ATOM      3  C   UNL     1     120.304 112.277 112.979  1.00  0.00     0.000 C 
BRANCH   3   4
ATOM      4  C   UNL     1     120.344 110.769 112.689  1.00  0.00     0.006 C 
BRANCH   4   5
ATOM      5  C   UNL     1     119.180 110.354 111.784  1.00  0.00     0.053 C 
BRANCH   5   6
ATOM      6  C   UNL     1     119.640 110.224 110.366  1.00  0.00     0.041 C 
ATOM      7  O   UNL     1     119.282 111.069 109.504  1.00  0.00    -0.550 OA
ATOM      8  O   UNL     1     120.504 109.197 110.007  1.00  0.00    -0.550 OA
ENDBRANCH   5   6
ENDBRANCH   4   5
ENDBRANCH   3   4
ENDBRANCH   2   3
ENDBRANCH   1   2
BRANCH   1   9
ATOM      9  C   UNL     1     121.014 111.817 116.831  1.00  0.00     0.000 C 
BRANCH   9  10
ATOM     10  C   UNL     1     119.650 111.659 117.528  1.00  0.00    -0.000 C 
BRANCH  10  11
ATOM     11  C   UNL     1     119.002 112.978 117.988  1.00  0.00    -0.000 C 
BRANCH  11  12
ATOM     12  C   UNL     1     117.610 113.235 117.371  1.00  0.00    -0.000 C 
BRANCH  12  13
ATOM     13  C   UNL     1     117.487 114.641 116.767  1.00  0.00    -0.003 C 
ATOM     14  C   UNL     1     118.409 114.806 115.563  1.00  0.00     0.004 C 
ENDBRANCH  12  13
ENDBRANCH  11  12
ENDBRANCH  10  11
ENDBRANCH   9  10
ENDBRANCH   1   9
TORSDOF 10
ENDMDL
MODEL 2
REMARK VINA RESULT:    -3.771      6.118      8.925
REMARK INTER + INTRA:          -6.713
REMARK INTER:                  -6.219
REMARK INTRA:                  -0.495
REMARK UNBOUND:                -0.737
REMARK SMILES CCCCCCCCCCCC(=O)[O-]
REMARK SMILES IDX 7 1 8 2 9 3 10 4 11 5 12 6 13 7 14 8 6 9 5 10 4 11 3 12 2 13
REMARK SMILES IDX 1 14
REMARK H PARENT
REMARK Flexibility Score: inf
ROOT
ATOM      1  C   UNL     1     121.499 113.386 107.469  1.00  0.00     0.000 C 
ENDROOT
BRANCH   1   2
ATOM      2  C   UNL     1     120.843 113.472 106.076  1.00  0.00     0.000 C 
BRANCH   2   3
ATOM      3  C   UNL     1     120.241 114.843 105.722  1.00  0.00     0.000 C 
BRANCH   3   4
ATOM      4  C   UNL     1     121.291 115.963 105.683  1.00  0.00     0.006 C 
BRANCH   4   5
ATOM      5  C   UNL     1     121.361 116.599 104.291  1.00  0.00     0.053 C 
BRANCH   5   6
ATOM      6  C   UNL     1     120.566 117.867 104.255  1.00  0.00     0.041 C 
ATOM      7  O   UNL     1     119.309 117.825 104.242  1.00  0.00    -0.550 OA
ATOM      8  O   UNL     1     121.216 119.095 104.284  1.00  0.00    -0.550 OA
ENDBRANCH   5   6
ENDBRANCH   4   5
ENDBRANCH   3   4
ENDBRANCH   2   3
ENDBRANCH   1   2
BRANCH   1   9
ATOM      9  C   UNL     1     121.377 112.017 108.168  1.00  0.00     0.000 C 
BRANCH   9  10
ATOM     10  C   UNL     1     120.064 111.260 107.891  1.00  0.00    -0.000 C 
BRANCH  10  11
ATOM     11  C   UNL     1     120.083 109.768 108.274  1.00  0.00    -0.000 C 
BRANCH  11  12
ATOM     12  C   UNL     1     120.138 109.519 109.797  1.00  0.00    -0.000 C 
BRANCH  12  13
ATOM     13  C   UNL     1     119.026 110.261 110.553  1.00  0.00    -0.003 C 
ATOM     14  C   UNL     1     119.536 110.809 111.883  1.00  0.00     0.004 C 
ENDBRANCH  12  13
ENDBRANCH  11  12
ENDBRANCH  10  11
ENDBRANCH   9  10
ENDBRANCH   1   9
TORSDOF 10
ENDMDL
MODEL 3
REMARK VINA RESULT:    -3.764      3.928      8.690
REMARK INTER + INTRA:          -6.702
REMARK INTER:                  -6.263
REMARK INTRA:                  -0.439
REMARK UNBOUND:                -0.737
REMARK SMILES CCCCCCCCCCCC(=O)[O-]
REMARK SMILES IDX 7 1 8 2 9 3 10 4 11 5 12 6 13 7 14 8 6 9 5 10 4 11 3 12 2 13
REMARK SMILES IDX 1 14
REMARK H PARENT
REMARK Flexibility Score: inf
ROOT
ATOM      1  C   UNL     1     119.672 111.331 109.259  1.00  0.00     0.000 C 
ENDROOT
BRANCH   1   2
ATOM      2  C   UNL     1     119.301 110.126 110.145  1.00  0.00     0.000 C 
BRANCH   2   3
ATOM      3  C   UNL     1     119.237 110.421 111.654  1.00  0.00     0.000 C 
BRANCH   3   4
ATOM      4  C   UNL     1     120.474 111.173 112.166  1.00  0.00     0.006 C 
BRANCH   4   5
ATOM      5  C   UNL     1     120.965 110.580 113.491  1.00  0.00     0.053 C 
BRANCH   5   6
ATOM      6  C   UNL     1     120.944 111.617 114.569  1.00  0.00     0.041 C 
ATOM      7  O   UNL     1     121.037 112.838 114.276  1.00  0.00    -0.550 OA
ATOM      8  O   UNL     1     120.771 111.238 115.894  1.00  0.00    -0.550 OA
ENDBRANCH   5   6
ENDBRANCH   4   5
ENDBRANCH   3   4
ENDBRANCH   2   3
ENDBRANCH   1   2
BRANCH   1   9
ATOM      9  C   UNL     1     119.970 110.994 107.783  1.00  0.00     0.000 C 
BRANCH   9  10
ATOM     10  C   UNL     1     120.072 109.490 107.468  1.00  0.00    -0.000 C 
BRANCH  10  11
ATOM     11  C   UNL     1     121.414 109.047 106.855  1.00  0.00    -0.000 C 
BRANCH  11  12
ATOM     12  C   UNL     1     121.407 107.595 106.329  1.00  0.00    -0.000 C 
BRANCH  12  13
ATOM     13  C   UNL     1     120.129 107.261 105.548  1.00  0.00    -0.003 C 
ATOM     14  C   UNL     1     120.457 106.749 104.148  1.00  0.00     0.004 C 
ENDBRANCH  12  13
ENDBRANCH  11  12
ENDBRANCH  10  11
ENDBRANCH   9  10
ENDBRANCH   1   9
TORSDOF 10
ENDMDL
MODEL 4
REMARK VINA RESULT:    -3.760      3.964      7.199
REMARK INTER + INTRA:          -6.695
REMARK INTER:                  -5.523
REMARK INTRA:                  -1.173
REMARK UNBOUND:                -0.737
REMARK SMILES CCCCCCCCCCCC(=O)[O-]
REMARK SMILES IDX 7 1 8 2 9 3 10 4 11 5 12 6 13 7 14 8 6 9 5 10 4 11 3 12 2 13
REMARK SMILES IDX 1 14
REMARK H PARENT
REMARK Flexibility Score: inf
ROOT
ATOM      1  C   UNL     1     121.704 111.491 107.373  1.00  0.00     0.000 C 
ENDROOT
BRANCH   1   2
ATOM      2  C   UNL     1     122.379 110.323 106.627  1.00  0.00     0.000 C 
BRANCH   2   3
ATOM      3  C   UNL     1     122.778 109.129 107.511  1.00  0.00     0.000 C 
BRANCH   3   4
ATOM      4  C   UNL     1     121.920 107.882 107.253  1.00  0.00     0.006 C 
BRANCH   4   5
ATOM      5  C   UNL     1     121.184 107.991 105.914  1.00  0.00     0.053 C 
BRANCH   5   6
ATOM      6  C   UNL     1     119.832 107.356 106.006  1.00  0.00     0.041 C 
ATOM      7  O   UNL     1     119.670 106.159 105.653  1.00  0.00    -0.550 OA
ATOM      8  O   UNL     1     118.762 108.073 106.527  1.00  0.00    -0.550 OA
ENDBRANCH   5   6
ENDBRANCH   4   5
ENDBRANCH   3   4
ENDBRANCH   2   3
ENDBRANCH   1   2
BRANCH   1   9
ATOM      9  C   UNL     1     120.172 111.383 107.512  1.00  0.00     0.000 C 
BRANCH   9  10
ATOM     10  C   UNL     1     119.659 111.234 108.957  1.00  0.00    -0.000 C 
BRANCH  10  11
ATOM     11  C   UNL     1     119.708 109.799 109.516  1.00  0.00    -0.000 C 
BRANCH  11  12
ATOM     12  C   UNL     1     120.552 109.661 110.801  1.00  0.00    -0.000 C 
BRANCH  12  13
ATOM     13  C   UNL     1     119.814 110.173 112.045  1.00  0.00    -0.003 C 
ATOM     14  C   UNL     1     120.596 111.292 112.728  1.00  0.00     0.004 C 
ENDBRANCH  12  13
ENDBRANCH  11  12
ENDBRANCH  10  11
ENDBRANCH   9  10
ENDBRANCH   1   9
TORSDOF 10
ENDMDL
MODEL 5
REMARK VINA RESULT:    -3.759      4.493      6.397
REMARK INTER + INTRA:          -6.694
REMARK INTER:                  -5.429
REMARK INTRA:                  -1.264
REMARK UNBOUND:                -0.737
REMARK SMILES CCCCCCCCCCCC(=O)[O-]
REMARK SMILES IDX 7 1 8 2 9 3 10 4 11 5 12 6 13 7 14 8 6 9 5 10 4 11 3 12 2 13
REMARK SMILES IDX 1 14
REMARK H PARENT
REMARK Flexibility Score: inf
ROOT
ATOM      1  C   UNL     1     120.207 109.588 109.467  1.00  0.00     0.000 C 
ENDROOT
BRANCH   1   2
ATOM      2  C   UNL     1     120.467 110.064 108.024  1.00  0.00     0.000 C 
BRANCH   2   3
ATOM      3  C   UNL     1     119.978 111.489 107.709  1.00  0.00     0.000 C 
BRANCH   3   4
ATOM      4  C   UNL     1     121.130 112.490 107.538  1.00  0.00     0.006 C 
BRANCH   4   5
ATOM      5  C   UNL     1     121.064 113.170 106.166  1.00  0.00     0.053 C 
BRANCH   5   6
ATOM      6  C   UNL     1     120.981 114.656 106.322  1.00  0.00     0.041 C 
ATOM      7  O   UNL     1     121.905 115.285 106.900  1.00  0.00    -0.550 OA
ATOM      8  O   UNL     1     119.904 115.351 105.784  1.00  0.00    -0.550 OA
ENDBRANCH   5   6
ENDBRANCH   4   5
ENDBRANCH   3   4
ENDBRANCH   2   3
ENDBRANCH   1   2
BRANCH   1   9
ATOM      9  C   UNL     1     119.059 110.312 110.200  1.00  0.00     0.000 C 
BRANCH   9  10
ATOM     10  C   UNL     1     119.188 110.348 111.734  1.00  0.00    -0.000 C 
BRANCH  10  11
ATOM     11  C   UNL     1     120.149 111.423 112.277  1.00  0.00    -0.000 C 
BRANCH  11  12
ATOM     12  C   UNL     1     120.187 112.710 111.425  1.00  0.00    -0.000 C 
BRANCH  12  13
ATOM     13  C   UNL     1     121.617 113.217 111.192  1.00  0.00    -0.003 C 
ATOM     14  C   UNL     1     122.581 112.057 110.957  1.00  0.00     0.004 C 
ENDBRANCH  12  13
ENDBRANCH  11  12
ENDBRANCH  10  11
ENDBRANCH   9  10
ENDBRANCH   1   9
TORSDOF 10
ENDMDL
MODEL 6
REMARK VINA RESULT:    -3.720      1.582      3.233
REMARK INTER + INTRA:          -6.631
REMARK INTER:                  -5.849
REMARK INTRA:                  -0.782
REMARK UNBOUND:                -0.737
REMARK SMILES CCCCCCCCCCCC(=O)[O-]
REMARK SMILES IDX 7 1 8 2 9 3 10 4 11 5 12 6 13 7 14 8 6 9 5 10 4 11 3 12 2 13
REMARK SMILES IDX 1 14
REMARK H PARENT
REMARK Flexibility Score: inf
ROOT
ATOM      1  C   UNL     1     120.761 111.102 113.298  1.00  0.00     0.000 C 
ENDROOT
BRANCH   1   2
ATOM      2  C   UNL     1     120.346 109.988 112.316  1.00  0.00     0.000 C 
BRANCH   2   3
ATOM      3  C   UNL     1     119.063 110.269 111.515  1.00  0.00     0.000 C 
BRANCH   3   4
ATOM      4  C   UNL     1     119.256 110.099 110.001  1.00  0.00     0.006 C 
BRANCH   4   5
ATOM      5  C   UNL     1     119.774 111.393 109.367  1.00  0.00     0.053 C 
BRANCH   5   6
ATOM      6  C   UNL     1     120.104 111.174 107.924  1.00  0.00     0.041 C 
ATOM      7  O   UNL     1     119.964 110.034 107.409  1.00  0.00    -0.550 OA
ATOM      8  O   UNL     1     120.521 112.240 107.136  1.00  0.00    -0.550 OA
ENDBRANCH   5   6
ENDBRANCH   4   5
ENDBRANCH   3   4
ENDBRANCH   2   3
ENDBRANCH   1   2
BRANCH   1   9
ATOM      9  C   UNL     1     120.139 112.486 113.020  1.00  0.00     0.000 C 
BRANCH   9  10
ATOM     10  C   UNL     1     120.478 113.571 114.059  1.00  0.00    -0.000 C 
BRANCH  10  11
ATOM     11  C   UNL     1     119.271 114.113 114.847  1.00  0.00    -0.000 C 
BRANCH  11  12
ATOM     12  C   UNL     1     119.280 113.726 116.342  1.00  0.00    -0.000 C 
BRANCH  12  13
ATOM     13  C   UNL     1     120.520 112.907 116.728  1.00  0.00    -0.003 C 
ATOM     14  C   UNL     1     120.128 111.520 117.230  1.00  0.00     0.004 C 
ENDBRANCH  12  13
ENDBRANCH  11  12
ENDBRANCH  10  11
ENDBRANCH   9  10
ENDBRANCH   1   9
TORSDOF 10
ENDMDL
MODEL 7
REMARK VINA RESULT:    -3.713      6.262      7.589
REMARK INTER + INTRA:          -6.621
REMARK INTER:                  -5.097
REMARK INTRA:                  -1.524
REMARK UNBOUND:                -0.737
REMARK SMILES CCCCCCCCCCCC(=O)[O-]
REMARK SMILES IDX 7 1 8 2 9 3 10 4 11 5 12 6 13 7 14 8 6 9 5 10 4 11 3 12 2 13
REMARK SMILES IDX 1 14
REMARK H PARENT
REMARK Flexibility Score: inf
ROOT
ATOM      1  C   UNL     1     123.325 110.212 109.271  1.00  0.00     0.000 C 
ENDROOT
BRANCH   1   2
ATOM      2  C   UNL     1     123.291 108.854 108.542  1.00  0.00     0.000 C 
BRANCH   2   3
ATOM      3  C   UNL     1     122.735 108.899 107.108  1.00  0.00     0.000 C 
BRANCH   3   4
ATOM      4  C   UNL     1     121.992 107.613 106.716  1.00  0.00     0.006 C 
BRANCH   4   5
ATOM      5  C   UNL     1     120.540 107.916 106.331  1.00  0.00     0.053 C 
BRANCH   5   6
ATOM      6  C   UNL     1     120.057 106.941 105.304  1.00  0.00     0.041 C 
ATOM      7  O   UNL     1     120.459 107.023 104.115  1.00  0.00    -0.550 OA
ATOM      8  O   UNL     1     119.200 105.911 105.673  1.00  0.00    -0.550 OA
ENDBRANCH   5   6
ENDBRANCH   4   5
ENDBRANCH   3   4
ENDBRANCH   2   3
ENDBRANCH   1   2
BRANCH   1   9
ATOM      9  C   UNL     1     122.156 110.463 110.245  1.00  0.00     0.000 C 
BRANCH   9  10
ATOM     10  C   UNL     1     121.041 109.401 110.211  1.00  0.00    -0.000 C 
BRANCH  10  11
ATOM     11  C   UNL     1     119.767 109.824 109.456  1.00  0.00    -0.000 C 
BRANCH  11  12
ATOM     12  C   UNL     1     119.779 111.297 108.995  1.00  0.00    -0.000 C 
BRANCH  12  13
ATOM     13  C   UNL     1     119.947 111.434 107.475  1.00  0.00    -0.003 C 
ATOM     14  C   UNL     1     121.140 112.322 107.132  1.00  0.00     0.004 C 
ENDBRANCH  12  13
ENDBRANCH  11  12
ENDBRANCH  10  11
ENDBRANCH   9  10
ENDBRANCH   1   9
TORSDOF 10
ENDMDL
MODEL 8
REMARK VINA RESULT:    -3.689      3.540      7.688
REMARK INTER + INTRA:          -6.583
REMARK INTER:                  -6.023
REMARK INTRA:                  -0.560
REMARK UNBOUND:                -0.737
REMARK SMILES CCCCCCCCCCCC(=O)[O-]
REMARK SMILES IDX 7 1 8 2 9 3 10 4 11 5 12 6 13 7 14 8 6 9 5 10 4 11 3 12 2 13
REMARK SMILES IDX 1 14
REMARK H PARENT
REMARK Flexibility Score: inf
ROOT
ATOM      1  C   UNL     1     119.220 110.267 111.662  1.00  0.00     0.000 C 
ENDROOT
BRANCH   1   2
ATOM      2  C   UNL     1     120.482 110.078 112.526  1.00  0.00     0.000 C 
BRANCH   2   3
ATOM      3  C   UNL     1     120.945 111.332 113.288  1.00  0.00     0.000 C 
BRANCH   3   4
ATOM      4  C   UNL     1     120.053 112.553 113.023  1.00  0.00     0.006 C 
BRANCH   4   5
ATOM      5  C   UNL     1     120.523 113.763 113.837  1.00  0.00     0.053 C 
BRANCH   5   6
ATOM      6  C   UNL     1     119.432 114.781 113.940  1.00  0.00     0.041 C 
ATOM      7  O   UNL     1     119.238 115.598 113.002  1.00  0.00    -0.550 OA
ATOM      8  O   UNL     1     118.598 114.797 115.051  1.00  0.00    -0.550 OA
ENDBRANCH   5   6
ENDBRANCH   4   5
ENDBRANCH   3   4
ENDBRANCH   2   3
ENDBRANCH   1   2
BRANCH   1   9
ATOM      9  C   UNL     1     119.413 110.006 110.154  1.00  0.00     0.000 C 
BRANCH   9  10
ATOM     10  C   UNL     1     120.713 109.268 109.782  1.00  0.00    -0.000 C 
BRANCH  10  11
ATOM     11  C   UNL     1     121.167 109.452 108.322  1.00  0.00    -0.000 C 
BRANCH  11  12
ATOM     12  C   UNL     1     120.008 109.425 107.303  1.00  0.00    -0.000 C 
BRANCH  12  13
ATOM     13  C   UNL     1     119.963 108.118 106.500  1.00  0.00    -0.003 C 
ATOM     14  C   UNL     1     121.355 107.506 106.366  1.00  0.00     0.004 C 
ENDBRANCH  12  13
ENDBRANCH  11  12
ENDBRANCH  10  11
ENDBRANCH   9  10
ENDBRANCH   1   9
TORSDOF 10
ENDMDL
MODEL 9
REMARK VINA RESULT:    -3.665      3.962      8.544
REMARK INTER + INTRA:          -6.544
REMARK INTER:                  -5.335
REMARK INTRA:                  -1.209
REMARK UNBOUND:                -0.737
REMARK SMILES CCCCCCCCCCCC(=O)[O-]
REMARK SMILES IDX 7 1 8 2 9 3 10 4 11 5 12 6 13 7 14 8 6 9 5 10 4 11 3 12 2 13
REMARK SMILES IDX 1 14
REMARK H PARENT
REMARK Flexibility Score: inf
ROOT
ATOM      1  C   UNL     1     120.964 111.219 107.305  1.00  0.00     0.000 C 
ENDROOT
BRANCH   1   2
ATOM      2  C   UNL     1     120.011 111.102 108.511  1.00  0.00     0.000 C 
BRANCH   2   3
ATOM      3  C   UNL     1     119.867 109.686 109.094  1.00  0.00     0.000 C 
BRANCH   3   4
ATOM      4  C   UNL     1     120.212 109.619 110.589  1.00  0.00     0.006 C 
BRANCH   4   5
ATOM      5  C   UNL     1     119.316 110.560 111.401  1.00  0.00     0.053 C 
BRANCH   5   6
ATOM      6  C   UNL     1     120.107 111.241 112.473  1.00  0.00     0.041 C 
ATOM      7  O   UNL     1     120.842 110.568 113.241  1.00  0.00    -0.550 OA
ATOM      8  O   UNL     1     120.069 112.625 112.591  1.00  0.00    -0.550 OA
ENDBRANCH   5   6
ENDBRANCH   4   5
ENDBRANCH   3   4
ENDBRANCH   2   3
ENDBRANCH   1   2
BRANCH   1   9
ATOM      9  C   UNL     1     122.417 110.775 107.572  1.00  0.00     0.000 C 
BRANCH   9  10
ATOM     10  C   UNL     1     122.860 109.510 106.813  1.00  0.00    -0.000 C 
BRANCH  10  11
ATOM     11  C   UNL     1     122.809 108.210 107.637  1.00  0.00    -0.000 C 
BRANCH  11  12
ATOM     12  C   UNL     1     121.935 107.106 107.002  1.00  0.00    -0.000 C 
BRANCH  12  13
ATOM     13  C   UNL     1     121.109 107.623 105.815  1.00  0.00    -0.003 C 
ATOM     14  C   UNL     1     119.617 107.605 106.135  1.00  0.00     0.004 C 
ENDBRANCH  12  13
ENDBRANCH  11  12
ENDBRANCH  10  11
ENDBRANCH   9  10
ENDBRANCH   1   9
TORSDOF 10
ENDMDL
