MODEL 1
REMARK VINA RESULT:    -3.228      0.000      0.000
REMARK INTER + INTRA:          -8.574
REMARK INTER:                  -6.248
REMARK INTRA:                  -2.326
REMARK UNBOUND:                -2.326
REMARK SMILES CCCCCCCCCCCCCCCCCC(=O)[O-]
REMARK SMILES IDX 10 1 11 2 12 3 13 4 14 5 15 6 16 7 17 8 18 9 19 10 20 11
REMARK SMILES IDX 9 12 8 13 7 14 6 15 5 16 4 17 3 18 2 19 1 20
REMARK H PARENT
REMARK Flexibility Score: inf
ROOT
ATOM      1  C   UNL     1      17.115   4.089  16.735  1.00  0.00     0.000 C 
ENDROOT
BRANCH   1   2
ATOM      2  C   UNL     1      15.680   4.552  16.425  1.00  0.00     0.000 C 
BRANCH   2   3
ATOM      3  C   UNL     1      14.790   4.629  17.673  1.00  0.00     0.000 C 
BRANCH   3   4
ATOM      4  C   UNL     1      13.325   4.330  17.324  1.00  0.00     0.000 C 
BRANCH   4   5
ATOM      5  C   UNL     1      12.336   5.107  18.210  1.00  0.00     0.000 C 
BRANCH   5   6
ATOM      6  C   UNL     1      12.956   6.380  18.812  1.00  0.00     0.000 C 
BRANCH   6   7
ATOM      7  C   UNL     1      11.967   7.176  19.682  1.00  0.00     0.006 C 
BRANCH   7   8
ATOM      8  C   UNL     1      10.980   6.296  20.469  1.00  0.00     0.053 C 
BRANCH   8   9
ATOM      9  C   UNL     1       9.595   6.336  19.901  1.00  0.00     0.041 C 
ATOM     10  O   UNL     1       9.087   5.300  19.396  1.00  0.00    -0.550 OA
ATOM     11  O   UNL     1       8.877   7.525  19.893  1.00  0.00    -0.550 OA
ENDBRANCH   8   9
ENDBRANCH   7   8
ENDBRANCH   6   7
ENDBRANCH   5   6
ENDBRANCH   4   5
ENDBRANCH   3   4
ENDBRANCH   2   3
ENDBRANCH   1   2
BRANCH   1  12
ATOM     12  C   UNL     1      18.228   5.028  16.237  1.00  0.00     0.000 C 
BRANCH  12  13
ATOM     13  C   UNL     1      17.866   6.517  16.386  1.00  0.00    -0.000 C 
BRANCH  13  14
ATOM     14  C   UNL     1      18.281   7.090  17.751  1.00  0.00    -0.000 C 
BRANCH  14  15
ATOM     15  C   UNL     1      17.085   7.285  18.698  1.00  0.00    -0.000 C 
BRANCH  15  16
ATOM     16  C   UNL     1      17.365   6.771  20.119  1.00  0.00    -0.000 C 
BRANCH  16  17
ATOM     17  C   UNL     1      18.013   5.378  20.130  1.00  0.00    -0.000 C 
BRANCH  17  18
ATOM     18  C   UNL     1      17.001   4.308  20.566  1.00  0.00    -0.000 C 
BRANCH  18  19
ATOM     19  C   UNL     1      16.017   4.822  21.627  1.00  0.00    -0.003 C 
ATOM     20  C   UNL     1      14.576   4.392  21.356  1.00  0.00     0.004 C 
ENDBRANCH  18  19
ENDBRANCH  17  18
ENDBRANCH  16  17
ENDBRANCH  15  16
ENDBRANCH  14  15
ENDBRANCH  13  14
ENDBRANCH  12  13
ENDBRANCH   1  12
TORSDOF 16
ENDMDL
MODEL 2
REMARK VINA RESULT:    -3.099      4.062      7.168
REMARK INTER + INTRA:          -8.324
REMARK INTER:                  -6.453
REMARK INTRA:                  -1.871
REMARK UNBOUND:                -2.326
REMARK SMILES CCCCCCCCCCCCCCCCCC(=O)[O-]
REMARK SMILES IDX 10 1 11 2 12 3 13 4 14 5 15 6 16 7 17 8 18 9 19 10 20 11
REMARK SMILES IDX 9 12 8 13 7 14 6 15 5 16 4 17 3 18 2 19 1 20
REMARK H PARENT
REMARK Flexibility Score: inf
ROOT
ATOM      1  C   UNL     1      16.234   5.749  19.017  1.00  0.00     0.000 C 
ENDROOT
BRANCH   1   2
ATOM      2  C   UNL     1      16.748   7.196  19.122  1.00  0.00     0.000 C 
BRANCH   2   3
ATOM      3  C   UNL     1      17.787   7.386  20.237  1.00  0.00     0.000 C 
BRANCH   3   4
ATOM      4  C   UNL     1      19.202   7.515  19.655  1.00  0.00     0.000 C 
BRANCH   4   5
ATOM      5  C   UNL     1      19.760   6.173  19.155  1.00  0.00     0.000 C 
BRANCH   5   6
ATOM      6  C   UNL     1      20.124   6.203  17.660  1.00  0.00     0.000 C 
BRANCH   6   7
ATOM      7  C   UNL     1      19.793   7.547  16.988  1.00  0.00     0.006 C 
BRANCH   7   8
ATOM      8  C   UNL     1      18.682   7.457  15.927  1.00  0.00     0.053 C 
BRANCH   8   9
ATOM      9  C   UNL     1      19.223   7.407  14.531  1.00  0.00     0.041 C 
ATOM     10  O   UNL     1      19.440   6.299  13.974  1.00  0.00    -0.550 OA
ATOM     11  O   UNL     1      19.524   8.584  13.856  1.00  0.00    -0.550 OA
ENDBRANCH   8   9
ENDBRANCH   7   8
ENDBRANCH   6   7
ENDBRANCH   5   6
ENDBRANCH   4   5
ENDBRANCH   3   4
ENDBRANCH   2   3
ENDBRANCH   1   2
BRANCH   1  12
ATOM     12  C   UNL     1      16.422   5.086  17.640  1.00  0.00     0.000 C 
BRANCH  12  13
ATOM     13  C   UNL     1      15.110   4.525  17.062  1.00  0.00    -0.000 C 
BRANCH  13  14
ATOM     14  C   UNL     1      14.081   4.192  18.155  1.00  0.00    -0.000 C 
BRANCH  14  15
ATOM     15  C   UNL     1      12.632   4.267  17.643  1.00  0.00    -0.000 C 
BRANCH  15  16
ATOM     16  C   UNL     1      11.958   5.609  17.971  1.00  0.00    -0.000 C 
BRANCH  16  17
ATOM     17  C   UNL     1      12.541   6.277  19.225  1.00  0.00    -0.000 C 
BRANCH  17  18
ATOM     18  C   UNL     1      11.421   6.725  20.177  1.00  0.00    -0.000 C 
BRANCH  18  19
ATOM     19  C   UNL     1      10.067   6.083  19.840  1.00  0.00    -0.003 C 
ATOM     20  C   UNL     1       8.910   7.079  19.897  1.00  0.00     0.004 C 
ENDBRANCH  18  19
ENDBRANCH  17  18
ENDBRANCH  16  17
ENDBRANCH  15  16
ENDBRANCH  14  15
ENDBRANCH  13  14
ENDBRANCH  12  13
ENDBRANCH   1  12
TORSDOF 16
ENDMDL
MODEL 3
REMARK VINA RESULT:    -3.068      4.153      7.362
REMARK INTER + INTRA:          -8.264
REMARK INTER:                  -6.514
REMARK INTRA:                  -1.750
REMARK UNBOUND:                -2.326
REMARK SMILES CCCCCCCCCCCCCCCCCC(=O)[O-]
REMARK SMILES IDX 10 1 11 2 12 3 13 4 14 5 15 6 16 7 17 8 18 9 19 10 20 11
REMARK SMILES IDX 9 12 8 13 7 14 6 15 5 16 4 17 3 18 2 19 1 20
REMARK H PARENT
REMARK Flexibility Score: inf
ROOT
ATOM      1  C   UNL     1      16.082   6.841  18.631  1.00  0.00     0.000 C 
ENDROOT
BRANCH   1   2
ATOM      2  C   UNL     1      17.501   7.305  19.007  1.00  0.00     0.000 C 
BRANCH   2   3
ATOM      3  C   UNL     1      18.519   7.101  17.875  1.00  0.00     0.000 C 
BRANCH   3   4
ATOM      4  C   UNL     1      17.839   6.541  16.617  1.00  0.00     0.000 C 
BRANCH   4   5
ATOM      5  C   UNL     1      18.538   5.282  16.079  1.00  0.00     0.000 C 
BRANCH   5   6
ATOM      6  C   UNL     1      17.657   4.492  15.094  1.00  0.00     0.000 C 
BRANCH   6   7
ATOM      7  C   UNL     1      18.275   4.382  13.689  1.00  0.00     0.006 C 
BRANCH   7   8
ATOM      8  C   UNL     1      19.446   5.351  13.446  1.00  0.00     0.053 C 
BRANCH   8   9
ATOM      9  C   UNL     1      19.039   6.556  12.655  1.00  0.00     0.041 C 
ATOM     10  O   UNL     1      19.319   7.712  13.070  1.00  0.00    -0.550 OA
ATOM     11  O   UNL     1      18.316   6.408  11.477  1.00  0.00    -0.550 OA
ENDBRANCH   8   9
ENDBRANCH   7   8
ENDBRANCH   6   7
ENDBRANCH   5   6
ENDBRANCH   4   5
ENDBRANCH   3   4
ENDBRANCH   2   3
ENDBRANCH   1   2
BRANCH   1  12
ATOM     12  C   UNL     1      15.558   5.631  19.425  1.00  0.00     0.000 C 
BRANCH  12  13
ATOM     13  C   UNL     1      15.438   4.359  18.566  1.00  0.00    -0.000 C 
BRANCH  13  14
ATOM     14  C   UNL     1      14.679   4.606  17.252  1.00  0.00    -0.000 C 
BRANCH  14  15
ATOM     15  C   UNL     1      13.214   4.140  17.319  1.00  0.00    -0.000 C 
BRANCH  15  16
ATOM     16  C   UNL     1      12.254   5.265  17.737  1.00  0.00    -0.000 C 
BRANCH  16  17
ATOM     17  C   UNL     1      11.223   4.809  18.780  1.00  0.00    -0.000 C 
BRANCH  17  18
ATOM     18  C   UNL     1      11.395   5.586  20.094  1.00  0.00    -0.000 C 
BRANCH  18  19
ATOM     19  C   UNL     1      10.704   6.958  20.064  1.00  0.00    -0.003 C 
ATOM     20  C   UNL     1       9.182   6.852  19.988  1.00  0.00     0.004 C 
ENDBRANCH  18  19
ENDBRANCH  17  18
ENDBRANCH  16  17
ENDBRANCH  15  16
ENDBRANCH  14  15
ENDBRANCH  13  14
ENDBRANCH  12  13
ENDBRANCH   1  12
TORSDOF 16
ENDMDL
MODEL 4
REMARK VINA RESULT:    -2.961      2.869      6.139
REMARK INTER + INTRA:          -8.056
REMARK INTER:                  -6.197
REMARK INTRA:                  -1.859
REMARK UNBOUND:                -2.326
REMARK SMILES CCCCCCCCCCCCCCCCCC(=O)[O-]
REMARK SMILES IDX 10 1 11 2 12 3 13 4 14 5 15 6 16 7 17 8 18 9 19 10 20 11
REMARK SMILES IDX 9 12 8 13 7 14 6 15 5 16 4 17 3 18 2 19 1 20
REMARK H PARENT
REMARK Flexibility Score: inf
ROOT
ATOM      1  C   UNL     1      15.956   4.829  16.515  1.00  0.00     0.000 C 
ENDROOT
BRANCH   1   2
ATOM      2  C   UNL     1      16.607   4.186  15.278  1.00  0.00     0.000 C 
BRANCH   2   3
ATOM      3  C   UNL     1      18.141   4.236  15.312  1.00  0.00     0.000 C 
BRANCH   3   4
ATOM      4  C   UNL     1      18.655   5.636  14.946  1.00  0.00     0.000 C 
BRANCH   4   5
ATOM      5  C   UNL     1      19.318   6.351  16.134  1.00  0.00     0.000 C 
BRANCH   5   6
ATOM      6  C   UNL     1      19.556   5.414  17.331  1.00  0.00     0.000 C 
BRANCH   6   7
ATOM      7  C   UNL     1      19.493   6.142  18.686  1.00  0.00     0.006 C 
BRANCH   7   8
ATOM      8  C   UNL     1      18.274   7.068  18.840  1.00  0.00     0.053 C 
BRANCH   8   9
ATOM      9  C   UNL     1      17.636   6.959  20.191  1.00  0.00     0.041 C 
ATOM     10  O   UNL     1      17.970   7.747  21.115  1.00  0.00    -0.550 OA
ATOM     11  O   UNL     1      16.699   5.964  20.443  1.00  0.00    -0.550 OA
ENDBRANCH   8   9
ENDBRANCH   7   8
ENDBRANCH   6   7
ENDBRANCH   5   6
ENDBRANCH   4   5
ENDBRANCH   3   4
ENDBRANCH   2   3
ENDBRANCH   1   2
BRANCH   1  12
ATOM     12  C   UNL     1      15.896   3.931  17.764  1.00  0.00     0.000 C 
BRANCH  12  13
ATOM     13  C   UNL     1      14.518   3.952  18.451  1.00  0.00    -0.000 C 
BRANCH  13  14
ATOM     14  C   UNL     1      13.370   4.205  17.459  1.00  0.00    -0.000 C 
BRANCH  14  15
ATOM     15  C   UNL     1      12.505   5.415  17.854  1.00  0.00    -0.000 C 
BRANCH  15  16
ATOM     16  C   UNL     1      13.122   6.234  18.999  1.00  0.00    -0.000 C 
BRANCH  16  17
ATOM     17  C   UNL     1      12.120   7.206  19.640  1.00  0.00    -0.000 C 
BRANCH  17  18
ATOM     18  C   UNL     1      11.177   6.465  20.600  1.00  0.00    -0.000 C 
BRANCH  18  19
ATOM     19  C   UNL     1       9.704   6.563  20.175  1.00  0.00    -0.003 C 
ATOM     20  C   UNL     1       9.203   5.297  19.480  1.00  0.00     0.004 C 
ENDBRANCH  18  19
ENDBRANCH  17  18
ENDBRANCH  16  17
ENDBRANCH  15  16
ENDBRANCH  14  15
ENDBRANCH  13  14
ENDBRANCH  12  13
ENDBRANCH   1  12
TORSDOF 16
ENDMDL
MODEL 5
REMARK VINA RESULT:    -2.881      3.321      6.800
REMARK INTER + INTRA:          -7.902
REMARK INTER:                  -6.016
REMARK INTRA:                  -1.886
REMARK UNBOUND:                -2.326
REMARK SMILES CCCCCCCCCCCCCCCCCC(=O)[O-]
REMARK SMILES IDX 10 1 11 2 12 3 13 4 14 5 15 6 16 7 17 8 18 9 19 10 20 11
REMARK SMILES IDX 9 12 8 13 7 14 6 15 5 16 4 17 3 18 2 19 1 20
REMARK H PARENT
REMARK Flexibility Score: inf
ROOT
ATOM      1  C   UNL     1      15.432   4.570  21.384  1.00  0.00     0.000 C 
ENDROOT
BRANCH   1   2
ATOM      2  C   UNL     1      16.359   5.143  22.472  1.00  0.00     0.000 C 
BRANCH   2   3
ATOM      3  C   UNL     1      17.735   5.558  21.932  1.00  0.00     0.000 C 
BRANCH   3   4
ATOM      4  C   UNL     1      17.892   7.086  21.944  1.00  0.00     0.000 C 
BRANCH   4   5
ATOM      5  C   UNL     1      18.796   7.596  20.810  1.00  0.00     0.000 C 
BRANCH   5   6
ATOM      6  C   UNL     1      19.243   6.471  19.859  1.00  0.00     0.000 C 
BRANCH   6   7
ATOM      7  C   UNL     1      19.542   6.972  18.435  1.00  0.00     0.006 C 
BRANCH   7   8
ATOM      8  C   UNL     1      18.284   7.253  17.596  1.00  0.00     0.053 C 
BRANCH   8   9
ATOM      9  C   UNL     1      18.222   6.417  16.354  1.00  0.00     0.041 C 
ATOM     10  O   UNL     1      18.764   6.819  15.291  1.00  0.00    -0.550 OA
ATOM     11  O   UNL     1      17.534   5.209  16.359  1.00  0.00    -0.550 OA
ENDBRANCH   8   9
ENDBRANCH   7   8
ENDBRANCH   6   7
ENDBRANCH   5   6
ENDBRANCH   4   5
ENDBRANCH   3   4
ENDBRANCH   2   3
ENDBRANCH   1   2
BRANCH   1  12
ATOM     12  C   UNL     1      15.993   4.625  19.951  1.00  0.00     0.000 C 
BRANCH  12  13
ATOM     13  C   UNL     1      15.292   5.678  19.074  1.00  0.00    -0.000 C 
BRANCH  13  14
ATOM     14  C   UNL     1      14.306   5.048  18.075  1.00  0.00    -0.000 C 
BRANCH  14  15
ATOM     15  C   UNL     1      12.841   5.390  18.398  1.00  0.00    -0.000 C 
BRANCH  15  16
ATOM     16  C   UNL     1      12.705   6.649  19.269  1.00  0.00    -0.000 C 
BRANCH  16  17
ATOM     17  C   UNL     1      11.692   6.475  20.410  1.00  0.00    -0.000 C 
BRANCH  17  18
ATOM     18  C   UNL     1      10.375   7.196  20.086  1.00  0.00    -0.000 C 
BRANCH  18  19
ATOM     19  C   UNL     1       9.163   6.252  20.109  1.00  0.00    -0.003 C 
ATOM     20  C   UNL     1       9.309   5.079  19.141  1.00  0.00     0.004 C 
ENDBRANCH  18  19
ENDBRANCH  17  18
ENDBRANCH  16  17
ENDBRANCH  15  16
ENDBRANCH  14  15
ENDBRANCH  13  14
ENDBRANCH  12  13
ENDBRANCH   1  12
TORSDOF 16
ENDMDL
MODEL 6
REMARK VINA RESULT:    -2.874      0.959      3.480
REMARK INTER + INTRA:          -7.888
REMARK INTER:                  -5.913
REMARK INTRA:                  -1.975
REMARK UNBOUND:                -2.326
REMARK SMILES CCCCCCCCCCCCCCCCCC(=O)[O-]
REMARK SMILES IDX 10 1 11 2 12 3 13 4 14 5 15 6 16 7 17 8 18 9 19 10 20 11
REMARK SMILES IDX 9 12 8 13 7 14 6 15 5 16 4 17 3 18 2 19 1 20
REMARK H PARENT
REMARK Flexibility Score: inf
ROOT
ATOM      1  C   UNL     1      16.131   4.360  21.090  1.00  0.00     0.000 C 
ENDROOT
BRANCH   1   2
ATOM      2  C   UNL     1      16.123   4.253  19.555  1.00  0.00     0.000 C 
BRANCH   2   3
ATOM      3  C   UNL     1      15.320   5.373  18.878  1.00  0.00     0.000 C 
BRANCH   3   4
ATOM      4  C   UNL     1      14.142   4.800  18.077  1.00  0.00     0.000 C 
BRANCH   4   5
ATOM      5  C   UNL     1      12.807   5.477  18.424  1.00  0.00     0.000 C 
BRANCH   5   6
ATOM      6  C   UNL     1      12.978   6.668  19.384  1.00  0.00     0.000 C 
BRANCH   6   7
ATOM      7  C   UNL     1      11.638   7.285  19.823  1.00  0.00     0.006 C 
BRANCH   7   8
ATOM      8  C   UNL     1      10.717   6.306  20.572  1.00  0.00     0.053 C 
BRANCH   8   9
ATOM      9  C   UNL     1       9.348   6.230  19.969  1.00  0.00     0.041 C 
ATOM     10  O   UNL     1       8.637   7.266  19.878  1.00  0.00    -0.550 OA
ATOM     11  O   UNL     1       8.839   5.010  19.540  1.00  0.00    -0.550 OA
ENDBRANCH   8   9
ENDBRANCH   7   8
ENDBRANCH   6   7
ENDBRANCH   5   6
ENDBRANCH   4   5
ENDBRANCH   3   4
ENDBRANCH   2   3
ENDBRANCH   1   2
BRANCH   1  12
ATOM     12  C   UNL     1      17.125   5.382  21.670  1.00  0.00     0.000 C 
BRANCH  12  13
ATOM     13  C   UNL     1      18.581   5.100  21.258  1.00  0.00    -0.000 C 
BRANCH  13  14
ATOM     14  C   UNL     1      19.216   6.278  20.501  1.00  0.00    -0.000 C 
BRANCH  14  15
ATOM     15  C   UNL     1      18.185   7.348  20.101  1.00  0.00    -0.000 C 
BRANCH  15  16
ATOM     16  C   UNL     1      18.203   7.654  18.595  1.00  0.00    -0.000 C 
BRANCH  16  17
ATOM     17  C   UNL     1      18.690   6.465  17.753  1.00  0.00    -0.000 C 
BRANCH  17  18
ATOM     18  C   UNL     1      17.921   6.384  16.426  1.00  0.00    -0.000 C 
BRANCH  18  19
ATOM     19  C   UNL     1      17.661   4.936  15.982  1.00  0.00    -0.003 C 
ATOM     20  C   UNL     1      18.233   4.630  14.598  1.00  0.00     0.004 C 
ENDBRANCH  18  19
ENDBRANCH  17  18
ENDBRANCH  16  17
ENDBRANCH  15  16
ENDBRANCH  14  15
ENDBRANCH  13  14
ENDBRANCH  12  13
ENDBRANCH   1  12
TORSDOF 16
ENDMDL
MODEL 7
REMARK VINA RESULT:    -2.846      3.183      6.024
REMARK INTER + INTRA:          -7.834
REMARK INTER:                  -5.753
REMARK INTRA:                  -2.081
REMARK UNBOUND:                -2.326
REMARK SMILES CCCCCCCCCCCCCCCCCC(=O)[O-]
REMARK SMILES IDX 10 1 11 2 12 3 13 4 14 5 15 6 16 7 17 8 18 9 19 10 20 11
REMARK SMILES IDX 9 12 8 13 7 14 6 15 5 16 4 17 3 18 2 19 1 20
REMARK H PARENT
REMARK Flexibility Score: inf
ROOT
ATOM      1  C   UNL     1      14.444   5.130  17.671  1.00  0.00     0.000 C 
ENDROOT
BRANCH   1   2
ATOM      2  C   UNL     1      14.907   3.893  16.880  1.00  0.00     0.000 C 
BRANCH   2   3
ATOM      3  C   UNL     1      15.837   4.242  15.709  1.00  0.00     0.000 C 
BRANCH   3   4
ATOM      4  C   UNL     1      17.310   4.194  16.143  1.00  0.00     0.000 C 
BRANCH   4   5
ATOM      5  C   UNL     1      18.107   5.418  15.664  1.00  0.00     0.000 C 
BRANCH   5   6
ATOM      6  C   UNL     1      17.945   6.632  16.596  1.00  0.00     0.000 C 
BRANCH   6   7
ATOM      7  C   UNL     1      18.560   6.407  17.989  1.00  0.00     0.006 C 
BRANCH   7   8
ATOM      8  C   UNL     1      18.220   7.510  19.006  1.00  0.00     0.053 C 
BRANCH   8   9
ATOM      9  C   UNL     1      18.333   7.040  20.424  1.00  0.00     0.041 C 
ATOM     10  O   UNL     1      18.630   5.841  20.672  1.00  0.00    -0.550 OA
ATOM     11  O   UNL     1      18.074   7.914  21.473  1.00  0.00    -0.550 OA
ENDBRANCH   8   9
ENDBRANCH   7   8
ENDBRANCH   6   7
ENDBRANCH   5   6
ENDBRANCH   4   5
ENDBRANCH   3   4
ENDBRANCH   2   3
ENDBRANCH   1   2
BRANCH   1  12
ATOM     12  C   UNL     1      15.275   5.453  18.926  1.00  0.00     0.000 C 
BRANCH  12  13
ATOM     13  C   UNL     1      15.345   4.276  19.917  1.00  0.00    -0.000 C 
BRANCH  13  14
ATOM     14  C   UNL     1      15.343   4.741  21.383  1.00  0.00    -0.000 C 
BRANCH  14  15
ATOM     15  C   UNL     1      14.022   4.416  22.102  1.00  0.00    -0.000 C 
BRANCH  15  16
ATOM     16  C   UNL     1      12.793   4.612  21.201  1.00  0.00    -0.000 C 
BRANCH  16  17
ATOM     17  C   UNL     1      12.209   6.030  21.292  1.00  0.00    -0.000 C 
BRANCH  17  18
ATOM     18  C   UNL     1      11.807   6.546  19.903  1.00  0.00    -0.000 C 
BRANCH  18  19
ATOM     19  C   UNL     1      10.493   5.928  19.401  1.00  0.00    -0.003 C 
ATOM     20  C   UNL     1       9.257   6.629  19.964  1.00  0.00     0.004 C 
ENDBRANCH  18  19
ENDBRANCH  17  18
ENDBRANCH  16  17
ENDBRANCH  15  16
ENDBRANCH  14  15
ENDBRANCH  13  14
ENDBRANCH  12  13
ENDBRANCH   1  12
TORSDOF 16
ENDMDL
MODEL 8
REMARK VINA RESULT:    -2.814      2.712      5.099
REMARK INTER + INTRA:          -7.773
REMARK INTER:                  -6.483
REMARK INTRA:                  -1.289
REMARK UNBOUND:                -2.326
REMARK SMILES CCCCCCCCCCCCCCCCCC(=O)[O-]
REMARK SMILES IDX 10 1 11 2 12 3 13 4 14 5 15 6 16 7 17 8 18 9 19 10 20 11
REMARK SMILES IDX 9 12 8 13 7 14 6 15 5 16 4 17 3 18 2 19 1 20
REMARK H PARENT
REMARK Flexibility Score: inf
ROOT
ATOM      1  C   UNL     1      16.837   5.383  16.497  1.00  0.00     0.000 C 
ENDROOT
BRANCH   1   2
ATOM      2  C   UNL     1      16.586   5.602  18.000  1.00  0.00     0.000 C 
BRANCH   2   3
ATOM      3  C   UNL     1      15.100   5.776  18.343  1.00  0.00     0.000 C 
BRANCH   3   4
ATOM      4  C   UNL     1      14.383   4.418  18.387  1.00  0.00     0.000 C 
BRANCH   4   5
ATOM      5  C   UNL     1      13.141   4.375  17.483  1.00  0.00     0.000 C 
BRANCH   5   6
ATOM      6  C   UNL     1      12.029   5.326  17.960  1.00  0.00     0.000 C 
BRANCH   6   7
ATOM      7  C   UNL     1      11.661   5.127  19.441  1.00  0.00     0.006 C 
BRANCH   7   8
ATOM      8  C   UNL     1      10.857   6.291  20.046  1.00  0.00     0.053 C 
BRANCH   8   9
ATOM      9  C   UNL     1       9.380   6.136  19.842  1.00  0.00     0.041 C 
ATOM     10  O   UNL     1       8.615   7.127  19.976  1.00  0.00    -0.550 OA
ATOM     11  O   UNL     1       8.844   4.890  19.541  1.00  0.00    -0.550 OA
ENDBRANCH   8   9
ENDBRANCH   7   8
ENDBRANCH   6   7
ENDBRANCH   5   6
ENDBRANCH   4   5
ENDBRANCH   3   4
ENDBRANCH   2   3
ENDBRANCH   1   2
BRANCH   1  12
ATOM     12  C   UNL     1      18.087   4.551  16.157  1.00  0.00     0.000 C 
BRANCH  12  13
ATOM     13  C   UNL     1      18.994   5.232  15.116  1.00  0.00    -0.000 C 
BRANCH  13  14
ATOM     14  C   UNL     1      18.816   6.760  15.091  1.00  0.00    -0.000 C 
BRANCH  14  15
ATOM     15  C   UNL     1      19.355   7.395  13.797  1.00  0.00    -0.000 C 
BRANCH  15  16
ATOM     16  C   UNL     1      19.479   6.383  12.648  1.00  0.00    -0.000 C 
BRANCH  16  17
ATOM     17  C   UNL     1      18.935   6.924  11.317  1.00  0.00    -0.000 C 
BRANCH  17  18
ATOM     18  C   UNL     1      18.128   5.847  10.577  1.00  0.00    -0.000 C 
BRANCH  18  19
ATOM     19  C   UNL     1      18.012   4.541  11.378  1.00  0.00    -0.003 C 
ATOM     20  C   UNL     1      16.588   4.267  11.858  1.00  0.00     0.004 C 
ENDBRANCH  18  19
ENDBRANCH  17  18
ENDBRANCH  16  17
ENDBRANCH  15  16
ENDBRANCH  14  15
ENDBRANCH  13  14
ENDBRANCH  12  13
ENDBRANCH   1  12
TORSDOF 16
ENDMDL
MODEL 9
REMARK VINA RESULT:    -2.799      4.731      7.830
REMARK INTER + INTRA:          -7.742
REMARK INTER:                  -6.574
REMARK INTRA:                  -1.168
REMARK UNBOUND:                -2.326
REMARK SMILES CCCCCCCCCCCCCCCCCC(=O)[O-]
REMARK SMILES IDX 10 1 11 2 12 3 13 4 14 5 15 6 16 7 17 8 18 9 19 10 20 11
REMARK SMILES IDX 9 12 8 13 7 14 6 15 5 16 4 17 3 18 2 19 1 20
REMARK H PARENT
REMARK Flexibility Score: inf
ROOT
ATOM      1  C   UNL     1      17.093   6.495  17.990  1.00  0.00     0.000 C 
ENDROOT
BRANCH   1   2
ATOM      2  C   UNL     1      18.537   6.827  17.573  1.00  0.00     0.000 C 
BRANCH   2   3
ATOM      3  C   UNL     1      19.165   5.751  16.675  1.00  0.00     0.000 C 
BRANCH   3   4
ATOM      4  C   UNL     1      19.877   6.386  15.471  1.00  0.00     0.000 C 
BRANCH   4   5
ATOM      5  C   UNL     1      19.055   7.514  14.828  1.00  0.00     0.000 C 
BRANCH   5   6
ATOM      6  C   UNL     1      19.280   7.617  13.308  1.00  0.00     0.000 C 
BRANCH   6   7
ATOM      7  C   UNL     1      19.063   6.281  12.576  1.00  0.00     0.006 C 
BRANCH   7   8
ATOM      8  C   UNL     1      18.569   6.436  11.128  1.00  0.00     0.053 C 
BRANCH   8   9
ATOM      9  C   UNL     1      18.207   5.125  10.500  1.00  0.00     0.041 C 
ATOM     10  O   UNL     1      18.565   4.044  11.038  1.00  0.00    -0.550 OA
ATOM     11  O   UNL     1      17.505   5.094   9.301  1.00  0.00    -0.550 OA
ENDBRANCH   8   9
ENDBRANCH   7   8
ENDBRANCH   6   7
ENDBRANCH   5   6
ENDBRANCH   4   5
ENDBRANCH   3   4
ENDBRANCH   2   3
ENDBRANCH   1   2
BRANCH   1  12
ATOM     12  C   UNL     1      16.321   5.588  17.014  1.00  0.00     0.000 C 
BRANCH  12  13
ATOM     13  C   UNL     1      15.225   4.758  17.707  1.00  0.00    -0.000 C 
BRANCH  13  14
ATOM     14  C   UNL     1      15.193   4.981  19.229  1.00  0.00    -0.000 C 
BRANCH  14  15
ATOM     15  C   UNL     1      13.788   5.345  19.741  1.00  0.00    -0.000 C 
BRANCH  15  16
ATOM     16  C   UNL     1      12.957   6.109  18.698  1.00  0.00    -0.000 C 
BRANCH  16  17
ATOM     17  C   UNL     1      11.649   5.388  18.338  1.00  0.00    -0.000 C 
BRANCH  17  18
ATOM     18  C   UNL     1      10.731   5.276  19.565  1.00  0.00    -0.000 C 
BRANCH  18  19
ATOM     19  C   UNL     1      10.368   6.646  20.159  1.00  0.00    -0.003 C 
ATOM     20  C   UNL     1       8.917   7.042  19.889  1.00  0.00     0.004 C 
ENDBRANCH  18  19
ENDBRANCH  17  18
ENDBRANCH  16  17
ENDBRANCH  15  16
ENDBRANCH  14  15
ENDBRANCH  13  14
ENDBRANCH  12  13
ENDBRANCH   1  12
TORSDOF 16
ENDMDL
