MODEL 1
REMARK VINA RESULT:    -3.584      0.000      0.000
REMARK INTER + INTRA:          -4.250
REMARK INTER:                  -4.422
REMARK INTRA:                   0.172
REMARK UNBOUND:                 0.172
REMARK SMILES COc1cc(-c2[o+]c3cc(O)cc(O)c3cc2O)ccc1O
REMARK SMILES IDX 6 1 7 2 8 3 9 4 10 5 12 6 13 7 15 8 16 9 17 10 5 11 3 12
REMARK SMILES IDX 21 13 4 14 20 15 19 16 2 17 1 18 22 19 18 21 11 23 14 25
REMARK H PARENT 22 20 18 22 11 24 14 26
REMARK Flexibility Score: inf
ROOT
ATOM      1  C   UNL     1       6.515   1.294  13.129  1.00  0.00     0.402 A 
ATOM      2  O   UNL     1       6.715   0.587  12.020  1.00  0.00    -0.202 OA
ATOM      3  C   UNL     1       6.618  -0.738  11.971  1.00  0.00     0.368 A 
ATOM      4  C   UNL     1       6.850  -1.392  10.759  1.00  0.00     0.162 A 
ATOM      5  C   UNL     1       6.758  -2.782  10.679  1.00  0.00     0.128 A 
ATOM      6  C   UNL     1       6.434  -3.526  11.820  1.00  0.00     0.093 A 
ATOM      7  C   UNL     1       6.197  -2.893  13.047  1.00  0.00     0.136 A 
ATOM      8  C   UNL     1       6.287  -1.480  13.131  1.00  0.00     0.125 A 
ATOM      9  C   UNL     1       6.053  -0.760  14.314  1.00  0.00     0.078 A 
ATOM     10  C   UNL     1       6.156   0.634  14.318  1.00  0.00     0.223 A 
ENDROOT
BRANCH   1  11
ATOM     11  C   UNL     1       6.662   2.766  13.058  1.00  0.00     0.087 A 
ATOM     12  C   UNL     1       7.755   4.845  13.745  1.00  0.00     0.161 A 
ATOM     13  C   UNL     1       6.940   5.558  12.847  1.00  0.00     0.157 A 
ATOM     14  C   UNL     1       7.614   3.445  13.838  1.00  0.00     0.068 A 
ATOM     15  C   UNL     1       6.009   4.880  12.055  1.00  0.00     0.051 A 
ATOM     16  C   UNL     1       5.875   3.494  12.153  1.00  0.00     0.022 A 
BRANCH  12  17
ATOM     17  O   UNL     1       8.689   5.551  14.519  1.00  0.00    -0.493 OA
ATOM     18  C   UNL     1       9.623   6.492  14.000  1.00  0.00     0.278 C 
ENDBRANCH  12  17
BRANCH  13  19
ATOM     19  O   UNL     1       7.043   6.944  12.725  1.00  0.00    -0.504 OA
ATOM     20  H   UNL     1       7.365   7.388  11.874  1.00  0.00     0.293 HD
ENDBRANCH  13  19
ENDBRANCH   1  11
BRANCH  10  21
ATOM     21  O   UNL     1       5.875   1.353  15.481  1.00  0.00    -0.500 OA
ATOM     22  H   UNL     1       5.866   2.366  15.492  1.00  0.00     0.294 HD
ENDBRANCH  10  21
BRANCH   5  23
ATOM     23  O   UNL     1       6.993  -3.418   9.462  1.00  0.00    -0.507 OA
ATOM     24  H   UNL     1       7.302  -4.382   9.417  1.00  0.00     0.293 HD
ENDBRANCH   5  23
BRANCH   7  25
ATOM     25  O   UNL     1       5.882  -3.706  14.139  1.00  0.00    -0.507 OA
ATOM     26  H   UNL     1       5.922  -3.407  15.103  1.00  0.00     0.293 HD
ENDBRANCH   7  25
TORSDOF 6
ENDMDL
MODEL 2
REMARK VINA RESULT:    -2.570      1.580      2.913
REMARK INTER + INTRA:          -3.000
REMARK INTER:                  -3.849
REMARK INTRA:                   0.849
REMARK UNBOUND:                 0.172
REMARK SMILES COc1cc(-c2[o+]c3cc(O)cc(O)c3cc2O)ccc1O
REMARK SMILES IDX 6 1 7 2 8 3 9 4 10 5 12 6 13 7 15 8 16 9 17 10 5 11 3 12
REMARK SMILES IDX 21 13 4 14 20 15 19 16 2 17 1 18 22 19 18 21 11 23 14 25
REMARK H PARENT 22 20 18 22 11 24 14 26
REMARK Flexibility Score: inf
ROOT
ATOM      1  C   UNL     1       6.553  -0.072  12.333  1.00  0.00     0.402 A 
ATOM      2  O   UNL     1       6.906  -0.746  13.424  1.00  0.00    -0.202 OA
ATOM      3  C   UNL     1       6.928  -2.074  13.488  1.00  0.00     0.368 A 
ATOM      4  C   UNL     1       7.310  -2.691  14.680  1.00  0.00     0.162 A 
ATOM      5  C   UNL     1       7.339  -4.083  14.777  1.00  0.00     0.128 A 
ATOM      6  C   UNL     1       6.981  -4.865  13.673  1.00  0.00     0.093 A 
ATOM      7  C   UNL     1       6.593  -4.269  12.465  1.00  0.00     0.136 A 
ATOM      8  C   UNL     1       6.565  -2.855  12.364  1.00  0.00     0.125 A 
ATOM      9  C   UNL     1       6.203  -2.172  11.191  1.00  0.00     0.078 A 
ATOM     10  C   UNL     1       6.204  -0.774  11.165  1.00  0.00     0.223 A 
ENDROOT
BRANCH   1  11
ATOM     11  C   UNL     1       6.559   1.408  12.390  1.00  0.00     0.087 A 
ATOM     12  C   UNL     1       7.293   3.509  13.407  1.00  0.00     0.161 A 
ATOM     13  C   UNL     1       6.582   4.222  12.425  1.00  0.00     0.157 A 
ATOM     14  C   UNL     1       7.283   2.100  13.377  1.00  0.00     0.068 A 
ATOM     15  C   UNL     1       5.882   3.533  11.430  1.00  0.00     0.051 A 
ATOM     16  C   UNL     1       5.875   2.138  11.407  1.00  0.00     0.022 A 
BRANCH  12  17
ATOM     17  O   UNL     1       7.998   4.227  14.387  1.00  0.00    -0.493 OA
ATOM     18  C   UNL     1       8.811   5.366  14.126  1.00  0.00     0.278 C 
ENDBRANCH  12  17
BRANCH  13  19
ATOM     19  O   UNL     1       6.563   5.616  12.418  1.00  0.00    -0.504 OA
ATOM     20  H   UNL     1       6.212   6.148  11.629  1.00  0.00     0.293 HD
ENDBRANCH  13  19
ENDBRANCH   1  11
BRANCH  10  21
ATOM     21  O   UNL     1       5.893  -0.096   9.986  1.00  0.00    -0.500 OA
ATOM     22  H   UNL     1       5.821  -0.577   9.097  1.00  0.00     0.294 HD
ENDBRANCH  10  21
BRANCH   5  23
ATOM     23  O   UNL     1       7.723  -4.681  15.975  1.00  0.00    -0.507 OA
ATOM     24  H   UNL     1       7.299  -5.543  16.298  1.00  0.00     0.293 HD
ENDBRANCH   5  23
BRANCH   7  25
ATOM     25  O   UNL     1       6.247  -5.120  11.412  1.00  0.00    -0.507 OA
ATOM     26  H   UNL     1       6.723  -5.983  11.196  1.00  0.00     0.293 HD
ENDBRANCH   7  25
TORSDOF 6
ENDMDL
MODEL 3
REMARK VINA RESULT:    -2.352      2.469      8.192
REMARK INTER + INTRA:          -2.730
REMARK INTER:                  -2.783
REMARK INTRA:                   0.052
REMARK UNBOUND:                 0.172
REMARK SMILES COc1cc(-c2[o+]c3cc(O)cc(O)c3cc2O)ccc1O
REMARK SMILES IDX 6 1 7 2 8 3 9 4 10 5 12 6 13 7 15 8 16 9 17 10 5 11 3 12
REMARK SMILES IDX 21 13 4 14 20 15 19 16 2 17 1 18 22 19 18 21 11 23 14 25
REMARK H PARENT 22 20 18 22 11 24 14 26
REMARK Flexibility Score: inf
ROOT
ATOM      1  C   UNL     1       6.918   4.262  13.492  1.00  0.00     0.402 A 
ATOM      2  O   UNL     1       6.645   4.789  14.682  1.00  0.00    -0.202 OA
ATOM      3  C   UNL     1       6.612   6.098  14.912  1.00  0.00     0.368 A 
ATOM      4  C   UNL     1       6.318   6.556  16.198  1.00  0.00     0.162 A 
ATOM      5  C   UNL     1       6.280   7.924  16.468  1.00  0.00     0.128 A 
ATOM      6  C   UNL     1       6.541   8.844  15.445  1.00  0.00     0.093 A 
ATOM      7  C   UNL     1       6.838   8.409  14.147  1.00  0.00     0.136 A 
ATOM      8  C   UNL     1       6.875   7.019  13.869  1.00  0.00     0.125 A 
ATOM      9  C   UNL     1       7.151   6.493  12.595  1.00  0.00     0.078 A 
ATOM     10  C   UNL     1       7.164   5.110  12.397  1.00  0.00     0.223 A 
ENDROOT
BRANCH   1  11
ATOM     11  C   UNL     1       6.934   2.786  13.366  1.00  0.00     0.087 A 
ATOM     12  C   UNL     1       6.425   0.737  12.130  1.00  0.00     0.161 A 
ATOM     13  C   UNL     1       7.036  -0.018  13.148  1.00  0.00     0.157 A 
ATOM     14  C   UNL     1       6.386   2.141  12.243  1.00  0.00     0.068 A 
ATOM     15  C   UNL     1       7.601   0.626  14.253  1.00  0.00     0.051 A 
ATOM     16  C   UNL     1       7.558   2.017  14.359  1.00  0.00     0.022 A 
BRANCH  12  17
ATOM     17  O   UNL     1       5.877   0.064  11.026  1.00  0.00    -0.493 OA
ATOM     18  C   UNL     1       5.875   0.565   9.693  1.00  0.00     0.278 C 
ENDBRANCH  12  17
BRANCH  13  19
ATOM     19  O   UNL     1       7.095  -1.409  13.078  1.00  0.00    -0.504 OA
ATOM     20  H   UNL     1       6.300  -1.996  13.303  1.00  0.00     0.293 HD
ENDBRANCH  13  19
ENDBRANCH   1  11
BRANCH  10  21
ATOM     21  O   UNL     1       7.389   4.588  11.122  1.00  0.00    -0.500 OA
ATOM     22  H   UNL     1       6.721   3.975  10.671  1.00  0.00     0.294 HD
ENDBRANCH  10  21
BRANCH   5  23
ATOM     23  O   UNL     1       5.985   8.362  17.757  1.00  0.00    -0.507 OA
ATOM     24  H   UNL     1       5.292   7.896  18.331  1.00  0.00     0.293 HD
ENDBRANCH   5  23
BRANCH   7  25
ATOM     25  O   UNL     1       7.090   9.390  13.183  1.00  0.00    -0.507 OA
ATOM     26  H   UNL     1       7.403   9.198  12.243  1.00  0.00     0.293 HD
ENDBRANCH   7  25
TORSDOF 6
ENDMDL
MODEL 4
REMARK VINA RESULT:    -1.911      1.453      7.075
REMARK INTER + INTRA:          -2.186
REMARK INTER:                  -2.422
REMARK INTRA:                   0.236
REMARK UNBOUND:                 0.172
REMARK SMILES COc1cc(-c2[o+]c3cc(O)cc(O)c3cc2O)ccc1O
REMARK SMILES IDX 6 1 7 2 8 3 9 4 10 5 12 6 13 7 15 8 16 9 17 10 5 11 3 12
REMARK SMILES IDX 21 13 4 14 20 15 19 16 2 17 1 18 22 19 18 21 11 23 14 25
REMARK H PARENT 22 20 18 22 11 24 14 26
REMARK Flexibility Score: inf
ROOT
ATOM      1  C   UNL     1       6.613   1.343  12.997  1.00  0.00     0.402 A 
ATOM      2  O   UNL     1       7.082   2.290  12.190  1.00  0.00    -0.202 OA
ATOM      3  C   UNL     1       7.262   3.551  12.570  1.00  0.00     0.368 A 
ATOM      4  C   UNL     1       7.758   4.475  11.648  1.00  0.00     0.162 A 
ATOM      5  C   UNL     1       7.953   5.806  12.018  1.00  0.00     0.128 A 
ATOM      6  C   UNL     1       7.649   6.219  13.321  1.00  0.00     0.093 A 
ATOM      7  C   UNL     1       7.150   5.311  14.264  1.00  0.00     0.136 A 
ATOM      8  C   UNL     1       6.953   3.957  13.891  1.00  0.00     0.125 A 
ATOM      9  C   UNL     1       6.471   2.975  14.773  1.00  0.00     0.078 A 
ATOM     10  C   UNL     1       6.307   1.659  14.333  1.00  0.00     0.223 A 
ENDROOT
BRANCH   1  11
ATOM     11  C   UNL     1       6.448  -0.024  12.453  1.00  0.00     0.087 A 
ATOM     12  C   UNL     1       6.098  -1.554  10.575  1.00  0.00     0.161 A 
ATOM     13  C   UNL     1       6.193  -2.645  11.459  1.00  0.00     0.157 A 
ATOM     14  C   UNL     1       6.235  -0.246  11.080  1.00  0.00     0.068 A 
ATOM     15  C   UNL     1       6.428  -2.425  12.819  1.00  0.00     0.051 A 
ATOM     16  C   UNL     1       6.562  -1.126  13.313  1.00  0.00     0.022 A 
BRANCH  12  17
ATOM     17  O   UNL     1       5.875  -1.805   9.212  1.00  0.00    -0.493 OA
ATOM     18  C   UNL     1       6.775  -1.452   8.167  1.00  0.00     0.278 C 
ENDBRANCH  12  17
BRANCH  13  19
ATOM     19  O   UNL     1       6.061  -3.956  11.003  1.00  0.00    -0.504 OA
ATOM     20  H   UNL     1       6.457  -4.264  10.122  1.00  0.00     0.293 HD
ENDBRANCH  13  19
ENDBRANCH   1  11
BRANCH  10  21
ATOM     21  O   UNL     1       5.875   0.674  15.222  1.00  0.00    -0.500 OA
ATOM     22  H   UNL     1       5.601   0.895  16.172  1.00  0.00     0.294 HD
ENDBRANCH  10  21
BRANCH   5  23
ATOM     23  O   UNL     1       8.448   6.714  11.084  1.00  0.00    -0.507 OA
ATOM     24  H   UNL     1       8.678   6.431  10.139  1.00  0.00     0.293 HD
ENDBRANCH   5  23
BRANCH   7  25
ATOM     25  O   UNL     1       6.868   5.802  15.541  1.00  0.00    -0.507 OA
ATOM     26  H   UNL     1       6.440   6.698  15.726  1.00  0.00     0.293 HD
ENDBRANCH   7  25
TORSDOF 6
ENDMDL
MODEL 5
REMARK VINA RESULT:    -0.996      1.807      3.419
REMARK INTER + INTRA:          -1.058
REMARK INTER:                  -1.770
REMARK INTRA:                   0.712
REMARK UNBOUND:                 0.172
REMARK SMILES COc1cc(-c2[o+]c3cc(O)cc(O)c3cc2O)ccc1O
REMARK SMILES IDX 6 1 7 2 8 3 9 4 10 5 12 6 13 7 15 8 16 9 17 10 5 11 3 12
REMARK SMILES IDX 21 13 4 14 20 15 19 16 2 17 1 18 22 19 18 21 11 23 14 25
REMARK H PARENT 22 20 18 22 11 24 14 26
REMARK Flexibility Score: inf
ROOT
ATOM      1  C   UNL     1       7.020   3.124  12.698  1.00  0.00     0.402 A 
ATOM      2  O   UNL     1       7.078   2.115  13.562  1.00  0.00    -0.202 OA
ATOM      3  C   UNL     1       6.833   0.851  13.228  1.00  0.00     0.368 A 
ATOM      4  C   UNL     1       6.916  -0.139  14.209  1.00  0.00     0.162 A 
ATOM      5  C   UNL     1       6.662  -1.473  13.888  1.00  0.00     0.128 A 
ATOM      6  C   UNL     1       6.319  -1.821  12.575  1.00  0.00     0.093 A 
ATOM      7  C   UNL     1       6.229  -0.845  11.574  1.00  0.00     0.136 A 
ATOM      8  C   UNL     1       6.489   0.511  11.898  1.00  0.00     0.125 A 
ATOM      9  C   UNL     1       6.437   1.554  10.957  1.00  0.00     0.078 A 
ATOM     10  C   UNL     1       6.712   2.866  11.350  1.00  0.00     0.223 A 
ENDROOT
BRANCH   1  11
ATOM     11  C   UNL     1       7.304   4.489  13.194  1.00  0.00     0.087 A 
ATOM     12  C   UNL     1       6.715   6.854  13.414  1.00  0.00     0.161 A 
ATOM     13  C   UNL     1       7.861   7.056  14.205  1.00  0.00     0.157 A 
ATOM     14  C   UNL     1       6.440   5.564  12.919  1.00  0.00     0.068 A 
ATOM     15  C   UNL     1       8.707   5.983  14.498  1.00  0.00     0.051 A 
ATOM     16  C   UNL     1       8.429   4.708  14.004  1.00  0.00     0.022 A 
BRANCH  12  17
ATOM     17  O   UNL     1       5.876   7.948  13.147  1.00  0.00    -0.493 OA
ATOM     18  C   UNL     1       6.283   9.312  13.199  1.00  0.00     0.278 C 
ENDBRANCH  12  17
BRANCH  13  19
ATOM     19  O   UNL     1       8.173   8.317  14.714  1.00  0.00    -0.504 OA
ATOM     20  H   UNL     1       8.002   8.567  15.681  1.00  0.00     0.293 HD
ENDBRANCH  13  19
ENDBRANCH   1  11
BRANCH  10  21
ATOM     21  O   UNL     1       6.707   3.894  10.406  1.00  0.00    -0.500 OA
ATOM     22  H   UNL     1       7.155   3.791   9.503  1.00  0.00     0.294 HD
ENDBRANCH  10  21
BRANCH   5  23
ATOM     23  O   UNL     1       6.749  -2.448  14.879  1.00  0.00    -0.507 OA
ATOM     24  H   UNL     1       6.296  -2.333  15.778  1.00  0.00     0.293 HD
ENDBRANCH   5  23
BRANCH   7  25
ATOM     25  O   UNL     1       5.878  -1.272  10.291  1.00  0.00    -0.507 OA
ATOM     26  H   UNL     1       6.237  -0.869   9.438  1.00  0.00     0.293 HD
ENDBRANCH   7  25
TORSDOF 6
ENDMDL
