MODEL 1
REMARK VINA RESULT:    -4.479      0.000      0.000
REMARK INTER + INTRA:          -4.919
REMARK INTER:                  -4.871
REMARK INTRA:                  -0.047
REMARK UNBOUND:                -0.047
REMARK SMILES COc1cc2ccc(=O)oc2cc1O
REMARK SMILES IDX 3 1 13 2 12 3 11 4 5 5 4 6 6 7 7 8 8 9 9 10 10 11 2 12 1 13
REMARK SMILES IDX 14 14
REMARK H PARENT 14 15
REMARK Flexibility Score: inf
ROOT
ATOM      1  C   UNL     1      23.795   3.881  24.575  1.00  0.00     0.161 A 
ATOM      2  C   UNL     1      23.275   3.063  25.591  1.00  0.00     0.161 A 
ATOM      3  C   UNL     1      22.069   3.400  26.222  1.00  0.00     0.098 A 
ATOM      4  C   UNL     1      21.374   4.552  25.847  1.00  0.00     0.142 A 
ATOM      5  C   UNL     1      21.890   5.380  24.827  1.00  0.00     0.022 A 
ATOM      6  C   UNL     1      23.095   5.044  24.195  1.00  0.00     0.062 A 
ATOM      7  C   UNL     1      21.172   6.527  24.473  1.00  0.00     0.019 A 
ATOM      8  C   UNL     1      19.978   6.818  25.131  1.00  0.00     0.094 A 
ATOM      9  C   UNL     1      19.529   5.952  26.134  1.00  0.00     0.336 A 
ATOM     10  O   UNL     1      18.453   6.197  26.740  1.00  0.00    -0.246 OA
ATOM     11  O   UNL     1      20.231   4.867  26.451  1.00  0.00    -0.423 OA
ENDROOT
BRANCH   1  12
ATOM     12  O   UNL     1      25.004   3.505  23.970  1.00  0.00    -0.493 OA
ATOM     13  C   UNL     1      25.379   3.842  22.638  1.00  0.00     0.278 C 
ENDBRANCH   1  12
BRANCH   2  14
ATOM     14  O   UNL     1      23.965   1.913  25.968  1.00  0.00    -0.504 OA
ATOM     15  H   UNL     1      24.693   1.939  26.673  1.00  0.00     0.293 HD
ENDBRANCH   2  14
TORSDOF 2
ENDMDL
MODEL 2
REMARK VINA RESULT:    -4.204      2.434      3.816
REMARK INTER + INTRA:          -4.620
REMARK INTER:                  -4.565
REMARK INTRA:                  -0.055
REMARK UNBOUND:                -0.047
REMARK SMILES COc1cc2ccc(=O)oc2cc1O
REMARK SMILES IDX 3 1 13 2 12 3 11 4 5 5 4 6 6 7 7 8 8 9 9 10 10 11 2 12 1 13
REMARK SMILES IDX 14 14
REMARK H PARENT 14 15
REMARK Flexibility Score: inf
ROOT
ATOM      1  C   UNL     1      26.192   6.166  22.489  1.00  0.00     0.161 A 
ATOM      2  C   UNL     1      26.021   4.789  22.277  1.00  0.00     0.161 A 
ATOM      3  C   UNL     1      24.930   4.115  22.844  1.00  0.00     0.098 A 
ATOM      4  C   UNL     1      24.003   4.807  23.626  1.00  0.00     0.142 A 
ATOM      5  C   UNL     1      24.166   6.192  23.844  1.00  0.00     0.022 A 
ATOM      6  C   UNL     1      25.256   6.867  23.278  1.00  0.00     0.062 A 
ATOM      7  C   UNL     1      23.221   6.858  24.631  1.00  0.00     0.019 A 
ATOM      8  C   UNL     1      22.154   6.143  25.173  1.00  0.00     0.094 A 
ATOM      9  C   UNL     1      22.057   4.772  24.915  1.00  0.00     0.336 A 
ATOM     10  O   UNL     1      21.101   4.108  25.394  1.00  0.00    -0.246 OA
ATOM     11  O   UNL     1      22.970   4.162  24.162  1.00  0.00    -0.423 OA
ENDROOT
BRANCH   1  12
ATOM     12  O   UNL     1      27.297   6.799  21.902  1.00  0.00    -0.493 OA
ATOM     13  C   UNL     1      28.544   7.018  22.556  1.00  0.00     0.278 C 
ENDBRANCH   1  12
BRANCH   2  14
ATOM     14  O   UNL     1      26.944   4.094  21.497  1.00  0.00    -0.504 OA
ATOM     15  H   UNL     1      27.871   4.464  21.317  1.00  0.00     0.293 HD
ENDBRANCH   2  14
TORSDOF 2
ENDMDL
MODEL 3
REMARK VINA RESULT:    -4.151      2.156      4.898
REMARK INTER + INTRA:          -4.562
REMARK INTER:                  -4.510
REMARK INTRA:                  -0.052
REMARK UNBOUND:                -0.047
REMARK SMILES COc1cc2ccc(=O)oc2cc1O
REMARK SMILES IDX 3 1 13 2 12 3 11 4 5 5 4 6 6 7 7 8 8 9 9 10 10 11 2 12 1 13
REMARK SMILES IDX 14 14
REMARK H PARENT 14 15
REMARK Flexibility Score: inf
ROOT
ATOM      1  C   UNL     1      21.740   5.362  25.061  1.00  0.00     0.161 A 
ATOM      2  C   UNL     1      21.613   3.964  25.083  1.00  0.00     0.161 A 
ATOM      3  C   UNL     1      22.637   3.168  25.614  1.00  0.00     0.098 A 
ATOM      4  C   UNL     1      23.794   3.758  26.128  1.00  0.00     0.142 A 
ATOM      5  C   UNL     1      23.930   5.163  26.112  1.00  0.00     0.022 A 
ATOM      6  C   UNL     1      22.907   5.959  25.581  1.00  0.00     0.062 A 
ATOM      7  C   UNL     1      25.100   5.724  26.634  1.00  0.00     0.019 A 
ATOM      8  C   UNL     1      26.089   4.889  27.151  1.00  0.00     0.094 A 
ATOM      9  C   UNL     1      25.885   3.505  27.134  1.00  0.00     0.336 A 
ATOM     10  O   UNL     1      26.766   2.734  27.596  1.00  0.00    -0.246 OA
ATOM     11  O   UNL     1      24.763   2.997  26.632  1.00  0.00    -0.423 OA
ENDROOT
BRANCH   1  12
ATOM     12  O   UNL     1      20.691   6.120  24.520  1.00  0.00    -0.493 OA
ATOM     13  C   UNL     1      19.622   6.677  25.280  1.00  0.00     0.278 C 
ENDBRANCH   1  12
BRANCH   2  14
ATOM     14  O   UNL     1      20.460   3.372  24.570  1.00  0.00    -0.504 OA
ATOM     15  H   UNL     1      19.799   2.891  25.170  1.00  0.00     0.293 HD
ENDBRANCH   2  14
TORSDOF 2
ENDMDL
MODEL 4
REMARK VINA RESULT:    -4.100      1.650      5.072
REMARK INTER + INTRA:          -4.507
REMARK INTER:                  -4.442
REMARK INTRA:                  -0.065
REMARK UNBOUND:                -0.047
REMARK SMILES COc1cc2ccc(=O)oc2cc1O
REMARK SMILES IDX 3 1 13 2 12 3 11 4 5 5 4 6 6 7 7 8 8 9 9 10 10 11 2 12 1 13
REMARK SMILES IDX 14 14
REMARK H PARENT 14 15
REMARK Flexibility Score: inf
ROOT
ATOM      1  C   UNL     1      22.477   5.483  25.905  1.00  0.00     0.161 A 
ATOM      2  C   UNL     1      22.446   4.088  25.754  1.00  0.00     0.161 A 
ATOM      3  C   UNL     1      23.263   3.460  24.804  1.00  0.00     0.098 A 
ATOM      4  C   UNL     1      24.117   4.218  23.998  1.00  0.00     0.142 A 
ATOM      5  C   UNL     1      24.155   5.621  24.143  1.00  0.00     0.022 A 
ATOM      6  C   UNL     1      23.338   6.249  25.093  1.00  0.00     0.062 A 
ATOM      7  C   UNL     1      25.019   6.352  23.322  1.00  0.00     0.019 A 
ATOM      8  C   UNL     1      25.812   5.681  22.392  1.00  0.00     0.094 A 
ATOM      9  C   UNL     1      25.720   4.288  22.304  1.00  0.00     0.336 A 
ATOM     10  O   UNL     1      26.428   3.664  21.470  1.00  0.00    -0.246 OA
ATOM     11  O   UNL     1      24.890   3.616  23.097  1.00  0.00    -0.423 OA
ENDROOT
BRANCH   1  12
ATOM     12  O   UNL     1      21.642   6.068  26.869  1.00  0.00    -0.493 OA
ATOM     13  C   UNL     1      20.399   6.703  26.583  1.00  0.00     0.278 C 
ENDBRANCH   1  12
BRANCH   2  14
ATOM     14  O   UNL     1      21.596   3.329  26.557  1.00  0.00    -0.504 OA
ATOM     15  H   UNL     1      20.587   3.411  26.486  1.00  0.00     0.293 HD
ENDBRANCH   2  14
TORSDOF 2
ENDMDL
MODEL 5
REMARK VINA RESULT:    -4.083      1.733      2.688
REMARK INTER + INTRA:          -4.489
REMARK INTER:                  -4.489
REMARK INTRA:                   0.001
REMARK UNBOUND:                -0.047
REMARK SMILES COc1cc2ccc(=O)oc2cc1O
REMARK SMILES IDX 3 1 13 2 12 3 11 4 5 5 4 6 6 7 7 8 8 9 9 10 10 11 2 12 1 13
REMARK SMILES IDX 14 14
REMARK H PARENT 14 15
REMARK Flexibility Score: inf
ROOT
ATOM      1  C   UNL     1      24.857   4.304  23.460  1.00  0.00     0.161 A 
ATOM      2  C   UNL     1      25.097   5.668  23.691  1.00  0.00     0.161 A 
ATOM      3  C   UNL     1      24.102   6.476  24.260  1.00  0.00     0.098 A 
ATOM      4  C   UNL     1      22.863   5.931  24.603  1.00  0.00     0.142 A 
ATOM      5  C   UNL     1      22.612   4.561  24.375  1.00  0.00     0.022 A 
ATOM      6  C   UNL     1      23.606   3.753  23.806  1.00  0.00     0.062 A 
ATOM      7  C   UNL     1      21.362   4.045  24.729  1.00  0.00     0.019 A 
ATOM      8  C   UNL     1      20.406   4.890  25.292  1.00  0.00     0.094 A 
ATOM      9  C   UNL     1      20.725   6.238  25.487  1.00  0.00     0.336 A 
ATOM     10  O   UNL     1      19.876   7.017  25.994  1.00  0.00    -0.246 OA
ATOM     11  O   UNL     1      21.922   6.703  25.142  1.00  0.00    -0.423 OA
ENDROOT
BRANCH   1  12
ATOM     12  O   UNL     1      25.881   3.534  22.889  1.00  0.00    -0.493 OA
ATOM     13  C   UNL     1      26.144   3.448  21.492  1.00  0.00     0.278 C 
ENDBRANCH   1  12
BRANCH   2  14
ATOM     14  O   UNL     1      26.333   6.215  23.350  1.00  0.00    -0.504 OA
ATOM     15  H   UNL     1      26.815   6.862  23.964  1.00  0.00     0.293 HD
ENDBRANCH   2  14
TORSDOF 2
ENDMDL
MODEL 6
REMARK VINA RESULT:    -4.051      9.293     11.003
REMARK INTER + INTRA:          -4.454
REMARK INTER:                  -4.395
REMARK INTRA:                  -0.058
REMARK UNBOUND:                -0.047
REMARK SMILES COc1cc2ccc(=O)oc2cc1O
REMARK SMILES IDX 3 1 13 2 12 3 11 4 5 5 4 6 6 7 7 8 8 9 9 10 10 11 2 12 1 13
REMARK SMILES IDX 14 14
REMARK H PARENT 14 15
REMARK Flexibility Score: inf
ROOT
ATOM      1  C   UNL     1      18.997  -2.738  29.213  1.00  0.00     0.161 A 
ATOM      2  C   UNL     1      19.918  -3.624  28.633  1.00  0.00     0.161 A 
ATOM      3  C   UNL     1      19.471  -4.787  27.989  1.00  0.00     0.098 A 
ATOM      4  C   UNL     1      18.106  -5.074  27.919  1.00  0.00     0.142 A 
ATOM      5  C   UNL     1      17.173  -4.188  28.499  1.00  0.00     0.022 A 
ATOM      6  C   UNL     1      17.619  -3.025  29.143  1.00  0.00     0.062 A 
ATOM      7  C   UNL     1      15.813  -4.502  28.413  1.00  0.00     0.019 A 
ATOM      8  C   UNL     1      15.420  -5.670  27.761  1.00  0.00     0.094 A 
ATOM      9  C   UNL     1      16.401  -6.501  27.210  1.00  0.00     0.336 A 
ATOM     10  O   UNL     1      16.066  -7.560  26.618  1.00  0.00    -0.246 OA
ATOM     11  O   UNL     1      17.688  -6.179  27.306  1.00  0.00    -0.423 OA
ENDROOT
BRANCH   1  12
ATOM     12  O   UNL     1      19.489  -1.587  29.847  1.00  0.00    -0.493 OA
ATOM     13  C   UNL     1      19.228  -1.238  31.204  1.00  0.00     0.278 C 
ENDBRANCH   1  12
BRANCH   2  14
ATOM     14  O   UNL     1      21.281  -3.342  28.701  1.00  0.00    -0.504 OA
ATOM     15  H   UNL     1      21.766  -2.880  27.940  1.00  0.00     0.293 HD
ENDBRANCH   2  14
TORSDOF 2
ENDMDL
MODEL 7
REMARK VINA RESULT:    -4.019      2.539      5.065
REMARK INTER + INTRA:          -4.419
REMARK INTER:                  -4.354
REMARK INTRA:                  -0.065
REMARK UNBOUND:                -0.047
REMARK SMILES COc1cc2ccc(=O)oc2cc1O
REMARK SMILES IDX 3 1 13 2 12 3 11 4 5 5 4 6 6 7 7 8 8 9 9 10 10 11 2 12 1 13
REMARK SMILES IDX 14 14
REMARK H PARENT 14 15
REMARK Flexibility Score: inf
ROOT
ATOM      1  C   UNL     1      23.239   3.640  25.880  1.00  0.00     0.161 A 
ATOM      2  C   UNL     1      23.271   4.988  26.271  1.00  0.00     0.161 A 
ATOM      3  C   UNL     1      23.932   5.938  25.481  1.00  0.00     0.098 A 
ATOM      4  C   UNL     1      24.567   5.554  24.297  1.00  0.00     0.142 A 
ATOM      5  C   UNL     1      24.540   4.201  23.897  1.00  0.00     0.022 A 
ATOM      6  C   UNL     1      23.879   3.249  24.685  1.00  0.00     0.062 A 
ATOM      7  C   UNL     1      25.184   3.846  22.707  1.00  0.00     0.019 A 
ATOM      8  C   UNL     1      25.828   4.829  21.957  1.00  0.00     0.094 A 
ATOM      9  C   UNL     1      25.814   6.149  22.417  1.00  0.00     0.336 A 
ATOM     10  O   UNL     1      26.390   7.052  21.755  1.00  0.00    -0.246 OA
ATOM     11  O   UNL     1      25.194   6.460  23.552  1.00  0.00    -0.423 OA
ENDROOT
BRANCH   1  12
ATOM     12  O   UNL     1      22.565   2.723  26.701  1.00  0.00    -0.493 OA
ATOM     13  C   UNL     1      23.205   1.815  27.593  1.00  0.00     0.278 C 
ENDBRANCH   1  12
BRANCH   2  14
ATOM     14  O   UNL     1      22.639   5.375  27.451  1.00  0.00    -0.504 OA
ATOM     15  H   UNL     1      21.666   5.662  27.463  1.00  0.00     0.293 HD
ENDBRANCH   2  14
TORSDOF 2
ENDMDL
MODEL 8
REMARK VINA RESULT:    -3.940      1.780      2.136
REMARK INTER + INTRA:          -4.333
REMARK INTER:                  -4.280
REMARK INTRA:                  -0.053
REMARK UNBOUND:                -0.047
REMARK SMILES COc1cc2ccc(=O)oc2cc1O
REMARK SMILES IDX 3 1 13 2 12 3 11 4 5 5 4 6 6 7 7 8 8 9 9 10 10 11 2 12 1 13
REMARK SMILES IDX 14 14
REMARK H PARENT 14 15
REMARK Flexibility Score: inf
ROOT
ATOM      1  C   UNL     1      24.753   3.663  26.237  1.00  0.00     0.161 A 
ATOM      2  C   UNL     1      23.730   2.703  26.290  1.00  0.00     0.161 A 
ATOM      3  C   UNL     1      22.410   3.058  25.980  1.00  0.00     0.098 A 
ATOM      4  C   UNL     1      22.099   4.370  25.616  1.00  0.00     0.142 A 
ATOM      5  C   UNL     1      23.121   5.342  25.559  1.00  0.00     0.022 A 
ATOM      6  C   UNL     1      24.442   4.988  25.869  1.00  0.00     0.062 A 
ATOM      7  C   UNL     1      22.780   6.647  25.191  1.00  0.00     0.019 A 
ATOM      8  C   UNL     1      21.452   6.949  24.892  1.00  0.00     0.094 A 
ATOM      9  C   UNL     1      20.492   5.934  24.971  1.00  0.00     0.336 A 
ATOM     10  O   UNL     1      19.288   6.187  24.705  1.00  0.00    -0.246 OA
ATOM     11  O   UNL     1      20.844   4.701  25.323  1.00  0.00    -0.423 OA
ENDROOT
BRANCH   1  12
ATOM     12  O   UNL     1      26.060   3.263  26.555  1.00  0.00    -0.493 OA
ATOM     13  C   UNL     1      26.647   3.377  27.848  1.00  0.00     0.278 C 
ENDBRANCH   1  12
BRANCH   2  14
ATOM     14  O   UNL     1      24.036   1.393  26.653  1.00  0.00    -0.504 OA
ATOM     15  H   UNL     1      23.310   0.707  26.827  1.00  0.00     0.293 HD
ENDBRANCH   2  14
TORSDOF 2
ENDMDL
MODEL 9
REMARK VINA RESULT:    -3.907      2.248      5.027
REMARK INTER + INTRA:          -4.297
REMARK INTER:                  -4.249
REMARK INTRA:                  -0.048
REMARK UNBOUND:                -0.047
REMARK SMILES COc1cc2ccc(=O)oc2cc1O
REMARK SMILES IDX 3 1 13 2 12 3 11 4 5 5 4 6 6 7 7 8 8 9 9 10 10 11 2 12 1 13
REMARK SMILES IDX 14 14
REMARK H PARENT 14 15
REMARK Flexibility Score: inf
ROOT
ATOM      1  C   UNL     1      21.697   4.488  25.715  1.00  0.00     0.161 A 
ATOM      2  C   UNL     1      22.690   3.764  25.036  1.00  0.00     0.161 A 
ATOM      3  C   UNL     1      23.305   2.662  25.648  1.00  0.00     0.098 A 
ATOM      4  C   UNL     1      22.935   2.275  26.938  1.00  0.00     0.142 A 
ATOM      5  C   UNL     1      21.937   2.997  27.628  1.00  0.00     0.022 A 
ATOM      6  C   UNL     1      21.322   4.098  27.017  1.00  0.00     0.062 A 
ATOM      7  C   UNL     1      21.589   2.585  28.918  1.00  0.00     0.019 A 
ATOM      8  C   UNL     1      22.230   1.483  29.482  1.00  0.00     0.094 A 
ATOM      9  C   UNL     1      23.210   0.816  28.739  1.00  0.00     0.336 A 
ATOM     10  O   UNL     1      23.800  -0.181  29.231  1.00  0.00    -0.246 OA
ATOM     11  O   UNL     1      23.522   1.229  27.514  1.00  0.00    -0.423 OA
ENDROOT
BRANCH   1  12
ATOM     12  O   UNL     1      21.109   5.583  25.064  1.00  0.00    -0.493 OA
ATOM     13  C   UNL     1      19.763   6.008  25.256  1.00  0.00     0.278 C 
ENDBRANCH   1  12
BRANCH   2  14
ATOM     14  O   UNL     1      23.061   4.147  23.749  1.00  0.00    -0.504 OA
ATOM     15  H   UNL     1      22.558   3.820  22.932  1.00  0.00     0.293 HD
ENDBRANCH   2  14
TORSDOF 2
ENDMDL
