MODEL 1
REMARK VINA RESULT:    -7.965      0.000      0.000
REMARK INTER + INTRA:          -9.913
REMARK INTER:                  -9.595
REMARK INTRA:                  -0.318
REMARK UNBOUND:                -0.318
REMARK SMILES O=c1c(O)c(-c2ccc(O)c(O)c2)oc2cc(O)cc(O)c12
REMARK SMILES IDX 5 1 3 2 2 3 1 4 22 5 20 6 19 7 17 8 16 9 15 10 14 11 6 12
REMARK SMILES IDX 7 13 8 14 9 15 13 16 11 17 10 18 12 20 4 22 21 24 18 26
REMARK H PARENT 10 19 12 21 4 23 21 25 18 27
REMARK Flexibility Score: inf
ROOT
ATOM      1  C   UNL     1     -18.512  58.638  -4.837  1.00  0.00     0.180 A 
ATOM      2  C   UNL     1     -17.685  58.538  -5.969  1.00  0.00     0.208 A 
ATOM      3  C   UNL     1     -16.408  59.119  -5.932  1.00  0.00     0.238 A 
ATOM      4  O   UNL     1     -15.693  59.073  -6.967  1.00  0.00    -0.285 OA
ATOM      5  C   UNL     1     -15.967  59.778  -4.759  1.00  0.00     0.111 A 
ATOM      6  C   UNL     1     -14.677  60.368  -4.597  1.00  0.00     0.134 A 
ATOM      7  C   UNL     1     -14.397  61.108  -3.441  1.00  0.00     0.093 A 
ATOM      8  C   UNL     1     -15.337  61.224  -2.415  1.00  0.00     0.123 A 
ATOM      9  C   UNL     1     -16.577  60.603  -2.539  1.00  0.00     0.094 A 
ATOM     10  C   UNL     1     -16.899  59.888  -3.695  1.00  0.00     0.146 A 
ATOM     11  O   UNL     1     -18.096  59.319  -3.776  1.00  0.00    -0.452 OA
ENDROOT
BRANCH   1  12
ATOM     12  C   UNL     1     -19.862  58.030  -4.792  1.00  0.00     0.025 A 
ATOM     13  C   UNL     1     -20.965  58.759  -5.265  1.00  0.00     0.016 A 
ATOM     14  C   UNL     1     -22.250  58.213  -5.212  1.00  0.00     0.051 A 
ATOM     15  C   UNL     1     -22.453  56.938  -4.670  1.00  0.00     0.157 A 
ATOM     16  C   UNL     1     -20.074  56.758  -4.229  1.00  0.00     0.062 A 
ATOM     17  C   UNL     1     -21.364  56.211  -4.174  1.00  0.00     0.158 A 
BRANCH  15  18
ATOM     18  O   UNL     1     -23.733  56.389  -4.617  1.00  0.00    -0.504 OA
ATOM     19  H   UNL     1     -24.473  56.822  -4.077  1.00  0.00     0.293 HD
ENDBRANCH  15  18
BRANCH  17  20
ATOM     20  O   UNL     1     -21.571  54.947  -3.623  1.00  0.00    -0.504 OA
ATOM     21  H   UNL     1     -20.797  54.356  -3.345  1.00  0.00     0.293 HD
ENDBRANCH  17  20
ENDBRANCH   1  12
BRANCH   2  22
ATOM     22  O   UNL     1     -18.148  57.902  -7.123  1.00  0.00    -0.502 OA
ATOM     23  H   UNL     1     -18.109  58.336  -8.038  1.00  0.00     0.293 HD
ENDBRANCH   2  22
BRANCH   6  24
ATOM     24  O   UNL     1     -13.636  60.234  -5.520  1.00  0.00    -0.507 OA
ATOM     25  H   UNL     1     -13.700  59.723  -6.387  1.00  0.00     0.293 HD
ENDBRANCH   6  24
BRANCH   8  26
ATOM     26  O   UNL     1     -15.043  61.949  -1.261  1.00  0.00    -0.508 OA
ATOM     27  H   UNL     1     -15.494  62.835  -1.063  1.00  0.00     0.293 HD
ENDBRANCH   8  26
TORSDOF 6
ENDMDL
MODEL 2
REMARK VINA RESULT:    -7.370      1.345      1.901
REMARK INTER + INTRA:          -9.197
REMARK INTER:                  -9.080
REMARK INTRA:                  -0.116
REMARK UNBOUND:                -0.318
REMARK SMILES O=c1c(O)c(-c2ccc(O)c(O)c2)oc2cc(O)cc(O)c12
REMARK SMILES IDX 5 1 3 2 2 3 1 4 22 5 20 6 19 7 17 8 16 9 15 10 14 11 6 12
REMARK SMILES IDX 7 13 8 14 9 15 13 16 11 17 10 18 12 20 4 22 21 24 18 26
REMARK H PARENT 10 19 12 21 4 23 21 25 18 27
REMARK Flexibility Score: inf
ROOT
ATOM      1  C   UNL     1     -17.517  59.413  -4.181  1.00  0.00     0.180 A 
ATOM      2  C   UNL     1     -16.400  59.608  -5.011  1.00  0.00     0.208 A 
ATOM      3  C   UNL     1     -15.266  60.247  -4.486  1.00  0.00     0.238 A 
ATOM      4  O   UNL     1     -14.289  60.468  -5.249  1.00  0.00    -0.285 OA
ATOM      5  C   UNL     1     -15.256  60.668  -3.135  1.00  0.00     0.111 A 
ATOM      6  C   UNL     1     -14.146  61.290  -2.487  1.00  0.00     0.134 A 
ATOM      7  C   UNL     1     -14.294  61.783  -1.185  1.00  0.00     0.093 A 
ATOM      8  C   UNL     1     -15.490  61.618  -0.484  1.00  0.00     0.123 A 
ATOM      9  C   UNL     1     -16.560  60.961  -1.086  1.00  0.00     0.094 A 
ATOM     10  C   UNL     1     -16.456  60.490  -2.397  1.00  0.00     0.146 A 
ATOM     11  O   UNL     1     -17.502  59.878  -2.937  1.00  0.00    -0.452 OA
ENDROOT
BRANCH   1  12
ATOM     12  C   UNL     1     -18.741  58.726  -4.655  1.00  0.00     0.025 A 
ATOM     13  C   UNL     1     -19.492  59.293  -5.697  1.00  0.00     0.016 A 
ATOM     14  C   UNL     1     -20.661  58.672  -6.145  1.00  0.00     0.051 A 
ATOM     15  C   UNL     1     -21.104  57.486  -5.549  1.00  0.00     0.157 A 
ATOM     16  C   UNL     1     -19.201  57.545  -4.045  1.00  0.00     0.062 A 
ATOM     17  C   UNL     1     -20.375  56.923  -4.494  1.00  0.00     0.158 A 
BRANCH  15  18
ATOM     18  O   UNL     1     -22.268  56.863  -5.994  1.00  0.00    -0.504 OA
ATOM     19  H   UNL     1     -22.497  56.810  -6.980  1.00  0.00     0.293 HD
ENDBRANCH  15  18
BRANCH  17  20
ATOM     20  O   UNL     1     -20.826  55.749  -3.892  1.00  0.00    -0.504 OA
ATOM     21  H   UNL     1     -20.287  55.281  -3.173  1.00  0.00     0.293 HD
ENDBRANCH  17  20
ENDBRANCH   1  12
BRANCH   2  22
ATOM     22  O   UNL     1     -16.439  59.205  -6.348  1.00  0.00    -0.502 OA
ATOM     23  H   UNL     1     -17.184  59.480  -6.979  1.00  0.00     0.293 HD
ENDBRANCH   2  22
BRANCH   6  24
ATOM     24  O   UNL     1     -12.879  61.421  -3.064  1.00  0.00    -0.507 OA
ATOM     25  H   UNL     1     -12.016  61.489  -2.547  1.00  0.00     0.293 HD
ENDBRANCH   6  24
BRANCH   8  26
ATOM     26  O   UNL     1     -15.623  62.098   0.818  1.00  0.00    -0.508 OA
ATOM     27  H   UNL     1     -14.879  62.614   1.271  1.00  0.00     0.293 HD
ENDBRANCH   8  26
TORSDOF 6
ENDMDL
MODEL 3
REMARK VINA RESULT:    -7.278      3.764      5.848
REMARK INTER + INTRA:          -9.086
REMARK INTER:                  -8.991
REMARK INTRA:                  -0.095
REMARK UNBOUND:                -0.318
REMARK SMILES O=c1c(O)c(-c2ccc(O)c(O)c2)oc2cc(O)cc(O)c12
REMARK SMILES IDX 5 1 3 2 2 3 1 4 22 5 20 6 19 7 17 8 16 9 15 10 14 11 6 12
REMARK SMILES IDX 7 13 8 14 9 15 13 16 11 17 10 18 12 20 4 22 21 24 18 26
REMARK H PARENT 10 19 12 21 4 23 21 25 18 27
REMARK Flexibility Score: inf
ROOT
ATOM      1  C   UNL     1     -18.321  59.666  -1.140  1.00  0.00     0.180 A 
ATOM      2  C   UNL     1     -17.111  60.324  -1.422  1.00  0.00     0.208 A 
ATOM      3  C   UNL     1     -16.600  60.276  -2.729  1.00  0.00     0.238 A 
ATOM      4  O   UNL     1     -15.489  60.821  -2.963  1.00  0.00    -0.285 OA
ATOM      5  C   UNL     1     -17.311  59.585  -3.739  1.00  0.00     0.111 A 
ATOM      6  C   UNL     1     -16.905  59.505  -5.106  1.00  0.00     0.134 A 
ATOM      7  C   UNL     1     -17.617  58.686  -5.990  1.00  0.00     0.093 A 
ATOM      8  C   UNL     1     -18.756  57.995  -5.573  1.00  0.00     0.123 A 
ATOM      9  C   UNL     1     -19.194  58.113  -4.256  1.00  0.00     0.094 A 
ATOM     10  C   UNL     1     -18.485  58.894  -3.341  1.00  0.00     0.146 A 
ATOM     11  O   UNL     1     -18.930  58.972  -2.093  1.00  0.00    -0.452 OA
ENDROOT
BRANCH   1  12
ATOM     12  C   UNL     1     -18.936  59.693   0.207  1.00  0.00     0.025 A 
ATOM     13  C   UNL     1     -18.238  59.145   1.296  1.00  0.00     0.016 A 
ATOM     14  C   UNL     1     -18.809  59.140   2.571  1.00  0.00     0.051 A 
ATOM     15  C   UNL     1     -20.090  59.668   2.774  1.00  0.00     0.157 A 
ATOM     16  C   UNL     1     -20.231  60.202   0.411  1.00  0.00     0.062 A 
ATOM     17  C   UNL     1     -20.804  60.196   1.692  1.00  0.00     0.158 A 
BRANCH  15  18
ATOM     18  O   UNL     1     -20.662  59.666   4.045  1.00  0.00    -0.504 OA
ATOM     19  H   UNL     1     -21.453  59.073   4.269  1.00  0.00     0.293 HD
ENDBRANCH  15  18
BRANCH  17  20
ATOM     20  O   UNL     1     -22.086  60.708   1.893  1.00  0.00    -0.504 OA
ATOM     21  H   UNL     1     -22.361  61.114   2.779  1.00  0.00     0.293 HD
ENDBRANCH  17  20
ENDBRANCH   1  12
BRANCH   2  22
ATOM     22  O   UNL     1     -16.415  60.982  -0.405  1.00  0.00    -0.502 OA
ATOM     23  H   UNL     1     -16.751  61.838   0.020  1.00  0.00     0.293 HD
ENDBRANCH   2  22
BRANCH   6  24
ATOM     24  O   UNL     1     -15.836  60.228  -5.646  1.00  0.00    -0.507 OA
ATOM     25  H   UNL     1     -15.362  60.985  -5.180  1.00  0.00     0.293 HD
ENDBRANCH   6  24
BRANCH   8  26
ATOM     26  O   UNL     1     -19.468  57.194  -6.465  1.00  0.00    -0.508 OA
ATOM     27  H   UNL     1     -20.476  57.107  -6.411  1.00  0.00     0.293 HD
ENDBRANCH   8  26
TORSDOF 6
ENDMDL
MODEL 4
REMARK VINA RESULT:    -7.201      2.508      6.479
REMARK INTER + INTRA:          -8.992
REMARK INTER:                  -8.755
REMARK INTRA:                  -0.237
REMARK UNBOUND:                -0.318
REMARK SMILES O=c1c(O)c(-c2ccc(O)c(O)c2)oc2cc(O)cc(O)c12
REMARK SMILES IDX 5 1 3 2 2 3 1 4 22 5 20 6 19 7 17 8 16 9 15 10 14 11 6 12
REMARK SMILES IDX 7 13 8 14 9 15 13 16 11 17 10 18 12 20 4 22 21 24 18 26
REMARK H PARENT 10 19 12 21 4 23 21 25 18 27
REMARK Flexibility Score: inf
ROOT
ATOM      1  C   UNL     1     -16.808  60.250  -2.082  1.00  0.00     0.180 A 
ATOM      2  C   UNL     1     -15.866  60.523  -3.089  1.00  0.00     0.208 A 
ATOM      3  C   UNL     1     -16.096  60.036  -4.385  1.00  0.00     0.238 A 
ATOM      4  O   UNL     1     -15.223  60.237  -5.270  1.00  0.00    -0.285 OA
ATOM      5  C   UNL     1     -17.271  59.298  -4.662  1.00  0.00     0.111 A 
ATOM      6  C   UNL     1     -17.626  58.790  -5.949  1.00  0.00     0.134 A 
ATOM      7  C   UNL     1     -18.746  57.961  -6.079  1.00  0.00     0.093 A 
ATOM      8  C   UNL     1     -19.562  57.675  -4.983  1.00  0.00     0.123 A 
ATOM      9  C   UNL     1     -19.258  58.213  -3.735  1.00  0.00     0.094 A 
ATOM     10  C   UNL     1     -18.126  59.014  -3.565  1.00  0.00     0.146 A 
ATOM     11  O   UNL     1     -17.866  59.499  -2.357  1.00  0.00    -0.452 OA
ENDROOT
BRANCH   1  12
ATOM     12  C   UNL     1     -16.646  60.750  -0.697  1.00  0.00     0.025 A 
ATOM     13  C   UNL     1     -16.813  62.120  -0.432  1.00  0.00     0.016 A 
ATOM     14  C   UNL     1     -16.644  62.615   0.863  1.00  0.00     0.051 A 
ATOM     15  C   UNL     1     -16.291  61.753   1.909  1.00  0.00     0.157 A 
ATOM     16  C   UNL     1     -16.271  59.892   0.352  1.00  0.00     0.062 A 
ATOM     17  C   UNL     1     -16.100  60.391   1.653  1.00  0.00     0.158 A 
BRANCH  15  18
ATOM     18  O   UNL     1     -16.124  62.244   3.203  1.00  0.00    -0.504 OA
ATOM     19  H   UNL     1     -15.871  63.210   3.374  1.00  0.00     0.293 HD
ENDBRANCH  15  18
BRANCH  17  20
ATOM     20  O   UNL     1     -15.734  59.537   2.693  1.00  0.00    -0.504 OA
ATOM     21  H   UNL     1     -14.766  59.299   2.868  1.00  0.00     0.293 HD
ENDBRANCH  17  20
ENDBRANCH   1  12
BRANCH   2  22
ATOM     22  O   UNL     1     -14.702  61.235  -2.789  1.00  0.00    -0.502 OA
ATOM     23  H   UNL     1     -14.272  61.878  -3.444  1.00  0.00     0.293 HD
ENDBRANCH   2  22
BRANCH   6  24
ATOM     24  O   UNL     1     -16.931  59.092  -7.125  1.00  0.00    -0.507 OA
ATOM     25  H   UNL     1     -16.119  59.687  -7.175  1.00  0.00     0.293 HD
ENDBRANCH   6  24
BRANCH   8  26
ATOM     26  O   UNL     1     -20.685  56.862  -5.125  1.00  0.00    -0.508 OA
ATOM     27  H   UNL     1     -20.719  56.121  -5.815  1.00  0.00     0.293 HD
ENDBRANCH   8  26
TORSDOF 6
ENDMDL
MODEL 5
REMARK VINA RESULT:    -7.120      9.447     11.959
REMARK INTER + INTRA:          -8.895
REMARK INTER:                  -8.784
REMARK INTRA:                  -0.111
REMARK UNBOUND:                -0.318
REMARK SMILES O=c1c(O)c(-c2ccc(O)c(O)c2)oc2cc(O)cc(O)c12
REMARK SMILES IDX 5 1 3 2 2 3 1 4 22 5 20 6 19 7 17 8 16 9 15 10 14 11 6 12
REMARK SMILES IDX 7 13 8 14 9 15 13 16 11 17 10 18 12 20 4 22 21 24 18 26
REMARK H PARENT 10 19 12 21 4 23 21 25 18 27
REMARK Flexibility Score: inf
ROOT
ATOM      1  C   UNL     1     -20.051  58.563   5.171  1.00  0.00     0.180 A 
ATOM      2  C   UNL     1     -19.463  58.991   6.373  1.00  0.00     0.208 A 
ATOM      3  C   UNL     1     -19.995  58.537   7.591  1.00  0.00     0.238 A 
ATOM      4  O   UNL     1     -19.498  58.966   8.665  1.00  0.00    -0.285 OA
ATOM      5  C   UNL     1     -21.097  57.649   7.590  1.00  0.00     0.111 A 
ATOM      6  C   UNL     1     -21.692  57.094   8.764  1.00  0.00     0.134 A 
ATOM      7  C   UNL     1     -22.860  56.331   8.650  1.00  0.00     0.093 A 
ATOM      8  C   UNL     1     -23.418  56.048   7.402  1.00  0.00     0.123 A 
ATOM      9  C   UNL     1     -22.811  56.536   6.247  1.00  0.00     0.094 A 
ATOM     10  C   UNL     1     -21.666  57.330   6.329  1.00  0.00     0.146 A 
ATOM     11  O   UNL     1     -21.125  57.783   5.205  1.00  0.00    -0.452 OA
ENDROOT
BRANCH   1  12
ATOM     12  C   UNL     1     -19.531  58.980   3.848  1.00  0.00     0.025 A 
ATOM     13  C   UNL     1     -20.398  59.585   2.924  1.00  0.00     0.016 A 
ATOM     14  C   UNL     1     -19.933  59.966   1.663  1.00  0.00     0.051 A 
ATOM     15  C   UNL     1     -18.601  59.733   1.301  1.00  0.00     0.157 A 
ATOM     16  C   UNL     1     -18.199  58.729   3.473  1.00  0.00     0.062 A 
ATOM     17  C   UNL     1     -17.733  59.110   2.205  1.00  0.00     0.158 A 
BRANCH  15  18
ATOM     18  O   UNL     1     -18.133  60.114   0.044  1.00  0.00    -0.504 OA
ATOM     19  H   UNL     1     -17.392  59.603  -0.422  1.00  0.00     0.293 HD
ENDBRANCH  15  18
BRANCH  17  20
ATOM     20  O   UNL     1     -16.411  58.867   1.838  1.00  0.00    -0.504 OA
ATOM     21  H   UNL     1     -15.636  59.168   2.416  1.00  0.00     0.293 HD
ENDBRANCH  17  20
ENDBRANCH   1  12
BRANCH   2  22
ATOM     22  O   UNL     1     -18.389  59.885   6.352  1.00  0.00    -0.502 OA
ATOM     23  H   UNL     1     -18.246  60.583   7.073  1.00  0.00     0.293 HD
ENDBRANCH   2  22
BRANCH   6  24
ATOM     24  O   UNL     1     -21.162  57.239  10.050  1.00  0.00    -0.507 OA
ATOM     25  H   UNL     1     -21.484  57.909  10.731  1.00  0.00     0.293 HD
ENDBRANCH   6  24
BRANCH   8  26
ATOM     26  O   UNL     1     -24.571  55.273   7.298  1.00  0.00    -0.508 OA
ATOM     27  H   UNL     1     -24.720  54.461   7.885  1.00  0.00     0.293 HD
ENDBRANCH   8  26
TORSDOF 6
ENDMDL
MODEL 6
REMARK VINA RESULT:    -7.118      8.189      9.847
REMARK INTER + INTRA:          -8.893
REMARK INTER:                  -8.786
REMARK INTRA:                  -0.108
REMARK UNBOUND:                -0.318
REMARK SMILES O=c1c(O)c(-c2ccc(O)c(O)c2)oc2cc(O)cc(O)c12
REMARK SMILES IDX 5 1 3 2 2 3 1 4 22 5 20 6 19 7 17 8 16 9 15 10 14 11 6 12
REMARK SMILES IDX 7 13 8 14 9 15 13 16 11 17 10 18 12 20 4 22 21 24 18 26
REMARK H PARENT 10 19 12 21 4 23 21 25 18 27
REMARK Flexibility Score: inf
ROOT
ATOM      1  C   UNL     1     -19.886  58.944   4.209  1.00  0.00     0.180 A 
ATOM      2  C   UNL     1     -18.580  58.814   3.706  1.00  0.00     0.208 A 
ATOM      3  C   UNL     1     -18.308  59.246   2.398  1.00  0.00     0.238 A 
ATOM      4  O   UNL     1     -17.150  59.077   1.934  1.00  0.00    -0.285 OA
ATOM      5  C   UNL     1     -19.340  59.816   1.616  1.00  0.00     0.111 A 
ATOM      6  C   UNL     1     -19.169  60.323   0.291  1.00  0.00     0.134 A 
ATOM      7  C   UNL     1     -20.288  60.745  -0.436  1.00  0.00     0.093 A 
ATOM      8  C   UNL     1     -21.562  60.739   0.134  1.00  0.00     0.123 A 
ATOM      9  C   UNL     1     -21.732  60.301   1.445  1.00  0.00     0.094 A 
ATOM     10  C   UNL     1     -20.640  59.840   2.185  1.00  0.00     0.146 A 
ATOM     11  O   UNL     1     -20.847  59.422   3.427  1.00  0.00    -0.452 OA
ENDROOT
BRANCH   1  12
ATOM     12  C   UNL     1     -20.244  58.535   5.586  1.00  0.00     0.025 A 
ATOM     13  C   UNL     1     -21.302  57.634   5.786  1.00  0.00     0.016 A 
ATOM     14  C   UNL     1     -21.670  57.251   7.079  1.00  0.00     0.051 A 
ATOM     15  C   UNL     1     -20.996  57.774   8.189  1.00  0.00     0.157 A 
ATOM     16  C   UNL     1     -19.584  59.074   6.705  1.00  0.00     0.062 A 
ATOM     17  C   UNL     1     -19.955  58.691   8.003  1.00  0.00     0.158 A 
BRANCH  15  18
ATOM     18  O   UNL     1     -21.359  57.393   9.480  1.00  0.00    -0.504 OA
ATOM     19  H   UNL     1     -22.215  56.881   9.660  1.00  0.00     0.293 HD
ENDBRANCH  15  18
BRANCH  17  20
ATOM     20  O   UNL     1     -19.294  59.221   9.110  1.00  0.00    -0.504 OA
ATOM     21  H   UNL     1     -18.581  59.933   9.012  1.00  0.00     0.293 HD
ENDBRANCH  17  20
ENDBRANCH   1  12
BRANCH   2  22
ATOM     22  O   UNL     1     -17.581  58.228   4.488  1.00  0.00    -0.502 OA
ATOM     23  H   UNL     1     -17.397  58.515   5.442  1.00  0.00     0.293 HD
ENDBRANCH   2  22
BRANCH   6  24
ATOM     24  O   UNL     1     -17.927  60.459  -0.337  1.00  0.00    -0.507 OA
ATOM     25  H   UNL     1     -17.236  59.728  -0.406  1.00  0.00     0.293 HD
ENDBRANCH   6  24
BRANCH   8  26
ATOM     26  O   UNL     1     -22.668  61.176  -0.593  1.00  0.00    -0.508 OA
ATOM     27  H   UNL     1     -22.718  61.068  -1.600  1.00  0.00     0.293 HD
ENDBRANCH   8  26
TORSDOF 6
ENDMDL
MODEL 7
REMARK VINA RESULT:    -6.999      9.519     11.434
REMARK INTER + INTRA:          -8.750
REMARK INTER:                  -8.785
REMARK INTRA:                   0.035
REMARK UNBOUND:                -0.318
REMARK SMILES O=c1c(O)c(-c2ccc(O)c(O)c2)oc2cc(O)cc(O)c12
REMARK SMILES IDX 5 1 3 2 2 3 1 4 22 5 20 6 19 7 17 8 16 9 15 10 14 11 6 12
REMARK SMILES IDX 7 13 8 14 9 15 13 16 11 17 10 18 12 20 4 22 21 24 18 26
REMARK H PARENT 10 19 12 21 4 23 21 25 18 27
REMARK Flexibility Score: inf
ROOT
ATOM      1  C   UNL     1     -21.141  58.422   4.663  1.00  0.00     0.180 A 
ATOM      2  C   UNL     1     -22.203  57.520   4.840  1.00  0.00     0.208 A 
ATOM      3  C   UNL     1     -22.420  56.966   6.112  1.00  0.00     0.238 A 
ATOM      4  O   UNL     1     -23.339  56.117   6.253  1.00  0.00    -0.285 OA
ATOM      5  C   UNL     1     -21.583  57.333   7.193  1.00  0.00     0.111 A 
ATOM      6  C   UNL     1     -21.735  56.863   8.533  1.00  0.00     0.134 A 
ATOM      7  C   UNL     1     -20.770  57.190   9.492  1.00  0.00     0.093 A 
ATOM      8  C   UNL     1     -19.693  58.022   9.178  1.00  0.00     0.123 A 
ATOM      9  C   UNL     1     -19.568  58.533   7.888  1.00  0.00     0.094 A 
ATOM     10  C   UNL     1     -20.495  58.196   6.899  1.00  0.00     0.146 A 
ATOM     11  O   UNL     1     -20.333  58.696   5.680  1.00  0.00    -0.452 OA
ENDROOT
BRANCH   1  12
ATOM     12  C   UNL     1     -20.864  59.066   3.358  1.00  0.00     0.025 A 
ATOM     13  C   UNL     1     -19.539  59.166   2.903  1.00  0.00     0.016 A 
ATOM     14  C   UNL     1     -19.255  59.789   1.685  1.00  0.00     0.051 A 
ATOM     15  C   UNL     1     -20.287  60.335   0.913  1.00  0.00     0.157 A 
ATOM     16  C   UNL     1     -21.896  59.635   2.589  1.00  0.00     0.062 A 
ATOM     17  C   UNL     1     -21.609  60.262   1.367  1.00  0.00     0.158 A 
BRANCH  15  18
ATOM     18  O   UNL     1     -20.008  60.955  -0.304  1.00  0.00    -0.504 OA
ATOM     19  H   UNL     1     -19.194  61.548  -0.421  1.00  0.00     0.293 HD
ENDBRANCH  15  18
BRANCH  17  20
ATOM     20  O   UNL     1     -22.634  60.818   0.603  1.00  0.00    -0.504 OA
ATOM     21  H   UNL     1     -23.548  61.005   0.997  1.00  0.00     0.293 HD
ENDBRANCH  17  20
ENDBRANCH   1  12
BRANCH   2  22
ATOM     22  O   UNL     1     -23.004  57.154   3.755  1.00  0.00    -0.502 OA
ATOM     23  H   UNL     1     -22.708  56.475   3.064  1.00  0.00     0.293 HD
ENDBRANCH   2  22
BRANCH   6  24
ATOM     24  O   UNL     1     -22.823  56.103   8.974  1.00  0.00    -0.507 OA
ATOM     25  H   UNL     1     -23.649  56.482   9.410  1.00  0.00     0.293 HD
ENDBRANCH   6  24
BRANCH   8  26
ATOM     26  O   UNL     1     -18.746  58.355  10.144  1.00  0.00    -0.508 OA
ATOM     27  H   UNL     1     -17.913  57.795  10.285  1.00  0.00     0.293 HD
ENDBRANCH   8  26
TORSDOF 6
ENDMDL
MODEL 8
REMARK VINA RESULT:    -6.944      4.192      7.705
REMARK INTER + INTRA:          -8.683
REMARK INTER:                  -8.466
REMARK INTRA:                  -0.216
REMARK UNBOUND:                -0.318
REMARK SMILES O=c1c(O)c(-c2ccc(O)c(O)c2)oc2cc(O)cc(O)c12
REMARK SMILES IDX 5 1 3 2 2 3 1 4 22 5 20 6 19 7 17 8 16 9 15 10 14 11 6 12
REMARK SMILES IDX 7 13 8 14 9 15 13 16 11 17 10 18 12 20 4 22 21 24 18 26
REMARK H PARENT 10 19 12 21 4 23 21 25 18 27
REMARK Flexibility Score: inf
ROOT
ATOM      1  C   UNL     1     -17.194  60.665  -0.545  1.00  0.00     0.180 A 
ATOM      2  C   UNL     1     -16.507  60.263   0.614  1.00  0.00     0.208 A 
ATOM      3  C   UNL     1     -17.246  59.895   1.749  1.00  0.00     0.238 A 
ATOM      4  O   UNL     1     -16.626  59.588   2.801  1.00  0.00    -0.285 OA
ATOM      5  C   UNL     1     -18.661  59.918   1.707  1.00  0.00     0.111 A 
ATOM      6  C   UNL     1     -19.511  59.528   2.786  1.00  0.00     0.134 A 
ATOM      7  C   UNL     1     -20.894  59.716   2.678  1.00  0.00     0.093 A 
ATOM      8  C   UNL     1     -21.463  60.219   1.507  1.00  0.00     0.123 A 
ATOM      9  C   UNL     1     -20.648  60.548   0.427  1.00  0.00     0.094 A 
ATOM     10  C   UNL     1     -19.261  60.406   0.517  1.00  0.00     0.146 A 
ATOM     11  O   UNL     1     -18.519  60.740  -0.532  1.00  0.00    -0.452 OA
ENDROOT
BRANCH   1  12
ATOM     12  C   UNL     1     -16.485  61.044  -1.789  1.00  0.00     0.025 A 
ATOM     13  C   UNL     1     -15.783  62.259  -1.842  1.00  0.00     0.016 A 
ATOM     14  C   UNL     1     -15.125  62.646  -3.012  1.00  0.00     0.051 A 
ATOM     15  C   UNL     1     -15.173  61.832  -4.151  1.00  0.00     0.157 A 
ATOM     16  C   UNL     1     -16.547  60.240  -2.941  1.00  0.00     0.062 A 
ATOM     17  C   UNL     1     -15.888  60.630  -4.117  1.00  0.00     0.158 A 
BRANCH  15  18
ATOM     18  O   UNL     1     -14.516  62.214  -5.320  1.00  0.00    -0.504 OA
ATOM     19  H   UNL     1     -13.604  61.843  -5.560  1.00  0.00     0.293 HD
ENDBRANCH  15  18
BRANCH  17  20
ATOM     20  O   UNL     1     -15.946  59.828  -5.256  1.00  0.00    -0.504 OA
ATOM     21  H   UNL     1     -16.827  59.492  -5.624  1.00  0.00     0.293 HD
ENDBRANCH  17  20
ENDBRANCH   1  12
BRANCH   2  22
ATOM     22  O   UNL     1     -15.110  60.268   0.640  1.00  0.00    -0.502 OA
ATOM     23  H   UNL     1     -14.575  59.690   1.278  1.00  0.00     0.293 HD
ENDBRANCH   2  22
BRANCH   6  24
ATOM     24  O   UNL     1     -19.051  58.930   3.964  1.00  0.00    -0.507 OA
ATOM     25  H   UNL     1     -18.687  57.992   4.027  1.00  0.00     0.293 HD
ENDBRANCH   6  24
BRANCH   8  26
ATOM     26  O   UNL     1     -22.843  60.388   1.403  1.00  0.00    -0.508 OA
ATOM     27  H   UNL     1     -23.245  61.142   0.858  1.00  0.00     0.293 HD
ENDBRANCH   8  26
TORSDOF 6
ENDMDL
MODEL 9
REMARK VINA RESULT:    -6.737     15.392     17.008
REMARK INTER + INTRA:          -8.434
REMARK INTER:                  -8.214
REMARK INTRA:                  -0.220
REMARK UNBOUND:                -0.318
REMARK SMILES O=c1c(O)c(-c2ccc(O)c(O)c2)oc2cc(O)cc(O)c12
REMARK SMILES IDX 5 1 3 2 2 3 1 4 22 5 20 6 19 7 17 8 16 9 15 10 14 11 6 12
REMARK SMILES IDX 7 13 8 14 9 15 13 16 11 17 10 18 12 20 4 22 21 24 18 26
REMARK H PARENT 10 19 12 21 4 23 21 25 18 27
REMARK Flexibility Score: inf
ROOT
ATOM      1  C   UNL     1     -19.652  49.224   9.198  1.00  0.00     0.180 A 
ATOM      2  C   UNL     1     -19.616  49.432   7.808  1.00  0.00     0.208 A 
ATOM      3  C   UNL     1     -18.371  49.501   7.163  1.00  0.00     0.238 A 
ATOM      4  O   UNL     1     -18.344  49.741   5.927  1.00  0.00    -0.285 OA
ATOM      5  C   UNL     1     -17.180  49.347   7.911  1.00  0.00     0.111 A 
ATOM      6  C   UNL     1     -15.865  49.360   7.354  1.00  0.00     0.134 A 
ATOM      7  C   UNL     1     -14.754  49.329   8.206  1.00  0.00     0.093 A 
ATOM      8  C   UNL     1     -14.910  49.220   9.589  1.00  0.00     0.123 A 
ATOM      9  C   UNL     1     -16.188  49.148  10.138  1.00  0.00     0.094 A 
ATOM     10  C   UNL     1     -17.316  49.212   9.317  1.00  0.00     0.146 A 
ATOM     11  O   UNL     1     -18.516  49.149   9.881  1.00  0.00    -0.452 OA
ENDROOT
BRANCH   1  12
ATOM     12  C   UNL     1     -20.926  49.115   9.945  1.00  0.00     0.025 A 
ATOM     13  C   UNL     1     -21.742  47.988   9.759  1.00  0.00     0.016 A 
ATOM     14  C   UNL     1     -22.959  47.875  10.437  1.00  0.00     0.051 A 
ATOM     15  C   UNL     1     -23.383  48.894  11.299  1.00  0.00     0.157 A 
ATOM     16  C   UNL     1     -21.367  50.146  10.795  1.00  0.00     0.062 A 
ATOM     17  C   UNL     1     -22.589  50.033  11.475  1.00  0.00     0.158 A 
BRANCH  15  18
ATOM     18  O   UNL     1     -24.595  48.785  11.979  1.00  0.00    -0.504 OA
ATOM     19  H   UNL     1     -24.756  48.052  12.660  1.00  0.00     0.293 HD
ENDBRANCH  15  18
BRANCH  17  20
ATOM     20  O   UNL     1     -23.021  51.053  12.322  1.00  0.00    -0.504 OA
ATOM     21  H   UNL     1     -23.469  50.852  13.207  1.00  0.00     0.293 HD
ENDBRANCH  17  20
ENDBRANCH   1  12
BRANCH   2  22
ATOM     22  O   UNL     1     -20.803  49.603   7.092  1.00  0.00    -0.502 OA
ATOM     23  H   UNL     1     -21.439  50.372   7.268  1.00  0.00     0.293 HD
ENDBRANCH   2  22
BRANCH   6  24
ATOM     24  O   UNL     1     -15.599  49.374   5.981  1.00  0.00    -0.507 OA
ATOM     25  H   UNL     1     -14.915  49.964   5.535  1.00  0.00     0.293 HD
ENDBRANCH   6  24
BRANCH   8  26
ATOM     26  O   UNL     1     -13.798  49.174  10.428  1.00  0.00    -0.508 OA
ATOM     27  H   UNL     1     -12.857  49.103  10.059  1.00  0.00     0.293 HD
ENDBRANCH   8  26
TORSDOF 6
ENDMDL
