MODEL 1
REMARK VINA RESULT:    -4.563      0.000      0.000
REMARK INTER + INTRA:         -14.135
REMARK INTER:                 -11.497
REMARK INTRA:                  -2.637
REMARK UNBOUND:                -2.637
REMARK SMILES CCCCCCCCCCCCCCCCCCCCCCCCCCCC(=O)[O-]
REMARK SMILES IDX 15 1 16 2 17 3 18 4 19 5 20 6 21 7 22 8 23 9 24 10 25 11
REMARK SMILES IDX 26 12 27 13 28 14 29 15 30 16 14 17 13 18 12 19 11 20 10 21
REMARK SMILES IDX 9 22 8 23 7 24 6 25 5 26 4 27 3 28 2 29 1 30
REMARK H PARENT
REMARK Flexibility Score: inf
ROOT
ATOM      1  C   UNL     1     195.305 182.511 191.297  1.00  0.00     0.000 C 
ENDROOT
BRANCH   1   2
ATOM      2  C   UNL     1     196.057 181.926 192.506  1.00  0.00     0.000 C 
BRANCH   2   3
ATOM      3  C   UNL     1     197.559 182.268 192.488  1.00  0.00     0.000 C 
BRANCH   3   4
ATOM      4  C   UNL     1     198.140 182.633 193.870  1.00  0.00     0.000 C 
BRANCH   4   5
ATOM      5  C   UNL     1     197.078 183.021 194.921  1.00  0.00     0.000 C 
BRANCH   5   6
ATOM      6  C   UNL     1     197.360 184.370 195.617  1.00  0.00     0.000 C 
BRANCH   6   7
ATOM      7  C   UNL     1     198.824 184.561 196.055  1.00  0.00     0.000 C 
BRANCH   7   8
ATOM      8  C   UNL     1     198.993 184.916 197.546  1.00  0.00     0.000 C 
BRANCH   8   9
ATOM      9  C   UNL     1     197.665 184.879 198.316  1.00  0.00     0.000 C 
BRANCH   9  10
ATOM     10  C   UNL     1     197.693 185.853 199.503  1.00  0.00     0.000 C 
BRANCH  10  11
ATOM     11  C   UNL     1     196.647 186.977 199.384  1.00  0.00     0.000 C 
BRANCH  11  12
ATOM     12  C   UNL     1     196.867 187.951 198.211  1.00  0.00     0.006 C 
BRANCH  12  13
ATOM     13  C   UNL     1     195.681 187.994 197.238  1.00  0.00     0.053 C 
BRANCH  13  14
ATOM     14  C   UNL     1     194.618 188.918 197.744  1.00  0.00     0.041 C 
ATOM     15  O   UNL     1     194.885 190.127 197.975  1.00  0.00    -0.550 OA
ATOM     16  O   UNL     1     193.336 188.439 197.985  1.00  0.00    -0.550 OA
ENDBRANCH  13  14
ENDBRANCH  12  13
ENDBRANCH  11  12
ENDBRANCH  10  11
ENDBRANCH   9  10
ENDBRANCH   8   9
ENDBRANCH   7   8
ENDBRANCH   6   7
ENDBRANCH   5   6
ENDBRANCH   4   5
ENDBRANCH   3   4
ENDBRANCH   2   3
ENDBRANCH   1   2
BRANCH   1  17
ATOM     17  C   UNL     1     194.082 181.669 190.897  1.00  0.00     0.000 C 
BRANCH  17  18
ATOM     18  C   UNL     1     193.257 182.327 189.781  1.00  0.00     0.000 C 
BRANCH  18  19
ATOM     19  C   UNL     1     193.474 183.845 189.754  1.00  0.00     0.000 C 
BRANCH  19  20
ATOM     20  C   UNL     1     192.187 184.589 190.140  1.00  0.00     0.000 C 
BRANCH  20  21
ATOM     21  C   UNL     1     190.918 183.788 189.807  1.00  0.00     0.000 C 
BRANCH  21  22
ATOM     22  C   UNL     1     190.063 184.457 188.719  1.00  0.00    -0.000 C 
BRANCH  22  23
ATOM     23  C   UNL     1     189.990 183.572 187.465  1.00  0.00    -0.000 C 
BRANCH  23  24
ATOM     24  C   UNL     1     191.185 183.780 186.522  1.00  0.00    -0.000 C 
BRANCH  24  25
ATOM     25  C   UNL     1     191.854 182.455 186.115  1.00  0.00    -0.000 C 
BRANCH  25  26
ATOM     26  C   UNL     1     191.263 181.245 186.855  1.00  0.00    -0.000 C 
BRANCH  26  27
ATOM     27  C   UNL     1     190.845 180.114 185.900  1.00  0.00    -0.000 C 
BRANCH  27  28
ATOM     28  C   UNL     1     189.322 179.924 185.841  1.00  0.00    -0.000 C 
BRANCH  28  29
ATOM     29  C   UNL     1     188.737 180.266 184.463  1.00  0.00    -0.003 C 
ATOM     30  C   UNL     1     189.521 179.579 183.347  1.00  0.00     0.004 C 
ENDBRANCH  28  29
ENDBRANCH  27  28
ENDBRANCH  26  27
ENDBRANCH  25  26
ENDBRANCH  24  25
ENDBRANCH  23  24
ENDBRANCH  22  23
ENDBRANCH  21  22
ENDBRANCH  20  21
ENDBRANCH  19  20
ENDBRANCH  18  19
ENDBRANCH  17  18
ENDBRANCH   1  17
TORSDOF 26
ENDMDL
MODEL 2
REMARK VINA RESULT:    -4.529      9.588     12.724
REMARK INTER + INTRA:         -14.050
REMARK INTER:                 -10.859
REMARK INTRA:                  -3.190
REMARK UNBOUND:                -2.637
REMARK SMILES CCCCCCCCCCCCCCCCCCCCCCCCCCCC(=O)[O-]
REMARK SMILES IDX 15 1 16 2 17 3 18 4 19 5 20 6 21 7 22 8 23 9 24 10 25 11
REMARK SMILES IDX 26 12 27 13 28 14 29 15 30 16 14 17 13 18 12 19 11 20 10 21
REMARK SMILES IDX 9 22 8 23 7 24 6 25 5 26 4 27 3 28 2 29 1 30
REMARK H PARENT
REMARK Flexibility Score: inf
ROOT
ATOM      1  C   UNL     1     194.369 194.231 198.744  1.00  0.00     0.000 C 
ENDROOT
BRANCH   1   2
ATOM      2  C   UNL     1     195.018 195.572 199.133  1.00  0.00     0.000 C 
BRANCH   2   3
ATOM      3  C   UNL     1     194.250 196.295 200.256  1.00  0.00     0.000 C 
BRANCH   3   4
ATOM      4  C   UNL     1     195.069 196.507 201.546  1.00  0.00     0.000 C 
BRANCH   4   5
ATOM      5  C   UNL     1     196.588 196.295 201.374  1.00  0.00     0.000 C 
BRANCH   5   6
ATOM      6  C   UNL     1     197.121 195.029 202.079  1.00  0.00     0.000 C 
BRANCH   6   7
ATOM      7  C   UNL     1     197.974 194.116 201.179  1.00  0.00     0.000 C 
BRANCH   7   8
ATOM      8  C   UNL     1     198.315 192.752 201.811  1.00  0.00     0.000 C 
BRANCH   8   9
ATOM      9  C   UNL     1     198.345 191.614 200.779  1.00  0.00     0.000 C 
BRANCH   9  10
ATOM     10  C   UNL     1     197.432 190.458 201.212  1.00  0.00     0.000 C 
BRANCH  10  11
ATOM     11  C   UNL     1     197.183 189.435 200.089  1.00  0.00     0.000 C 
BRANCH  11  12
ATOM     12  C   UNL     1     196.018 188.459 200.342  1.00  0.00     0.006 C 
BRANCH  12  13
ATOM     13  C   UNL     1     195.317 188.015 199.051  1.00  0.00     0.053 C 
BRANCH  13  14
ATOM     14  C   UNL     1     195.922 186.748 198.533  1.00  0.00     0.041 C 
ATOM     15  O   UNL     1     195.998 186.543 197.293  1.00  0.00    -0.550 OA
ATOM     16  O   UNL     1     196.380 185.781 199.419  1.00  0.00    -0.550 OA
ENDBRANCH  13  14
ENDBRANCH  12  13
ENDBRANCH  11  12
ENDBRANCH  10  11
ENDBRANCH   9  10
ENDBRANCH   8   9
ENDBRANCH   7   8
ENDBRANCH   6   7
ENDBRANCH   5   6
ENDBRANCH   4   5
ENDBRANCH   3   4
ENDBRANCH   2   3
ENDBRANCH   1   2
BRANCH   1  17
ATOM     17  C   UNL     1     195.035 193.030 199.434  1.00  0.00     0.000 C 
BRANCH  17  18
ATOM     18  C   UNL     1     194.295 192.603 200.712  1.00  0.00     0.000 C 
BRANCH  18  19
ATOM     19  C   UNL     1     192.955 191.937 200.377  1.00  0.00     0.000 C 
BRANCH  19  20
ATOM     20  C   UNL     1     193.109 190.954 199.207  1.00  0.00     0.000 C 
BRANCH  20  21
ATOM     21  C   UNL     1     191.987 189.904 199.164  1.00  0.00     0.000 C 
BRANCH  21  22
ATOM     22  C   UNL     1     191.590 189.403 200.562  1.00  0.00    -0.000 C 
BRANCH  22  23
ATOM     23  C   UNL     1     190.162 188.839 200.551  1.00  0.00    -0.000 C 
BRANCH  23  24
ATOM     24  C   UNL     1     189.103 189.898 200.895  1.00  0.00    -0.000 C 
BRANCH  24  25
ATOM     25  C   UNL     1     187.681 189.465 200.492  1.00  0.00    -0.000 C 
BRANCH  25  26
ATOM     26  C   UNL     1     187.636 188.813 199.102  1.00  0.00    -0.000 C 
BRANCH  26  27
ATOM     27  C   UNL     1     186.758 189.597 198.110  1.00  0.00    -0.000 C 
BRANCH  27  28
ATOM     28  C   UNL     1     185.478 190.144 198.761  1.00  0.00    -0.000 C 
BRANCH  28  29
ATOM     29  C   UNL     1     184.297 190.204 197.781  1.00  0.00    -0.003 C 
ATOM     30  C   UNL     1     183.293 191.278 198.195  1.00  0.00     0.004 C 
ENDBRANCH  28  29
ENDBRANCH  27  28
ENDBRANCH  26  27
ENDBRANCH  25  26
ENDBRANCH  24  25
ENDBRANCH  23  24
ENDBRANCH  22  23
ENDBRANCH  21  22
ENDBRANCH  20  21
ENDBRANCH  19  20
ENDBRANCH  18  19
ENDBRANCH  17  18
ENDBRANCH   1  17
TORSDOF 26
ENDMDL
MODEL 3
REMARK VINA RESULT:    -4.511      9.577     12.904
REMARK INTER + INTRA:         -14.005
REMARK INTER:                 -10.599
REMARK INTRA:                  -3.406
REMARK UNBOUND:                -2.637
REMARK SMILES CCCCCCCCCCCCCCCCCCCCCCCCCCCC(=O)[O-]
REMARK SMILES IDX 15 1 16 2 17 3 18 4 19 5 20 6 21 7 22 8 23 9 24 10 25 11
REMARK SMILES IDX 26 12 27 13 28 14 29 15 30 16 14 17 13 18 12 19 11 20 10 21
REMARK SMILES IDX 9 22 8 23 7 24 6 25 5 26 4 27 3 28 2 29 1 30
REMARK H PARENT
REMARK Flexibility Score: inf
ROOT
ATOM      1  C   UNL     1     193.923 195.451 200.126  1.00  0.00     0.000 C 
ENDROOT
BRANCH   1   2
ATOM      2  C   UNL     1     194.971 196.461 200.628  1.00  0.00     0.000 C 
BRANCH   2   3
ATOM      3  C   UNL     1     195.494 196.116 202.036  1.00  0.00     0.000 C 
BRANCH   3   4
ATOM      4  C   UNL     1     196.251 194.774 202.117  1.00  0.00     0.000 C 
BRANCH   4   5
ATOM      5  C   UNL     1     197.428 194.650 201.126  1.00  0.00     0.000 C 
BRANCH   5   6
ATOM      6  C   UNL     1     198.744 194.183 201.784  1.00  0.00     0.000 C 
BRANCH   6   7
ATOM      7  C   UNL     1     199.111 192.716 201.494  1.00  0.00     0.000 C 
BRANCH   7   8
ATOM      8  C   UNL     1     197.930 191.858 200.999  1.00  0.00     0.000 C 
BRANCH   8   9
ATOM      9  C   UNL     1     198.229 191.154 199.667  1.00  0.00     0.000 C 
BRANCH   9  10
ATOM     10  C   UNL     1     197.871 189.663 199.743  1.00  0.00     0.000 C 
BRANCH  10  11
ATOM     11  C   UNL     1     196.773 189.359 200.779  1.00  0.00     0.000 C 
BRANCH  11  12
ATOM     12  C   UNL     1     195.528 188.644 200.221  1.00  0.00     0.006 C 
BRANCH  12  13
ATOM     13  C   UNL     1     195.684 188.230 198.752  1.00  0.00     0.053 C 
BRANCH  13  14
ATOM     14  C   UNL     1     194.486 188.647 197.958  1.00  0.00     0.041 C 
ATOM     15  O   UNL     1     193.376 188.080 198.140  1.00  0.00    -0.550 OA
ATOM     16  O   UNL     1     194.600 189.644 196.997  1.00  0.00    -0.550 OA
ENDBRANCH  13  14
ENDBRANCH  12  13
ENDBRANCH  11  12
ENDBRANCH  10  11
ENDBRANCH   9  10
ENDBRANCH   8   9
ENDBRANCH   7   8
ENDBRANCH   6   7
ENDBRANCH   5   6
ENDBRANCH   4   5
ENDBRANCH   3   4
ENDBRANCH   2   3
ENDBRANCH   1   2
BRANCH   1  17
ATOM     17  C   UNL     1     194.222 194.947 198.705  1.00  0.00     0.000 C 
BRANCH  17  18
ATOM     18  C   UNL     1     193.920 193.449 198.538  1.00  0.00     0.000 C 
BRANCH  18  19
ATOM     19  C   UNL     1     194.878 192.596 199.378  1.00  0.00     0.000 C 
BRANCH  19  20
ATOM     20  C   UNL     1     194.180 192.075 200.644  1.00  0.00     0.000 C 
BRANCH  20  21
ATOM     21  C   UNL     1     192.663 191.913 200.459  1.00  0.00     0.000 C 
BRANCH  21  22
ATOM     22  C   UNL     1     192.270 190.505 199.987  1.00  0.00    -0.000 C 
BRANCH  22  23
ATOM     23  C   UNL     1     190.787 190.229 200.279  1.00  0.00    -0.000 C 
BRANCH  23  24
ATOM     24  C   UNL     1     190.518 188.761 200.645  1.00  0.00    -0.000 C 
BRANCH  24  25
ATOM     25  C   UNL     1     189.607 188.617 201.878  1.00  0.00    -0.000 C 
BRANCH  25  26
ATOM     26  C   UNL     1     188.605 189.774 202.008  1.00  0.00    -0.000 C 
BRANCH  26  27
ATOM     27  C   UNL     1     187.159 189.340 201.710  1.00  0.00    -0.000 C 
BRANCH  27  28
ATOM     28  C   UNL     1     186.846 189.327 200.206  1.00  0.00    -0.000 C 
BRANCH  28  29
ATOM     29  C   UNL     1     186.296 187.974 199.729  1.00  0.00    -0.003 C 
ATOM     30  C   UNL     1     186.378 187.852 198.210  1.00  0.00     0.004 C 
ENDBRANCH  28  29
ENDBRANCH  27  28
ENDBRANCH  26  27
ENDBRANCH  25  26
ENDBRANCH  24  25
ENDBRANCH  23  24
ENDBRANCH  22  23
ENDBRANCH  21  22
ENDBRANCH  20  21
ENDBRANCH  19  20
ENDBRANCH  18  19
ENDBRANCH  17  18
ENDBRANCH   1  17
TORSDOF 26
ENDMDL
MODEL 4
REMARK VINA RESULT:    -4.478     10.029     12.020
REMARK INTER + INTRA:         -13.921
REMARK INTER:                 -10.954
REMARK INTRA:                  -2.967
REMARK UNBOUND:                -2.637
REMARK SMILES CCCCCCCCCCCCCCCCCCCCCCCCCCCC(=O)[O-]
REMARK SMILES IDX 15 1 16 2 17 3 18 4 19 5 20 6 21 7 22 8 23 9 24 10 25 11
REMARK SMILES IDX 26 12 27 13 28 14 29 15 30 16 14 17 13 18 12 19 11 20 10 21
REMARK SMILES IDX 9 22 8 23 7 24 6 25 5 26 4 27 3 28 2 29 1 30
REMARK H PARENT
REMARK Flexibility Score: inf
ROOT
ATOM      1  C   UNL     1     193.190 190.940 200.408  1.00  0.00     0.000 C 
ENDROOT
BRANCH   1   2
ATOM      2  C   UNL     1     193.498 191.536 199.022  1.00  0.00     0.000 C 
BRANCH   2   3
ATOM      3  C   UNL     1     194.009 192.988 199.105  1.00  0.00     0.000 C 
BRANCH   3   4
ATOM      4  C   UNL     1     193.510 193.762 200.342  1.00  0.00     0.000 C 
BRANCH   4   5
ATOM      5  C   UNL     1     193.869 195.264 200.337  1.00  0.00     0.000 C 
BRANCH   5   6
ATOM      6  C   UNL     1     195.038 195.617 199.392  1.00  0.00     0.000 C 
BRANCH   6   7
ATOM      7  C   UNL     1     196.134 196.485 200.038  1.00  0.00     0.000 C 
BRANCH   7   8
ATOM      8  C   UNL     1     196.765 195.865 201.301  1.00  0.00     0.000 C 
BRANCH   8   9
ATOM      9  C   UNL     1     197.966 194.963 200.978  1.00  0.00     0.000 C 
BRANCH   9  10
ATOM     10  C   UNL     1     197.989 193.732 201.896  1.00  0.00     0.000 C 
BRANCH  10  11
ATOM     11  C   UNL     1     196.842 192.746 201.609  1.00  0.00     0.000 C 
BRANCH  11  12
ATOM     12  C   UNL     1     197.098 191.769 200.445  1.00  0.00     0.006 C 
BRANCH  12  13
ATOM     13  C   UNL     1     197.049 190.297 200.877  1.00  0.00     0.053 C 
BRANCH  13  14
ATOM     14  C   UNL     1     196.502 189.444 199.777  1.00  0.00     0.041 C 
ATOM     15  O   UNL     1     196.592 189.820 198.578  1.00  0.00    -0.550 OA
ATOM     16  O   UNL     1     195.869 188.244 200.075  1.00  0.00    -0.550 OA
ENDBRANCH  13  14
ENDBRANCH  12  13
ENDBRANCH  11  12
ENDBRANCH  10  11
ENDBRANCH   9  10
ENDBRANCH   8   9
ENDBRANCH   7   8
ENDBRANCH   6   7
ENDBRANCH   5   6
ENDBRANCH   4   5
ENDBRANCH   3   4
ENDBRANCH   2   3
ENDBRANCH   1   2
BRANCH   1  17
ATOM     17  C   UNL     1     192.067 189.891 200.363  1.00  0.00     0.000 C 
BRANCH  17  18
ATOM     18  C   UNL     1     190.683 190.521 200.145  1.00  0.00     0.000 C 
BRANCH  18  19
ATOM     19  C   UNL     1     189.642 189.456 199.783  1.00  0.00     0.000 C 
BRANCH  19  20
ATOM     20  C   UNL     1     188.316 189.714 200.515  1.00  0.00     0.000 C 
BRANCH  20  21
ATOM     21  C   UNL     1     187.095 189.583 199.591  1.00  0.00     0.000 C 
BRANCH  21  22
ATOM     22  C   UNL     1     187.169 188.346 198.682  1.00  0.00    -0.000 C 
BRANCH  22  23
ATOM     23  C   UNL     1     185.926 188.257 197.785  1.00  0.00    -0.000 C 
BRANCH  23  24
ATOM     24  C   UNL     1     184.669 188.836 198.451  1.00  0.00    -0.000 C 
BRANCH  24  25
ATOM     25  C   UNL     1     183.594 187.767 198.716  1.00  0.00    -0.000 C 
BRANCH  25  26
ATOM     26  C   UNL     1     183.917 186.898 199.942  1.00  0.00    -0.000 C 
BRANCH  26  27
ATOM     27  C   UNL     1     183.807 185.392 199.644  1.00  0.00    -0.000 C 
BRANCH  27  28
ATOM     28  C   UNL     1     184.729 184.949 198.497  1.00  0.00    -0.000 C 
BRANCH  28  29
ATOM     29  C   UNL     1     184.739 183.426 198.302  1.00  0.00    -0.003 C 
ATOM     30  C   UNL     1     183.755 182.744 199.249  1.00  0.00     0.004 C 
ENDBRANCH  28  29
ENDBRANCH  27  28
ENDBRANCH  26  27
ENDBRANCH  25  26
ENDBRANCH  24  25
ENDBRANCH  23  24
ENDBRANCH  22  23
ENDBRANCH  21  22
ENDBRANCH  20  21
ENDBRANCH  19  20
ENDBRANCH  18  19
ENDBRANCH  17  18
ENDBRANCH   1  17
TORSDOF 26
ENDMDL
MODEL 5
REMARK VINA RESULT:    -4.473      9.847     14.292
REMARK INTER + INTRA:         -13.908
REMARK INTER:                 -10.258
REMARK INTRA:                  -3.650
REMARK UNBOUND:                -2.637
REMARK SMILES CCCCCCCCCCCCCCCCCCCCCCCCCCCC(=O)[O-]
REMARK SMILES IDX 15 1 16 2 17 3 18 4 19 5 20 6 21 7 22 8 23 9 24 10 25 11
REMARK SMILES IDX 26 12 27 13 28 14 29 15 30 16 14 17 13 18 12 19 11 20 10 21
REMARK SMILES IDX 9 22 8 23 7 24 6 25 5 26 4 27 3 28 2 29 1 30
REMARK H PARENT
REMARK Flexibility Score: inf
ROOT
ATOM      1  C   UNL     1     192.224 188.666 198.756  1.00  0.00     0.000 C 
ENDROOT
BRANCH   1   2
ATOM      2  C   UNL     1     190.880 188.637 199.507  1.00  0.00     0.000 C 
BRANCH   2   3
ATOM      3  C   UNL     1     190.933 189.405 200.842  1.00  0.00     0.000 C 
BRANCH   3   4
ATOM      4  C   UNL     1     189.871 190.516 200.972  1.00  0.00     0.000 C 
BRANCH   4   5
ATOM      5  C   UNL     1     188.678 190.149 201.882  1.00  0.00     0.000 C 
BRANCH   5   6
ATOM      6  C   UNL     1     187.510 189.477 201.129  1.00  0.00     0.000 C 
BRANCH   6   7
ATOM      7  C   UNL     1     187.411 189.863 199.642  1.00  0.00     0.000 C 
BRANCH   7   8
ATOM      8  C   UNL     1     187.068 188.686 198.707  1.00  0.00     0.000 C 
BRANCH   8   9
ATOM      9  C   UNL     1     186.213 187.613 199.398  1.00  0.00     0.000 C 
BRANCH   9  10
ATOM     10  C   UNL     1     185.229 186.975 198.408  1.00  0.00     0.000 C 
BRANCH  10  11
ATOM     11  C   UNL     1     183.861 187.681 198.380  1.00  0.00     0.000 C 
BRANCH  11  12
ATOM     12  C   UNL     1     183.558 188.566 199.603  1.00  0.00     0.006 C 
BRANCH  12  13
ATOM     13  C   UNL     1     182.394 189.538 199.366  1.00  0.00     0.053 C 
BRANCH  13  14
ATOM     14  C   UNL     1     182.887 190.951 199.331  1.00  0.00     0.041 C 
ATOM     15  O   UNL     1     183.783 191.290 198.513  1.00  0.00    -0.550 OA
ATOM     16  O   UNL     1     182.374 191.889 200.217  1.00  0.00    -0.550 OA
ENDBRANCH  13  14
ENDBRANCH  12  13
ENDBRANCH  11  12
ENDBRANCH  10  11
ENDBRANCH   9  10
ENDBRANCH   8   9
ENDBRANCH   7   8
ENDBRANCH   6   7
ENDBRANCH   5   6
ENDBRANCH   4   5
ENDBRANCH   3   4
ENDBRANCH   2   3
ENDBRANCH   1   2
BRANCH   1  17
ATOM     17  C   UNL     1     193.126 189.828 199.204  1.00  0.00     0.000 C 
BRANCH  17  18
ATOM     18  C   UNL     1     193.161 190.972 198.180  1.00  0.00     0.000 C 
BRANCH  18  19
ATOM     19  C   UNL     1     193.924 192.183 198.730  1.00  0.00     0.000 C 
BRANCH  19  20
ATOM     20  C   UNL     1     193.600 192.406 200.215  1.00  0.00     0.000 C 
BRANCH  20  21
ATOM     21  C   UNL     1     193.733 193.879 200.634  1.00  0.00     0.000 C 
BRANCH  21  22
ATOM     22  C   UNL     1     194.888 194.112 201.621  1.00  0.00    -0.000 C 
BRANCH  22  23
ATOM     23  C   UNL     1     196.243 194.026 200.903  1.00  0.00    -0.000 C 
BRANCH  23  24
ATOM     24  C   UNL     1     197.141 192.912 201.461  1.00  0.00    -0.000 C 
BRANCH  24  25
ATOM     25  C   UNL     1     197.269 191.718 200.497  1.00  0.00    -0.000 C 
BRANCH  25  26
ATOM     26  C   UNL     1     196.628 190.438 201.057  1.00  0.00    -0.000 C 
BRANCH  26  27
ATOM     27  C   UNL     1     196.803 189.231 200.118  1.00  0.00    -0.000 C 
BRANCH  27  28
ATOM     28  C   UNL     1     196.687 189.615 198.635  1.00  0.00    -0.000 C 
BRANCH  28  29
ATOM     29  C   UNL     1     196.524 188.393 197.720  1.00  0.00    -0.003 C 
ATOM     30  C   UNL     1     195.710 187.298 198.405  1.00  0.00     0.004 C 
ENDBRANCH  28  29
ENDBRANCH  27  28
ENDBRANCH  26  27
ENDBRANCH  25  26
ENDBRANCH  24  25
ENDBRANCH  23  24
ENDBRANCH  22  23
ENDBRANCH  21  22
ENDBRANCH  20  21
ENDBRANCH  19  20
ENDBRANCH  18  19
ENDBRANCH  17  18
ENDBRANCH   1  17
TORSDOF 26
ENDMDL
MODEL 6
REMARK VINA RESULT:    -4.438     10.411     14.942
REMARK INTER + INTRA:         -13.821
REMARK INTER:                 -10.956
REMARK INTRA:                  -2.865
REMARK UNBOUND:                -2.637
REMARK SMILES CCCCCCCCCCCCCCCCCCCCCCCCCCCC(=O)[O-]
REMARK SMILES IDX 15 1 16 2 17 3 18 4 19 5 20 6 21 7 22 8 23 9 24 10 25 11
REMARK SMILES IDX 26 12 27 13 28 14 29 15 30 16 14 17 13 18 12 19 11 20 10 21
REMARK SMILES IDX 9 22 8 23 7 24 6 25 5 26 4 27 3 28 2 29 1 30
REMARK H PARENT
REMARK Flexibility Score: inf
ROOT
ATOM      1  C   UNL     1     185.338 189.508 198.105  1.00  0.00     0.000 C 
ENDROOT
BRANCH   1   2
ATOM      2  C   UNL     1     184.573 188.286 197.564  1.00  0.00     0.000 C 
BRANCH   2   3
ATOM      3  C   UNL     1     185.416 186.996 197.606  1.00  0.00     0.000 C 
BRANCH   3   4
ATOM      4  C   UNL     1     184.896 185.935 198.598  1.00  0.00     0.000 C 
BRANCH   4   5
ATOM      5  C   UNL     1     184.872 184.498 198.033  1.00  0.00     0.000 C 
BRANCH   5   6
ATOM      6  C   UNL     1     185.041 183.407 199.112  1.00  0.00     0.000 C 
BRANCH   6   7
ATOM      7  C   UNL     1     183.961 182.310 199.076  1.00  0.00     0.000 C 
BRANCH   7   8
ATOM      8  C   UNL     1     182.991 182.343 200.273  1.00  0.00     0.000 C 
BRANCH   8   9
ATOM      9  C   UNL     1     183.583 183.063 201.494  1.00  0.00     0.000 C 
BRANCH   9  10
ATOM     10  C   UNL     1     182.613 184.128 202.026  1.00  0.00     0.000 C 
BRANCH  10  11
ATOM     11  C   UNL     1     182.249 185.191 200.973  1.00  0.00     0.000 C 
BRANCH  11  12
ATOM     12  C   UNL     1     181.826 186.557 201.545  1.00  0.00     0.006 C 
BRANCH  12  13
ATOM     13  C   UNL     1     182.614 187.728 200.942  1.00  0.00     0.053 C 
BRANCH  13  14
ATOM     14  C   UNL     1     181.739 188.934 200.800  1.00  0.00     0.041 C 
ATOM     15  O   UNL     1     182.233 190.038 200.451  1.00  0.00    -0.550 OA
ATOM     16  O   UNL     1     180.381 188.845 201.077  1.00  0.00    -0.550 OA
ENDBRANCH  13  14
ENDBRANCH  12  13
ENDBRANCH  11  12
ENDBRANCH  10  11
ENDBRANCH   9  10
ENDBRANCH   8   9
ENDBRANCH   7   8
ENDBRANCH   6   7
ENDBRANCH   5   6
ENDBRANCH   4   5
ENDBRANCH   3   4
ENDBRANCH   2   3
ENDBRANCH   1   2
BRANCH   1  17
ATOM     17  C   UNL     1     185.600 189.419 199.617  1.00  0.00     0.000 C 
BRANCH  17  18
ATOM     18  C   UNL     1     187.099 189.388 199.951  1.00  0.00     0.000 C 
BRANCH  18  19
ATOM     19  C   UNL     1     187.327 189.171 201.452  1.00  0.00     0.000 C 
BRANCH  19  20
ATOM     20  C   UNL     1     188.727 189.645 201.868  1.00  0.00     0.000 C 
BRANCH  20  21
ATOM     21  C   UNL     1     189.487 190.325 200.719  1.00  0.00     0.000 C 
BRANCH  21  22
ATOM     22  C   UNL     1     190.958 189.887 200.640  1.00  0.00    -0.000 C 
BRANCH  22  23
ATOM     23  C   UNL     1     191.164 188.876 199.503  1.00  0.00    -0.000 C 
BRANCH  23  24
ATOM     24  C   UNL     1     192.470 189.112 198.728  1.00  0.00    -0.000 C 
BRANCH  24  25
ATOM     25  C   UNL     1     192.476 190.455 197.975  1.00  0.00    -0.000 C 
BRANCH  25  26
ATOM     26  C   UNL     1     193.686 191.329 198.340  1.00  0.00    -0.000 C 
BRANCH  26  27
ATOM     27  C   UNL     1     194.926 190.496 198.712  1.00  0.00    -0.000 C 
BRANCH  27  28
ATOM     28  C   UNL     1     195.979 191.314 199.474  1.00  0.00    -0.000 C 
BRANCH  28  29
ATOM     29  C   UNL     1     195.853 191.166 200.997  1.00  0.00    -0.003 C 
ATOM     30  C   UNL     1     195.110 189.885 201.366  1.00  0.00     0.004 C 
ENDBRANCH  28  29
ENDBRANCH  27  28
ENDBRANCH  26  27
ENDBRANCH  25  26
ENDBRANCH  24  25
ENDBRANCH  23  24
ENDBRANCH  22  23
ENDBRANCH  21  22
ENDBRANCH  20  21
ENDBRANCH  19  20
ENDBRANCH  18  19
ENDBRANCH  17  18
ENDBRANCH   1  17
TORSDOF 26
ENDMDL
MODEL 7
REMARK VINA RESULT:    -4.405     10.462     15.155
REMARK INTER + INTRA:         -13.738
REMARK INTER:                 -10.522
REMARK INTRA:                  -3.216
REMARK UNBOUND:                -2.637
REMARK SMILES CCCCCCCCCCCCCCCCCCCCCCCCCCCC(=O)[O-]
REMARK SMILES IDX 15 1 16 2 17 3 18 4 19 5 20 6 21 7 22 8 23 9 24 10 25 11
REMARK SMILES IDX 26 12 27 13 28 14 29 15 30 16 14 17 13 18 12 19 11 20 10 21
REMARK SMILES IDX 9 22 8 23 7 24 6 25 5 26 4 27 3 28 2 29 1 30
REMARK H PARENT
REMARK Flexibility Score: inf
ROOT
ATOM      1  C   UNL     1     193.901 190.338 197.793  1.00  0.00     0.000 C 
ENDROOT
BRANCH   1   2
ATOM      2  C   UNL     1     192.388 190.547 197.989  1.00  0.00     0.000 C 
BRANCH   2   3
ATOM      3  C   UNL     1     191.753 189.461 198.879  1.00  0.00     0.000 C 
BRANCH   3   4
ATOM      4  C   UNL     1     191.181 189.992 200.210  1.00  0.00     0.000 C 
BRANCH   4   5
ATOM      5  C   UNL     1     190.705 188.890 201.180  1.00  0.00     0.000 C 
BRANCH   5   6
ATOM      6  C   UNL     1     189.263 189.095 201.690  1.00  0.00     0.000 C 
BRANCH   6   7
ATOM      7  C   UNL     1     188.258 189.507 200.598  1.00  0.00     0.000 C 
BRANCH   7   8
ATOM      8  C   UNL     1     186.829 188.975 200.823  1.00  0.00     0.000 C 
BRANCH   8   9
ATOM      9  C   UNL     1     186.216 188.370 199.551  1.00  0.00     0.000 C 
BRANCH   9  10
ATOM     10  C   UNL     1     185.487 187.056 199.865  1.00  0.00     0.000 C 
BRANCH  10  11
ATOM     11  C   UNL     1     184.915 186.371 198.611  1.00  0.00     0.000 C 
BRANCH  11  12
ATOM     12  C   UNL     1     184.620 184.867 198.767  1.00  0.00     0.006 C 
BRANCH  12  13
ATOM     13  C   UNL     1     185.275 184.254 200.011  1.00  0.00     0.053 C 
BRANCH  13  14
ATOM     14  C   UNL     1     184.244 183.624 200.894  1.00  0.00     0.041 C 
ATOM     15  O   UNL     1     183.113 184.161 201.031  1.00  0.00    -0.550 OA
ATOM     16  O   UNL     1     184.539 182.456 201.586  1.00  0.00    -0.550 OA
ENDBRANCH  13  14
ENDBRANCH  12  13
ENDBRANCH  11  12
ENDBRANCH  10  11
ENDBRANCH   9  10
ENDBRANCH   8   9
ENDBRANCH   7   8
ENDBRANCH   6   7
ENDBRANCH   5   6
ENDBRANCH   4   5
ENDBRANCH   3   4
ENDBRANCH   2   3
ENDBRANCH   1   2
BRANCH   1  17
ATOM     17  C   UNL     1     194.417 189.070 198.491  1.00  0.00     0.000 C 
BRANCH  17  18
ATOM     18  C   UNL     1     195.524 189.372 199.513  1.00  0.00     0.000 C 
BRANCH  18  19
ATOM     19  C   UNL     1     194.932 189.685 200.893  1.00  0.00     0.000 C 
BRANCH  19  20
ATOM     20  C   UNL     1     195.492 191.005 201.443  1.00  0.00     0.000 C 
BRANCH  20  21
ATOM     21  C   UNL     1     196.607 191.588 200.560  1.00  0.00     0.000 C 
BRANCH  21  22
ATOM     22  C   UNL     1     197.574 192.489 201.344  1.00  0.00    -0.000 C 
BRANCH  22  23
ATOM     23  C   UNL     1     196.807 193.591 202.089  1.00  0.00    -0.000 C 
BRANCH  23  24
ATOM     24  C   UNL     1     196.833 194.937 201.348  1.00  0.00    -0.000 C 
BRANCH  24  25
ATOM     25  C   UNL     1     196.082 196.045 202.109  1.00  0.00    -0.000 C 
BRANCH  25  26
ATOM     26  C   UNL     1     194.805 196.496 201.383  1.00  0.00    -0.000 C 
BRANCH  26  27
ATOM     27  C   UNL     1     193.542 195.803 201.923  1.00  0.00    -0.000 C 
BRANCH  27  28
ATOM     28  C   UNL     1     192.734 195.105 200.818  1.00  0.00    -0.000 C 
BRANCH  28  29
ATOM     29  C   UNL     1     193.288 193.716 200.468  1.00  0.00    -0.003 C 
ATOM     30  C   UNL     1     194.050 193.745 199.146  1.00  0.00     0.004 C 
ENDBRANCH  28  29
ENDBRANCH  27  28
ENDBRANCH  26  27
ENDBRANCH  25  26
ENDBRANCH  24  25
ENDBRANCH  23  24
ENDBRANCH  22  23
ENDBRANCH  21  22
ENDBRANCH  20  21
ENDBRANCH  19  20
ENDBRANCH  18  19
ENDBRANCH  17  18
ENDBRANCH   1  17
TORSDOF 26
ENDMDL
MODEL 8
REMARK VINA RESULT:    -4.375     10.630     15.036
REMARK INTER + INTRA:         -13.661
REMARK INTER:                 -10.585
REMARK INTRA:                  -3.076
REMARK UNBOUND:                -2.637
REMARK SMILES CCCCCCCCCCCCCCCCCCCCCCCCCCCC(=O)[O-]
REMARK SMILES IDX 15 1 16 2 17 3 18 4 19 5 20 6 21 7 22 8 23 9 24 10 25 11
REMARK SMILES IDX 26 12 27 13 28 14 29 15 30 16 14 17 13 18 12 19 11 20 10 21
REMARK SMILES IDX 9 22 8 23 7 24 6 25 5 26 4 27 3 28 2 29 1 30
REMARK H PARENT
REMARK Flexibility Score: inf
ROOT
ATOM      1  C   UNL     1     193.326 190.877 198.585  1.00  0.00     0.000 C 
ENDROOT
BRANCH   1   2
ATOM      2  C   UNL     1     192.826 190.029 199.769  1.00  0.00     0.000 C 
BRANCH   2   3
ATOM      3  C   UNL     1     191.692 189.065 199.366  1.00  0.00     0.000 C 
BRANCH   3   4
ATOM      4  C   UNL     1     190.513 189.028 200.360  1.00  0.00     0.000 C 
BRANCH   4   5
ATOM      5  C   UNL     1     189.133 189.282 199.716  1.00  0.00     0.000 C 
BRANCH   5   6
ATOM      6  C   UNL     1     188.056 189.738 200.723  1.00  0.00     0.000 C 
BRANCH   6   7
ATOM      7  C   UNL     1     186.739 188.944 200.644  1.00  0.00     0.000 C 
BRANCH   7   8
ATOM      8  C   UNL     1     186.857 187.604 199.891  1.00  0.00     0.000 C 
BRANCH   8   9
ATOM      9  C   UNL     1     186.025 187.577 198.600  1.00  0.00     0.000 C 
BRANCH   9  10
ATOM     10  C   UNL     1     185.017 186.419 198.622  1.00  0.00     0.000 C 
BRANCH  10  11
ATOM     11  C   UNL     1     185.133 185.543 199.883  1.00  0.00     0.000 C 
BRANCH  11  12
ATOM     12  C   UNL     1     184.112 184.393 199.975  1.00  0.00     0.006 C 
BRANCH  12  13
ATOM     13  C   UNL     1     183.752 184.027 201.421  1.00  0.00     0.053 C 
BRANCH  13  14
ATOM     14  C   UNL     1     184.526 182.827 201.868  1.00  0.00     0.041 C 
ATOM     15  O   UNL     1     185.765 182.914 202.079  1.00  0.00    -0.550 OA
ATOM     16  O   UNL     1     183.885 181.605 202.030  1.00  0.00    -0.550 OA
ENDBRANCH  13  14
ENDBRANCH  12  13
ENDBRANCH  11  12
ENDBRANCH  10  11
ENDBRANCH   9  10
ENDBRANCH   8   9
ENDBRANCH   7   8
ENDBRANCH   6   7
ENDBRANCH   5   6
ENDBRANCH   4   5
ENDBRANCH   3   4
ENDBRANCH   2   3
ENDBRANCH   1   2
BRANCH   1  17
ATOM     17  C   UNL     1     193.639 192.327 198.988  1.00  0.00     0.000 C 
BRANCH  17  18
ATOM     18  C   UNL     1     193.120 192.670 200.393  1.00  0.00     0.000 C 
BRANCH  18  19
ATOM     19  C   UNL     1     193.302 194.162 200.701  1.00  0.00     0.000 C 
BRANCH  19  20
ATOM     20  C   UNL     1     193.971 194.886 199.523  1.00  0.00     0.000 C 
BRANCH  20  21
ATOM     21  C   UNL     1     194.980 195.951 199.980  1.00  0.00     0.000 C 
BRANCH  21  22
ATOM     22  C   UNL     1     195.587 195.641 201.357  1.00  0.00    -0.000 C 
BRANCH  22  23
ATOM     23  C   UNL     1     197.012 195.087 201.210  1.00  0.00    -0.000 C 
BRANCH  23  24
ATOM     24  C   UNL     1     197.037 193.579 200.915  1.00  0.00    -0.000 C 
BRANCH  24  25
ATOM     25  C   UNL     1     196.427 192.745 202.056  1.00  0.00    -0.000 C 
BRANCH  25  26
ATOM     26  C   UNL     1     196.988 191.315 202.105  1.00  0.00    -0.000 C 
BRANCH  26  27
ATOM     27  C   UNL     1     195.975 190.265 201.616  1.00  0.00    -0.000 C 
BRANCH  27  28
ATOM     28  C   UNL     1     196.558 189.341 200.536  1.00  0.00    -0.000 C 
BRANCH  28  29
ATOM     29  C   UNL     1     196.835 190.076 199.216  1.00  0.00    -0.003 C 
ATOM     30  C   UNL     1     198.241 189.774 198.703  1.00  0.00     0.004 C 
ENDBRANCH  28  29
ENDBRANCH  27  28
ENDBRANCH  26  27
ENDBRANCH  25  26
ENDBRANCH  24  25
ENDBRANCH  23  24
ENDBRANCH  22  23
ENDBRANCH  21  22
ENDBRANCH  20  21
ENDBRANCH  19  20
ENDBRANCH  18  19
ENDBRANCH  17  18
ENDBRANCH   1  17
TORSDOF 26
ENDMDL
MODEL 9
REMARK VINA RESULT:    -4.264      9.387     14.381
REMARK INTER + INTRA:         -13.382
REMARK INTER:                 -10.411
REMARK INTRA:                  -2.970
REMARK UNBOUND:                -2.637
REMARK SMILES CCCCCCCCCCCCCCCCCCCCCCCCCCCC(=O)[O-]
REMARK SMILES IDX 15 1 16 2 17 3 18 4 19 5 20 6 21 7 22 8 23 9 24 10 25 11
REMARK SMILES IDX 26 12 27 13 28 14 29 15 30 16 14 17 13 18 12 19 11 20 10 21
REMARK SMILES IDX 9 22 8 23 7 24 6 25 5 26 4 27 3 28 2 29 1 30
REMARK H PARENT
REMARK Flexibility Score: inf
ROOT
ATOM      1  C   UNL     1     186.186 188.234 198.262  1.00  0.00     0.000 C 
ENDROOT
BRANCH   1   2
ATOM      2  C   UNL     1     185.304 187.149 197.618  1.00  0.00     0.000 C 
BRANCH   2   3
ATOM      3  C   UNL     1     184.959 186.011 198.598  1.00  0.00     0.000 C 
BRANCH   3   4
ATOM      4  C   UNL     1     184.852 184.621 197.937  1.00  0.00     0.000 C 
BRANCH   4   5
ATOM      5  C   UNL     1     184.951 183.439 198.926  1.00  0.00     0.000 C 
BRANCH   5   6
ATOM      6  C   UNL     1     184.720 183.844 200.398  1.00  0.00     0.000 C 
BRANCH   6   7
ATOM      7  C   UNL     1     183.391 183.340 200.991  1.00  0.00     0.000 C 
BRANCH   7   8
ATOM      8  C   UNL     1     182.788 184.269 202.063  1.00  0.00     0.000 C 
BRANCH   8   9
ATOM      9  C   UNL     1     181.490 184.945 201.595  1.00  0.00     0.000 C 
BRANCH   9  10
ATOM     10  C   UNL     1     181.675 186.465 201.483  1.00  0.00     0.000 C 
BRANCH  10  11
ATOM     11  C   UNL     1     181.869 186.943 200.032  1.00  0.00     0.000 C 
BRANCH  11  12
ATOM     12  C   UNL     1     181.957 188.471 199.854  1.00  0.00     0.006 C 
BRANCH  12  13
ATOM     13  C   UNL     1     182.181 188.892 198.395  1.00  0.00     0.053 C 
BRANCH  13  14
ATOM     14  C   UNL     1     182.634 190.316 198.322  1.00  0.00     0.041 C 
ATOM     15  O   UNL     1     182.011 191.213 198.950  1.00  0.00    -0.550 OA
ATOM     16  O   UNL     1     183.730 190.659 197.541  1.00  0.00    -0.550 OA
ENDBRANCH  13  14
ENDBRANCH  12  13
ENDBRANCH  11  12
ENDBRANCH  10  11
ENDBRANCH   9  10
ENDBRANCH   8   9
ENDBRANCH   7   8
ENDBRANCH   6   7
ENDBRANCH   5   6
ENDBRANCH   4   5
ENDBRANCH   3   4
ENDBRANCH   2   3
ENDBRANCH   1   2
BRANCH   1  17
ATOM     17  C   UNL     1     185.740 188.588 199.689  1.00  0.00     0.000 C 
BRANCH  17  18
ATOM     18  C   UNL     1     186.925 188.716 200.659  1.00  0.00     0.000 C 
BRANCH  18  19
ATOM     19  C   UNL     1     187.805 187.460 200.624  1.00  0.00     0.000 C 
BRANCH  19  20
ATOM     20  C   UNL     1     188.999 187.601 201.579  1.00  0.00     0.000 C 
BRANCH  20  21
ATOM     21  C   UNL     1     189.532 189.041 201.652  1.00  0.00     0.000 C 
BRANCH  21  22
ATOM     22  C   UNL     1     190.851 189.225 200.886  1.00  0.00    -0.000 C 
BRANCH  22  23
ATOM     23  C   UNL     1     190.593 189.827 199.497  1.00  0.00    -0.000 C 
BRANCH  23  24
ATOM     24  C   UNL     1     191.611 189.355 198.447  1.00  0.00    -0.000 C 
BRANCH  24  25
ATOM     25  C   UNL     1     192.529 190.491 197.961  1.00  0.00    -0.000 C 
BRANCH  25  26
ATOM     26  C   UNL     1     193.988 190.298 198.403  1.00  0.00    -0.000 C 
BRANCH  26  27
ATOM     27  C   UNL     1     194.197 189.000 199.202  1.00  0.00    -0.000 C 
BRANCH  27  28
ATOM     28  C   UNL     1     194.822 187.881 198.355  1.00  0.00    -0.000 C 
BRANCH  28  29
ATOM     29  C   UNL     1     196.241 187.515 198.815  1.00  0.00    -0.003 C 
ATOM     30  C   UNL     1     196.416 186.001 198.911  1.00  0.00     0.004 C 
ENDBRANCH  28  29
ENDBRANCH  27  28
ENDBRANCH  26  27
ENDBRANCH  25  26
ENDBRANCH  24  25
ENDBRANCH  23  24
ENDBRANCH  22  23
ENDBRANCH  21  22
ENDBRANCH  20  21
ENDBRANCH  19  20
ENDBRANCH  18  19
ENDBRANCH  17  18
ENDBRANCH   1  17
TORSDOF 26
ENDMDL
