MODEL 1
REMARK VINA RESULT:    -6.995      0.000      0.000
REMARK INTER + INTRA:         -13.021
REMARK INTER:                 -11.492
REMARK INTRA:                  -1.529
REMARK UNBOUND:                -1.529
REMARK SMILES C[C@H]1O[C@@H](OC[C@@H]2O[C@H](Oc3c(-c4ccc(O)c(O)c4)oc4cc(O)cc(O)c4c3=O)[C@H](O)[C@@H](O)[C@@H]2O)[C@H](O)[C@H](O)[C@H]1O
REMARK SMILES IDX 7 1 36 2 34 3 32 4 9 5 8 6 6 7 5 8 4 9 1 10 2 11 42 12 3 13
REMARK SMILES IDX 40 14 38 15 43 16 41 18 39 20 37 22 35 24 10 26 11 27 12 28
REMARK SMILES IDX 30 29 21 30 29 31 31 32 22 33 27 34 23 35 26 36 24 37 13 38
REMARK SMILES IDX 20 39 14 40 18 41 15 42 16 43 19 44 17 46 28 48 25 50 33 52
REMARK H PARENT 43 17 41 19 39 21 37 23 35 25 19 45 17 47 28 49 25 51 33 53
REMARK Flexibility Score: inf
ROOT
ATOM      1  C   UNL     1      -8.452  29.370   4.593  1.00  0.00     0.180 C 
ATOM      2  C   UNL     1      -9.419  28.146   4.713  1.00  0.00     0.177 C 
ATOM      3  C   UNL     1     -10.211  28.154   6.046  1.00  0.00     0.180 C 
ATOM      4  C   UNL     1     -10.683  29.570   6.433  1.00  0.00     0.214 C 
ATOM      5  C   UNL     1      -9.565  30.629   6.201  1.00  0.00     0.339 C 
ATOM      6  O   UNL     1      -8.329  30.042   5.830  1.00  0.00    -0.332 OA
ENDROOT
BRANCH   1   7
ATOM      7  C   UNL     1      -7.046  28.992   4.108  1.00  0.00     0.198 C 
BRANCH   7   8
ATOM      8  O   UNL     1      -6.430  28.143   5.067  1.00  0.00    -0.347 OA
BRANCH   8   9
ATOM      9  C   UNL     1      -5.130  28.602   5.410  1.00  0.00     0.281 C 
ATOM     10  C   UNL     1      -3.743  26.934   8.162  1.00  0.00     0.041 C 
ATOM     11  C   UNL     1      -3.375  27.764   6.921  1.00  0.00     0.150 C 
ATOM     12  C   UNL     1      -3.084  29.251   7.247  1.00  0.00     0.174 C 
ATOM     13  O   UNL     1      -4.354  27.513   5.920  1.00  0.00    -0.344 OA
ATOM     14  C   UNL     1      -4.401  29.982   7.504  1.00  0.00     0.179 C 
ATOM     15  C   UNL     1      -5.264  29.926   6.239  1.00  0.00     0.202 C 
BRANCH  12  16
ATOM     16  O   UNL     1      -2.246  29.367   8.373  1.00  0.00    -0.388 OA
ATOM     17  H   UNL     1      -2.670  28.842   9.097  1.00  0.00     0.211 HD
ENDBRANCH  12  16
BRANCH  14  18
ATOM     18  O   UNL     1      -4.165  31.321   7.862  1.00  0.00    -0.387 OA
ATOM     19  H   UNL     1      -3.859  31.791   7.048  1.00  0.00     0.211 HD
ENDBRANCH  14  18
BRANCH  15  20
ATOM     20  O   UNL     1      -5.033  31.044   5.409  1.00  0.00    -0.385 OA
ATOM     21  H   UNL     1      -5.909  31.343   5.048  1.00  0.00     0.211 HD
ENDBRANCH  15  20
ENDBRANCH   8   9
ENDBRANCH   7   8
ENDBRANCH   1   7
BRANCH   2  22
ATOM     22  O   UNL     1      -8.764  26.910   4.554  1.00  0.00    -0.387 OA
ATOM     23  H   UNL     1      -9.321  26.354   3.950  1.00  0.00     0.211 HD
ENDBRANCH   2  22
BRANCH   3  24
ATOM     24  O   UNL     1     -11.296  27.260   5.996  1.00  0.00    -0.387 OA
ATOM     25  H   UNL     1     -12.038  27.710   5.508  1.00  0.00     0.211 HD
ENDBRANCH   3  24
BRANCH   5  26
ATOM     26  O   UNL     1      -9.402  31.471   7.349  1.00  0.00    -0.454 OA
BRANCH  26  27
ATOM     27  C   UNL     1      -9.549  32.872   7.369  1.00  0.00     0.214 A 
ATOM     28  C   UNL     1     -10.346  33.462   8.367  1.00  0.00     0.180 A 
ATOM     29  C   UNL     1      -8.882  33.713   6.457  1.00  0.00     0.239 A 
ATOM     30  O   UNL     1     -10.468  34.785   8.430  1.00  0.00    -0.452 OA
ATOM     31  C   UNL     1      -9.064  35.108   6.533  1.00  0.00     0.111 A 
ATOM     32  O   UNL     1      -8.103  33.213   5.605  1.00  0.00    -0.285 OA
ATOM     33  C   UNL     1      -9.881  35.610   7.570  1.00  0.00     0.146 A 
ATOM     34  C   UNL     1      -8.462  36.015   5.629  1.00  0.00     0.134 A 
ATOM     35  C   UNL     1     -10.078  36.988   7.708  1.00  0.00     0.094 A 
ATOM     36  C   UNL     1      -8.673  37.392   5.777  1.00  0.00     0.093 A 
ATOM     37  C   UNL     1      -9.482  37.878   6.811  1.00  0.00     0.123 A 
BRANCH  28  38
ATOM     38  C   UNL     1     -11.071  32.639   9.358  1.00  0.00     0.025 A 
ATOM     39  C   UNL     1     -10.432  32.199  10.536  1.00  0.00     0.062 A 
ATOM     40  C   UNL     1     -12.396  32.248   9.107  1.00  0.00     0.016 A 
ATOM     41  C   UNL     1     -11.115  31.391  11.455  1.00  0.00     0.158 A 
ATOM     42  C   UNL     1     -13.081  31.449  10.028  1.00  0.00     0.051 A 
ATOM     43  C   UNL     1     -12.445  31.017  11.203  1.00  0.00     0.157 A 
BRANCH  41  44
ATOM     44  O   UNL     1     -10.476  30.946  12.615  1.00  0.00    -0.504 OA
ATOM     45  H   UNL     1     -10.383  31.544  13.427  1.00  0.00     0.293 HD
ENDBRANCH  41  44
BRANCH  43  46
ATOM     46  O   UNL     1     -13.125  30.223  12.128  1.00  0.00    -0.504 OA
ATOM     47  H   UNL     1     -13.872  30.605  12.702  1.00  0.00     0.293 HD
ENDBRANCH  43  46
ENDBRANCH  28  38
BRANCH  34  48
ATOM     48  O   UNL     1      -7.662  35.555   4.585  1.00  0.00    -0.507 OA
ATOM     49  H   UNL     1      -7.406  36.148   3.800  1.00  0.00     0.293 HD
ENDBRANCH  34  48
BRANCH  37  50
ATOM     50  O   UNL     1      -9.693  39.248   6.960  1.00  0.00    -0.508 OA
ATOM     51  H   UNL     1      -9.066  39.823   7.511  1.00  0.00     0.293 HD
ENDBRANCH  37  50
ENDBRANCH  26  27
ENDBRANCH   5  26
BRANCH   4  52
ATOM     52  O   UNL     1     -11.110  29.559   7.773  1.00  0.00    -0.384 OA
ATOM     53  H   UNL     1     -11.697  28.768   7.889  1.00  0.00     0.211 HD
ENDBRANCH   4  52
TORSDOF 16
ENDMDL
MODEL 2
REMARK VINA RESULT:    -6.854      2.166      4.307
REMARK INTER + INTRA:         -12.790
REMARK INTER:                 -12.208
REMARK INTRA:                  -0.582
REMARK UNBOUND:                -1.529
REMARK SMILES C[C@H]1O[C@@H](OC[C@@H]2O[C@H](Oc3c(-c4ccc(O)c(O)c4)oc4cc(O)cc(O)c4c3=O)[C@H](O)[C@@H](O)[C@@H]2O)[C@H](O)[C@H](O)[C@H]1O
REMARK SMILES IDX 7 1 36 2 34 3 32 4 9 5 8 6 6 7 5 8 4 9 1 10 2 11 42 12 3 13
REMARK SMILES IDX 40 14 38 15 43 16 41 18 39 20 37 22 35 24 10 26 11 27 12 28
REMARK SMILES IDX 30 29 21 30 29 31 31 32 22 33 27 34 23 35 26 36 24 37 13 38
REMARK SMILES IDX 20 39 14 40 18 41 15 42 16 43 19 44 17 46 28 48 25 50 33 52
REMARK H PARENT 43 17 41 19 39 21 37 23 35 25 19 45 17 47 28 49 25 51 33 53
REMARK Flexibility Score: inf
ROOT
ATOM      1  C   UNL     1      -8.751  31.830   6.704  1.00  0.00     0.180 C 
ATOM      2  C   UNL     1      -7.341  32.326   6.240  1.00  0.00     0.177 C 
ATOM      3  C   UNL     1      -7.374  33.792   5.735  1.00  0.00     0.180 C 
ATOM      4  C   UNL     1      -8.273  34.688   6.610  1.00  0.00     0.214 C 
ATOM      5  C   UNL     1      -9.609  33.976   6.974  1.00  0.00     0.339 C 
ATOM      6  O   UNL     1      -9.762  32.734   6.307  1.00  0.00    -0.332 OA
ENDROOT
BRANCH   1   7
ATOM      7  C   UNL     1      -9.114  30.437   6.172  1.00  0.00     0.198 C 
BRANCH   7   8
ATOM      8  O   UNL     1      -8.339  29.458   6.850  1.00  0.00    -0.347 OA
BRANCH   8   9
ATOM      9  C   UNL     1      -7.860  28.464   5.957  1.00  0.00     0.281 C 
ATOM     10  C   UNL     1      -4.368  28.420   5.661  1.00  0.00     0.041 C 
ATOM     11  C   UNL     1      -5.624  27.555   5.466  1.00  0.00     0.150 C 
ATOM     12  C   UNL     1      -6.088  27.479   3.989  1.00  0.00     0.174 C 
ATOM     13  O   UNL     1      -6.596  27.973   6.416  1.00  0.00    -0.344 OA
ATOM     14  C   UNL     1      -6.774  28.789   3.603  1.00  0.00     0.179 C 
ATOM     15  C   UNL     1      -8.009  28.989   4.488  1.00  0.00     0.202 C 
BRANCH  12  16
ATOM     16  O   UNL     1      -4.998  27.240   3.128  1.00  0.00    -0.388 OA
ATOM     17  H   UNL     1      -4.941  28.020   2.521  1.00  0.00     0.211 HD
ENDBRANCH  12  16
BRANCH  14  18
ATOM     18  O   UNL     1      -7.152  28.773   2.250  1.00  0.00    -0.387 OA
ATOM     19  H   UNL     1      -6.766  27.956   1.848  1.00  0.00     0.211 HD
ENDBRANCH  14  18
BRANCH  15  20
ATOM     20  O   UNL     1      -9.164  28.437   3.891  1.00  0.00    -0.385 OA
ATOM     21  H   UNL     1      -8.922  27.543   3.528  1.00  0.00     0.211 HD
ENDBRANCH  15  20
ENDBRANCH   8   9
ENDBRANCH   7   8
ENDBRANCH   1   7
BRANCH   2  22
ATOM     22  O   UNL     1      -6.762  31.497   5.261  1.00  0.00    -0.387 OA
ATOM     23  H   UNL     1      -7.069  30.570   5.438  1.00  0.00     0.211 HD
ENDBRANCH   2  22
BRANCH   3  24
ATOM     24  O   UNL     1      -6.074  34.324   5.642  1.00  0.00    -0.387 OA
ATOM     25  H   UNL     1      -5.505  33.853   6.310  1.00  0.00     0.211 HD
ENDBRANCH   3  24
BRANCH   5  26
ATOM     26  O   UNL     1     -10.735  34.826   6.727  1.00  0.00    -0.454 OA
BRANCH  26  27
ATOM     27  C   UNL     1     -11.217  35.826   7.595  1.00  0.00     0.214 A 
ATOM     28  C   UNL     1     -11.713  35.453   8.858  1.00  0.00     0.180 A 
ATOM     29  C   UNL     1     -11.171  37.195   7.268  1.00  0.00     0.239 A 
ATOM     30  O   UNL     1     -12.137  36.383   9.710  1.00  0.00    -0.452 OA
ATOM     31  C   UNL     1     -11.662  38.148   8.182  1.00  0.00     0.111 A 
ATOM     32  O   UNL     1     -10.660  37.557   6.177  1.00  0.00    -0.285 OA
ATOM     33  C   UNL     1     -12.139  37.681   9.427  1.00  0.00     0.146 A 
ATOM     34  C   UNL     1     -11.688  39.536   7.910  1.00  0.00     0.134 A 
ATOM     35  C   UNL     1     -12.616  38.584  10.382  1.00  0.00     0.094 A 
ATOM     36  C   UNL     1     -12.174  40.427   8.875  1.00  0.00     0.093 A 
ATOM     37  C   UNL     1     -12.640  39.954  10.107  1.00  0.00     0.123 A 
BRANCH  28  38
ATOM     38  C   UNL     1     -11.787  34.035   9.268  1.00  0.00     0.025 A 
ATOM     39  C   UNL     1     -11.067  33.571  10.389  1.00  0.00     0.062 A 
ATOM     40  C   UNL     1     -12.541  33.126   8.508  1.00  0.00     0.016 A 
ATOM     41  C   UNL     1     -11.115  32.217  10.752  1.00  0.00     0.158 A 
ATOM     42  C   UNL     1     -12.595  31.778   8.876  1.00  0.00     0.051 A 
ATOM     43  C   UNL     1     -11.884  31.318   9.995  1.00  0.00     0.157 A 
BRANCH  41  44
ATOM     44  O   UNL     1     -10.392  31.758  11.855  1.00  0.00    -0.504 OA
ATOM     45  H   UNL     1     -10.244  32.343  12.668  1.00  0.00     0.293 HD
ENDBRANCH  41  44
BRANCH  43  46
ATOM     46  O   UNL     1     -11.938  29.974  10.368  1.00  0.00    -0.504 OA
ATOM     47  H   UNL     1     -12.825  29.485  10.446  1.00  0.00     0.293 HD
ENDBRANCH  43  46
ENDBRANCH  28  38
BRANCH  34  48
ATOM     48  O   UNL     1     -11.239  40.031   6.687  1.00  0.00    -0.507 OA
ATOM     49  H   UNL     1     -11.221  41.027   6.483  1.00  0.00     0.293 HD
ENDBRANCH  34  48
BRANCH  37  50
ATOM     50  O   UNL     1     -13.125  40.840  11.069  1.00  0.00    -0.508 OA
ATOM     51  H   UNL     1     -12.705  40.901  11.989  1.00  0.00     0.293 HD
ENDBRANCH  37  50
ENDBRANCH  26  27
ENDBRANCH   5  26
BRANCH   4  52
ATOM     52  O   UNL     1      -8.505  35.900   5.935  1.00  0.00    -0.384 OA
ATOM     53  H   UNL     1      -8.416  36.630   6.601  1.00  0.00     0.211 HD
ENDBRANCH   4  52
TORSDOF 16
ENDMDL
MODEL 3
REMARK VINA RESULT:    -6.087      2.224      6.347
REMARK INTER + INTRA:         -11.531
REMARK INTER:                 -10.575
REMARK INTRA:                  -0.956
REMARK UNBOUND:                -1.529
REMARK SMILES C[C@H]1O[C@@H](OC[C@@H]2O[C@H](Oc3c(-c4ccc(O)c(O)c4)oc4cc(O)cc(O)c4c3=O)[C@H](O)[C@@H](O)[C@@H]2O)[C@H](O)[C@H](O)[C@H]1O
REMARK SMILES IDX 7 1 36 2 34 3 32 4 9 5 8 6 6 7 5 8 4 9 1 10 2 11 42 12 3 13
REMARK SMILES IDX 40 14 38 15 43 16 41 18 39 20 37 22 35 24 10 26 11 27 12 28
REMARK SMILES IDX 30 29 21 30 29 31 31 32 22 33 27 34 23 35 26 36 24 37 13 38
REMARK SMILES IDX 20 39 14 40 18 41 15 42 16 43 19 44 17 46 28 48 25 50 33 52
REMARK H PARENT 43 17 41 19 39 21 37 23 35 25 19 45 17 47 28 49 25 51 33 53
REMARK Flexibility Score: inf
ROOT
ATOM      1  C   UNL     1     -11.255  30.879  10.004  1.00  0.00     0.180 C 
ATOM      2  C   UNL     1     -11.391  29.350   9.705  1.00  0.00     0.177 C 
ATOM      3  C   UNL     1     -11.444  29.053   8.184  1.00  0.00     0.180 C 
ATOM      4  C   UNL     1     -10.453  29.924   7.387  1.00  0.00     0.214 C 
ATOM      5  C   UNL     1     -10.466  31.401   7.878  1.00  0.00     0.339 C 
ATOM      6  O   UNL     1     -11.481  31.646   8.838  1.00  0.00    -0.332 OA
ENDROOT
BRANCH   1   7
ATOM      7  C   UNL     1     -12.209  31.375  11.099  1.00  0.00     0.198 C 
BRANCH   7   8
ATOM      8  O   UNL     1     -11.490  31.528  12.315  1.00  0.00    -0.347 OA
BRANCH   8   9
ATOM      9  C   UNL     1     -10.587  30.452  12.525  1.00  0.00     0.281 C 
ATOM     10  C   UNL     1     -11.749  28.088  14.837  1.00  0.00     0.041 C 
ATOM     11  C   UNL     1     -10.772  28.276  13.665  1.00  0.00     0.150 C 
ATOM     12  C   UNL     1      -9.308  28.503  14.121  1.00  0.00     0.174 C 
ATOM     13  O   UNL     1     -11.322  29.252  12.788  1.00  0.00    -0.344 OA
ATOM     14  C   UNL     1      -9.155  29.930  14.646  1.00  0.00     0.179 C 
ATOM     15  C   UNL     1      -9.467  30.918  13.516  1.00  0.00     0.202 C 
BRANCH  12  16
ATOM     16  O   UNL     1      -8.943  27.584  15.125  1.00  0.00    -0.388 OA
ATOM     17  H   UNL     1      -8.898  26.695  14.694  1.00  0.00     0.211 HD
ENDBRANCH  12  16
BRANCH  14  18
ATOM     18  O   UNL     1      -7.851  30.146  15.124  1.00  0.00    -0.387 OA
ATOM     19  H   UNL     1      -7.781  31.105  15.356  1.00  0.00     0.211 HD
ENDBRANCH  14  18
BRANCH  15  20
ATOM     20  O   UNL     1      -8.300  31.265  12.801  1.00  0.00    -0.385 OA
ATOM     21  H   UNL     1      -7.745  31.847  13.385  1.00  0.00     0.211 HD
ENDBRANCH  15  20
ENDBRANCH   8   9
ENDBRANCH   7   8
ENDBRANCH   1   7
BRANCH   2  22
ATOM     22  O   UNL     1     -12.497  28.761  10.345  1.00  0.00    -0.387 OA
ATOM     23  H   UNL     1     -12.356  28.849  11.323  1.00  0.00     0.211 HD
ENDBRANCH   2  22
BRANCH   3  24
ATOM     24  O   UNL     1     -11.229  27.686   7.927  1.00  0.00    -0.387 OA
ATOM     25  H   UNL     1     -11.162  27.570   6.940  1.00  0.00     0.211 HD
ENDBRANCH   3  24
BRANCH   5  26
ATOM     26  O   UNL     1     -10.579  32.314   6.779  1.00  0.00    -0.454 OA
BRANCH  26  27
ATOM     27  C   UNL     1      -9.979  33.586   6.701  1.00  0.00     0.214 A 
ATOM     28  C   UNL     1      -8.632  33.684   6.309  1.00  0.00     0.180 A 
ATOM     29  C   UNL     1     -10.696  34.773   6.947  1.00  0.00     0.239 A 
ATOM     30  O   UNL     1      -8.055  34.877   6.189  1.00  0.00    -0.452 OA
ATOM     31  C   UNL     1     -10.042  36.017   6.845  1.00  0.00     0.111 A 
ATOM     32  O   UNL     1     -11.922  34.714   7.223  1.00  0.00    -0.285 OA
ATOM     33  C   UNL     1      -8.687  36.018   6.443  1.00  0.00     0.146 A 
ATOM     34  C   UNL     1     -10.681  37.250   7.118  1.00  0.00     0.134 A 
ATOM     35  C   UNL     1      -7.995  37.224   6.303  1.00  0.00     0.094 A 
ATOM     36  C   UNL     1      -9.972  38.449   6.977  1.00  0.00     0.093 A 
ATOM     37  C   UNL     1      -8.632  38.438   6.574  1.00  0.00     0.123 A 
BRANCH  28  38
ATOM     38  C   UNL     1      -7.822  32.479   6.030  1.00  0.00     0.025 A 
ATOM     39  C   UNL     1      -6.623  32.238   6.732  1.00  0.00     0.062 A 
ATOM     40  C   UNL     1      -8.221  31.587   5.022  1.00  0.00     0.016 A 
ATOM     41  C   UNL     1      -5.843  31.111   6.439  1.00  0.00     0.158 A 
ATOM     42  C   UNL     1      -7.447  30.458   4.735  1.00  0.00     0.051 A 
ATOM     43  C   UNL     1      -6.257  30.216   5.440  1.00  0.00     0.157 A 
BRANCH  41  44
ATOM     44  O   UNL     1      -4.649  30.881   7.128  1.00  0.00    -0.504 OA
ATOM     45  H   UNL     1      -4.607  30.930   8.138  1.00  0.00     0.293 HD
ENDBRANCH  41  44
BRANCH  43  46
ATOM     46  O   UNL     1      -5.483  29.088   5.160  1.00  0.00    -0.504 OA
ATOM     47  H   UNL     1      -5.658  28.201   5.623  1.00  0.00     0.293 HD
ENDBRANCH  43  46
ENDBRANCH  28  38
BRANCH  34  48
ATOM     48  O   UNL     1     -12.011  37.287   7.531  1.00  0.00    -0.507 OA
ATOM     49  H   UNL     1     -12.780  37.146   6.882  1.00  0.00     0.293 HD
ENDBRANCH  34  48
BRANCH  37  50
ATOM     50  O   UNL     1      -7.924  39.632   6.434  1.00  0.00    -0.508 OA
ATOM     51  H   UNL     1      -8.105  40.427   7.036  1.00  0.00     0.293 HD
ENDBRANCH  37  50
ENDBRANCH  26  27
ENDBRANCH   5  26
BRANCH   4  52
ATOM     52  O   UNL     1     -10.764  29.835   6.018  1.00  0.00    -0.384 OA
ATOM     53  H   UNL     1     -10.532  28.918   5.722  1.00  0.00     0.211 HD
ENDBRANCH   4  52
TORSDOF 16
ENDMDL
MODEL 4
REMARK VINA RESULT:    -5.978      2.249      9.267
REMARK INTER + INTRA:         -11.351
REMARK INTER:                  -9.956
REMARK INTRA:                  -1.395
REMARK UNBOUND:                -1.529
REMARK SMILES C[C@H]1O[C@@H](OC[C@@H]2O[C@H](Oc3c(-c4ccc(O)c(O)c4)oc4cc(O)cc(O)c4c3=O)[C@H](O)[C@@H](O)[C@@H]2O)[C@H](O)[C@H](O)[C@H]1O
REMARK SMILES IDX 7 1 36 2 34 3 32 4 9 5 8 6 6 7 5 8 4 9 1 10 2 11 42 12 3 13
REMARK SMILES IDX 40 14 38 15 43 16 41 18 39 20 37 22 35 24 10 26 11 27 12 28
REMARK SMILES IDX 30 29 21 30 29 31 31 32 22 33 27 34 23 35 26 36 24 37 13 38
REMARK SMILES IDX 20 39 14 40 18 41 15 42 16 43 19 44 17 46 28 48 25 50 33 52
REMARK H PARENT 43 17 41 19 39 21 37 23 35 25 19 45 17 47 28 49 25 51 33 53
REMARK Flexibility Score: inf
ROOT
ATOM      1  C   UNL     1     -11.190  34.815   8.953  1.00  0.00     0.180 C 
ATOM      2  C   UNL     1     -11.876  34.293  10.259  1.00  0.00     0.177 C 
ATOM      3  C   UNL     1     -12.235  32.787  10.169  1.00  0.00     0.180 C 
ATOM      4  C   UNL     1     -11.127  31.966   9.480  1.00  0.00     0.214 C 
ATOM      5  C   UNL     1     -10.573  32.695   8.221  1.00  0.00     0.339 C 
ATOM      6  O   UNL     1     -11.303  33.870   7.908  1.00  0.00    -0.332 OA
ENDROOT
BRANCH   1   7
ATOM      7  C   UNL     1     -11.760  36.151   8.457  1.00  0.00     0.198 C 
BRANCH   7   8
ATOM      8  O   UNL     1     -10.791  36.806   7.650  1.00  0.00    -0.347 OA
BRANCH   8   9
ATOM      9  C   UNL     1     -10.765  38.204   7.900  1.00  0.00     0.281 C 
ATOM     10  C   UNL     1     -13.125  39.241  10.274  1.00  0.00     0.041 C 
ATOM     11  C   UNL     1     -11.799  39.645   9.609  1.00  0.00     0.150 C 
ATOM     12  C   UNL     1     -11.979  40.689   8.478  1.00  0.00     0.174 C 
ATOM     13  O   UNL     1     -11.099  38.455   9.269  1.00  0.00    -0.344 OA
ATOM     14  C   UNL     1     -12.541  40.000   7.235  1.00  0.00     0.179 C 
ATOM     15  C   UNL     1     -11.548  38.936   6.756  1.00  0.00     0.202 C 
BRANCH  12  16
ATOM     16  O   UNL     1     -12.843  41.727   8.879  1.00  0.00    -0.388 OA
ATOM     17  H   UNL     1     -13.576  41.759   8.215  1.00  0.00     0.211 HD
ENDBRANCH  12  16
BRANCH  14  18
ATOM     18  O   UNL     1     -12.772  40.934   6.210  1.00  0.00    -0.387 OA
ATOM     19  H   UNL     1     -11.894  41.309   5.952  1.00  0.00     0.211 HD
ENDBRANCH  14  18
BRANCH  15  20
ATOM     20  O   UNL     1     -10.642  39.466   5.811  1.00  0.00    -0.385 OA
ATOM     21  H   UNL     1     -10.137  40.201   6.252  1.00  0.00     0.211 HD
ENDBRANCH  15  20
ENDBRANCH   8   9
ENDBRANCH   7   8
ENDBRANCH   1   7
BRANCH   2  22
ATOM     22  O   UNL     1     -13.017  35.035  10.616  1.00  0.00    -0.387 OA
ATOM     23  H   UNL     1     -13.519  35.228   9.782  1.00  0.00     0.211 HD
ENDBRANCH   2  22
BRANCH   3  24
ATOM     24  O   UNL     1     -12.532  32.261  11.439  1.00  0.00    -0.387 OA
ATOM     25  H   UNL     1     -12.017  32.784  12.113  1.00  0.00     0.211 HD
ENDBRANCH   3  24
BRANCH   5  26
ATOM     26  O   UNL     1     -10.521  31.815   7.091  1.00  0.00    -0.454 OA
BRANCH  26  27
ATOM     27  C   UNL     1      -9.376  31.137   6.629  1.00  0.00     0.214 A 
ATOM     28  C   UNL     1      -8.343  31.875   6.021  1.00  0.00     0.180 A 
ATOM     29  C   UNL     1      -9.199  29.751   6.802  1.00  0.00     0.239 A 
ATOM     30  O   UNL     1      -7.235  31.262   5.612  1.00  0.00    -0.452 OA
ATOM     31  C   UNL     1      -8.028  29.132   6.324  1.00  0.00     0.111 A 
ATOM     32  O   UNL     1     -10.074  29.084   7.412  1.00  0.00    -0.285 OA
ATOM     33  C   UNL     1      -7.044  29.953   5.728  1.00  0.00     0.146 A 
ATOM     34  C   UNL     1      -7.795  27.739   6.422  1.00  0.00     0.134 A 
ATOM     35  C   UNL     1      -5.851  29.395   5.258  1.00  0.00     0.094 A 
ATOM     36  C   UNL     1      -6.597  27.196   5.941  1.00  0.00     0.093 A 
ATOM     37  C   UNL     1      -5.629  28.019   5.357  1.00  0.00     0.123 A 
BRANCH  28  38
ATOM     38  C   UNL     1      -8.460  33.333   5.812  1.00  0.00     0.025 A 
ATOM     39  C   UNL     1      -9.684  33.909   5.408  1.00  0.00     0.062 A 
ATOM     40  C   UNL     1      -7.331  34.154   5.967  1.00  0.00     0.016 A 
ATOM     41  C   UNL     1      -9.778  35.288   5.179  1.00  0.00     0.158 A 
ATOM     42  C   UNL     1      -7.428  35.532   5.746  1.00  0.00     0.051 A 
ATOM     43  C   UNL     1      -8.648  36.103   5.351  1.00  0.00     0.157 A 
BRANCH  41  44
ATOM     44  O   UNL     1     -10.987  35.853   4.768  1.00  0.00    -0.504 OA
ATOM     45  H   UNL     1     -11.684  36.150   5.440  1.00  0.00     0.293 HD
ENDBRANCH  41  44
BRANCH  43  46
ATOM     46  O   UNL     1      -8.750  37.479   5.133  1.00  0.00    -0.504 OA
ATOM     47  H   UNL     1      -8.646  37.874   4.203  1.00  0.00     0.293 HD
ENDBRANCH  43  46
ENDBRANCH  28  38
BRANCH  34  48
ATOM     48  O   UNL     1      -8.749  26.896   6.990  1.00  0.00    -0.507 OA
ATOM     49  H   UNL     1      -9.660  26.750   6.565  1.00  0.00     0.293 HD
ENDBRANCH  34  48
BRANCH  37  50
ATOM     50  O   UNL     1      -4.436  27.480   4.877  1.00  0.00    -0.508 OA
ATOM     51  H   UNL     1      -3.583  28.027   4.848  1.00  0.00     0.293 HD
ENDBRANCH  37  50
ENDBRANCH  26  27
ENDBRANCH   5  26
BRANCH   4  52
ATOM     52  O   UNL     1     -11.635  30.695   9.154  1.00  0.00    -0.384 OA
ATOM     53  H   UNL     1     -12.464  30.565   9.684  1.00  0.00     0.211 HD
ENDBRANCH   4  52
TORSDOF 16
ENDMDL
MODEL 5
REMARK VINA RESULT:    -5.741      1.792      5.281
REMARK INTER + INTRA:         -10.961
REMARK INTER:                  -8.675
REMARK INTRA:                  -2.286
REMARK UNBOUND:                -1.529
REMARK SMILES C[C@H]1O[C@@H](OC[C@@H]2O[C@H](Oc3c(-c4ccc(O)c(O)c4)oc4cc(O)cc(O)c4c3=O)[C@H](O)[C@@H](O)[C@@H]2O)[C@H](O)[C@H](O)[C@H]1O
REMARK SMILES IDX 7 1 36 2 34 3 32 4 9 5 8 6 6 7 5 8 4 9 1 10 2 11 42 12 3 13
REMARK SMILES IDX 40 14 38 15 43 16 41 18 39 20 37 22 35 24 10 26 11 27 12 28
REMARK SMILES IDX 30 29 21 30 29 31 31 32 22 33 27 34 23 35 26 36 24 37 13 38
REMARK SMILES IDX 20 39 14 40 18 41 15 42 16 43 19 44 17 46 28 48 25 50 33 52
REMARK H PARENT 43 17 41 19 39 21 37 23 35 25 19 45 17 47 28 49 25 51 33 53
REMARK Flexibility Score: inf
ROOT
ATOM      1  C   UNL     1      -9.177  29.503   5.730  1.00  0.00     0.180 C 
ATOM      2  C   UNL     1      -9.702  28.249   4.956  1.00  0.00     0.177 C 
ATOM      3  C   UNL     1     -11.085  27.777   5.475  1.00  0.00     0.180 C 
ATOM      4  C   UNL     1     -12.024  28.960   5.784  1.00  0.00     0.214 C 
ATOM      5  C   UNL     1     -11.277  30.103   6.531  1.00  0.00     0.339 C 
ATOM      6  O   UNL     1      -9.952  29.745   6.887  1.00  0.00    -0.332 OA
ENDROOT
BRANCH   1   7
ATOM      7  C   UNL     1      -7.706  29.389   6.151  1.00  0.00     0.198 C 
BRANCH   7   8
ATOM      8  O   UNL     1      -6.909  29.116   5.007  1.00  0.00    -0.347 OA
BRANCH   8   9
ATOM      9  C   UNL     1      -5.528  29.313   5.276  1.00  0.00     0.281 C 
ATOM     10  C   UNL     1      -4.161  26.891   7.408  1.00  0.00     0.041 C 
ATOM     11  C   UNL     1      -3.789  27.931   6.339  1.00  0.00     0.150 C 
ATOM     12  C   UNL     1      -3.245  29.253   6.939  1.00  0.00     0.174 C 
ATOM     13  O   UNL     1      -4.883  28.046   5.438  1.00  0.00    -0.344 OA
ATOM     14  C   UNL     1      -4.405  30.067   7.511  1.00  0.00     0.179 C 
ATOM     15  C   UNL     1      -5.381  30.415   6.381  1.00  0.00     0.202 C 
BRANCH  12  16
ATOM     16  O   UNL     1      -2.298  28.998   7.950  1.00  0.00    -0.388 OA
ATOM     17  H   UNL     1      -1.740  28.244   7.634  1.00  0.00     0.211 HD
ENDBRANCH  12  16
BRANCH  14  18
ATOM     18  O   UNL     1      -3.936  31.245   8.117  1.00  0.00    -0.387 OA
ATOM     19  H   UNL     1      -3.428  30.977   8.922  1.00  0.00     0.211 HD
ENDBRANCH  14  18
BRANCH  15  20
ATOM     20  O   UNL     1      -5.060  31.656   5.789  1.00  0.00    -0.385 OA
ATOM     21  H   UNL     1      -5.863  32.239   5.848  1.00  0.00     0.211 HD
ENDBRANCH  15  20
ENDBRANCH   8   9
ENDBRANCH   7   8
ENDBRANCH   1   7
BRANCH   2  22
ATOM     22  O   UNL     1      -8.794  27.174   4.971  1.00  0.00    -0.387 OA
ATOM     23  H   UNL     1      -8.144  27.323   4.236  1.00  0.00     0.211 HD
ENDBRANCH   2  22
BRANCH   3  24
ATOM     24  O   UNL     1     -11.687  26.882   4.571  1.00  0.00    -0.387 OA
ATOM     25  H   UNL     1     -11.625  25.968   4.963  1.00  0.00     0.211 HD
ENDBRANCH   3  24
BRANCH   5  26
ATOM     26  O   UNL     1     -12.011  30.538   7.683  1.00  0.00    -0.454 OA
BRANCH  26  27
ATOM     27  C   UNL     1     -11.554  30.495   9.014  1.00  0.00     0.214 A 
ATOM     28  C   UNL     1     -11.245  31.700   9.670  1.00  0.00     0.180 A 
ATOM     29  C   UNL     1     -11.446  29.290   9.735  1.00  0.00     0.239 A 
ATOM     30  O   UNL     1     -10.849  31.688  10.941  1.00  0.00    -0.452 OA
ATOM     31  C   UNL     1     -10.990  29.313  11.068  1.00  0.00     0.111 A 
ATOM     32  O   UNL     1     -11.792  28.208   9.195  1.00  0.00    -0.285 OA
ATOM     33  C   UNL     1     -10.705  30.571  11.646  1.00  0.00     0.146 A 
ATOM     34  C   UNL     1     -10.815  28.143  11.845  1.00  0.00     0.134 A 
ATOM     35  C   UNL     1     -10.271  30.655  12.972  1.00  0.00     0.094 A 
ATOM     36  C   UNL     1     -10.375  28.244  13.170  1.00  0.00     0.093 A 
ATOM     37  C   UNL     1     -10.099  29.495  13.733  1.00  0.00     0.123 A 
BRANCH  28  38
ATOM     38  C   UNL     1     -11.340  33.001   8.975  1.00  0.00     0.025 A 
ATOM     39  C   UNL     1     -10.323  33.424   8.093  1.00  0.00     0.062 A 
ATOM     40  C   UNL     1     -12.429  33.851   9.229  1.00  0.00     0.016 A 
ATOM     41  C   UNL     1     -10.404  34.673   7.464  1.00  0.00     0.158 A 
ATOM     42  C   UNL     1     -12.513  35.095   8.594  1.00  0.00     0.051 A 
ATOM     43  C   UNL     1     -11.503  35.511   7.712  1.00  0.00     0.157 A 
BRANCH  41  44
ATOM     44  O   UNL     1      -9.389  35.094   6.601  1.00  0.00    -0.504 OA
ATOM     45  H   UNL     1      -9.435  34.910   5.606  1.00  0.00     0.293 HD
ENDBRANCH  41  44
BRANCH  43  46
ATOM     46  O   UNL     1     -11.584  36.749   7.073  1.00  0.00    -0.504 OA
ATOM     47  H   UNL     1     -11.123  36.914   6.182  1.00  0.00     0.293 HD
ENDBRANCH  43  46
ENDBRANCH  28  38
BRANCH  34  48
ATOM     48  O   UNL     1     -11.072  26.884  11.304  1.00  0.00    -0.507 OA
ATOM     49  H   UNL     1     -11.828  26.296  11.644  1.00  0.00     0.293 HD
ENDBRANCH  34  48
BRANCH  37  50
ATOM     50  O   UNL     1      -9.660  29.598  15.052  1.00  0.00    -0.508 OA
ATOM     51  H   UNL     1     -10.141  30.185  15.724  1.00  0.00     0.293 HD
ENDBRANCH  37  50
ENDBRANCH  26  27
ENDBRANCH   5  26
BRANCH   4  52
ATOM     52  O   UNL     1     -13.121  28.490   6.529  1.00  0.00    -0.384 OA
ATOM     53  H   UNL     1     -13.915  28.522   5.937  1.00  0.00     0.211 HD
ENDBRANCH   4  52
TORSDOF 16
ENDMDL
MODEL 6
REMARK VINA RESULT:    -5.478     15.863     19.373
REMARK INTER + INTRA:         -10.530
REMARK INTER:                 -10.706
REMARK INTRA:                   0.176
REMARK UNBOUND:                -1.529
REMARK SMILES C[C@H]1O[C@@H](OC[C@@H]2O[C@H](Oc3c(-c4ccc(O)c(O)c4)oc4cc(O)cc(O)c4c3=O)[C@H](O)[C@@H](O)[C@@H]2O)[C@H](O)[C@H](O)[C@H]1O
REMARK SMILES IDX 7 1 36 2 34 3 32 4 9 5 8 6 6 7 5 8 4 9 1 10 2 11 42 12 3 13
REMARK SMILES IDX 40 14 38 15 43 16 41 18 39 20 37 22 35 24 10 26 11 27 12 28
REMARK SMILES IDX 30 29 21 30 29 31 31 32 22 33 27 34 23 35 26 36 24 37 13 38
REMARK SMILES IDX 20 39 14 40 18 41 15 42 16 43 19 44 17 46 28 48 25 50 33 52
REMARK H PARENT 43 17 41 19 39 21 37 23 35 25 19 45 17 47 28 49 25 51 33 53
REMARK Flexibility Score: inf
ROOT
ATOM      1  C   UNL     1       2.110  45.680   4.635  1.00  0.00     0.180 C 
ATOM      2  C   UNL     1       0.868  44.853   5.105  1.00  0.00     0.177 C 
ATOM      3  C   UNL     1       0.221  44.056   3.942  1.00  0.00     0.180 C 
ATOM      4  C   UNL     1       1.277  43.429   3.010  1.00  0.00     0.214 C 
ATOM      5  C   UNL     1       2.433  44.425   2.704  1.00  0.00     0.339 C 
ATOM      6  O   UNL     1       2.188  45.721   3.225  1.00  0.00    -0.332 OA
ENDROOT
BRANCH   1   7
ATOM      7  C   UNL     1       2.117  47.123   5.159  1.00  0.00     0.198 C 
BRANCH   7   8
ATOM      8  O   UNL     1       1.812  47.121   6.547  1.00  0.00    -0.347 OA
BRANCH   8   9
ATOM      9  C   UNL     1       2.745  46.343   7.283  1.00  0.00     0.281 C 
ATOM     10  C   UNL     1       2.822  47.123  10.699  1.00  0.00     0.041 C 
ATOM     11  C   UNL     1       3.160  46.015   9.689  1.00  0.00     0.150 C 
ATOM     12  C   UNL     1       4.664  45.962   9.321  1.00  0.00     0.174 C 
ATOM     13  O   UNL     1       2.244  46.116   8.605  1.00  0.00    -0.344 OA
ATOM     14  C   UNL     1       4.994  47.109   8.366  1.00  0.00     0.179 C 
ATOM     15  C   UNL     1       4.177  46.945   7.080  1.00  0.00     0.202 C 
BRANCH  12  16
ATOM     16  O   UNL     1       5.471  46.055  10.472  1.00  0.00    -0.388 OA
ATOM     17  H   UNL     1       4.862  45.993  11.250  1.00  0.00     0.211 HD
ENDBRANCH  12  16
BRANCH  14  18
ATOM     18  O   UNL     1       6.366  47.125   8.062  1.00  0.00    -0.387 OA
ATOM     19  H   UNL     1       6.626  48.070   7.932  1.00  0.00     0.211 HD
ENDBRANCH  14  18
BRANCH  15  20
ATOM     20  O   UNL     1       4.885  46.198   6.114  1.00  0.00    -0.385 OA
ATOM     21  H   UNL     1       4.839  46.692   5.252  1.00  0.00     0.211 HD
ENDBRANCH  15  20
ENDBRANCH   8   9
ENDBRANCH   7   8
ENDBRANCH   1   7
BRANCH   2  22
ATOM     22  O   UNL     1      -0.107  45.641   5.745  1.00  0.00    -0.387 OA
ATOM     23  H   UNL     1      -0.704  46.004   5.041  1.00  0.00     0.211 HD
ENDBRANCH   2  22
BRANCH   3  24
ATOM     24  O   UNL     1      -0.663  43.077   4.431  1.00  0.00    -0.387 OA
ATOM     25  H   UNL     1      -1.517  43.531   4.670  1.00  0.00     0.211 HD
ENDBRANCH   3  24
BRANCH   5  26
ATOM     26  O   UNL     1       2.707  44.487   1.298  1.00  0.00    -0.454 OA
BRANCH  26  27
ATOM     27  C   UNL     1       3.365  43.496   0.543  1.00  0.00     0.214 A 
ATOM     28  C   UNL     1       2.802  43.080  -0.677  1.00  0.00     0.180 A 
ATOM     29  C   UNL     1       4.598  42.944   0.938  1.00  0.00     0.239 A 
ATOM     30  O   UNL     1       3.426  42.175  -1.427  1.00  0.00    -0.452 OA
ATOM     31  C   UNL     1       5.212  41.961   0.136  1.00  0.00     0.111 A 
ATOM     32  O   UNL     1       5.159  43.357   1.986  1.00  0.00    -0.285 OA
ATOM     33  C   UNL     1       4.574  41.607  -1.075  1.00  0.00     0.146 A 
ATOM     34  C   UNL     1       6.429  41.328   0.485  1.00  0.00     0.134 A 
ATOM     35  C   UNL     1       5.149  40.655  -1.921  1.00  0.00     0.094 A 
ATOM     36  C   UNL     1       6.989  40.373  -0.373  1.00  0.00     0.093 A 
ATOM     37  C   UNL     1       6.351  40.034  -1.570  1.00  0.00     0.123 A 
BRANCH  28  38
ATOM     38  C   UNL     1       1.512  43.622  -1.154  1.00  0.00     0.025 A 
ATOM     39  C   UNL     1       1.372  44.994  -1.451  1.00  0.00     0.062 A 
ATOM     40  C   UNL     1       0.398  42.775  -1.269  1.00  0.00     0.016 A 
ATOM     41  C   UNL     1       0.136  45.506  -1.871  1.00  0.00     0.158 A 
ATOM     42  C   UNL     1      -0.832  43.285  -1.695  1.00  0.00     0.051 A 
ATOM     43  C   UNL     1      -0.968  44.650  -1.997  1.00  0.00     0.157 A 
BRANCH  41  44
ATOM     44  O   UNL     1      -0.003  46.868  -2.152  1.00  0.00    -0.504 OA
ATOM     45  H   UNL     1      -0.334  47.187  -3.054  1.00  0.00     0.293 HD
ENDBRANCH  41  44
BRANCH  43  46
ATOM     46  O   UNL     1      -2.193  45.163  -2.427  1.00  0.00    -0.504 OA
ATOM     47  H   UNL     1      -2.981  44.551  -2.622  1.00  0.00     0.293 HD
ENDBRANCH  43  46
ENDBRANCH  28  38
BRANCH  34  48
ATOM     48  O   UNL     1       7.078  41.641   1.677  1.00  0.00    -0.507 OA
ATOM     49  H   UNL     1       7.659  42.469   1.773  1.00  0.00     0.293 HD
ENDBRANCH  34  48
BRANCH  37  50
ATOM     50  O   UNL     1       6.907  39.082  -2.425  1.00  0.00    -0.508 OA
ATOM     51  H   UNL     1       6.976  39.244  -3.423  1.00  0.00     0.293 HD
ENDBRANCH  37  50
ENDBRANCH  26  27
ENDBRANCH   5  26
BRANCH   4  52
ATOM     52  O   UNL     1       0.645  42.997   1.830  1.00  0.00    -0.384 OA
ATOM     53  H   UNL     1       0.960  42.074   1.648  1.00  0.00     0.211 HD
ENDBRANCH   4  52
TORSDOF 16
ENDMDL
MODEL 7
REMARK VINA RESULT:    -5.044      2.633      9.580
REMARK INTER + INTRA:          -9.817
REMARK INTER:                 -10.621
REMARK INTRA:                   0.805
REMARK UNBOUND:                -1.529
REMARK SMILES C[C@H]1O[C@@H](OC[C@@H]2O[C@H](Oc3c(-c4ccc(O)c(O)c4)oc4cc(O)cc(O)c4c3=O)[C@H](O)[C@@H](O)[C@@H]2O)[C@H](O)[C@H](O)[C@H]1O
REMARK SMILES IDX 7 1 36 2 34 3 32 4 9 5 8 6 6 7 5 8 4 9 1 10 2 11 42 12 3 13
REMARK SMILES IDX 40 14 38 15 43 16 41 18 39 20 37 22 35 24 10 26 11 27 12 28
REMARK SMILES IDX 30 29 21 30 29 31 31 32 22 33 27 34 23 35 26 36 24 37 13 38
REMARK SMILES IDX 20 39 14 40 18 41 15 42 16 43 19 44 17 46 28 48 25 50 33 52
REMARK H PARENT 43 17 41 19 39 21 37 23 35 25 19 45 17 47 28 49 25 51 33 53
REMARK Flexibility Score: inf
ROOT
ATOM      1  C   UNL     1     -10.507  36.153   7.470  1.00  0.00     0.180 C 
ATOM      2  C   UNL     1      -9.591  37.025   6.550  1.00  0.00     0.177 C 
ATOM      3  C   UNL     1      -8.423  36.205   5.941  1.00  0.00     0.180 C 
ATOM      4  C   UNL     1      -8.870  34.798   5.499  1.00  0.00     0.214 C 
ATOM      5  C   UNL     1      -9.800  34.134   6.556  1.00  0.00     0.339 C 
ATOM      6  O   UNL     1      -9.908  34.902   7.744  1.00  0.00    -0.332 OA
ENDROOT
BRANCH   1   7
ATOM      7  C   UNL     1     -10.847  36.826   8.807  1.00  0.00     0.198 C 
BRANCH   7   8
ATOM      8  O   UNL     1     -12.235  36.676   9.070  1.00  0.00    -0.347 OA
BRANCH   8   9
ATOM      9  C   UNL     1     -12.937  37.895   8.873  1.00  0.00     0.281 C 
ATOM     10  C   UNL     1     -11.902  39.655   6.025  1.00  0.00     0.041 C 
ATOM     11  C   UNL     1     -13.075  39.494   7.004  1.00  0.00     0.150 C 
ATOM     12  C   UNL     1     -13.124  40.602   8.086  1.00  0.00     0.174 C 
ATOM     13  O   UNL     1     -13.075  38.150   7.471  1.00  0.00    -0.344 OA
ATOM     14  C   UNL     1     -12.045  40.336   9.135  1.00  0.00     0.179 C 
ATOM     15  C   UNL     1     -12.321  38.989   9.811  1.00  0.00     0.202 C 
BRANCH  12  16
ATOM     16  O   UNL     1     -12.929  41.875   7.515  1.00  0.00    -0.388 OA
ATOM     17  H   UNL     1     -12.930  42.524   8.262  1.00  0.00     0.211 HD
ENDBRANCH  12  16
BRANCH  14  18
ATOM     18  O   UNL     1     -12.024  41.360  10.098  1.00  0.00    -0.387 OA
ATOM     19  H   UNL     1     -12.548  41.042  10.874  1.00  0.00     0.211 HD
ENDBRANCH  14  18
BRANCH  15  20
ATOM     20  O   UNL     1     -13.124  39.148  10.962  1.00  0.00    -0.385 OA
ATOM     21  H   UNL     1     -13.652  39.983  10.854  1.00  0.00     0.211 HD
ENDBRANCH  15  20
ENDBRANCH   8   9
ENDBRANCH   7   8
ENDBRANCH   1   7
BRANCH   2  22
ATOM     22  O   UNL     1      -9.085  38.166   7.201  1.00  0.00    -0.387 OA
ATOM     23  H   UNL     1      -9.231  38.042   8.174  1.00  0.00     0.211 HD
ENDBRANCH   2  22
BRANCH   3  24
ATOM     24  O   UNL     1      -7.820  36.898   4.876  1.00  0.00    -0.387 OA
ATOM     25  H   UNL     1      -6.882  36.573   4.793  1.00  0.00     0.211 HD
ENDBRANCH   3  24
BRANCH   5  26
ATOM     26  O   UNL     1      -9.376  32.798   6.854  1.00  0.00    -0.454 OA
BRANCH  26  27
ATOM     27  C   UNL     1     -10.037  31.898   7.714  1.00  0.00     0.214 A 
ATOM     28  C   UNL     1      -9.991  30.521   7.428  1.00  0.00     0.180 A 
ATOM     29  C   UNL     1     -10.697  32.320   8.884  1.00  0.00     0.239 A 
ATOM     30  O   UNL     1     -10.573  29.648   8.247  1.00  0.00    -0.452 OA
ATOM     31  C   UNL     1     -11.333  31.371   9.708  1.00  0.00     0.111 A 
ATOM     32  O   UNL     1     -10.684  33.538   9.201  1.00  0.00    -0.285 OA
ATOM     33  C   UNL     1     -11.233  30.009   9.343  1.00  0.00     0.146 A 
ATOM     34  C   UNL     1     -12.051  31.720  10.876  1.00  0.00     0.134 A 
ATOM     35  C   UNL     1     -11.824  29.022  10.136  1.00  0.00     0.094 A 
ATOM     36  C   UNL     1     -12.642  30.719  11.657  1.00  0.00     0.093 A 
ATOM     37  C   UNL     1     -12.533  29.374  11.288  1.00  0.00     0.123 A 
BRANCH  28  38
ATOM     38  C   UNL     1      -9.311  30.008   6.220  1.00  0.00     0.025 A 
ATOM     39  C   UNL     1     -10.049  29.407   5.179  1.00  0.00     0.062 A 
ATOM     40  C   UNL     1      -7.912  30.073   6.125  1.00  0.00     0.016 A 
ATOM     41  C   UNL     1      -9.394  28.892   4.051  1.00  0.00     0.158 A 
ATOM     42  C   UNL     1      -7.260  29.566   4.996  1.00  0.00     0.051 A 
ATOM     43  C   UNL     1      -7.996  28.975   3.957  1.00  0.00     0.157 A 
BRANCH  41  44
ATOM     44  O   UNL     1     -10.125  28.286   3.027  1.00  0.00    -0.504 OA
ATOM     45  H   UNL     1      -9.708  28.095   2.125  1.00  0.00     0.293 HD
ENDBRANCH  41  44
BRANCH  43  46
ATOM     46  O   UNL     1      -7.349  28.471   2.827  1.00  0.00    -0.504 OA
ATOM     47  H   UNL     1      -6.679  27.711   2.898  1.00  0.00     0.293 HD
ENDBRANCH  43  46
ENDBRANCH  28  38
BRANCH  34  48
ATOM     48  O   UNL     1     -12.184  33.053  11.259  1.00  0.00    -0.507 OA
ATOM     49  H   UNL     1     -12.473  33.775  10.605  1.00  0.00     0.293 HD
ENDBRANCH  34  48
BRANCH  37  50
ATOM     50  O   UNL     1     -13.121  28.376  12.064  1.00  0.00    -0.508 OA
ATOM     51  H   UNL     1     -14.026  27.986  11.827  1.00  0.00     0.293 HD
ENDBRANCH  37  50
ENDBRANCH  26  27
ENDBRANCH   5  26
BRANCH   4  52
ATOM     52  O   UNL     1      -7.730  34.013   5.252  1.00  0.00    -0.384 OA
ATOM     53  H   UNL     1      -6.943  34.615   5.292  1.00  0.00     0.211 HD
ENDBRANCH   4  52
TORSDOF 16
ENDMDL
MODEL 8
REMARK VINA RESULT:    -4.931     15.554     18.895
REMARK INTER + INTRA:          -9.631
REMARK INTER:                  -8.559
REMARK INTRA:                  -1.072
REMARK UNBOUND:                -1.529
REMARK SMILES C[C@H]1O[C@@H](OC[C@@H]2O[C@H](Oc3c(-c4ccc(O)c(O)c4)oc4cc(O)cc(O)c4c3=O)[C@H](O)[C@@H](O)[C@@H]2O)[C@H](O)[C@H](O)[C@H]1O
REMARK SMILES IDX 7 1 36 2 34 3 32 4 9 5 8 6 6 7 5 8 4 9 1 10 2 11 42 12 3 13
REMARK SMILES IDX 40 14 38 15 43 16 41 18 39 20 37 22 35 24 10 26 11 27 12 28
REMARK SMILES IDX 30 29 21 30 29 31 31 32 22 33 27 34 23 35 26 36 24 37 13 38
REMARK SMILES IDX 20 39 14 40 18 41 15 42 16 43 19 44 17 46 28 48 25 50 33 52
REMARK H PARENT 43 17 41 19 39 21 37 23 35 25 19 45 17 47 28 49 25 51 33 53
REMARK Flexibility Score: inf
ROOT
ATOM      1  C   UNL     1       0.789  42.877   0.330  1.00  0.00     0.180 C 
ATOM      2  C   UNL     1      -0.392  42.986  -0.690  1.00  0.00     0.177 C 
ATOM      3  C   UNL     1      -0.930  44.436  -0.810  1.00  0.00     0.180 C 
ATOM      4  C   UNL     1       0.206  45.479  -0.808  1.00  0.00     0.214 C 
ATOM      5  C   UNL     1       1.282  45.150   0.268  1.00  0.00     0.339 C 
ATOM      6  O   UNL     1       0.909  44.060   1.095  1.00  0.00    -0.332 OA
ENDROOT
BRANCH   1   7
ATOM      7  C   UNL     1       0.655  41.692   1.296  1.00  0.00     0.198 C 
BRANCH   7   8
ATOM      8  O   UNL     1       1.788  41.651   2.151  1.00  0.00    -0.347 OA
BRANCH   8   9
ATOM      9  C   UNL     1       2.894  41.022   1.518  1.00  0.00     0.281 C 
ATOM     10  C   UNL     1       5.399  40.025   3.757  1.00  0.00     0.041 C 
ATOM     11  C   UNL     1       4.835  39.756   2.353  1.00  0.00     0.150 C 
ATOM     12  C   UNL     1       5.645  40.447   1.227  1.00  0.00     0.174 C 
ATOM     13  O   UNL     1       3.438  40.020   2.384  1.00  0.00    -0.344 OA
ATOM     14  C   UNL     1       5.320  41.940   1.211  1.00  0.00     0.179 C 
ATOM     15  C   UNL     1       3.828  42.128   0.916  1.00  0.00     0.202 C 
BRANCH  12  16
ATOM     16  O   UNL     1       7.029  40.263   1.414  1.00  0.00    -0.388 OA
ATOM     17  H   UNL     1       7.478  41.037   0.991  1.00  0.00     0.211 HD
ENDBRANCH  12  16
BRANCH  14  18
ATOM     18  O   UNL     1       6.087  42.606   0.239  1.00  0.00    -0.387 OA
ATOM     19  H   UNL     1       5.455  43.006  -0.408  1.00  0.00     0.211 HD
ENDBRANCH  14  18
BRANCH  15  20
ATOM     20  O   UNL     1       3.590  42.261  -0.469  1.00  0.00    -0.385 OA
ATOM     21  H   UNL     1       3.577  41.350  -0.866  1.00  0.00     0.211 HD
ENDBRANCH  15  20
ENDBRANCH   8   9
ENDBRANCH   7   8
ENDBRANCH   1   7
BRANCH   2  22
ATOM     22  O   UNL     1      -1.452  42.107  -0.400  1.00  0.00    -0.387 OA
ATOM     23  H   UNL     1      -1.419  41.372  -1.066  1.00  0.00     0.211 HD
ENDBRANCH   2  22
BRANCH   3  24
ATOM     24  O   UNL     1      -1.742  44.582  -1.950  1.00  0.00    -0.387 OA
ATOM     25  H   UNL     1      -1.191  45.005  -2.663  1.00  0.00     0.211 HD
ENDBRANCH   3  24
BRANCH   5  26
ATOM     26  O   UNL     1       1.595  46.303   1.059  1.00  0.00    -0.454 OA
BRANCH  26  27
ATOM     27  C   UNL     1       2.120  46.285   2.366  1.00  0.00     0.214 A 
ATOM     28  C   UNL     1       3.515  46.320   2.543  1.00  0.00     0.180 A 
ATOM     29  C   UNL     1       1.297  46.291   3.509  1.00  0.00     0.239 A 
ATOM     30  O   UNL     1       4.034  46.344   3.768  1.00  0.00    -0.452 OA
ATOM     31  C   UNL     1       1.883  46.282   4.791  1.00  0.00     0.111 A 
ATOM     32  O   UNL     1       0.047  46.340   3.376  1.00  0.00    -0.285 OA
ATOM     33  C   UNL     1       3.293  46.319   4.871  1.00  0.00     0.146 A 
ATOM     34  C   UNL     1       1.125  46.244   5.986  1.00  0.00     0.134 A 
ATOM     35  C   UNL     1       3.928  46.334   6.116  1.00  0.00     0.094 A 
ATOM     36  C   UNL     1       1.777  46.256   7.225  1.00  0.00     0.093 A 
ATOM     37  C   UNL     1       3.174  46.297   7.292  1.00  0.00     0.123 A 
BRANCH  28  38
ATOM     38  C   UNL     1       4.438  46.320   1.388  1.00  0.00     0.025 A 
ATOM     39  C   UNL     1       4.203  45.482   0.277  1.00  0.00     0.062 A 
ATOM     40  C   UNL     1       5.588  47.125   1.412  1.00  0.00     0.016 A 
ATOM     41  C   UNL     1       5.100  45.463  -0.799  1.00  0.00     0.158 A 
ATOM     42  C   UNL     1       6.479  47.111   0.334  1.00  0.00     0.051 A 
ATOM     43  C   UNL     1       6.240  46.282  -0.774  1.00  0.00     0.157 A 
BRANCH  41  44
ATOM     44  O   UNL     1       4.871  44.623  -1.892  1.00  0.00    -0.504 OA
ATOM     45  H   UNL     1       5.092  44.916  -2.836  1.00  0.00     0.293 HD
ENDBRANCH  41  44
BRANCH  43  46
ATOM     46  O   UNL     1       7.124  46.268  -1.854  1.00  0.00    -0.504 OA
ATOM     47  H   UNL     1       6.976  45.651  -2.648  1.00  0.00     0.293 HD
ENDBRANCH  43  46
ENDBRANCH  28  38
BRANCH  34  48
ATOM     48  O   UNL     1      -0.266  46.192   5.945  1.00  0.00    -0.507 OA
ATOM     49  H   UNL     1      -0.764  45.582   5.303  1.00  0.00     0.293 HD
ENDBRANCH  34  48
BRANCH  37  50
ATOM     50  O   UNL     1       3.824  46.308   8.526  1.00  0.00    -0.508 OA
ATOM     51  H   UNL     1       4.771  46.655   8.620  1.00  0.00     0.293 HD
ENDBRANCH  37  50
ENDBRANCH  26  27
ENDBRANCH   5  26
BRANCH   4  52
ATOM     52  O   UNL     1      -0.348  46.756  -0.606  1.00  0.00    -0.384 OA
ATOM     53  H   UNL     1      -1.287  46.628  -0.316  1.00  0.00     0.211 HD
ENDBRANCH   4  52
TORSDOF 16
ENDMDL
