MODEL 1
REMARK VINA RESULT:    -4.883      0.000      0.000
REMARK INTER + INTRA:         -12.595
REMARK INTER:                 -10.592
REMARK INTRA:                  -2.003
REMARK UNBOUND:                -2.003
REMARK SMILES CCCCCCCCCCCCCCCCCCCCCC(=O)[O-]
REMARK SMILES IDX 12 1 11 2 10 3 9 4 8 5 7 6 6 7 5 8 4 9 3 10 2 11 1 12 13 13
REMARK SMILES IDX 14 14 15 15 16 16 17 17 18 18 19 19 20 20 21 21 22 22 23 23
REMARK SMILES IDX 24 24
REMARK H PARENT
REMARK Flexibility Score: inf
ROOT
ATOM      1  C   UNL     1      49.001  63.401  93.360  1.00  0.00     0.000 C 
ENDROOT
BRANCH   1   2
ATOM      2  C   UNL     1      48.743  64.859  92.930  1.00  0.00     0.000 C 
BRANCH   2   3
ATOM      3  C   UNL     1      49.054  65.926  94.000  1.00  0.00     0.000 C 
BRANCH   3   4
ATOM      4  C   UNL     1      49.997  67.050  93.539  1.00  0.00    -0.000 C 
BRANCH   4   5
ATOM      5  C   UNL     1      51.038  66.575  92.510  1.00  0.00    -0.000 C 
BRANCH   5   6
ATOM      6  C   UNL     1      50.914  67.294  91.155  1.00  0.00    -0.000 C 
BRANCH   6   7
ATOM      7  C   UNL     1      49.629  68.124  90.967  1.00  0.00    -0.000 C 
BRANCH   7   8
ATOM      8  C   UNL     1      48.470  67.315  90.360  1.00  0.00    -0.000 C 
BRANCH   8   9
ATOM      9  C   UNL     1      47.166  67.436  91.170  1.00  0.00    -0.000 C 
BRANCH   9  10
ATOM     10  C   UNL     1      46.136  66.313  90.929  1.00  0.00    -0.000 C 
BRANCH  10  11
ATOM     11  C   UNL     1      45.301  65.920  92.162  1.00  0.00    -0.003 C 
ATOM     12  C   UNL     1      44.942  64.435  92.189  1.00  0.00     0.004 C 
ENDBRANCH  10  11
ENDBRANCH   9  10
ENDBRANCH   8   9
ENDBRANCH   7   8
ENDBRANCH   6   7
ENDBRANCH   5   6
ENDBRANCH   4   5
ENDBRANCH   3   4
ENDBRANCH   2   3
ENDBRANCH   1   2
BRANCH   1  13
ATOM     13  C   UNL     1      48.060  62.356  92.733  1.00  0.00     0.000 C 
BRANCH  13  14
ATOM     14  C   UNL     1      48.698  60.962  92.630  1.00  0.00     0.000 C 
BRANCH  14  15
ATOM     15  C   UNL     1      49.992  60.837  93.452  1.00  0.00     0.000 C 
BRANCH  15  16
ATOM     16  C   UNL     1      49.752  60.520  94.944  1.00  0.00     0.000 C 
BRANCH  16  17
ATOM     17  C   UNL     1      49.326  59.056  95.163  1.00  0.00     0.000 C 
BRANCH  17  18
ATOM     18  C   UNL     1      50.187  58.052  94.373  1.00  0.00     0.000 C 
BRANCH  18  19
ATOM     19  C   UNL     1      51.544  57.710  95.014  1.00  0.00     0.000 C 
BRANCH  19  20
ATOM     20  C   UNL     1      52.526  57.055  94.028  1.00  0.00     0.006 C 
BRANCH  20  21
ATOM     21  C   UNL     1      53.450  58.082  93.357  1.00  0.00     0.053 C 
BRANCH  21  22
ATOM     22  C   UNL     1      53.032  58.370  91.948  1.00  0.00     0.041 C 
ATOM     23  O   UNL     1      53.542  59.337  91.321  1.00  0.00    -0.550 OA
ATOM     24  O   UNL     1      52.046  57.602  91.345  1.00  0.00    -0.550 OA
ENDBRANCH  21  22
ENDBRANCH  20  21
ENDBRANCH  19  20
ENDBRANCH  18  19
ENDBRANCH  17  18
ENDBRANCH  16  17
ENDBRANCH  15  16
ENDBRANCH  14  15
ENDBRANCH  13  14
ENDBRANCH   1  13
TORSDOF 20
ENDMDL
MODEL 2
REMARK VINA RESULT:    -4.874      1.871      3.824
REMARK INTER + INTRA:         -12.576
REMARK INTER:                 -10.720
REMARK INTRA:                  -1.856
REMARK UNBOUND:                -2.003
REMARK SMILES CCCCCCCCCCCCCCCCCCCCCC(=O)[O-]
REMARK SMILES IDX 12 1 11 2 10 3 9 4 8 5 7 6 6 7 5 8 4 9 3 10 2 11 1 12 13 13
REMARK SMILES IDX 14 14 15 15 16 16 17 17 18 18 19 19 20 20 21 21 22 22 23 23
REMARK SMILES IDX 24 24
REMARK H PARENT
REMARK Flexibility Score: inf
ROOT
ATOM      1  C   UNL     1      48.015  63.241  92.444  1.00  0.00     0.000 C 
ENDROOT
BRANCH   1   2
ATOM      2  C   UNL     1      48.937  64.229  93.187  1.00  0.00     0.000 C 
BRANCH   2   3
ATOM      3  C   UNL     1      48.421  65.681  93.263  1.00  0.00     0.000 C 
BRANCH   3   4
ATOM      4  C   UNL     1      47.075  65.927  92.560  1.00  0.00    -0.000 C 
BRANCH   4   5
ATOM      5  C   UNL     1      47.156  67.015  91.475  1.00  0.00    -0.000 C 
BRANCH   5   6
ATOM      6  C   UNL     1      48.504  67.761  91.473  1.00  0.00    -0.000 C 
BRANCH   6   7
ATOM      7  C   UNL     1      49.446  67.413  90.305  1.00  0.00    -0.000 C 
BRANCH   7   8
ATOM      8  C   UNL     1      50.933  67.435  90.700  1.00  0.00    -0.000 C 
BRANCH   8   9
ATOM      9  C   UNL     1      51.169  68.000  92.114  1.00  0.00    -0.000 C 
BRANCH   9  10
ATOM     10  C   UNL     1      51.807  67.016  93.117  1.00  0.00    -0.000 C 
BRANCH  10  11
ATOM     11  C   UNL     1      52.693  67.669  94.194  1.00  0.00    -0.003 C 
ATOM     12  C   UNL     1      54.182  67.397  93.986  1.00  0.00     0.004 C 
ENDBRANCH  10  11
ENDBRANCH   9  10
ENDBRANCH   8   9
ENDBRANCH   7   8
ENDBRANCH   6   7
ENDBRANCH   5   6
ENDBRANCH   4   5
ENDBRANCH   3   4
ENDBRANCH   2   3
ENDBRANCH   1   2
BRANCH   1  13
ATOM     13  C   UNL     1      48.127  61.774  92.896  1.00  0.00     0.000 C 
BRANCH  13  14
ATOM     14  C   UNL     1      49.580  61.322  93.111  1.00  0.00     0.000 C 
BRANCH  14  15
ATOM     15  C   UNL     1      49.823  60.742  94.514  1.00  0.00     0.000 C 
BRANCH  15  16
ATOM     16  C   UNL     1      50.128  59.227  94.515  1.00  0.00     0.000 C 
BRANCH  16  17
ATOM     17  C   UNL     1      49.835  58.577  93.150  1.00  0.00     0.000 C 
BRANCH  17  18
ATOM     18  C   UNL     1      50.985  57.685  92.647  1.00  0.00     0.000 C 
BRANCH  18  19
ATOM     19  C   UNL     1      52.395  58.278  92.820  1.00  0.00     0.000 C 
BRANCH  19  20
ATOM     20  C   UNL     1      53.264  57.482  93.809  1.00  0.00     0.006 C 
BRANCH  20  21
ATOM     21  C   UNL     1      52.485  56.346  94.486  1.00  0.00     0.053 C 
BRANCH  21  22
ATOM     22  C   UNL     1      52.950  55.000  94.025  1.00  0.00     0.041 C 
ATOM     23  O   UNL     1      52.610  54.566  92.891  1.00  0.00    -0.550 OA
ATOM     24  O   UNL     1      53.715  54.203  94.865  1.00  0.00    -0.550 OA
ENDBRANCH  21  22
ENDBRANCH  20  21
ENDBRANCH  19  20
ENDBRANCH  18  19
ENDBRANCH  17  18
ENDBRANCH  16  17
ENDBRANCH  15  16
ENDBRANCH  14  15
ENDBRANCH  13  14
ENDBRANCH   1  13
TORSDOF 20
ENDMDL
MODEL 3
REMARK VINA RESULT:    -4.847      1.649      3.717
REMARK INTER + INTRA:         -12.518
REMARK INTER:                 -10.997
REMARK INTRA:                  -1.521
REMARK UNBOUND:                -2.003
REMARK SMILES CCCCCCCCCCCCCCCCCCCCCC(=O)[O-]
REMARK SMILES IDX 12 1 11 2 10 3 9 4 8 5 7 6 6 7 5 8 4 9 3 10 2 11 1 12 13 13
REMARK SMILES IDX 14 14 15 15 16 16 17 17 18 18 19 19 20 20 21 21 22 22 23 23
REMARK SMILES IDX 24 24
REMARK H PARENT
REMARK Flexibility Score: inf
ROOT
ATOM      1  C   UNL     1      47.495  62.989  92.357  1.00  0.00     0.000 C 
ENDROOT
BRANCH   1   2
ATOM      2  C   UNL     1      48.128  64.378  92.574  1.00  0.00     0.000 C 
BRANCH   2   3
ATOM      3  C   UNL     1      47.162  65.571  92.426  1.00  0.00     0.000 C 
BRANCH   3   4
ATOM      4  C   UNL     1      47.797  66.952  92.669  1.00  0.00    -0.000 C 
BRANCH   4   5
ATOM      5  C   UNL     1      47.856  67.816  91.397  1.00  0.00    -0.000 C 
BRANCH   5   6
ATOM      6  C   UNL     1      48.934  67.347  90.403  1.00  0.00    -0.000 C 
BRANCH   6   7
ATOM      7  C   UNL     1      50.326  67.980  90.595  1.00  0.00    -0.000 C 
BRANCH   7   8
ATOM      8  C   UNL     1      51.250  67.146  91.498  1.00  0.00    -0.000 C 
BRANCH   8   9
ATOM      9  C   UNL     1      51.689  67.900  92.767  1.00  0.00    -0.000 C 
BRANCH   9  10
ATOM     10  C   UNL     1      52.430  67.046  93.817  1.00  0.00    -0.000 C 
BRANCH  10  11
ATOM     11  C   UNL     1      53.254  67.846  94.842  1.00  0.00    -0.003 C 
ATOM     12  C   UNL     1      54.755  67.804  94.562  1.00  0.00     0.004 C 
ENDBRANCH  10  11
ENDBRANCH   9  10
ENDBRANCH   8   9
ENDBRANCH   7   8
ENDBRANCH   6   7
ENDBRANCH   5   6
ENDBRANCH   4   5
ENDBRANCH   3   4
ENDBRANCH   2   3
ENDBRANCH   1   2
BRANCH   1  13
ATOM     13  C   UNL     1      48.427  61.794  92.632  1.00  0.00     0.000 C 
BRANCH  13  14
ATOM     14  C   UNL     1      49.475  62.089  93.717  1.00  0.00     0.000 C 
BRANCH  14  15
ATOM     15  C   UNL     1      50.353  60.870  94.044  1.00  0.00     0.000 C 
BRANCH  15  16
ATOM     16  C   UNL     1      49.763  59.957  95.142  1.00  0.00     0.000 C 
BRANCH  16  17
ATOM     17  C   UNL     1      49.772  58.474  94.728  1.00  0.00     0.000 C 
BRANCH  17  18
ATOM     18  C   UNL     1      49.810  58.273  93.202  1.00  0.00     0.000 C 
BRANCH  18  19
ATOM     19  C   UNL     1      50.202  56.858  92.740  1.00  0.00     0.000 C 
BRANCH  19  20
ATOM     20  C   UNL     1      51.724  56.658  92.643  1.00  0.00     0.006 C 
BRANCH  20  21
ATOM     21  C   UNL     1      52.345  57.459  91.490  1.00  0.00     0.053 C 
BRANCH  21  22
ATOM     22  C   UNL     1      53.079  58.668  91.984  1.00  0.00     0.041 C 
ATOM     23  O   UNL     1      53.493  59.535  91.168  1.00  0.00    -0.550 OA
ATOM     24  O   UNL     1      53.349  58.812  93.337  1.00  0.00    -0.550 OA
ENDBRANCH  21  22
ENDBRANCH  20  21
ENDBRANCH  19  20
ENDBRANCH  18  19
ENDBRANCH  17  18
ENDBRANCH  16  17
ENDBRANCH  15  16
ENDBRANCH  14  15
ENDBRANCH  13  14
ENDBRANCH   1  13
TORSDOF 20
ENDMDL
MODEL 4
REMARK VINA RESULT:    -4.842      3.320      9.050
REMARK INTER + INTRA:         -12.507
REMARK INTER:                 -10.338
REMARK INTRA:                  -2.169
REMARK UNBOUND:                -2.003
REMARK SMILES CCCCCCCCCCCCCCCCCCCCCC(=O)[O-]
REMARK SMILES IDX 12 1 11 2 10 3 9 4 8 5 7 6 6 7 5 8 4 9 3 10 2 11 1 12 13 13
REMARK SMILES IDX 14 14 15 15 16 16 17 17 18 18 19 19 20 20 21 21 22 22 23 23
REMARK SMILES IDX 24 24
REMARK H PARENT
REMARK Flexibility Score: inf
ROOT
ATOM      1  C   UNL     1      48.370  62.294  92.863  1.00  0.00     0.000 C 
ENDROOT
BRANCH   1   2
ATOM      2  C   UNL     1      49.557  61.845  93.738  1.00  0.00     0.000 C 
BRANCH   2   3
ATOM      3  C   UNL     1      49.908  60.345  93.653  1.00  0.00     0.000 C 
BRANCH   3   4
ATOM      4  C   UNL     1      49.707  59.557  94.959  1.00  0.00    -0.000 C 
BRANCH   4   5
ATOM      5  C   UNL     1      49.862  58.038  94.771  1.00  0.00    -0.000 C 
BRANCH   5   6
ATOM      6  C   UNL     1      50.114  57.637  93.306  1.00  0.00    -0.000 C 
BRANCH   6   7
ATOM      7  C   UNL     1      51.358  56.758  93.070  1.00  0.00    -0.000 C 
BRANCH   7   8
ATOM      8  C   UNL     1      52.595  57.240  93.847  1.00  0.00    -0.000 C 
BRANCH   8   9
ATOM      9  C   UNL     1      53.189  58.543  93.281  1.00  0.00    -0.000 C 
BRANCH   9  10
ATOM     10  C   UNL     1      53.158  58.667  91.743  1.00  0.00    -0.000 C 
BRANCH  10  11
ATOM     11  C   UNL     1      53.502  60.064  91.196  1.00  0.00    -0.003 C 
ATOM     12  C   UNL     1      52.934  61.195  92.052  1.00  0.00     0.004 C 
ENDBRANCH  10  11
ENDBRANCH   9  10
ENDBRANCH   8   9
ENDBRANCH   7   8
ENDBRANCH   6   7
ENDBRANCH   5   6
ENDBRANCH   4   5
ENDBRANCH   3   4
ENDBRANCH   2   3
ENDBRANCH   1   2
BRANCH   1  13
ATOM     13  C   UNL     1      48.276  63.810  92.613  1.00  0.00     0.000 C 
BRANCH  13  14
ATOM     14  C   UNL     1      49.379  64.604  93.332  1.00  0.00     0.000 C 
BRANCH  14  15
ATOM     15  C   UNL     1      48.879  65.950  93.885  1.00  0.00     0.000 C 
BRANCH  15  16
ATOM     16  C   UNL     1      49.624  67.173  93.307  1.00  0.00     0.000 C 
BRANCH  16  17
ATOM     17  C   UNL     1      50.361  66.837  91.997  1.00  0.00     0.000 C 
BRANCH  17  18
ATOM     18  C   UNL     1      49.576  67.252  90.739  1.00  0.00     0.000 C 
BRANCH  18  19
ATOM     19  C   UNL     1      48.160  67.793  91.002  1.00  0.00     0.000 C 
BRANCH  19  20
ATOM     20  C   UNL     1      47.061  66.743  90.760  1.00  0.00     0.006 C 
BRANCH  20  21
ATOM     21  C   UNL     1      46.116  66.601  91.961  1.00  0.00     0.053 C 
BRANCH  21  22
ATOM     22  C   UNL     1      44.914  65.772  91.628  1.00  0.00     0.041 C 
ATOM     23  O   UNL     1      43.867  66.320  91.190  1.00  0.00    -0.550 OA
ATOM     24  O   UNL     1      44.932  64.402  91.849  1.00  0.00    -0.550 OA
ENDBRANCH  21  22
ENDBRANCH  20  21
ENDBRANCH  19  20
ENDBRANCH  18  19
ENDBRANCH  17  18
ENDBRANCH  16  17
ENDBRANCH  15  16
ENDBRANCH  14  15
ENDBRANCH  13  14
ENDBRANCH   1  13
TORSDOF 20
ENDMDL
MODEL 5
REMARK VINA RESULT:    -4.798      1.641      3.751
REMARK INTER + INTRA:         -12.411
REMARK INTER:                 -10.568
REMARK INTRA:                  -1.844
REMARK UNBOUND:                -2.003
REMARK SMILES CCCCCCCCCCCCCCCCCCCCCC(=O)[O-]
REMARK SMILES IDX 12 1 11 2 10 3 9 4 8 5 7 6 6 7 5 8 4 9 3 10 2 11 1 12 13 13
REMARK SMILES IDX 14 14 15 15 16 16 17 17 18 18 19 19 20 20 21 21 22 22 23 23
REMARK SMILES IDX 24 24
REMARK H PARENT
REMARK Flexibility Score: inf
ROOT
ATOM      1  C   UNL     1      48.781  62.642  92.918  1.00  0.00     0.000 C 
ENDROOT
BRANCH   1   2
ATOM      2  C   UNL     1      48.975  64.160  93.108  1.00  0.00     0.000 C 
BRANCH   2   3
ATOM      3  C   UNL     1      47.901  65.049  92.450  1.00  0.00     0.000 C 
BRANCH   3   4
ATOM      4  C   UNL     1      47.658  66.398  93.149  1.00  0.00    -0.000 C 
BRANCH   4   5
ATOM      5  C   UNL     1      47.879  67.604  92.219  1.00  0.00    -0.000 C 
BRANCH   5   6
ATOM      6  C   UNL     1      48.223  67.192  90.775  1.00  0.00    -0.000 C 
BRANCH   6   7
ATOM      7  C   UNL     1      49.569  67.721  90.244  1.00  0.00    -0.000 C 
BRANCH   7   8
ATOM      8  C   UNL     1      50.785  67.036  90.889  1.00  0.00    -0.000 C 
BRANCH   8   9
ATOM      9  C   UNL     1      51.427  67.880  92.006  1.00  0.00    -0.000 C 
BRANCH   9  10
ATOM     10  C   UNL     1      51.439  67.223  93.402  1.00  0.00    -0.000 C 
BRANCH  10  11
ATOM     11  C   UNL     1      52.386  67.881  94.422  1.00  0.00    -0.003 C 
ATOM     12  C   UNL     1      51.812  67.907  95.838  1.00  0.00     0.004 C 
ENDBRANCH  10  11
ENDBRANCH   9  10
ENDBRANCH   8   9
ENDBRANCH   7   8
ENDBRANCH   6   7
ENDBRANCH   5   6
ENDBRANCH   4   5
ENDBRANCH   3   4
ENDBRANCH   2   3
ENDBRANCH   1   2
BRANCH   1  13
ATOM     13  C   UNL     1      49.461  61.756  93.977  1.00  0.00     0.000 C 
BRANCH  13  14
ATOM     14  C   UNL     1      50.471  60.768  93.371  1.00  0.00     0.000 C 
BRANCH  14  15
ATOM     15  C   UNL     1      51.908  61.314  93.367  1.00  0.00     0.000 C 
BRANCH  15  16
ATOM     16  C   UNL     1      52.730  60.889  92.130  1.00  0.00     0.000 C 
BRANCH  16  17
ATOM     17  C   UNL     1      53.012  59.375  92.115  1.00  0.00     0.000 C 
BRANCH  17  18
ATOM     18  C   UNL     1      53.466  58.832  93.482  1.00  0.00     0.000 C 
BRANCH  18  19
ATOM     19  C   UNL     1      53.008  57.397  93.799  1.00  0.00     0.000 C 
BRANCH  19  20
ATOM     20  C   UNL     1      51.504  57.301  94.107  1.00  0.00     0.006 C 
BRANCH  20  21
ATOM     21  C   UNL     1      50.715  56.655  92.959  1.00  0.00     0.053 C 
BRANCH  21  22
ATOM     22  C   UNL     1      51.584  55.782  92.108  1.00  0.00     0.041 C 
ATOM     23  O   UNL     1      51.956  54.654  92.530  1.00  0.00    -0.550 OA
ATOM     24  O   UNL     1      52.024  56.234  90.872  1.00  0.00    -0.550 OA
ENDBRANCH  21  22
ENDBRANCH  20  21
ENDBRANCH  19  20
ENDBRANCH  18  19
ENDBRANCH  17  18
ENDBRANCH  16  17
ENDBRANCH  15  16
ENDBRANCH  14  15
ENDBRANCH  13  14
ENDBRANCH   1  13
TORSDOF 20
ENDMDL
MODEL 6
REMARK VINA RESULT:    -4.792      2.989      8.756
REMARK INTER + INTRA:         -12.398
REMARK INTER:                 -10.352
REMARK INTRA:                  -2.046
REMARK UNBOUND:                -2.003
REMARK SMILES CCCCCCCCCCCCCCCCCCCCCC(=O)[O-]
REMARK SMILES IDX 12 1 11 2 10 3 9 4 8 5 7 6 6 7 5 8 4 9 3 10 2 11 1 12 13 13
REMARK SMILES IDX 14 14 15 15 16 16 17 17 18 18 19 19 20 20 21 21 22 22 23 23
REMARK SMILES IDX 24 24
REMARK H PARENT
REMARK Flexibility Score: inf
ROOT
ATOM      1  C   UNL     1      48.786  61.023  94.435  1.00  0.00     0.000 C 
ENDROOT
BRANCH   1   2
ATOM      2  C   UNL     1      49.775  60.112  95.189  1.00  0.00     0.000 C 
BRANCH   2   3
ATOM      3  C   UNL     1      49.783  58.636  94.741  1.00  0.00     0.000 C 
BRANCH   3   4
ATOM      4  C   UNL     1      49.896  58.421  93.222  1.00  0.00    -0.000 C 
BRANCH   4   5
ATOM      5  C   UNL     1      50.135  56.949  92.841  1.00  0.00    -0.000 C 
BRANCH   5   6
ATOM      6  C   UNL     1      51.608  56.649  92.506  1.00  0.00    -0.000 C 
BRANCH   6   7
ATOM      7  C   UNL     1      52.619  56.994  93.617  1.00  0.00    -0.000 C 
BRANCH   7   8
ATOM      8  C   UNL     1      53.622  58.084  93.204  1.00  0.00    -0.000 C 
BRANCH   8   9
ATOM      9  C   UNL     1      53.380  58.613  91.778  1.00  0.00    -0.000 C 
BRANCH   9  10
ATOM     10  C   UNL     1      53.063  60.120  91.681  1.00  0.00    -0.000 C 
BRANCH  10  11
ATOM     11  C   UNL     1      52.623  60.778  93.001  1.00  0.00    -0.003 C 
ATOM     12  C   UNL     1      52.882  62.284  93.032  1.00  0.00     0.004 C 
ENDBRANCH  10  11
ENDBRANCH   9  10
ENDBRANCH   8   9
ENDBRANCH   7   8
ENDBRANCH   6   7
ENDBRANCH   5   6
ENDBRANCH   4   5
ENDBRANCH   3   4
ENDBRANCH   2   3
ENDBRANCH   1   2
BRANCH   1  13
ATOM     13  C   UNL     1      49.425  62.207  93.686  1.00  0.00     0.000 C 
BRANCH  13  14
ATOM     14  C   UNL     1      48.398  63.057  92.922  1.00  0.00     0.000 C 
BRANCH  14  15
ATOM     15  C   UNL     1      48.712  64.561  92.976  1.00  0.00     0.000 C 
BRANCH  15  16
ATOM     16  C   UNL     1      47.592  65.451  92.393  1.00  0.00     0.000 C 
BRANCH  16  17
ATOM     17  C   UNL     1      48.096  66.329  91.233  1.00  0.00     0.000 C 
BRANCH  17  18
ATOM     18  C   UNL     1      49.048  67.449  91.693  1.00  0.00     0.000 C 
BRANCH  18  19
ATOM     19  C   UNL     1      50.319  67.615  90.841  1.00  0.00     0.000 C 
BRANCH  19  20
ATOM     20  C   UNL     1      51.564  67.952  91.679  1.00  0.00     0.006 C 
BRANCH  20  21
ATOM     21  C   UNL     1      51.240  68.092  93.173  1.00  0.00     0.053 C 
BRANCH  21  22
ATOM     22  C   UNL     1      52.411  67.731  94.033  1.00  0.00     0.041 C 
ATOM     23  O   UNL     1      53.490  67.347  93.507  1.00  0.00    -0.550 OA
ATOM     24  O   UNL     1      52.297  67.770  95.416  1.00  0.00    -0.550 OA
ENDBRANCH  21  22
ENDBRANCH  20  21
ENDBRANCH  19  20
ENDBRANCH  18  19
ENDBRANCH  17  18
ENDBRANCH  16  17
ENDBRANCH  15  16
ENDBRANCH  14  15
ENDBRANCH  13  14
ENDBRANCH   1  13
TORSDOF 20
ENDMDL
MODEL 7
REMARK VINA RESULT:    -4.772      3.139      8.456
REMARK INTER + INTRA:         -12.356
REMARK INTER:                  -9.972
REMARK INTRA:                  -2.384
REMARK UNBOUND:                -2.003
REMARK SMILES CCCCCCCCCCCCCCCCCCCCCC(=O)[O-]
REMARK SMILES IDX 12 1 11 2 10 3 9 4 8 5 7 6 6 7 5 8 4 9 3 10 2 11 1 12 13 13
REMARK SMILES IDX 14 14 15 15 16 16 17 17 18 18 19 19 20 20 21 21 22 22 23 23
REMARK SMILES IDX 24 24
REMARK H PARENT
REMARK Flexibility Score: inf
ROOT
ATOM      1  C   UNL     1      48.247  62.691  92.628  1.00  0.00     0.000 C 
ENDROOT
BRANCH   1   2
ATOM      2  C   UNL     1      48.670  61.418  93.387  1.00  0.00     0.000 C 
BRANCH   2   3
ATOM      3  C   UNL     1      50.018  60.808  92.949  1.00  0.00     0.000 C 
BRANCH   3   4
ATOM      4  C   UNL     1      51.235  61.269  93.770  1.00  0.00    -0.000 C 
BRANCH   4   5
ATOM      5  C   UNL     1      52.564  61.112  93.011  1.00  0.00    -0.000 C 
BRANCH   5   6
ATOM      6  C   UNL     1      52.483  60.085  91.865  1.00  0.00    -0.000 C 
BRANCH   6   7
ATOM      7  C   UNL     1      53.344  58.821  92.054  1.00  0.00    -0.000 C 
BRANCH   7   8
ATOM      8  C   UNL     1      53.488  58.402  93.527  1.00  0.00    -0.000 C 
BRANCH   8   9
ATOM      9  C   UNL     1      52.602  57.199  93.898  1.00  0.00    -0.000 C 
BRANCH   9  10
ATOM     10  C   UNL     1      51.510  57.485  94.950  1.00  0.00    -0.000 C 
BRANCH  10  11
ATOM     11  C   UNL     1      50.095  57.691  94.380  1.00  0.00    -0.003 C 
ATOM     12  C   UNL     1      49.993  57.337  92.897  1.00  0.00     0.004 C 
ENDBRANCH  10  11
ENDBRANCH   9  10
ENDBRANCH   8   9
ENDBRANCH   7   8
ENDBRANCH   6   7
ENDBRANCH   5   6
ENDBRANCH   4   5
ENDBRANCH   3   4
ENDBRANCH   2   3
ENDBRANCH   1   2
BRANCH   1  13
ATOM     13  C   UNL     1      48.931  63.990  93.093  1.00  0.00     0.000 C 
BRANCH  13  14
ATOM     14  C   UNL     1      48.437  65.231  92.334  1.00  0.00     0.000 C 
BRANCH  14  15
ATOM     15  C   UNL     1      46.905  65.356  92.328  1.00  0.00     0.000 C 
BRANCH  15  16
ATOM     16  C   UNL     1      46.379  66.583  93.104  1.00  0.00     0.000 C 
BRANCH  16  17
ATOM     17  C   UNL     1      47.446  67.686  93.235  1.00  0.00     0.000 C 
BRANCH  17  18
ATOM     18  C   UNL     1      47.770  68.043  94.697  1.00  0.00     0.000 C 
BRANCH  18  19
ATOM     19  C   UNL     1      48.881  67.198  95.344  1.00  0.00     0.000 C 
BRANCH  19  20
ATOM     20  C   UNL     1      50.259  67.881  95.297  1.00  0.00     0.006 C 
BRANCH  20  21
ATOM     21  C   UNL     1      50.978  67.652  93.960  1.00  0.00     0.053 C 
BRANCH  21  22
ATOM     22  C   UNL     1      52.465  67.738  94.105  1.00  0.00     0.041 C 
ATOM     23  O   UNL     1      52.981  67.944  95.237  1.00  0.00    -0.550 OA
ATOM     24  O   UNL     1      53.280  67.641  92.985  1.00  0.00    -0.550 OA
ENDBRANCH  21  22
ENDBRANCH  20  21
ENDBRANCH  19  20
ENDBRANCH  18  19
ENDBRANCH  17  18
ENDBRANCH  16  17
ENDBRANCH  15  16
ENDBRANCH  14  15
ENDBRANCH  13  14
ENDBRANCH   1  13
TORSDOF 20
ENDMDL
MODEL 8
REMARK VINA RESULT:    -4.739      1.746      2.135
REMARK INTER + INTRA:         -12.282
REMARK INTER:                 -10.088
REMARK INTRA:                  -2.194
REMARK UNBOUND:                -2.003
REMARK SMILES CCCCCCCCCCCCCCCCCCCCCC(=O)[O-]
REMARK SMILES IDX 12 1 11 2 10 3 9 4 8 5 7 6 6 7 5 8 4 9 3 10 2 11 1 12 13 13
REMARK SMILES IDX 14 14 15 15 16 16 17 17 18 18 19 19 20 20 21 21 22 22 23 23
REMARK SMILES IDX 24 24
REMARK H PARENT
REMARK Flexibility Score: inf
ROOT
ATOM      1  C   UNL     1      48.515  63.927  92.639  1.00  0.00     0.000 C 
ENDROOT
BRANCH   1   2
ATOM      2  C   UNL     1      49.381  64.784  93.584  1.00  0.00     0.000 C 
BRANCH   2   3
ATOM      3  C   UNL     1      48.773  66.146  93.979  1.00  0.00     0.000 C 
BRANCH   3   4
ATOM      4  C   UNL     1      49.763  67.323  93.970  1.00  0.00    -0.000 C 
BRANCH   4   5
ATOM      5  C   UNL     1      51.099  66.979  93.288  1.00  0.00    -0.000 C 
BRANCH   5   6
ATOM      6  C   UNL     1      51.326  67.765  91.983  1.00  0.00    -0.000 C 
BRANCH   6   7
ATOM      7  C   UNL     1      50.631  67.184  90.737  1.00  0.00    -0.000 C 
BRANCH   7   8
ATOM      8  C   UNL     1      49.277  67.850  90.435  1.00  0.00    -0.000 C 
BRANCH   8   9
ATOM      9  C   UNL     1      48.111  66.844  90.389  1.00  0.00    -0.000 C 
BRANCH   9  10
ATOM     10  C   UNL     1      46.910  67.187  91.294  1.00  0.00    -0.000 C 
BRANCH  10  11
ATOM     11  C   UNL     1      45.793  66.128  91.322  1.00  0.00    -0.003 C 
ATOM     12  C   UNL     1      45.265  65.857  92.730  1.00  0.00     0.004 C 
ENDBRANCH  10  11
ENDBRANCH   9  10
ENDBRANCH   8   9
ENDBRANCH   7   8
ENDBRANCH   6   7
ENDBRANCH   5   6
ENDBRANCH   4   5
ENDBRANCH   3   4
ENDBRANCH   2   3
ENDBRANCH   1   2
BRANCH   1  13
ATOM     13  C   UNL     1      48.420  62.435  93.009  1.00  0.00     0.000 C 
BRANCH  13  14
ATOM     14  C   UNL     1      49.673  61.917  93.732  1.00  0.00     0.000 C 
BRANCH  14  15
ATOM     15  C   UNL     1      49.339  60.977  94.902  1.00  0.00     0.000 C 
BRANCH  15  16
ATOM     16  C   UNL     1      49.955  59.567  94.761  1.00  0.00     0.000 C 
BRANCH  16  17
ATOM     17  C   UNL     1      50.565  59.340  93.366  1.00  0.00     0.000 C 
BRANCH  17  18
ATOM     18  C   UNL     1      50.127  58.010  92.725  1.00  0.00     0.000 C 
BRANCH  18  19
ATOM     19  C   UNL     1      51.277  57.074  92.313  1.00  0.00     0.000 C 
BRANCH  19  20
ATOM     20  C   UNL     1      52.457  57.102  93.300  1.00  0.00     0.006 C 
BRANCH  20  21
ATOM     21  C   UNL     1      52.384  55.964  94.328  1.00  0.00     0.053 C 
BRANCH  21  22
ATOM     22  C   UNL     1      52.961  54.691  93.790  1.00  0.00     0.041 C 
ATOM     23  O   UNL     1      54.083  54.282  94.194  1.00  0.00    -0.550 OA
ATOM     24  O   UNL     1      52.285  53.983  92.806  1.00  0.00    -0.550 OA
ENDBRANCH  21  22
ENDBRANCH  20  21
ENDBRANCH  19  20
ENDBRANCH  18  19
ENDBRANCH  17  18
ENDBRANCH  16  17
ENDBRANCH  15  16
ENDBRANCH  14  15
ENDBRANCH  13  14
ENDBRANCH   1  13
TORSDOF 20
ENDMDL
MODEL 9
REMARK VINA RESULT:    -4.729      1.314      2.145
REMARK INTER + INTRA:         -12.262
REMARK INTER:                  -9.958
REMARK INTRA:                  -2.304
REMARK UNBOUND:                -2.003
REMARK SMILES CCCCCCCCCCCCCCCCCCCCCC(=O)[O-]
REMARK SMILES IDX 12 1 11 2 10 3 9 4 8 5 7 6 6 7 5 8 4 9 3 10 2 11 1 12 13 13
REMARK SMILES IDX 14 14 15 15 16 16 17 17 18 18 19 19 20 20 21 21 22 22 23 23
REMARK SMILES IDX 24 24
REMARK H PARENT
REMARK Flexibility Score: inf
ROOT
ATOM      1  C   UNL     1      48.552  66.067  94.083  1.00  0.00     0.000 C 
ENDROOT
BRANCH   1   2
ATOM      2  C   UNL     1      49.295  66.924  95.127  1.00  0.00     0.000 C 
BRANCH   2   3
ATOM      3  C   UNL     1      50.153  68.068  94.549  1.00  0.00     0.000 C 
BRANCH   3   4
ATOM      4  C   UNL     1      51.673  67.836  94.619  1.00  0.00    -0.000 C 
BRANCH   4   5
ATOM      5  C   UNL     1      52.274  67.395  93.273  1.00  0.00    -0.000 C 
BRANCH   5   6
ATOM      6  C   UNL     1      51.520  67.972  92.061  1.00  0.00    -0.000 C 
BRANCH   6   7
ATOM      7  C   UNL     1      50.715  66.948  91.239  1.00  0.00    -0.000 C 
BRANCH   7   8
ATOM      8  C   UNL     1      49.695  67.601  90.291  1.00  0.00    -0.000 C 
BRANCH   8   9
ATOM      9  C   UNL     1      48.316  67.809  90.944  1.00  0.00    -0.000 C 
BRANCH   9  10
ATOM     10  C   UNL     1      47.300  66.671  90.714  1.00  0.00    -0.000 C 
BRANCH  10  11
ATOM     11  C   UNL     1      45.998  66.787  91.527  1.00  0.00    -0.003 C 
ATOM     12  C   UNL     1      45.361  65.432  91.829  1.00  0.00     0.004 C 
ENDBRANCH  10  11
ENDBRANCH   9  10
ENDBRANCH   8   9
ENDBRANCH   7   8
ENDBRANCH   6   7
ENDBRANCH   5   6
ENDBRANCH   4   5
ENDBRANCH   3   4
ENDBRANCH   2   3
ENDBRANCH   1   2
BRANCH   1  13
ATOM     13  C   UNL     1      49.284  64.784  93.647  1.00  0.00     0.000 C 
BRANCH  13  14
ATOM     14  C   UNL     1      48.462  63.928  92.672  1.00  0.00     0.000 C 
BRANCH  14  15
ATOM     15  C   UNL     1      48.493  62.431  93.022  1.00  0.00     0.000 C 
BRANCH  15  16
ATOM     16  C   UNL     1      49.760  62.000  93.794  1.00  0.00     0.000 C 
BRANCH  16  17
ATOM     17  C   UNL     1      49.423  61.122  95.014  1.00  0.00     0.000 C 
BRANCH  17  18
ATOM     18  C   UNL     1      49.776  59.638  94.805  1.00  0.00     0.000 C 
BRANCH  18  19
ATOM     19  C   UNL     1      50.536  59.325  93.504  1.00  0.00     0.000 C 
BRANCH  19  20
ATOM     20  C   UNL     1      51.442  58.087  93.621  1.00  0.00     0.006 C 
BRANCH  20  21
ATOM     21  C   UNL     1      52.246  57.830  92.338  1.00  0.00     0.053 C 
BRANCH  21  22
ATOM     22  C   UNL     1      51.968  56.473  91.770  1.00  0.00     0.041 C 
ATOM     23  O   UNL     1      51.732  56.337  90.539  1.00  0.00    -0.550 OA
ATOM     24  O   UNL     1      51.920  55.366  92.606  1.00  0.00    -0.550 OA
ENDBRANCH  21  22
ENDBRANCH  20  21
ENDBRANCH  19  20
ENDBRANCH  18  19
ENDBRANCH  17  18
ENDBRANCH  16  17
ENDBRANCH  15  16
ENDBRANCH  14  15
ENDBRANCH  13  14
ENDBRANCH   1  13
TORSDOF 20
ENDMDL
