MODEL 1
REMARK VINA RESULT:    -4.331      0.000      0.000
REMARK INTER + INTRA:          -8.390
REMARK INTER:                  -6.863
REMARK INTRA:                  -1.527
REMARK UNBOUND:                -1.527
REMARK SMILES CCCCCCCCCCCC(=O)[O-]
REMARK SMILES IDX 7 1 8 2 9 3 10 4 11 5 12 6 13 7 14 8 6 9 5 10 4 11 3 12 2 13
REMARK SMILES IDX 1 14
REMARK H PARENT
REMARK Flexibility Score: inf
ROOT
ATOM      1  C   UNL     1      63.775  30.193  13.583  1.00  0.00     0.000 C 
ENDROOT
BRANCH   1   2
ATOM      2  C   UNL     1      62.914  28.969  13.222  1.00  0.00     0.000 C 
BRANCH   2   3
ATOM      3  C   UNL     1      61.419  29.196  13.496  1.00  0.00     0.000 C 
BRANCH   3   4
ATOM      4  C   UNL     1      60.529  28.731  12.330  1.00  0.00     0.006 C 
BRANCH   4   5
ATOM      5  C   UNL     1      60.528  29.734  11.168  1.00  0.00     0.053 C 
BRANCH   5   6
ATOM      6  C   UNL     1      61.328  29.238  10.003  1.00  0.00     0.041 C 
ATOM      7  O   UNL     1      62.363  29.855   9.636  1.00  0.00    -0.550 OA
ATOM      8  O   UNL     1      60.915  28.112   9.303  1.00  0.00    -0.550 OA
ENDBRANCH   5   6
ENDBRANCH   4   5
ENDBRANCH   3   4
ENDBRANCH   2   3
ENDBRANCH   1   2
BRANCH   1   9
ATOM      9  C   UNL     1      64.259  30.963  12.344  1.00  0.00     0.000 C 
BRANCH   9  10
ATOM     10  C   UNL     1      63.614  32.354  12.224  1.00  0.00    -0.000 C 
BRANCH  10  11
ATOM     11  C   UNL     1      62.794  32.734  13.467  1.00  0.00    -0.000 C 
BRANCH  11  12
ATOM     12  C   UNL     1      61.288  32.852  13.171  1.00  0.00    -0.000 C 
BRANCH  12  13
ATOM     13  C   UNL     1      60.430  32.755  14.442  1.00  0.00    -0.003 C 
ATOM     14  C   UNL     1      61.182  32.125  15.614  1.00  0.00     0.004 C 
ENDBRANCH  12  13
ENDBRANCH  11  12
ENDBRANCH  10  11
ENDBRANCH   9  10
ENDBRANCH   1   9
TORSDOF 10
ENDMDL
MODEL 2
REMARK VINA RESULT:    -4.324     12.451     14.090
REMARK INTER + INTRA:          -8.379
REMARK INTER:                  -6.983
REMARK INTRA:                  -1.396
REMARK UNBOUND:                -1.527
REMARK SMILES CCCCCCCCCCCC(=O)[O-]
REMARK SMILES IDX 7 1 8 2 9 3 10 4 11 5 12 6 13 7 14 8 6 9 5 10 4 11 3 12 2 13
REMARK SMILES IDX 1 14
REMARK H PARENT
REMARK Flexibility Score: inf
ROOT
ATOM      1  C   UNL     1      62.253  29.556  24.987  1.00  0.00     0.000 C 
ENDROOT
BRANCH   1   2
ATOM      2  C   UNL     1      63.710  29.549  24.493  1.00  0.00     0.000 C 
BRANCH   2   3
ATOM      3  C   UNL     1      64.712  29.212  25.608  1.00  0.00     0.000 C 
BRANCH   3   4
ATOM      4  C   UNL     1      65.746  28.159  25.173  1.00  0.00     0.006 C 
BRANCH   4   5
ATOM      5  C   UNL     1      65.255  26.728  25.428  1.00  0.00     0.053 C 
BRANCH   5   6
ATOM      6  C   UNL     1      64.944  26.009  24.150  1.00  0.00     0.041 C 
ATOM      7  O   UNL     1      63.763  25.659  23.891  1.00  0.00    -0.550 OA
ATOM      8  O   UNL     1      65.964  25.700  23.260  1.00  0.00    -0.550 OA
ENDBRANCH   5   6
ENDBRANCH   4   5
ENDBRANCH   3   4
ENDBRANCH   2   3
ENDBRANCH   1   2
BRANCH   1   9
ATOM      9  C   UNL     1      61.517  28.240  24.684  1.00  0.00     0.000 C 
BRANCH   9  10
ATOM     10  C   UNL     1      60.900  27.606  25.941  1.00  0.00    -0.000 C 
BRANCH  10  11
ATOM     11  C   UNL     1      61.962  27.094  26.927  1.00  0.00    -0.000 C 
BRANCH  11  12
ATOM     12  C   UNL     1      61.553  27.295  28.397  1.00  0.00    -0.000 C 
BRANCH  12  13
ATOM     13  C   UNL     1      61.309  28.772  28.744  1.00  0.00    -0.003 C 
ATOM     14  C   UNL     1      62.582  29.613  28.664  1.00  0.00     0.004 C 
ENDBRANCH  12  13
ENDBRANCH  11  12
ENDBRANCH  10  11
ENDBRANCH   9  10
ENDBRANCH   1   9
TORSDOF 10
ENDMDL
MODEL 3
REMARK VINA RESULT:    -4.299     12.651     14.380
REMARK INTER + INTRA:          -8.340
REMARK INTER:                  -7.026
REMARK INTRA:                  -1.313
REMARK UNBOUND:                -1.527
REMARK SMILES CCCCCCCCCCCC(=O)[O-]
REMARK SMILES IDX 7 1 8 2 9 3 10 4 11 5 12 6 13 7 14 8 6 9 5 10 4 11 3 12 2 13
REMARK SMILES IDX 1 14
REMARK H PARENT
REMARK Flexibility Score: inf
ROOT
ATOM      1  C   UNL     1      63.911  29.727  24.932  1.00  0.00     0.000 C 
ENDROOT
BRANCH   1   2
ATOM      2  C   UNL     1      62.380  29.613  25.045  1.00  0.00     0.000 C 
BRANCH   2   3
ATOM      3  C   UNL     1      61.861  28.219  24.656  1.00  0.00     0.000 C 
BRANCH   3   4
ATOM      4  C   UNL     1      60.959  27.603  25.740  1.00  0.00     0.006 C 
BRANCH   4   5
ATOM      5  C   UNL     1      61.758  27.161  26.974  1.00  0.00     0.053 C 
BRANCH   5   6
ATOM      6  C   UNL     1      61.241  27.793  28.230  1.00  0.00     0.041 C 
ATOM      7  O   UNL     1      61.537  28.985  28.507  1.00  0.00    -0.550 OA
ATOM      8  O   UNL     1      60.456  27.057  29.108  1.00  0.00    -0.550 OA
ENDBRANCH   5   6
ENDBRANCH   4   5
ENDBRANCH   3   4
ENDBRANCH   2   3
ENDBRANCH   1   2
BRANCH   1   9
ATOM      9  C   UNL     1      64.648  28.886  25.987  1.00  0.00     0.000 C 
BRANCH   9  10
ATOM     10  C   UNL     1      65.642  27.894  25.362  1.00  0.00    -0.000 C 
BRANCH  10  11
ATOM     11  C   UNL     1      65.108  26.453  25.345  1.00  0.00    -0.000 C 
BRANCH  11  12
ATOM     12  C   UNL     1      64.741  25.971  23.931  1.00  0.00    -0.000 C 
BRANCH  12  13
ATOM     13  C   UNL     1      65.181  26.961  22.840  1.00  0.00    -0.003 C 
ATOM     14  C   UNL     1      66.367  26.448  22.024  1.00  0.00     0.004 C 
ENDBRANCH  12  13
ENDBRANCH  11  12
ENDBRANCH  10  11
ENDBRANCH   9  10
ENDBRANCH   1   9
TORSDOF 10
ENDMDL
MODEL 4
REMARK VINA RESULT:    -4.288      2.887      4.711
REMARK INTER + INTRA:          -8.322
REMARK INTER:                  -6.736
REMARK INTRA:                  -1.586
REMARK UNBOUND:                -1.527
REMARK SMILES CCCCCCCCCCCC(=O)[O-]
REMARK SMILES IDX 7 1 8 2 9 3 10 4 11 5 12 6 13 7 14 8 6 9 5 10 4 11 3 12 2 13
REMARK SMILES IDX 1 14
REMARK H PARENT
REMARK Flexibility Score: inf
ROOT
ATOM      1  C   UNL     1      64.070  30.305  11.776  1.00  0.00     0.000 C 
ENDROOT
BRANCH   1   2
ATOM      2  C   UNL     1      63.407  31.694  11.744  1.00  0.00     0.000 C 
BRANCH   2   3
ATOM      3  C   UNL     1      62.634  32.009  13.035  1.00  0.00     0.000 C 
BRANCH   3   4
ATOM      4  C   UNL     1      61.227  32.567  12.758  1.00  0.00     0.006 C 
BRANCH   4   5
ATOM      5  C   UNL     1      60.236  32.214  13.876  1.00  0.00     0.053 C 
BRANCH   5   6
ATOM      6  C   UNL     1      60.780  32.550  15.231  1.00  0.00     0.041 C 
ATOM      7  O   UNL     1      60.979  31.640  16.077  1.00  0.00    -0.550 OA
ATOM      8  O   UNL     1      61.040  33.872  15.568  1.00  0.00    -0.550 OA
ENDBRANCH   5   6
ENDBRANCH   4   5
ENDBRANCH   3   4
ENDBRANCH   2   3
ENDBRANCH   1   2
BRANCH   1   9
ATOM      9  C   UNL     1      63.632  29.412  10.604  1.00  0.00     0.000 C 
BRANCH   9  10
ATOM     10  C   UNL     1      62.281  29.841  10.008  1.00  0.00    -0.000 C 
BRANCH  10  11
ATOM     11  C   UNL     1      61.154  28.842  10.317  1.00  0.00    -0.000 C 
BRANCH  11  12
ATOM     12  C   UNL     1      60.069  29.435  11.233  1.00  0.00    -0.000 C 
BRANCH  12  13
ATOM     13  C   UNL     1      59.888  28.628  12.528  1.00  0.00    -0.003 C 
ATOM     14  C   UNL     1      61.131  28.655  13.417  1.00  0.00     0.004 C 
ENDBRANCH  12  13
ENDBRANCH  11  12
ENDBRANCH  10  11
ENDBRANCH   9  10
ENDBRANCH   1   9
TORSDOF 10
ENDMDL
MODEL 5
REMARK VINA RESULT:    -4.276     12.846     14.454
REMARK INTER + INTRA:          -8.302
REMARK INTER:                  -6.946
REMARK INTRA:                  -1.356
REMARK UNBOUND:                -1.527
REMARK SMILES CCCCCCCCCCCC(=O)[O-]
REMARK SMILES IDX 7 1 8 2 9 3 10 4 11 5 12 6 13 7 14 8 6 9 5 10 4 11 3 12 2 13
REMARK SMILES IDX 1 14
REMARK H PARENT
REMARK Flexibility Score: inf
ROOT
ATOM      1  C   UNL     1      64.007  30.235  26.928  1.00  0.00     0.000 C 
ENDROOT
BRANCH   1   2
ATOM      2  C   UNL     1      65.516  29.990  27.102  1.00  0.00     0.000 C 
BRANCH   2   3
ATOM      3  C   UNL     1      66.070  28.970  26.094  1.00  0.00     0.000 C 
BRANCH   3   4
ATOM      4  C   UNL     1      64.957  28.201  25.362  1.00  0.00     0.006 C 
BRANCH   4   5
ATOM      5  C   UNL     1      65.121  26.680  25.495  1.00  0.00     0.053 C 
BRANCH   5   6
ATOM      6  C   UNL     1      64.798  25.970  24.216  1.00  0.00     0.041 C 
ATOM      7  O   UNL     1      63.623  25.577  23.989  1.00  0.00    -0.550 OA
ATOM      8  O   UNL     1      65.799  25.716  23.288  1.00  0.00    -0.550 OA
ENDBRANCH   5   6
ENDBRANCH   4   5
ENDBRANCH   3   4
ENDBRANCH   2   3
ENDBRANCH   1   2
BRANCH   1   9
ATOM      9  C   UNL     1      63.263  30.336  28.269  1.00  0.00     0.000 C 
BRANCH   9  10
ATOM     10  C   UNL     1      62.768  28.970  28.773  1.00  0.00    -0.000 C 
BRANCH  10  11
ATOM     11  C   UNL     1      61.490  28.504  28.057  1.00  0.00    -0.000 C 
BRANCH  11  12
ATOM     12  C   UNL     1      61.713  27.240  27.208  1.00  0.00    -0.000 C 
BRANCH  12  13
ATOM     13  C   UNL     1      60.928  27.273  25.887  1.00  0.00    -0.003 C 
ATOM     14  C   UNL     1      61.356  28.422  24.976  1.00  0.00     0.004 C 
ENDBRANCH  12  13
ENDBRANCH  11  12
ENDBRANCH  10  11
ENDBRANCH   9  10
ENDBRANCH   1   9
TORSDOF 10
ENDMDL
MODEL 6
REMARK VINA RESULT:    -4.249      1.568      3.086
REMARK INTER + INTRA:          -8.260
REMARK INTER:                  -6.762
REMARK INTRA:                  -1.498
REMARK UNBOUND:                -1.527
REMARK SMILES CCCCCCCCCCCC(=O)[O-]
REMARK SMILES IDX 7 1 8 2 9 3 10 4 11 5 12 6 13 7 14 8 6 9 5 10 4 11 3 12 2 13
REMARK SMILES IDX 1 14
REMARK H PARENT
REMARK Flexibility Score: inf
ROOT
ATOM      1  C   UNL     1      64.156  32.573  12.020  1.00  0.00     0.000 C 
ENDROOT
BRANCH   1   2
ATOM      2  C   UNL     1      64.522  31.557  10.924  1.00  0.00     0.000 C 
BRANCH   2   3
ATOM      3  C   UNL     1      64.071  30.128  11.267  1.00  0.00     0.000 C 
BRANCH   3   4
ATOM      4  C   UNL     1      63.575  29.355  10.032  1.00  0.00     0.006 C 
BRANCH   4   5
ATOM      5  C   UNL     1      62.411  30.070   9.332  1.00  0.00     0.053 C 
BRANCH   5   6
ATOM      6  C   UNL     1      61.148  29.266   9.387  1.00  0.00     0.041 C 
ATOM      7  O   UNL     1      61.196  28.008   9.368  1.00  0.00    -0.550 OA
ATOM      8  O   UNL     1      59.917  29.907   9.431  1.00  0.00    -0.550 OA
ENDBRANCH   5   6
ENDBRANCH   4   5
ENDBRANCH   3   4
ENDBRANCH   2   3
ENDBRANCH   1   2
BRANCH   1   9
ATOM      9  C   UNL     1      63.183  31.997  13.062  1.00  0.00     0.000 C 
BRANCH   9  10
ATOM     10  C   UNL     1      61.722  32.385  12.783  1.00  0.00    -0.000 C 
BRANCH  10  11
ATOM     11  C   UNL     1      60.780  31.170  12.767  1.00  0.00    -0.000 C 
BRANCH  11  12
ATOM     12  C   UNL     1      61.263  30.032  13.683  1.00  0.00    -0.000 C 
BRANCH  12  13
ATOM     13  C   UNL     1      61.045  28.644  13.061  1.00  0.00    -0.003 C 
ATOM     14  C   UNL     1      59.588  28.397  12.669  1.00  0.00     0.004 C 
ENDBRANCH  12  13
ENDBRANCH  11  12
ENDBRANCH  10  11
ENDBRANCH   9  10
ENDBRANCH   1   9
TORSDOF 10
ENDMDL
MODEL 7
REMARK VINA RESULT:    -4.216     12.688     14.606
REMARK INTER + INTRA:          -8.207
REMARK INTER:                  -7.070
REMARK INTRA:                  -1.137
REMARK UNBOUND:                -1.527
REMARK SMILES CCCCCCCCCCCC(=O)[O-]
REMARK SMILES IDX 7 1 8 2 9 3 10 4 11 5 12 6 13 7 14 8 6 9 5 10 4 11 3 12 2 13
REMARK SMILES IDX 1 14
REMARK H PARENT
REMARK Flexibility Score: inf
ROOT
ATOM      1  C   UNL     1      63.840  30.246  26.897  1.00  0.00     0.000 C 
ENDROOT
BRANCH   1   2
ATOM      2  C   UNL     1      63.005  30.184  28.188  1.00  0.00     0.000 C 
BRANCH   2   3
ATOM      3  C   UNL     1      62.737  28.743  28.651  1.00  0.00     0.000 C 
BRANCH   3   4
ATOM      4  C   UNL     1      61.403  28.191  28.118  1.00  0.00     0.006 C 
BRANCH   4   5
ATOM      5  C   UNL     1      61.611  27.111  27.047  1.00  0.00     0.053 C 
BRANCH   5   6
ATOM      6  C   UNL     1      60.865  27.425  25.787  1.00  0.00     0.041 C 
ATOM      7  O   UNL     1      59.847  26.755  25.470  1.00  0.00    -0.550 OA
ATOM      8  O   UNL     1      61.311  28.437  24.947  1.00  0.00    -0.550 OA
ENDBRANCH   5   6
ENDBRANCH   4   5
ENDBRANCH   3   4
ENDBRANCH   2   3
ENDBRANCH   1   2
BRANCH   1   9
ATOM      9  C   UNL     1      65.331  29.963  27.140  1.00  0.00     0.000 C 
BRANCH   9  10
ATOM     10  C   UNL     1      65.904  28.932  26.153  1.00  0.00    -0.000 C 
BRANCH  10  11
ATOM     11  C   UNL     1      64.808  28.173  25.388  1.00  0.00    -0.000 C 
BRANCH  11  12
ATOM     12  C   UNL     1      64.943  26.646  25.517  1.00  0.00    -0.000 C 
BRANCH  12  13
ATOM     13  C   UNL     1      64.730  25.921  24.179  1.00  0.00    -0.003 C 
ATOM     14  C   UNL     1      65.853  26.193  23.177  1.00  0.00     0.004 C 
ENDBRANCH  12  13
ENDBRANCH  11  12
ENDBRANCH  10  11
ENDBRANCH   9  10
ENDBRANCH   1   9
TORSDOF 10
ENDMDL
MODEL 8
REMARK VINA RESULT:    -4.175      2.796      5.170
REMARK INTER + INTRA:          -8.142
REMARK INTER:                  -6.807
REMARK INTRA:                  -1.335
REMARK UNBOUND:                -1.527
REMARK SMILES CCCCCCCCCCCC(=O)[O-]
REMARK SMILES IDX 7 1 8 2 9 3 10 4 11 5 12 6 13 7 14 8 6 9 5 10 4 11 3 12 2 13
REMARK SMILES IDX 1 14
REMARK H PARENT
REMARK Flexibility Score: inf
ROOT
ATOM      1  C   UNL     1      63.418  30.310  13.637  1.00  0.00     0.000 C 
ENDROOT
BRANCH   1   2
ATOM      2  C   UNL     1      63.414  31.384  12.535  1.00  0.00     0.000 C 
BRANCH   2   3
ATOM      3  C   UNL     1      62.863  32.733  13.026  1.00  0.00     0.000 C 
BRANCH   3   4
ATOM      4  C   UNL     1      61.330  32.728  13.164  1.00  0.00     0.006 C 
BRANCH   4   5
ATOM      5  C   UNL     1      60.861  33.486  14.413  1.00  0.00     0.053 C 
BRANCH   5   6
ATOM      6  C   UNL     1      61.437  32.904  15.668  1.00  0.00     0.041 C 
ATOM      7  O   UNL     1      62.194  33.597  16.397  1.00  0.00    -0.550 OA
ATOM      8  O   UNL     1      61.161  31.588  16.015  1.00  0.00    -0.550 OA
ENDBRANCH   5   6
ENDBRANCH   4   5
ENDBRANCH   3   4
ENDBRANCH   2   3
ENDBRANCH   1   2
BRANCH   1   9
ATOM      9  C   UNL     1      62.744  29.002  13.192  1.00  0.00     0.000 C 
BRANCH   9  10
ATOM     10  C   UNL     1      61.229  28.999  13.453  1.00  0.00    -0.000 C 
BRANCH  10  11
ATOM     11  C   UNL     1      60.414  28.631  12.203  1.00  0.00    -0.000 C 
BRANCH  11  12
ATOM     12  C   UNL     1      60.279  29.804  11.215  1.00  0.00    -0.000 C 
BRANCH  12  13
ATOM     13  C   UNL     1      61.177  29.638   9.979  1.00  0.00    -0.003 C 
ATOM     14  C   UNL     1      61.039  28.260   9.332  1.00  0.00     0.004 C 
ENDBRANCH  12  13
ENDBRANCH  11  12
ENDBRANCH  10  11
ENDBRANCH   9  10
ENDBRANCH   1   9
TORSDOF 10
ENDMDL
MODEL 9
REMARK VINA RESULT:    -4.141      2.298      4.984
REMARK INTER + INTRA:          -8.089
REMARK INTER:                  -6.673
REMARK INTRA:                  -1.416
REMARK UNBOUND:                -1.527
REMARK SMILES CCCCCCCCCCCC(=O)[O-]
REMARK SMILES IDX 7 1 8 2 9 3 10 4 11 5 12 6 13 7 14 8 6 9 5 10 4 11 3 12 2 13
REMARK SMILES IDX 1 14
REMARK H PARENT
REMARK Flexibility Score: inf
ROOT
ATOM      1  C   UNL     1      61.326  28.913  13.426  1.00  0.00     0.000 C 
ENDROOT
BRANCH   1   2
ATOM      2  C   UNL     1      62.690  28.996  12.718  1.00  0.00     0.000 C 
BRANCH   2   3
ATOM      3  C   UNL     1      63.605  30.075  13.319  1.00  0.00     0.000 C 
BRANCH   3   4
ATOM      4  C   UNL     1      63.258  31.488  12.817  1.00  0.00     0.006 C 
BRANCH   4   5
ATOM      5  C   UNL     1      62.654  32.362  13.924  1.00  0.00     0.053 C 
BRANCH   5   6
ATOM      6  C   UNL     1      61.180  32.554  13.741  1.00  0.00     0.041 C 
ATOM      7  O   UNL     1      60.727  32.981  12.646  1.00  0.00    -0.550 OA
ATOM      8  O   UNL     1      60.308  32.288  14.789  1.00  0.00    -0.550 OA
ENDBRANCH   5   6
ENDBRANCH   4   5
ENDBRANCH   3   4
ENDBRANCH   2   3
ENDBRANCH   1   2
BRANCH   1   9
ATOM      9  C   UNL     1      60.144  29.053  12.453  1.00  0.00     0.000 C 
BRANCH   9  10
ATOM     10  C   UNL     1      60.532  29.777  11.153  1.00  0.00    -0.000 C 
BRANCH  10  11
ATOM     11  C   UNL     1      60.285  28.918   9.902  1.00  0.00    -0.000 C 
BRANCH  11  12
ATOM     12  C   UNL     1      61.587  28.546   9.171  1.00  0.00    -0.000 C 
BRANCH  12  13
ATOM     13  C   UNL     1      62.576  29.720   9.098  1.00  0.00    -0.003 C 
ATOM     14  C   UNL     1      64.032  29.271   9.223  1.00  0.00     0.004 C 
ENDBRANCH  12  13
ENDBRANCH  11  12
ENDBRANCH  10  11
ENDBRANCH   9  10
ENDBRANCH   1   9
TORSDOF 10
ENDMDL
