MODEL 1
REMARK VINA RESULT:    -3.942      0.000      0.000
REMARK INTER + INTRA:          -8.536
REMARK INTER:                  -7.169
REMARK INTRA:                  -1.367
REMARK UNBOUND:                -1.367
REMARK SMILES CCCCCCCCCCCCCCCC(=O)[O-]
REMARK SMILES IDX 9 1 10 2 11 3 12 4 13 5 14 6 15 7 16 8 17 9 18 10 8 11 7 12
REMARK SMILES IDX 6 13 5 14 4 15 3 16 2 17 1 18
REMARK H PARENT
REMARK Flexibility Score: inf
ROOT
ATOM      1  C   UNL     1       4.138   8.030   8.655  1.00  0.00     0.000 C 
ENDROOT
BRANCH   1   2
ATOM      2  C   UNL     1       3.746   9.491   8.944  1.00  0.00     0.000 C 
BRANCH   2   3
ATOM      3  C   UNL     1       4.798  10.545   8.543  1.00  0.00     0.000 C 
BRANCH   3   4
ATOM      4  C   UNL     1       5.407  10.315   7.144  1.00  0.00     0.000 C 
BRANCH   4   5
ATOM      5  C   UNL     1       4.895  11.328   6.106  1.00  0.00     0.000 C 
BRANCH   5   6
ATOM      6  C   UNL     1       4.039  12.439   6.736  1.00  0.00     0.006 C 
BRANCH   6   7
ATOM      7  C   UNL     1       4.649  13.833   6.543  1.00  0.00     0.053 C 
BRANCH   7   8
ATOM      8  C   UNL     1       5.549  14.172   7.690  1.00  0.00     0.041 C 
ATOM      9  O   UNL     1       5.106  14.823   8.672  1.00  0.00    -0.550 OA
ATOM     10  O   UNL     1       6.890  13.813   7.650  1.00  0.00    -0.550 OA
ENDBRANCH   7   8
ENDBRANCH   6   7
ENDBRANCH   5   6
ENDBRANCH   4   5
ENDBRANCH   3   4
ENDBRANCH   2   3
ENDBRANCH   1   2
BRANCH   1  11
ATOM     11  C   UNL     1       4.258   7.127   9.897  1.00  0.00     0.000 C 
BRANCH  11  12
ATOM     12  C   UNL     1       5.628   6.435  10.002  1.00  0.00    -0.000 C 
BRANCH  12  13
ATOM     13  C   UNL     1       5.524   4.898  10.001  1.00  0.00    -0.000 C 
BRANCH  13  14
ATOM     14  C   UNL     1       5.894   4.215   8.672  1.00  0.00    -0.000 C 
BRANCH  14  15
ATOM     15  C   UNL     1       4.782   3.302   8.135  1.00  0.00    -0.000 C 
BRANCH  15  16
ATOM     16  C   UNL     1       3.497   3.459   8.956  1.00  0.00    -0.000 C 
BRANCH  16  17
ATOM     17  C   UNL     1       2.448   4.270   8.186  1.00  0.00    -0.003 C 
ATOM     18  C   UNL     1       2.705   4.218   6.683  1.00  0.00     0.004 C 
ENDBRANCH  16  17
ENDBRANCH  15  16
ENDBRANCH  14  15
ENDBRANCH  13  14
ENDBRANCH  12  13
ENDBRANCH  11  12
ENDBRANCH   1  11
TORSDOF 14
ENDMDL
MODEL 2
REMARK VINA RESULT:    -3.759     15.298     18.029
REMARK INTER + INTRA:          -8.202
REMARK INTER:                  -7.102
REMARK INTRA:                  -1.101
REMARK UNBOUND:                -1.367
REMARK SMILES CCCCCCCCCCCCCCCC(=O)[O-]
REMARK SMILES IDX 9 1 10 2 11 3 12 4 13 5 14 6 15 7 16 8 17 9 18 10 8 11 7 12
REMARK SMILES IDX 6 13 5 14 4 15 3 16 2 17 1 18
REMARK H PARENT
REMARK Flexibility Score: inf
ROOT
ATOM      1  C   UNL     1       2.706   6.627  -9.817  1.00  0.00     0.000 C 
ENDROOT
BRANCH   1   2
ATOM      2  C   UNL     1       1.914   5.380  -9.381  1.00  0.00     0.000 C 
BRANCH   2   3
ATOM      3  C   UNL     1       2.643   4.036  -9.579  1.00  0.00     0.000 C 
BRANCH   3   4
ATOM      4  C   UNL     1       4.129   4.186  -9.968  1.00  0.00     0.000 C 
BRANCH   4   5
ATOM      5  C   UNL     1       5.022   3.127  -9.298  1.00  0.00     0.000 C 
BRANCH   5   6
ATOM      6  C   UNL     1       4.396   2.550  -8.019  1.00  0.00     0.006 C 
BRANCH   6   7
ATOM      7  C   UNL     1       4.877   1.124  -7.720  1.00  0.00     0.053 C 
BRANCH   7   8
ATOM      8  C   UNL     1       4.578   0.759  -6.300  1.00  0.00     0.041 C 
ATOM      9  O   UNL     1       3.555   0.081  -6.020  1.00  0.00    -0.550 OA
ATOM     10  O   UNL     1       5.404   1.212  -5.278  1.00  0.00    -0.550 OA
ENDBRANCH   7   8
ENDBRANCH   6   7
ENDBRANCH   5   6
ENDBRANCH   4   5
ENDBRANCH   3   4
ENDBRANCH   2   3
ENDBRANCH   1   2
BRANCH   1  11
ATOM     11  C   UNL     1       2.387   7.913  -9.031  1.00  0.00     0.000 C 
BRANCH  11  12
ATOM     12  C   UNL     1       3.555   8.377  -8.145  1.00  0.00    -0.000 C 
BRANCH  12  13
ATOM     13  C   UNL     1       4.714   7.363  -8.100  1.00  0.00    -0.000 C 
BRANCH  13  14
ATOM     14  C   UNL     1       5.996   7.862  -7.409  1.00  0.00    -0.000 C 
BRANCH  14  15
ATOM     15  C   UNL     1       6.111   9.393  -7.385  1.00  0.00    -0.000 C 
BRANCH  15  16
ATOM     16  C   UNL     1       7.453   9.835  -6.792  1.00  0.00    -0.000 C 
BRANCH  16  17
ATOM     17  C   UNL     1       8.089   8.708  -5.970  1.00  0.00    -0.003 C 
ATOM     18  C   UNL     1       7.968   8.980  -4.474  1.00  0.00     0.004 C 
ENDBRANCH  16  17
ENDBRANCH  15  16
ENDBRANCH  14  15
ENDBRANCH  13  14
ENDBRANCH  12  13
ENDBRANCH  11  12
ENDBRANCH   1  11
TORSDOF 14
ENDMDL
MODEL 3
REMARK VINA RESULT:    -3.759      4.435      8.924
REMARK INTER + INTRA:          -8.202
REMARK INTER:                  -7.621
REMARK INTRA:                  -0.581
REMARK UNBOUND:                -1.367
REMARK SMILES CCCCCCCCCCCCCCCC(=O)[O-]
REMARK SMILES IDX 9 1 10 2 11 3 12 4 13 5 14 6 15 7 16 8 17 9 18 10 8 11 7 12
REMARK SMILES IDX 6 13 5 14 4 15 3 16 2 17 1 18
REMARK H PARENT
REMARK Flexibility Score: inf
ROOT
ATOM      1  C   UNL     1       3.782   6.889   8.642  1.00  0.00     0.000 C 
ENDROOT
BRANCH   1   2
ATOM      2  C   UNL     1       4.472   5.566   9.020  1.00  0.00     0.000 C 
BRANCH   2   3
ATOM      3  C   UNL     1       4.195   4.385   8.069  1.00  0.00     0.000 C 
BRANCH   3   4
ATOM      4  C   UNL     1       5.086   3.152   8.330  1.00  0.00     0.000 C 
BRANCH   4   5
ATOM      5  C   UNL     1       6.582   3.460   8.152  1.00  0.00     0.000 C 
BRANCH   5   6
ATOM      6  C   UNL     1       7.230   2.624   7.037  1.00  0.00     0.006 C 
BRANCH   6   7
ATOM      7  C   UNL     1       7.637   3.472   5.826  1.00  0.00     0.053 C 
BRANCH   7   8
ATOM      8  C   UNL     1       8.236   2.608   4.761  1.00  0.00     0.041 C 
ATOM      9  O   UNL     1       8.639   3.118   3.683  1.00  0.00    -0.550 OA
ATOM     10  O   UNL     1       8.302   1.232   4.938  1.00  0.00    -0.550 OA
ENDBRANCH   7   8
ENDBRANCH   6   7
ENDBRANCH   5   6
ENDBRANCH   4   5
ENDBRANCH   3   4
ENDBRANCH   2   3
ENDBRANCH   1   2
BRANCH   1  11
ATOM     11  C   UNL     1       4.630   8.156   8.862  1.00  0.00     0.000 C 
BRANCH  11  12
ATOM     12  C   UNL     1       3.807   9.452   8.767  1.00  0.00    -0.000 C 
BRANCH  12  13
ATOM     13  C   UNL     1       4.592  10.617   8.136  1.00  0.00    -0.000 C 
BRANCH  13  14
ATOM     14  C   UNL     1       3.792  11.495   7.158  1.00  0.00    -0.000 C 
BRANCH  14  15
ATOM     15  C   UNL     1       4.684  12.381   6.276  1.00  0.00    -0.000 C 
BRANCH  15  16
ATOM     16  C   UNL     1       4.535  13.859   6.653  1.00  0.00    -0.000 C 
BRANCH  16  17
ATOM     17  C   UNL     1       5.891  14.475   7.016  1.00  0.00    -0.003 C 
ATOM     18  C   UNL     1       6.432  13.889   8.317  1.00  0.00     0.004 C 
ENDBRANCH  16  17
ENDBRANCH  15  16
ENDBRANCH  14  15
ENDBRANCH  13  14
ENDBRANCH  12  13
ENDBRANCH  11  12
ENDBRANCH   1  11
TORSDOF 14
ENDMDL
MODEL 4
REMARK VINA RESULT:    -3.746      1.622      2.628
REMARK INTER + INTRA:          -8.179
REMARK INTER:                  -7.477
REMARK INTRA:                  -0.702
REMARK UNBOUND:                -1.367
REMARK SMILES CCCCCCCCCCCCCCCC(=O)[O-]
REMARK SMILES IDX 9 1 10 2 11 3 12 4 13 5 14 6 15 7 16 8 17 9 18 10 8 11 7 12
REMARK SMILES IDX 6 13 5 14 4 15 3 16 2 17 1 18
REMARK H PARENT
REMARK Flexibility Score: inf
ROOT
ATOM      1  C   UNL     1       3.763   7.020   9.969  1.00  0.00     0.000 C 
ENDROOT
BRANCH   1   2
ATOM      2  C   UNL     1       4.115   8.517   9.874  1.00  0.00     0.000 C 
BRANCH   2   3
ATOM      3  C   UNL     1       4.124   9.100   8.448  1.00  0.00     0.000 C 
BRANCH   3   4
ATOM      4  C   UNL     1       4.539  10.586   8.385  1.00  0.00     0.000 C 
BRANCH   4   5
ATOM      5  C   UNL     1       3.789  11.360   7.288  1.00  0.00     0.000 C 
BRANCH   5   6
ATOM      6  C   UNL     1       4.736  11.977   6.247  1.00  0.00     0.006 C 
BRANCH   6   7
ATOM      7  C   UNL     1       4.718  13.510   6.269  1.00  0.00     0.053 C 
BRANCH   7   8
ATOM      8  C   UNL     1       5.512  14.025   7.428  1.00  0.00     0.041 C 
ATOM      9  O   UNL     1       4.951  14.701   8.330  1.00  0.00    -0.550 OA
ATOM     10  O   UNL     1       6.881  13.800   7.486  1.00  0.00    -0.550 OA
ENDBRANCH   7   8
ENDBRANCH   6   7
ENDBRANCH   5   6
ENDBRANCH   4   5
ENDBRANCH   3   4
ENDBRANCH   2   3
ENDBRANCH   1   2
BRANCH   1  11
ATOM     11  C   UNL     1       3.912   6.230   8.655  1.00  0.00     0.000 C 
BRANCH  11  12
ATOM     12  C   UNL     1       2.994   4.997   8.592  1.00  0.00    -0.000 C 
BRANCH  12  13
ATOM     13  C   UNL     1       3.458   3.956   7.556  1.00  0.00    -0.000 C 
BRANCH  13  14
ATOM     14  C   UNL     1       4.913   4.110   7.076  1.00  0.00    -0.000 C 
BRANCH  14  15
ATOM     15  C   UNL     1       5.915   3.319   7.931  1.00  0.00    -0.000 C 
BRANCH  15  16
ATOM     16  C   UNL     1       7.344   3.495   7.405  1.00  0.00    -0.000 C 
BRANCH  16  17
ATOM     17  C   UNL     1       7.569   2.668   6.134  1.00  0.00    -0.003 C 
ATOM     18  C   UNL     1       7.951   3.560   4.956  1.00  0.00     0.004 C 
ENDBRANCH  16  17
ENDBRANCH  15  16
ENDBRANCH  14  15
ENDBRANCH  13  14
ENDBRANCH  12  13
ENDBRANCH  11  12
ENDBRANCH   1  11
TORSDOF 14
ENDMDL
MODEL 5
REMARK VINA RESULT:    -3.715     15.719     17.117
REMARK INTER + INTRA:          -8.123
REMARK INTER:                  -6.732
REMARK INTRA:                  -1.391
REMARK UNBOUND:                -1.367
REMARK SMILES CCCCCCCCCCCCCCCC(=O)[O-]
REMARK SMILES IDX 9 1 10 2 11 3 12 4 13 5 14 6 15 7 16 8 17 9 18 10 8 11 7 12
REMARK SMILES IDX 6 13 5 14 4 15 3 16 2 17 1 18
REMARK H PARENT
REMARK Flexibility Score: inf
ROOT
ATOM      1  C   UNL     1       2.005   6.617  -9.387  1.00  0.00     0.000 C 
ENDROOT
BRANCH   1   2
ATOM      2  C   UNL     1       3.413   7.239  -9.431  1.00  0.00     0.000 C 
BRANCH   2   3
ATOM      3  C   UNL     1       3.799   8.078  -8.196  1.00  0.00     0.000 C 
BRANCH   3   4
ATOM      4  C   UNL     1       5.163   7.694  -7.584  1.00  0.00     0.000 C 
BRANCH   4   5
ATOM      5  C   UNL     1       5.940   6.695  -8.459  1.00  0.00     0.000 C 
BRANCH   5   6
ATOM      6  C   UNL     1       7.335   6.378  -7.898  1.00  0.00     0.006 C 
BRANCH   6   7
ATOM      7  C   UNL     1       7.675   4.885  -7.973  1.00  0.00     0.053 C 
BRANCH   7   8
ATOM      8  C   UNL     1       8.471   4.469  -6.776  1.00  0.00     0.041 C 
ATOM      9  O   UNL     1       9.590   4.999  -6.544  1.00  0.00    -0.550 OA
ATOM     10  O   UNL     1       8.001   3.461  -5.945  1.00  0.00    -0.550 OA
ENDBRANCH   7   8
ENDBRANCH   6   7
ENDBRANCH   5   6
ENDBRANCH   4   5
ENDBRANCH   3   4
ENDBRANCH   2   3
ENDBRANCH   1   2
BRANCH   1  11
ATOM     11  C   UNL     1       1.964   5.083  -9.526  1.00  0.00     0.000 C 
BRANCH  11  12
ATOM     12  C   UNL     1       3.348   4.470  -9.798  1.00  0.00    -0.000 C 
BRANCH  12  13
ATOM     13  C   UNL     1       3.946   3.768  -8.565  1.00  0.00    -0.000 C 
BRANCH  13  14
ATOM     14  C   UNL     1       4.539   2.371  -8.827  1.00  0.00    -0.000 C 
BRANCH  14  15
ATOM     15  C   UNL     1       5.389   1.850  -7.659  1.00  0.00    -0.000 C 
BRANCH  15  16
ATOM     16  C   UNL     1       4.532   1.640  -6.407  1.00  0.00    -0.000 C 
BRANCH  16  17
ATOM     17  C   UNL     1       3.999   0.203  -6.338  1.00  0.00    -0.003 C 
ATOM     18  C   UNL     1       4.659  -0.576  -5.204  1.00  0.00     0.004 C 
ENDBRANCH  16  17
ENDBRANCH  15  16
ENDBRANCH  14  15
ENDBRANCH  13  14
ENDBRANCH  12  13
ENDBRANCH  11  12
ENDBRANCH   1  11
TORSDOF 14
ENDMDL
MODEL 6
REMARK VINA RESULT:    -3.713     14.582     16.346
REMARK INTER + INTRA:          -8.119
REMARK INTER:                  -6.775
REMARK INTRA:                  -1.344
REMARK UNBOUND:                -1.367
REMARK SMILES CCCCCCCCCCCCCCCC(=O)[O-]
REMARK SMILES IDX 9 1 10 2 11 3 12 4 13 5 14 6 15 7 16 8 17 9 18 10 8 11 7 12
REMARK SMILES IDX 6 13 5 14 4 15 3 16 2 17 1 18
REMARK H PARENT
REMARK Flexibility Score: inf
ROOT
ATOM      1  C   UNL     1       1.949   7.100  -9.036  1.00  0.00     0.000 C 
ENDROOT
BRANCH   1   2
ATOM      2  C   UNL     1       3.004   8.091  -8.511  1.00  0.00     0.000 C 
BRANCH   2   3
ATOM      3  C   UNL     1       4.465   7.738  -8.855  1.00  0.00     0.000 C 
BRANCH   3   4
ATOM      4  C   UNL     1       5.321   7.364  -7.626  1.00  0.00     0.000 C 
BRANCH   4   5
ATOM      5  C   UNL     1       6.814   7.233  -7.969  1.00  0.00     0.000 C 
BRANCH   5   6
ATOM      6  C   UNL     1       7.725   7.813  -6.875  1.00  0.00     0.006 C 
BRANCH   6   7
ATOM      7  C   UNL     1       7.152   9.091  -6.249  1.00  0.00     0.053 C 
BRANCH   7   8
ATOM      8  C   UNL     1       7.896   9.438  -4.998  1.00  0.00     0.041 C 
ATOM      9  O   UNL     1       7.847   8.674  -3.998  1.00  0.00    -0.550 OA
ATOM     10  O   UNL     1       8.603  10.631  -4.918  1.00  0.00    -0.550 OA
ENDBRANCH   7   8
ENDBRANCH   6   7
ENDBRANCH   5   6
ENDBRANCH   4   5
ENDBRANCH   3   4
ENDBRANCH   2   3
ENDBRANCH   1   2
BRANCH   1  11
ATOM     11  C   UNL     1       2.492   5.999  -9.966  1.00  0.00     0.000 C 
BRANCH  11  12
ATOM     12  C   UNL     1       2.248   4.581  -9.420  1.00  0.00    -0.000 C 
BRANCH  12  13
ATOM     13  C   UNL     1       3.407   3.614  -9.727  1.00  0.00    -0.000 C 
BRANCH  13  14
ATOM     14  C   UNL     1       4.804   4.110  -9.315  1.00  0.00    -0.000 C 
BRANCH  14  15
ATOM     15  C   UNL     1       5.321   3.453  -8.027  1.00  0.00    -0.000 C 
BRANCH  15  16
ATOM     16  C   UNL     1       4.539   2.174  -7.711  1.00  0.00    -0.000 C 
BRANCH  16  17
ATOM     17  C   UNL     1       4.854   1.670  -6.298  1.00  0.00    -0.003 C 
ATOM     18  C   UNL     1       3.934   0.518  -5.904  1.00  0.00     0.004 C 
ENDBRANCH  16  17
ENDBRANCH  15  16
ENDBRANCH  14  15
ENDBRANCH  13  14
ENDBRANCH  12  13
ENDBRANCH  11  12
ENDBRANCH   1  11
TORSDOF 14
ENDMDL
MODEL 7
REMARK VINA RESULT:    -3.674      2.264      3.613
REMARK INTER + INTRA:          -8.047
REMARK INTER:                  -7.319
REMARK INTRA:                  -0.729
REMARK UNBOUND:                -1.367
REMARK SMILES CCCCCCCCCCCCCCCC(=O)[O-]
REMARK SMILES IDX 9 1 10 2 11 3 12 4 13 5 14 6 15 7 16 8 17 9 18 10 8 11 7 12
REMARK SMILES IDX 6 13 5 14 4 15 3 16 2 17 1 18
REMARK H PARENT
REMARK Flexibility Score: inf
ROOT
ATOM      1  C   UNL     1       2.956   5.136   9.457  1.00  0.00     0.000 C 
ENDROOT
BRANCH   1   2
ATOM      2  C   UNL     1       4.043   6.214   9.623  1.00  0.00     0.000 C 
BRANCH   2   3
ATOM      3  C   UNL     1       3.829   7.495   8.793  1.00  0.00     0.000 C 
BRANCH   3   4
ATOM      4  C   UNL     1       4.049   8.798   9.591  1.00  0.00     0.000 C 
BRANCH   4   5
ATOM      5  C   UNL     1       5.041   9.750   8.901  1.00  0.00     0.000 C 
BRANCH   5   6
ATOM      6  C   UNL     1       4.360  10.675   7.880  1.00  0.00     0.006 C 
BRANCH   6   7
ATOM      7  C   UNL     1       5.025  12.055   7.801  1.00  0.00     0.053 C 
BRANCH   7   8
ATOM      8  C   UNL     1       4.672  12.731   6.514  1.00  0.00     0.041 C 
ATOM      9  O   UNL     1       4.435  13.968   6.491  1.00  0.00    -0.550 OA
ATOM     10  O   UNL     1       4.556  11.986   5.347  1.00  0.00    -0.550 OA
ENDBRANCH   7   8
ENDBRANCH   6   7
ENDBRANCH   5   6
ENDBRANCH   4   5
ENDBRANCH   3   4
ENDBRANCH   2   3
ENDBRANCH   1   2
BRANCH   1  11
ATOM     11  C   UNL     1       2.725   4.657   8.011  1.00  0.00     0.000 C 
BRANCH  11  12
ATOM     12  C   UNL     1       3.988   4.054   7.372  1.00  0.00    -0.000 C 
BRANCH  12  13
ATOM     13  C   UNL     1       4.645   2.971   8.248  1.00  0.00    -0.000 C 
BRANCH  13  14
ATOM     14  C   UNL     1       6.169   3.104   8.425  1.00  0.00    -0.000 C 
BRANCH  14  15
ATOM     15  C   UNL     1       6.964   2.525   7.245  1.00  0.00    -0.000 C 
BRANCH  15  16
ATOM     16  C   UNL     1       7.882   3.585   6.627  1.00  0.00    -0.000 C 
BRANCH  16  17
ATOM     17  C   UNL     1       7.785   3.573   5.097  1.00  0.00    -0.003 C 
ATOM     18  C   UNL     1       8.656   2.473   4.498  1.00  0.00     0.004 C 
ENDBRANCH  16  17
ENDBRANCH  15  16
ENDBRANCH  14  15
ENDBRANCH  13  14
ENDBRANCH  12  13
ENDBRANCH  11  12
ENDBRANCH   1  11
TORSDOF 14
ENDMDL
MODEL 8
REMARK VINA RESULT:    -3.673     18.743     21.787
REMARK INTER + INTRA:          -8.046
REMARK INTER:                  -5.966
REMARK INTRA:                  -2.079
REMARK UNBOUND:                -1.367
REMARK SMILES CCCCCCCCCCCCCCCC(=O)[O-]
REMARK SMILES IDX 9 1 10 2 11 3 12 4 13 5 14 6 15 7 16 8 17 9 18 10 8 11 7 12
REMARK SMILES IDX 6 13 5 14 4 15 3 16 2 17 1 18
REMARK H PARENT
REMARK Flexibility Score: inf
ROOT
ATOM      1  C   UNL     1      -7.940  -1.054  -6.526  1.00  0.00     0.000 C 
ENDROOT
BRANCH   1   2
ATOM      2  C   UNL     1      -9.443  -1.351  -6.373  1.00  0.00     0.000 C 
BRANCH   2   3
ATOM      3  C   UNL     1      -9.835  -2.120  -5.096  1.00  0.00     0.000 C 
BRANCH   3   4
ATOM      4  C   UNL     1      -8.796  -2.008  -3.959  1.00  0.00     0.000 C 
BRANCH   4   5
ATOM      5  C   UNL     1      -8.374  -3.381  -3.411  1.00  0.00     0.000 C 
BRANCH   5   6
ATOM      6  C   UNL     1      -8.558  -4.510  -4.438  1.00  0.00     0.006 C 
BRANCH   6   7
ATOM      7  C   UNL     1      -7.236  -4.934  -5.089  1.00  0.00     0.053 C 
BRANCH   7   8
ATOM      8  C   UNL     1      -7.284  -4.705  -6.567  1.00  0.00     0.041 C 
ATOM      9  O   UNL     1      -8.390  -4.681  -7.169  1.00  0.00    -0.550 OA
ATOM     10  O   UNL     1      -6.104  -4.569  -7.288  1.00  0.00    -0.550 OA
ENDBRANCH   7   8
ENDBRANCH   6   7
ENDBRANCH   5   6
ENDBRANCH   4   5
ENDBRANCH   3   4
ENDBRANCH   2   3
ENDBRANCH   1   2
BRANCH   1  11
ATOM     11  C   UNL     1      -7.595   0.402  -6.888  1.00  0.00     0.000 C 
BRANCH  11  12
ATOM     12  C   UNL     1      -6.311   0.901  -6.202  1.00  0.00    -0.000 C 
BRANCH  12  13
ATOM     13  C   UNL     1      -6.583   1.961  -5.118  1.00  0.00    -0.000 C 
BRANCH  13  14
ATOM     14  C   UNL     1      -7.962   1.868  -4.440  1.00  0.00    -0.000 C 
BRANCH  14  15
ATOM     15  C   UNL     1      -7.877   1.510  -2.949  1.00  0.00    -0.000 C 
BRANCH  15  16
ATOM     16  C   UNL     1      -6.571   0.771  -2.636  1.00  0.00    -0.000 C 
BRANCH  16  17
ATOM     17  C   UNL     1      -6.778  -0.264  -1.523  1.00  0.00    -0.003 C 
ATOM     18  C   UNL     1      -7.991   0.082  -0.666  1.00  0.00     0.004 C 
ENDBRANCH  16  17
ENDBRANCH  15  16
ENDBRANCH  14  15
ENDBRANCH  13  14
ENDBRANCH  12  13
ENDBRANCH  11  12
ENDBRANCH   1  11
TORSDOF 14
ENDMDL
MODEL 9
REMARK VINA RESULT:    -3.600     17.801     20.479
REMARK INTER + INTRA:          -7.912
REMARK INTER:                  -5.846
REMARK INTRA:                  -2.067
REMARK UNBOUND:                -1.367
REMARK SMILES CCCCCCCCCCCCCCCC(=O)[O-]
REMARK SMILES IDX 9 1 10 2 11 3 12 4 13 5 14 6 15 7 16 8 17 9 18 10 8 11 7 12
REMARK SMILES IDX 6 13 5 14 4 15 3 16 2 17 1 18
REMARK H PARENT
REMARK Flexibility Score: inf
ROOT
ATOM      1  C   UNL     1      -7.329   0.275  -6.646  1.00  0.00     0.000 C 
ENDROOT
BRANCH   1   2
ATOM      2  C   UNL     1      -8.291   1.437  -6.956  1.00  0.00     0.000 C 
BRANCH   2   3
ATOM      3  C   UNL     1      -7.852   2.814  -6.421  1.00  0.00     0.000 C 
BRANCH   3   4
ATOM      4  C   UNL     1      -7.528   2.821  -4.911  1.00  0.00     0.000 C 
BRANCH   4   5
ATOM      5  C   UNL     1      -8.749   2.464  -4.047  1.00  0.00     0.000 C 
BRANCH   5   6
ATOM      6  C   UNL     1      -8.357   1.849  -2.694  1.00  0.00     0.006 C 
BRANCH   6   7
ATOM      7  C   UNL     1      -7.204   0.844  -2.817  1.00  0.00     0.053 C 
BRANCH   7   8
ATOM      8  C   UNL     1      -6.975   0.150  -1.511  1.00  0.00     0.041 C 
ATOM      9  O   UNL     1      -6.702  -1.079  -1.484  1.00  0.00    -0.550 OA
ATOM     10  O   UNL     1      -7.113   0.850  -0.319  1.00  0.00    -0.550 OA
ENDBRANCH   7   8
ENDBRANCH   6   7
ENDBRANCH   5   6
ENDBRANCH   4   5
ENDBRANCH   3   4
ENDBRANCH   2   3
ENDBRANCH   1   2
BRANCH   1  11
ATOM     11  C   UNL     1      -8.008  -1.034  -6.200  1.00  0.00     0.000 C 
BRANCH  11  12
ATOM     12  C   UNL     1      -9.375  -0.803  -5.534  1.00  0.00    -0.000 C 
BRANCH  12  13
ATOM     13  C   UNL     1      -9.545  -1.593  -4.223  1.00  0.00    -0.000 C 
BRANCH  13  14
ATOM     14  C   UNL     1      -9.376  -3.118  -4.349  1.00  0.00    -0.000 C 
BRANCH  14  15
ATOM     15  C   UNL     1      -8.235  -3.671  -3.483  1.00  0.00    -0.000 C 
BRANCH  15  16
ATOM     16  C   UNL     1      -7.513  -4.821  -4.194  1.00  0.00    -0.000 C 
BRANCH  16  17
ATOM     17  C   UNL     1      -7.936  -4.911  -5.665  1.00  0.00    -0.003 C 
ATOM     18  C   UNL     1      -6.751  -4.674  -6.595  1.00  0.00     0.004 C 
ENDBRANCH  16  17
ENDBRANCH  15  16
ENDBRANCH  14  15
ENDBRANCH  13  14
ENDBRANCH  12  13
ENDBRANCH  11  12
ENDBRANCH   1  11
TORSDOF 14
ENDMDL
