MODEL 1
REMARK VINA RESULT:    75.237      0.000      0.000
REMARK INTER + INTRA:          98.586
REMARK INTER:                  99.428
REMARK INTRA:                  -0.842
REMARK UNBOUND:                -0.842
REMARK SMILES CC[C@@H](C=C[C@H](C)[C@@H]1CC[C@H]2C3=CC[C@H]4C[C@H](O)CC[C@@]4(C)[C@H]3CC[C@]21C)C(C)C
REMARK SMILES IDX 6 1 7 2 5 3 4 4 3 5 2 6 1 7 28 8 29 9 30 10 8 11 9 12 26 13
REMARK SMILES IDX 10 14 11 15 25 16 27 17 12 18 24 19 23 20 13 21 21 22 14 23
REMARK SMILES IDX 15 24 20 25 22 26 16 27 19 28 17 29 18 30
REMARK H PARENT 18 31
REMARK Flexibility Score: inf
ROOT
ATOM      1  C   UNL     1      77.938   3.374  62.750  1.00  0.00     0.012 C 
ATOM      2  C   UNL     1      76.888   4.086  61.875  1.00  0.00     0.012 C 
ENDROOT
BRANCH   1   3
ATOM      3  C   UNL     1      78.652   4.377  63.639  1.00  0.00    -0.028 C 
ATOM      4  C   UNL     1      78.377   5.693  63.584  1.00  0.00    -0.027 C 
BRANCH   4   5
ATOM      5  C   UNL     1      78.802   6.717  64.630  1.00  0.00     0.014 C 
BRANCH   5   6
ATOM      6  C   UNL     1      77.789   7.867  64.892  1.00  0.00     0.004 C 
ATOM      7  C   UNL     1      77.786   8.346  66.344  1.00  0.00     0.004 C 
ENDBRANCH   5   6
BRANCH   5   8
ATOM      8  C   UNL     1      80.239   7.227  64.303  1.00  0.00    -0.011 C 
ATOM      9  C   UNL     1      80.436   7.502  62.803  1.00  0.00     0.008 C 
ATOM     10  C   UNL     1      81.348   6.297  64.823  1.00  0.00     0.008 C 
ENDBRANCH   5   8
ENDBRANCH   4   5
ENDBRANCH   1   3
BRANCH   1  11
ATOM     11  C   UNL     1      77.444   2.073  63.493  1.00  0.00     0.002 C 
ATOM     12  C   UNL     1      77.016   2.394  64.934  1.00  0.00     0.005 C 
ATOM     13  C   UNL     1      78.401   0.840  63.654  1.00  0.00    -0.023 C 
ATOM     14  C   UNL     1      78.163   1.965  65.847  1.00  0.00     0.009 C 
ATOM     15  C   UNL     1      79.129   1.129  64.996  1.00  0.00     0.021 C 
ATOM     16  C   UNL     1      77.553  -0.495  63.697  1.00  0.00     0.008 C 
ATOM     17  C   UNL     1      79.427   0.686  62.510  1.00  0.00     0.012 C 
ATOM     18  C   UNL     1      79.615  -0.106  65.744  1.00  0.00    -0.067 C 
ATOM     19  C   UNL     1      77.446  -1.156  65.074  1.00  0.00     0.009 C 
ATOM     20  C   UNL     1      78.850  -1.409  65.662  1.00  0.00     0.021 C 
ATOM     21  C   UNL     1      80.723  -0.015  66.498  1.00  0.00    -0.027 C 
ATOM     22  C   UNL     1      78.859  -2.196  67.023  1.00  0.00    -0.023 C 
ATOM     23  C   UNL     1      81.226  -1.115  67.391  1.00  0.00     0.031 C 
ATOM     24  C   UNL     1      80.352  -2.403  67.456  1.00  0.00     0.002 C 
ATOM     25  C   UNL     1      78.091  -1.429  68.141  1.00  0.00     0.010 C 
ATOM     26  C   UNL     1      78.191  -3.584  66.788  1.00  0.00     0.012 C 
ATOM     27  C   UNL     1      80.480  -3.054  68.859  1.00  0.00     0.036 C 
ATOM     28  C   UNL     1      78.190  -2.122  69.509  1.00  0.00     0.032 C 
ATOM     29  C   UNL     1      79.652  -2.322  69.938  1.00  0.00     0.114 C 
BRANCH  29  30
ATOM     30  O   UNL     1      79.715  -3.016  71.159  1.00  0.00    -0.393 OA
ATOM     31  H   UNL     1      80.014  -2.375  71.857  1.00  0.00     0.210 HD
ENDBRANCH  29  30
ENDBRANCH   1  11
TORSDOF 6
ENDMDL
