MODEL 1
REMARK VINA RESULT:    -3.275      0.000      0.000
REMARK INTER + INTRA:         -14.493
REMARK INTER:                  -8.635
REMARK INTRA:                  -5.859
REMARK UNBOUND:                -5.859
REMARK SMILES CCCCCCCCCCCCCCCCCCCCCCCCCCCCCC(=O)[O-]
REMARK SMILES IDX 16 1 17 2 18 3 19 4 20 5 21 6 22 7 23 8 24 9 25 10 26 11
REMARK SMILES IDX 27 12 28 13 29 14 30 15 31 16 32 17 15 18 14 19 13 20 12 21
REMARK SMILES IDX 11 22 10 23 9 24 8 25 7 26 6 27 5 28 4 29 3 30 2 31 1 32
REMARK H PARENT
REMARK Flexibility Score: inf
ROOT
ATOM      1  C   UNL     1     169.059 169.141 151.021  1.00  0.00     0.000 C 
ENDROOT
BRANCH   1   2
ATOM      2  C   UNL     1     168.344 170.503 150.979  1.00  0.00     0.000 C 
BRANCH   2   3
ATOM      3  C   UNL     1     166.933 170.457 151.582  1.00  0.00     0.000 C 
BRANCH   3   4
ATOM      4  C   UNL     1     166.177 169.191 151.153  1.00  0.00     0.000 C 
BRANCH   4   5
ATOM      5  C   UNL     1     165.608 168.421 152.363  1.00  0.00     0.000 C 
BRANCH   5   6
ATOM      6  C   UNL     1     165.165 169.332 153.521  1.00  0.00     0.000 C 
BRANCH   6   7
ATOM      7  C   UNL     1     164.388 168.580 154.612  1.00  0.00     0.000 C 
BRANCH   7   8
ATOM      8  C   UNL     1     163.726 167.292 154.095  1.00  0.00     0.000 C 
BRANCH   8   9
ATOM      9  C   UNL     1     162.397 166.983 154.802  1.00  0.00     0.000 C 
BRANCH   9  10
ATOM     10  C   UNL     1     161.301 168.017 154.495  1.00  0.00     0.000 C 
BRANCH  10  11
ATOM     11  C   UNL     1     160.314 167.563 153.399  1.00  0.00     0.000 C 
BRANCH  11  12
ATOM     12  C   UNL     1     160.218 168.580 152.252  1.00  0.00     0.000 C 
BRANCH  12  13
ATOM     13  C   UNL     1     161.496 169.420 152.148  1.00  0.00     0.006 C 
BRANCH  13  14
ATOM     14  C   UNL     1     162.163 169.239 150.781  1.00  0.00     0.053 C 
BRANCH  14  15
ATOM     15  C   UNL     1     162.824 170.507 150.342  1.00  0.00     0.041 C 
ATOM     16  O   UNL     1     163.303 171.301 151.193  1.00  0.00    -0.550 OA
ATOM     17  O   UNL     1     162.880 170.831 148.993  1.00  0.00    -0.550 OA
ENDBRANCH  14  15
ENDBRANCH  13  14
ENDBRANCH  12  13
ENDBRANCH  11  12
ENDBRANCH  10  11
ENDBRANCH   9  10
ENDBRANCH   8   9
ENDBRANCH   7   8
ENDBRANCH   6   7
ENDBRANCH   5   6
ENDBRANCH   4   5
ENDBRANCH   3   4
ENDBRANCH   2   3
ENDBRANCH   1   2
BRANCH   1  18
ATOM     18  C   UNL     1     170.515 169.213 151.526  1.00  0.00     0.000 C 
BRANCH  18  19
ATOM     19  C   UNL     1     171.355 170.242 150.751  1.00  0.00     0.000 C 
BRANCH  19  20
ATOM     20  C   UNL     1     172.268 171.029 151.700  1.00  0.00     0.000 C 
BRANCH  20  21
ATOM     21  C   UNL     1     171.995 172.544 151.664  1.00  0.00     0.000 C 
BRANCH  21  22
ATOM     22  C   UNL     1     171.437 173.136 152.972  1.00  0.00     0.000 C 
BRANCH  22  23
ATOM     23  C   UNL     1     169.901 173.119 153.109  1.00  0.00     0.000 C 
BRANCH  23  24
ATOM     24  C   UNL     1     169.364 172.048 154.084  1.00  0.00    -0.000 C 
BRANCH  24  25
ATOM     25  C   UNL     1     170.488 171.348 154.869  1.00  0.00    -0.000 C 
BRANCH  25  26
ATOM     26  C   UNL     1     170.124 169.913 155.292  1.00  0.00    -0.000 C 
BRANCH  26  27
ATOM     27  C   UNL     1     168.680 169.481 154.968  1.00  0.00    -0.000 C 
BRANCH  27  28
ATOM     28  C   UNL     1     168.511 168.003 154.566  1.00  0.00    -0.000 C 
BRANCH  28  29
ATOM     29  C   UNL     1     167.788 167.124 155.605  1.00  0.00    -0.000 C 
BRANCH  29  30
ATOM     30  C   UNL     1     167.025 165.920 155.019  1.00  0.00    -0.000 C 
BRANCH  30  31
ATOM     31  C   UNL     1     166.093 165.200 156.009  1.00  0.00    -0.003 C 
ATOM     32  C   UNL     1     165.723 166.064 157.217  1.00  0.00     0.004 C 
ENDBRANCH  30  31
ENDBRANCH  29  30
ENDBRANCH  28  29
ENDBRANCH  27  28
ENDBRANCH  26  27
ENDBRANCH  25  26
ENDBRANCH  24  25
ENDBRANCH  23  24
ENDBRANCH  22  23
ENDBRANCH  21  22
ENDBRANCH  20  21
ENDBRANCH  19  20
ENDBRANCH  18  19
ENDBRANCH   1  18
TORSDOF 28
ENDMDL
MODEL 2
REMARK VINA RESULT:    -3.231      2.466      7.610
REMARK INTER + INTRA:         -14.380
REMARK INTER:                  -8.273
REMARK INTRA:                  -6.107
REMARK UNBOUND:                -5.859
REMARK SMILES CCCCCCCCCCCCCCCCCCCCCCCCCCCCCC(=O)[O-]
REMARK SMILES IDX 16 1 17 2 18 3 19 4 20 5 21 6 22 7 23 8 24 9 25 10 26 11
REMARK SMILES IDX 27 12 28 13 29 14 30 15 31 16 32 17 15 18 14 19 13 20 12 21
REMARK SMILES IDX 11 22 10 23 9 24 8 25 7 26 6 27 5 28 4 29 3 30 2 31 1 32
REMARK H PARENT
REMARK Flexibility Score: inf
ROOT
ATOM      1  C   UNL     1     168.860 172.117 153.750  1.00  0.00     0.000 C 
ENDROOT
BRANCH   1   2
ATOM      2  C   UNL     1     169.495 173.469 153.380  1.00  0.00     0.000 C 
BRANCH   2   3
ATOM      3  C   UNL     1     170.989 173.357 153.045  1.00  0.00     0.000 C 
BRANCH   3   4
ATOM      4  C   UNL     1     171.644 172.177 153.777  1.00  0.00     0.000 C 
BRANCH   4   5
ATOM      5  C   UNL     1     172.340 171.205 152.800  1.00  0.00     0.000 C 
BRANCH   5   6
ATOM      6  C   UNL     1     171.886 171.371 151.340  1.00  0.00     0.000 C 
BRANCH   6   7
ATOM      7  C   UNL     1     171.385 170.059 150.715  1.00  0.00     0.000 C 
BRANCH   7   8
ATOM      8  C   UNL     1     169.853 169.945 150.714  1.00  0.00     0.000 C 
BRANCH   8   9
ATOM      9  C   UNL     1     169.348 168.720 151.495  1.00  0.00     0.000 C 
BRANCH   9  10
ATOM     10  C   UNL     1     170.489 167.885 152.100  1.00  0.00     0.000 C 
BRANCH  10  11
ATOM     11  C   UNL     1     170.315 167.603 153.607  1.00  0.00     0.000 C 
BRANCH  11  12
ATOM     12  C   UNL     1     170.043 168.885 154.407  1.00  0.00     0.000 C 
BRANCH  12  13
ATOM     13  C   UNL     1     168.889 168.688 155.397  1.00  0.00     0.006 C 
BRANCH  13  14
ATOM     14  C   UNL     1     167.881 167.664 154.867  1.00  0.00     0.053 C 
BRANCH  14  15
ATOM     15  C   UNL     1     167.602 166.614 155.896  1.00  0.00     0.041 C 
ATOM     16  O   UNL     1     166.448 166.124 156.007  1.00  0.00    -0.550 OA
ATOM     17  O   UNL     1     168.610 166.201 156.758  1.00  0.00    -0.550 OA
ENDBRANCH  14  15
ENDBRANCH  13  14
ENDBRANCH  12  13
ENDBRANCH  11  12
ENDBRANCH  10  11
ENDBRANCH   9  10
ENDBRANCH   8   9
ENDBRANCH   7   8
ENDBRANCH   6   7
ENDBRANCH   5   6
ENDBRANCH   4   5
ENDBRANCH   3   4
ENDBRANCH   2   3
ENDBRANCH   1   2
BRANCH   1  18
ATOM     18  C   UNL     1     167.706 171.692 152.819  1.00  0.00     0.000 C 
BRANCH  18  19
ATOM     19  C   UNL     1     166.604 170.922 153.565  1.00  0.00     0.000 C 
BRANCH  19  20
ATOM     20  C   UNL     1     165.424 170.616 152.634  1.00  0.00     0.000 C 
BRANCH  20  21
ATOM     21  C   UNL     1     165.858 170.437 151.167  1.00  0.00     0.000 C 
BRANCH  21  22
ATOM     22  C   UNL     1     165.662 169.018 150.600  1.00  0.00     0.000 C 
BRANCH  22  23
ATOM     23  C   UNL     1     165.844 167.866 151.609  1.00  0.00     0.000 C 
BRANCH  23  24
ATOM     24  C   UNL     1     164.537 167.127 151.969  1.00  0.00    -0.000 C 
BRANCH  24  25
ATOM     25  C   UNL     1     164.229 167.171 153.476  1.00  0.00    -0.000 C 
BRANCH  25  26
ATOM     26  C   UNL     1     162.751 167.478 153.781  1.00  0.00    -0.000 C 
BRANCH  26  27
ATOM     27  C   UNL     1     162.410 168.974 153.924  1.00  0.00    -0.000 C 
BRANCH  27  28
ATOM     28  C   UNL     1     161.445 169.532 152.859  1.00  0.00    -0.000 C 
BRANCH  28  29
ATOM     29  C   UNL     1     162.096 169.869 151.503  1.00  0.00    -0.000 C 
BRANCH  29  30
ATOM     30  C   UNL     1     161.683 168.949 150.338  1.00  0.00    -0.000 C 
BRANCH  30  31
ATOM     31  C   UNL     1     162.337 169.282 148.987  1.00  0.00    -0.003 C 
ATOM     32  C   UNL     1     162.805 170.737 148.892  1.00  0.00     0.004 C 
ENDBRANCH  30  31
ENDBRANCH  29  30
ENDBRANCH  28  29
ENDBRANCH  27  28
ENDBRANCH  26  27
ENDBRANCH  25  26
ENDBRANCH  24  25
ENDBRANCH  23  24
ENDBRANCH  22  23
ENDBRANCH  21  22
ENDBRANCH  20  21
ENDBRANCH  19  20
ENDBRANCH  18  19
ENDBRANCH   1  18
TORSDOF 28
ENDMDL
MODEL 3
REMARK VINA RESULT:    -3.221      2.221      3.915
REMARK INTER + INTRA:         -14.351
REMARK INTER:                  -8.810
REMARK INTRA:                  -5.542
REMARK UNBOUND:                -5.859
REMARK SMILES CCCCCCCCCCCCCCCCCCCCCCCCCCCCCC(=O)[O-]
REMARK SMILES IDX 16 1 17 2 18 3 19 4 20 5 21 6 22 7 23 8 24 9 25 10 26 11
REMARK SMILES IDX 27 12 28 13 29 14 30 15 31 16 32 17 15 18 14 19 13 20 12 21
REMARK SMILES IDX 11 22 10 23 9 24 8 25 7 26 6 27 5 28 4 29 3 30 2 31 1 32
REMARK H PARENT
REMARK Flexibility Score: inf
ROOT
ATOM      1  C   UNL     1     168.263 171.755 153.170  1.00  0.00     0.000 C 
ENDROOT
BRANCH   1   2
ATOM      2  C   UNL     1     166.887 171.115 152.913  1.00  0.00     0.000 C 
BRANCH   2   3
ATOM      3  C   UNL     1     166.737 170.573 151.485  1.00  0.00     0.000 C 
BRANCH   3   4
ATOM      4  C   UNL     1     165.381 169.883 151.282  1.00  0.00     0.000 C 
BRANCH   4   5
ATOM      5  C   UNL     1     164.254 170.579 152.075  1.00  0.00     0.000 C 
BRANCH   5   6
ATOM      6  C   UNL     1     163.188 171.236 151.181  1.00  0.00     0.000 C 
BRANCH   6   7
ATOM      7  C   UNL     1     163.582 171.261 149.696  1.00  0.00     0.000 C 
BRANCH   7   8
ATOM      8  C   UNL     1     162.616 170.462 148.808  1.00  0.00     0.000 C 
BRANCH   8   9
ATOM      9  C   UNL     1     163.047 168.997 148.630  1.00  0.00     0.000 C 
BRANCH   9  10
ATOM     10  C   UNL     1     162.284 168.033 149.553  1.00  0.00     0.000 C 
BRANCH  10  11
ATOM     11  C   UNL     1     160.893 168.550 149.973  1.00  0.00     0.000 C 
BRANCH  11  12
ATOM     12  C   UNL     1     160.757 168.670 151.498  1.00  0.00     0.000 C 
BRANCH  12  13
ATOM     13  C   UNL     1     161.584 167.596 152.214  1.00  0.00     0.006 C 
BRANCH  13  14
ATOM     14  C   UNL     1     162.124 168.118 153.549  1.00  0.00     0.053 C 
BRANCH  14  15
ATOM     15  C   UNL     1     161.545 167.345 154.692  1.00  0.00     0.041 C 
ATOM     16  O   UNL     1     160.344 167.514 155.029  1.00  0.00    -0.550 OA
ATOM     17  O   UNL     1     162.342 166.462 155.408  1.00  0.00    -0.550 OA
ENDBRANCH  14  15
ENDBRANCH  13  14
ENDBRANCH  12  13
ENDBRANCH  11  12
ENDBRANCH  10  11
ENDBRANCH   9  10
ENDBRANCH   8   9
ENDBRANCH   7   8
ENDBRANCH   6   7
ENDBRANCH   5   6
ENDBRANCH   4   5
ENDBRANCH   3   4
ENDBRANCH   2   3
ENDBRANCH   1   2
BRANCH   1  18
ATOM     18  C   UNL     1     169.100 171.030 154.244  1.00  0.00     0.000 C 
BRANCH  18  19
ATOM     19  C   UNL     1     170.504 171.636 154.403  1.00  0.00     0.000 C 
BRANCH  19  20
ATOM     20  C   UNL     1     170.542 173.075 153.874  1.00  0.00     0.000 C 
BRANCH  20  21
ATOM     21  C   UNL     1     171.527 173.250 152.702  1.00  0.00     0.000 C 
BRANCH  21  22
ATOM     22  C   UNL     1     171.934 171.944 151.995  1.00  0.00     0.000 C 
BRANCH  22  23
ATOM     23  C   UNL     1     171.325 171.727 150.594  1.00  0.00     0.000 C 
BRANCH  23  24
ATOM     24  C   UNL     1     170.309 170.568 150.519  1.00  0.00    -0.000 C 
BRANCH  24  25
ATOM     25  C   UNL     1     170.914 169.223 150.958  1.00  0.00    -0.000 C 
BRANCH  25  26
ATOM     26  C   UNL     1     169.974 168.407 151.865  1.00  0.00    -0.000 C 
BRANCH  26  27
ATOM     27  C   UNL     1     168.901 167.584 151.125  1.00  0.00    -0.000 C 
BRANCH  27  28
ATOM     28  C   UNL     1     167.889 166.857 152.032  1.00  0.00    -0.000 C 
BRANCH  28  29
ATOM     29  C   UNL     1     167.648 167.520 153.402  1.00  0.00    -0.000 C 
BRANCH  29  30
ATOM     30  C   UNL     1     166.184 167.510 153.880  1.00  0.00    -0.000 C 
BRANCH  30  31
ATOM     31  C   UNL     1     166.000 167.560 155.406  1.00  0.00    -0.003 C 
ATOM     32  C   UNL     1     166.355 168.922 156.006  1.00  0.00     0.004 C 
ENDBRANCH  30  31
ENDBRANCH  29  30
ENDBRANCH  28  29
ENDBRANCH  27  28
ENDBRANCH  26  27
ENDBRANCH  25  26
ENDBRANCH  24  25
ENDBRANCH  23  24
ENDBRANCH  22  23
ENDBRANCH  21  22
ENDBRANCH  20  21
ENDBRANCH  19  20
ENDBRANCH  18  19
ENDBRANCH   1  18
TORSDOF 28
ENDMDL
MODEL 4
REMARK VINA RESULT:    -3.218      3.127      7.534
REMARK INTER + INTRA:         -14.344
REMARK INTER:                  -7.920
REMARK INTRA:                  -6.424
REMARK UNBOUND:                -5.859
REMARK SMILES CCCCCCCCCCCCCCCCCCCCCCCCCCCCCC(=O)[O-]
REMARK SMILES IDX 16 1 17 2 18 3 19 4 20 5 21 6 22 7 23 8 24 9 25 10 26 11
REMARK SMILES IDX 27 12 28 13 29 14 30 15 31 16 32 17 15 18 14 19 13 20 12 21
REMARK SMILES IDX 11 22 10 23 9 24 8 25 7 26 6 27 5 28 4 29 3 30 2 31 1 32
REMARK H PARENT
REMARK Flexibility Score: inf
ROOT
ATOM      1  C   UNL     1     168.721 170.791 154.487  1.00  0.00     0.000 C 
ENDROOT
BRANCH   1   2
ATOM      2  C   UNL     1     170.157 170.662 155.027  1.00  0.00     0.000 C 
BRANCH   2   3
ATOM      3  C   UNL     1     170.992 171.932 154.814  1.00  0.00     0.000 C 
BRANCH   3   4
ATOM      4  C   UNL     1     170.299 172.909 153.853  1.00  0.00     0.000 C 
BRANCH   4   5
ATOM      5  C   UNL     1     171.140 173.167 152.585  1.00  0.00     0.000 C 
BRANCH   5   6
ATOM      6  C   UNL     1     172.227 172.106 152.341  1.00  0.00     0.000 C 
BRANCH   6   7
ATOM      7  C   UNL     1     171.801 171.032 151.328  1.00  0.00     0.000 C 
BRANCH   7   8
ATOM      8  C   UNL     1     170.554 171.432 150.523  1.00  0.00     0.000 C 
BRANCH   8   9
ATOM      9  C   UNL     1     169.376 170.469 150.736  1.00  0.00     0.000 C 
BRANCH   9  10
ATOM     10  C   UNL     1     169.778 169.187 151.483  1.00  0.00     0.000 C 
BRANCH  10  11
ATOM     11  C   UNL     1     168.710 168.074 151.421  1.00  0.00     0.000 C 
BRANCH  11  12
ATOM     12  C   UNL     1     168.826 167.096 152.599  1.00  0.00     0.000 C 
BRANCH  12  13
ATOM     13  C   UNL     1     170.210 167.176 153.252  1.00  0.00     0.006 C 
BRANCH  13  14
ATOM     14  C   UNL     1     170.112 167.007 154.771  1.00  0.00     0.053 C 
BRANCH  14  15
ATOM     15  C   UNL     1     171.471 167.033 155.396  1.00  0.00     0.041 C 
ATOM     16  O   UNL     1     171.663 166.503 156.521  1.00  0.00    -0.550 OA
ATOM     17  O   UNL     1     172.521 167.674 154.751  1.00  0.00    -0.550 OA
ENDBRANCH  14  15
ENDBRANCH  13  14
ENDBRANCH  12  13
ENDBRANCH  11  12
ENDBRANCH  10  11
ENDBRANCH   9  10
ENDBRANCH   8   9
ENDBRANCH   7   8
ENDBRANCH   6   7
ENDBRANCH   5   6
ENDBRANCH   4   5
ENDBRANCH   3   4
ENDBRANCH   2   3
ENDBRANCH   1   2
BRANCH   1  18
ATOM     18  C   UNL     1     167.750 169.723 155.030  1.00  0.00     0.000 C 
BRANCH  18  19
ATOM     19  C   UNL     1     166.433 169.670 154.238  1.00  0.00     0.000 C 
BRANCH  19  20
ATOM     20  C   UNL     1     166.472 170.633 153.045  1.00  0.00     0.000 C 
BRANCH  20  21
ATOM     21  C   UNL     1     165.256 170.472 152.113  1.00  0.00     0.000 C 
BRANCH  21  22
ATOM     22  C   UNL     1     165.448 169.467 150.961  1.00  0.00     0.000 C 
BRANCH  22  23
ATOM     23  C   UNL     1     164.156 168.830 150.411  1.00  0.00     0.000 C 
BRANCH  23  24
ATOM     24  C   UNL     1     164.050 167.308 150.650  1.00  0.00    -0.000 C 
BRANCH  24  25
ATOM     25  C   UNL     1     165.238 166.753 151.455  1.00  0.00    -0.000 C 
BRANCH  25  26
ATOM     26  C   UNL     1     164.803 165.932 152.683  1.00  0.00    -0.000 C 
BRANCH  26  27
ATOM     27  C   UNL     1     165.459 166.348 154.015  1.00  0.00    -0.000 C 
BRANCH  27  28
ATOM     28  C   UNL     1     164.477 166.669 155.158  1.00  0.00    -0.000 C 
BRANCH  28  29
ATOM     29  C   UNL     1     163.059 167.069 154.706  1.00  0.00    -0.000 C 
BRANCH  29  30
ATOM     30  C   UNL     1     162.890 168.555 154.336  1.00  0.00    -0.000 C 
BRANCH  30  31
ATOM     31  C   UNL     1     161.749 168.851 153.349  1.00  0.00    -0.003 C 
ATOM     32  C   UNL     1     161.766 170.291 152.830  1.00  0.00     0.004 C 
ENDBRANCH  30  31
ENDBRANCH  29  30
ENDBRANCH  28  29
ENDBRANCH  27  28
ENDBRANCH  26  27
ENDBRANCH  25  26
ENDBRANCH  24  25
ENDBRANCH  23  24
ENDBRANCH  22  23
ENDBRANCH  21  22
ENDBRANCH  20  21
ENDBRANCH  19  20
ENDBRANCH  18  19
ENDBRANCH   1  18
TORSDOF 28
ENDMDL
MODEL 5
REMARK VINA RESULT:    -3.209      2.198      3.964
REMARK INTER + INTRA:         -14.320
REMARK INTER:                  -8.011
REMARK INTRA:                  -6.309
REMARK UNBOUND:                -5.859
REMARK SMILES CCCCCCCCCCCCCCCCCCCCCCCCCCCCCC(=O)[O-]
REMARK SMILES IDX 16 1 17 2 18 3 19 4 20 5 21 6 22 7 23 8 24 9 25 10 26 11
REMARK SMILES IDX 27 12 28 13 29 14 30 15 31 16 32 17 15 18 14 19 13 20 12 21
REMARK SMILES IDX 11 22 10 23 9 24 8 25 7 26 6 27 5 28 4 29 3 30 2 31 1 32
REMARK H PARENT
REMARK Flexibility Score: inf
ROOT
ATOM      1  C   UNL     1     167.694 171.716 153.121  1.00  0.00     0.000 C 
ENDROOT
BRANCH   1   2
ATOM      2  C   UNL     1     166.901 170.880 152.101  1.00  0.00     0.000 C 
BRANCH   2   3
ATOM      3  C   UNL     1     166.429 169.533 152.669  1.00  0.00     0.000 C 
BRANCH   3   4
ATOM      4  C   UNL     1     166.174 168.509 151.554  1.00  0.00     0.000 C 
BRANCH   4   5
ATOM      5  C   UNL     1     166.374 169.120 150.151  1.00  0.00     0.000 C 
BRANCH   5   6
ATOM      6  C   UNL     1     165.304 168.689 149.133  1.00  0.00     0.000 C 
BRANCH   6   7
ATOM      7  C   UNL     1     163.966 169.419 149.324  1.00  0.00     0.000 C 
BRANCH   7   8
ATOM      8  C   UNL     1     164.140 170.916 149.628  1.00  0.00     0.000 C 
BRANCH   8   9
ATOM      9  C   UNL     1     163.034 171.468 150.542  1.00  0.00     0.000 C 
BRANCH   9  10
ATOM     10  C   UNL     1     163.168 170.995 151.998  1.00  0.00     0.000 C 
BRANCH  10  11
ATOM     11  C   UNL     1     162.060 170.013 152.433  1.00  0.00     0.000 C 
BRANCH  11  12
ATOM     12  C   UNL     1     162.598 168.590 152.642  1.00  0.00     0.000 C 
BRANCH  12  13
ATOM     13  C   UNL     1     163.124 168.400 154.068  1.00  0.00     0.006 C 
BRANCH  13  14
ATOM     14  C   UNL     1     162.357 167.290 154.794  1.00  0.00     0.053 C 
BRANCH  14  15
ATOM     15  C   UNL     1     163.249 166.119 155.062  1.00  0.00     0.041 C 
ATOM     16  O   UNL     1     163.370 165.668 156.231  1.00  0.00    -0.550 OA
ATOM     17  O   UNL     1     163.975 165.545 154.026  1.00  0.00    -0.550 OA
ENDBRANCH  14  15
ENDBRANCH  13  14
ENDBRANCH  12  13
ENDBRANCH  11  12
ENDBRANCH  10  11
ENDBRANCH   9  10
ENDBRANCH   8   9
ENDBRANCH   7   8
ENDBRANCH   6   7
ENDBRANCH   5   6
ENDBRANCH   4   5
ENDBRANCH   3   4
ENDBRANCH   2   3
ENDBRANCH   1   2
BRANCH   1  18
ATOM     18  C   UNL     1     168.560 170.875 154.081  1.00  0.00     0.000 C 
BRANCH  18  19
ATOM     19  C   UNL     1     169.853 171.599 154.493  1.00  0.00     0.000 C 
BRANCH  19  20
ATOM     20  C   UNL     1     169.929 172.991 153.854  1.00  0.00     0.000 C 
BRANCH  20  21
ATOM     21  C   UNL     1     171.080 173.114 152.838  1.00  0.00     0.000 C 
BRANCH  21  22
ATOM     22  C   UNL     1     171.993 171.878 152.737  1.00  0.00     0.000 C 
BRANCH  22  23
ATOM     23  C   UNL     1     171.935 171.113 151.399  1.00  0.00     0.000 C 
BRANCH  23  24
ATOM     24  C   UNL     1     170.517 170.998 150.798  1.00  0.00    -0.000 C 
BRANCH  24  25
ATOM     25  C   UNL     1     169.981 169.556 150.823  1.00  0.00    -0.000 C 
BRANCH  25  26
ATOM     26  C   UNL     1     170.776 168.634 151.767  1.00  0.00    -0.000 C 
BRANCH  26  27
ATOM     27  C   UNL     1     169.971 168.054 152.947  1.00  0.00    -0.000 C 
BRANCH  27  28
ATOM     28  C   UNL     1     169.262 166.715 152.663  1.00  0.00    -0.000 C 
BRANCH  28  29
ATOM     29  C   UNL     1     168.215 166.296 153.713  1.00  0.00    -0.000 C 
BRANCH  29  30
ATOM     30  C   UNL     1     168.146 167.202 154.958  1.00  0.00    -0.000 C 
BRANCH  30  31
ATOM     31  C   UNL     1     166.788 167.207 155.680  1.00  0.00    -0.003 C 
ATOM     32  C   UNL     1     166.322 168.612 156.067  1.00  0.00     0.004 C 
ENDBRANCH  30  31
ENDBRANCH  29  30
ENDBRANCH  28  29
ENDBRANCH  27  28
ENDBRANCH  26  27
ENDBRANCH  25  26
ENDBRANCH  24  25
ENDBRANCH  23  24
ENDBRANCH  22  23
ENDBRANCH  21  22
ENDBRANCH  20  21
ENDBRANCH  19  20
ENDBRANCH  18  19
ENDBRANCH   1  18
TORSDOF 28
ENDMDL
MODEL 6
REMARK VINA RESULT:    -3.186      1.974      5.185
REMARK INTER + INTRA:         -14.261
REMARK INTER:                  -8.614
REMARK INTRA:                  -5.647
REMARK UNBOUND:                -5.859
REMARK SMILES CCCCCCCCCCCCCCCCCCCCCCCCCCCCCC(=O)[O-]
REMARK SMILES IDX 16 1 17 2 18 3 19 4 20 5 21 6 22 7 23 8 24 9 25 10 26 11
REMARK SMILES IDX 27 12 28 13 29 14 30 15 31 16 32 17 15 18 14 19 13 20 12 21
REMARK SMILES IDX 11 22 10 23 9 24 8 25 7 26 6 27 5 28 4 29 3 30 2 31 1 32
REMARK H PARENT
REMARK Flexibility Score: inf
ROOT
ATOM      1  C   UNL     1     168.350 172.452 153.158  1.00  0.00     0.000 C 
ENDROOT
BRANCH   1   2
ATOM      2  C   UNL     1     168.906 171.020 153.251  1.00  0.00     0.000 C 
BRANCH   2   3
ATOM      3  C   UNL     1     168.406 170.263 154.489  1.00  0.00     0.000 C 
BRANCH   3   4
ATOM      4  C   UNL     1     169.556 169.929 155.450  1.00  0.00     0.000 C 
BRANCH   4   5
ATOM      5  C   UNL     1     170.785 169.365 154.705  1.00  0.00     0.000 C 
BRANCH   5   6
ATOM      6  C   UNL     1     170.830 167.827 154.667  1.00  0.00     0.000 C 
BRANCH   6   7
ATOM      7  C   UNL     1     170.909 167.265 153.239  1.00  0.00     0.000 C 
BRANCH   7   8
ATOM      8  C   UNL     1     169.541 166.829 152.691  1.00  0.00     0.000 C 
BRANCH   8   9
ATOM      9  C   UNL     1     168.496 166.624 153.800  1.00  0.00     0.000 C 
BRANCH   9  10
ATOM     10  C   UNL     1     167.065 166.484 153.255  1.00  0.00     0.000 C 
BRANCH  10  11
ATOM     11  C   UNL     1     166.008 167.227 154.097  1.00  0.00     0.000 C 
BRANCH  11  12
ATOM     12  C   UNL     1     164.578 166.924 153.627  1.00  0.00     0.000 C 
BRANCH  12  13
ATOM     13  C   UNL     1     163.565 167.132 154.759  1.00  0.00     0.006 C 
BRANCH  13  14
ATOM     14  C   UNL     1     162.754 168.413 154.542  1.00  0.00     0.053 C 
BRANCH  14  15
ATOM     15  C   UNL     1     161.314 168.092 154.297  1.00  0.00     0.041 C 
ATOM     16  O   UNL     1     160.655 167.441 155.149  1.00  0.00    -0.550 OA
ATOM     17  O   UNL     1     160.706 168.483 153.111  1.00  0.00    -0.550 OA
ENDBRANCH  14  15
ENDBRANCH  13  14
ENDBRANCH  12  13
ENDBRANCH  11  12
ENDBRANCH  10  11
ENDBRANCH   9  10
ENDBRANCH   8   9
ENDBRANCH   7   8
ENDBRANCH   6   7
ENDBRANCH   5   6
ENDBRANCH   4   5
ENDBRANCH   3   4
ENDBRANCH   2   3
ENDBRANCH   1   2
BRANCH   1  18
ATOM     18  C   UNL     1     169.385 173.548 153.484  1.00  0.00     0.000 C 
BRANCH  18  19
ATOM     19  C   UNL     1     170.784 172.971 153.762  1.00  0.00     0.000 C 
BRANCH  19  20
ATOM     20  C   UNL     1     171.642 172.980 152.492  1.00  0.00     0.000 C 
BRANCH  20  21
ATOM     21  C   UNL     1     172.397 171.654 152.277  1.00  0.00     0.000 C 
BRANCH  21  22
ATOM     22  C   UNL     1     171.891 170.802 151.098  1.00  0.00     0.000 C 
BRANCH  22  23
ATOM     23  C   UNL     1     171.112 171.568 150.009  1.00  0.00     0.000 C 
BRANCH  23  24
ATOM     24  C   UNL     1     169.871 170.820 149.474  1.00  0.00    -0.000 C 
BRANCH  24  25
ATOM     25  C   UNL     1     169.691 169.437 150.123  1.00  0.00    -0.000 C 
BRANCH  25  26
ATOM     26  C   UNL     1     168.794 168.496 149.297  1.00  0.00    -0.000 C 
BRANCH  26  27
ATOM     27  C   UNL     1     167.288 168.582 149.614  1.00  0.00    -0.000 C 
BRANCH  27  28
ATOM     28  C   UNL     1     166.940 169.159 151.000  1.00  0.00    -0.000 C 
BRANCH  28  29
ATOM     29  C   UNL     1     166.048 170.415 150.979  1.00  0.00    -0.000 C 
BRANCH  29  30
ATOM     30  C   UNL     1     164.943 170.445 152.052  1.00  0.00    -0.000 C 
BRANCH  30  31
ATOM     31  C   UNL     1     163.508 170.514 151.501  1.00  0.00    -0.003 C 
ATOM     32  C   UNL     1     162.612 171.474 152.288  1.00  0.00     0.004 C 
ENDBRANCH  30  31
ENDBRANCH  29  30
ENDBRANCH  28  29
ENDBRANCH  27  28
ENDBRANCH  26  27
ENDBRANCH  25  26
ENDBRANCH  24  25
ENDBRANCH  23  24
ENDBRANCH  22  23
ENDBRANCH  21  22
ENDBRANCH  20  21
ENDBRANCH  19  20
ENDBRANCH  18  19
ENDBRANCH   1  18
TORSDOF 28
ENDMDL
MODEL 7
REMARK VINA RESULT:    -3.164      2.740      3.896
REMARK INTER + INTRA:         -14.202
REMARK INTER:                  -8.750
REMARK INTRA:                  -5.452
REMARK UNBOUND:                -5.859
REMARK SMILES CCCCCCCCCCCCCCCCCCCCCCCCCCCCCC(=O)[O-]
REMARK SMILES IDX 16 1 17 2 18 3 19 4 20 5 21 6 22 7 23 8 24 9 25 10 26 11
REMARK SMILES IDX 27 12 28 13 29 14 30 15 31 16 32 17 15 18 14 19 13 20 12 21
REMARK SMILES IDX 11 22 10 23 9 24 8 25 7 26 6 27 5 28 4 29 3 30 2 31 1 32
REMARK H PARENT
REMARK Flexibility Score: inf
ROOT
ATOM      1  C   UNL     1     168.963 170.430 150.896  1.00  0.00     0.000 C 
ENDROOT
BRANCH   1   2
ATOM      2  C   UNL     1     168.215 169.085 150.878  1.00  0.00     0.000 C 
BRANCH   2   3
ATOM      3  C   UNL     1     166.870 169.139 151.617  1.00  0.00     0.000 C 
BRANCH   3   4
ATOM      4  C   UNL     1     166.907 170.137 152.784  1.00  0.00     0.000 C 
BRANCH   4   5
ATOM      5  C   UNL     1     165.495 170.635 153.162  1.00  0.00     0.000 C 
BRANCH   5   6
ATOM      6  C   UNL     1     164.400 170.188 152.179  1.00  0.00     0.000 C 
BRANCH   6   7
ATOM      7  C   UNL     1     163.103 171.000 152.316  1.00  0.00     0.000 C 
BRANCH   7   8
ATOM      8  C   UNL     1     161.867 170.116 152.548  1.00  0.00     0.000 C 
BRANCH   8   9
ATOM      9  C   UNL     1     162.045 169.144 153.725  1.00  0.00     0.000 C 
BRANCH   9  10
ATOM     10  C   UNL     1     160.972 168.043 153.759  1.00  0.00     0.000 C 
BRANCH  10  11
ATOM     11  C   UNL     1     160.970 167.223 155.066  1.00  0.00     0.000 C 
BRANCH  11  12
ATOM     12  C   UNL     1     160.329 165.840 154.879  1.00  0.00     0.000 C 
BRANCH  12  13
ATOM     13  C   UNL     1     161.079 164.769 155.679  1.00  0.00     0.006 C 
BRANCH  13  14
ATOM     14  C   UNL     1     161.968 165.406 156.751  1.00  0.00     0.053 C 
BRANCH  14  15
ATOM     15  C   UNL     1     163.244 164.639 156.904  1.00  0.00     0.041 C 
ATOM     16  O   UNL     1     164.218 165.144 157.522  1.00  0.00    -0.550 OA
ATOM     17  O   UNL     1     163.371 163.379 156.333  1.00  0.00    -0.550 OA
ENDBRANCH  14  15
ENDBRANCH  13  14
ENDBRANCH  12  13
ENDBRANCH  11  12
ENDBRANCH  10  11
ENDBRANCH   9  10
ENDBRANCH   8   9
ENDBRANCH   7   8
ENDBRANCH   6   7
ENDBRANCH   5   6
ENDBRANCH   4   5
ENDBRANCH   3   4
ENDBRANCH   2   3
ENDBRANCH   1   2
BRANCH   1  18
ATOM     18  C   UNL     1     170.490 170.299 150.727  1.00  0.00     0.000 C 
BRANCH  18  19
ATOM     19  C   UNL     1     171.191 171.666 150.645  1.00  0.00     0.000 C 
BRANCH  19  20
ATOM     20  C   UNL     1     171.927 171.982 151.953  1.00  0.00     0.000 C 
BRANCH  20  21
ATOM     21  C   UNL     1     171.285 173.149 152.726  1.00  0.00     0.000 C 
BRANCH  21  22
ATOM     22  C   UNL     1     170.837 172.810 154.161  1.00  0.00     0.000 C 
BRANCH  22  23
ATOM     23  C   UNL     1     169.713 171.759 154.276  1.00  0.00     0.000 C 
BRANCH  23  24
ATOM     24  C   UNL     1     170.086 170.525 155.127  1.00  0.00    -0.000 C 
BRANCH  24  25
ATOM     25  C   UNL     1     170.699 169.392 154.286  1.00  0.00    -0.000 C 
BRANCH  25  26
ATOM     26  C   UNL     1     169.789 168.153 154.188  1.00  0.00    -0.000 C 
BRANCH  26  27
ATOM     27  C   UNL     1     168.826 167.954 155.375  1.00  0.00    -0.000 C 
BRANCH  27  28
ATOM     28  C   UNL     1     167.492 167.264 155.029  1.00  0.00    -0.000 C 
BRANCH  28  29
ATOM     29  C   UNL     1     166.238 167.935 155.623  1.00  0.00    -0.000 C 
BRANCH  29  30
ATOM     30  C   UNL     1     164.902 167.470 155.012  1.00  0.00    -0.000 C 
BRANCH  30  31
ATOM     31  C   UNL     1     165.023 166.773 153.647  1.00  0.00    -0.003 C 
ATOM     32  C   UNL     1     163.948 165.707 153.423  1.00  0.00     0.004 C 
ENDBRANCH  30  31
ENDBRANCH  29  30
ENDBRANCH  28  29
ENDBRANCH  27  28
ENDBRANCH  26  27
ENDBRANCH  25  26
ENDBRANCH  24  25
ENDBRANCH  23  24
ENDBRANCH  22  23
ENDBRANCH  21  22
ENDBRANCH  20  21
ENDBRANCH  19  20
ENDBRANCH  18  19
ENDBRANCH   1  18
TORSDOF 28
ENDMDL
MODEL 8
REMARK VINA RESULT:    -3.154      2.944      7.699
REMARK INTER + INTRA:         -14.176
REMARK INTER:                  -8.688
REMARK INTRA:                  -5.487
REMARK UNBOUND:                -5.859
REMARK SMILES CCCCCCCCCCCCCCCCCCCCCCCCCCCCCC(=O)[O-]
REMARK SMILES IDX 16 1 17 2 18 3 19 4 20 5 21 6 22 7 23 8 24 9 25 10 26 11
REMARK SMILES IDX 27 12 28 13 29 14 30 15 31 16 32 17 15 18 14 19 13 20 12 21
REMARK SMILES IDX 11 22 10 23 9 24 8 25 7 26 6 27 5 28 4 29 3 30 2 31 1 32
REMARK H PARENT
REMARK Flexibility Score: inf
ROOT
ATOM      1  C   UNL     1     169.282 171.537 154.293  1.00  0.00     0.000 C 
ENDROOT
BRANCH   1   2
ATOM      2  C   UNL     1     169.441 172.837 153.486  1.00  0.00     0.000 C 
BRANCH   2   3
ATOM      3  C   UNL     1     170.907 173.178 153.183  1.00  0.00     0.000 C 
BRANCH   3   4
ATOM      4  C   UNL     1     171.834 171.989 153.472  1.00  0.00     0.000 C 
BRANCH   4   5
ATOM      5  C   UNL     1     172.558 171.499 152.200  1.00  0.00     0.000 C 
BRANCH   5   6
ATOM      6  C   UNL     1     172.504 172.503 151.035  1.00  0.00     0.000 C 
BRANCH   6   7
ATOM      7  C   UNL     1     171.869 171.914 149.766  1.00  0.00     0.000 C 
BRANCH   7   8
ATOM      8  C   UNL     1     170.500 171.266 150.029  1.00  0.00     0.000 C 
BRANCH   8   9
ATOM      9  C   UNL     1     170.367 169.878 149.383  1.00  0.00     0.000 C 
BRANCH   9  10
ATOM     10  C   UNL     1     169.843 168.812 150.359  1.00  0.00     0.000 C 
BRANCH  10  11
ATOM     11  C   UNL     1     170.878 168.385 151.421  1.00  0.00     0.000 C 
BRANCH  11  12
ATOM     12  C   UNL     1     170.238 168.188 152.803  1.00  0.00     0.000 C 
BRANCH  12  13
ATOM     13  C   UNL     1     171.286 168.287 153.918  1.00  0.00     0.006 C 
BRANCH  13  14
ATOM     14  C   UNL     1     170.628 168.219 155.299  1.00  0.00     0.053 C 
BRANCH  14  15
ATOM     15  C   UNL     1     170.804 166.862 155.903  1.00  0.00     0.041 C 
ATOM     16  O   UNL     1     171.591 166.695 156.871  1.00  0.00    -0.550 OA
ATOM     17  O   UNL     1     170.125 165.772 155.374  1.00  0.00    -0.550 OA
ENDBRANCH  14  15
ENDBRANCH  13  14
ENDBRANCH  12  13
ENDBRANCH  11  12
ENDBRANCH  10  11
ENDBRANCH   9  10
ENDBRANCH   8   9
ENDBRANCH   7   8
ENDBRANCH   6   7
ENDBRANCH   5   6
ENDBRANCH   4   5
ENDBRANCH   3   4
ENDBRANCH   2   3
ENDBRANCH   1   2
BRANCH   1  18
ATOM     18  C   UNL     1     168.095 170.661 153.844  1.00  0.00     0.000 C 
BRANCH  18  19
ATOM     19  C   UNL     1     167.190 171.376 152.827  1.00  0.00     0.000 C 
BRANCH  19  20
ATOM     20  C   UNL     1     167.125 170.597 151.508  1.00  0.00     0.000 C 
BRANCH  20  21
ATOM     21  C   UNL     1     166.169 169.391 151.578  1.00  0.00     0.000 C 
BRANCH  21  22
ATOM     22  C   UNL     1     165.151 169.301 150.426  1.00  0.00     0.000 C 
BRANCH  22  23
ATOM     23  C   UNL     1     164.470 170.628 150.033  1.00  0.00     0.000 C 
BRANCH  23  24
ATOM     24  C   UNL     1     163.019 170.769 150.542  1.00  0.00    -0.000 C 
BRANCH  24  25
ATOM     25  C   UNL     1     162.949 171.249 152.002  1.00  0.00    -0.000 C 
BRANCH  25  26
ATOM     26  C   UNL     1     161.889 170.501 152.832  1.00  0.00    -0.000 C 
BRANCH  26  27
ATOM     27  C   UNL     1     161.641 169.038 152.412  1.00  0.00    -0.000 C 
BRANCH  27  28
ATOM     28  C   UNL     1     162.693 168.026 152.906  1.00  0.00    -0.000 C 
BRANCH  28  29
ATOM     29  C   UNL     1     163.499 168.474 154.141  1.00  0.00    -0.000 C 
BRANCH  29  30
ATOM     30  C   UNL     1     164.500 167.432 154.677  1.00  0.00    -0.000 C 
BRANCH  30  31
ATOM     31  C   UNL     1     165.834 168.012 155.175  1.00  0.00    -0.003 C 
ATOM     32  C   UNL     1     167.050 167.226 154.680  1.00  0.00     0.004 C 
ENDBRANCH  30  31
ENDBRANCH  29  30
ENDBRANCH  28  29
ENDBRANCH  27  28
ENDBRANCH  26  27
ENDBRANCH  25  26
ENDBRANCH  24  25
ENDBRANCH  23  24
ENDBRANCH  22  23
ENDBRANCH  21  22
ENDBRANCH  20  21
ENDBRANCH  19  20
ENDBRANCH  18  19
ENDBRANCH   1  18
TORSDOF 28
ENDMDL
MODEL 9
REMARK VINA RESULT:    -3.145      1.607      2.928
REMARK INTER + INTRA:         -14.151
REMARK INTER:                  -8.395
REMARK INTRA:                  -5.756
REMARK UNBOUND:                -5.859
REMARK SMILES CCCCCCCCCCCCCCCCCCCCCCCCCCCCCC(=O)[O-]
REMARK SMILES IDX 16 1 17 2 18 3 19 4 20 5 21 6 22 7 23 8 24 9 25 10 26 11
REMARK SMILES IDX 27 12 28 13 29 14 30 15 31 16 32 17 15 18 14 19 13 20 12 21
REMARK SMILES IDX 11 22 10 23 9 24 8 25 7 26 6 27 5 28 4 29 3 30 2 31 1 32
REMARK H PARENT
REMARK Flexibility Score: inf
ROOT
ATOM      1  C   UNL     1     170.025 173.757 153.865  1.00  0.00     0.000 C 
ENDROOT
BRANCH   1   2
ATOM      2  C   UNL     1     168.618 173.361 153.384  1.00  0.00     0.000 C 
BRANCH   2   3
ATOM      3  C   UNL     1     168.467 171.851 153.155  1.00  0.00     0.000 C 
BRANCH   3   4
ATOM      4  C   UNL     1     167.016 171.473 152.822  1.00  0.00     0.000 C 
BRANCH   4   5
ATOM      5  C   UNL     1     166.930 170.529 151.604  1.00  0.00     0.000 C 
BRANCH   5   6
ATOM      6  C   UNL     1     166.942 169.037 151.979  1.00  0.00     0.000 C 
BRANCH   6   7
ATOM      7  C   UNL     1     166.401 168.133 150.861  1.00  0.00     0.000 C 
BRANCH   7   8
ATOM      8  C   UNL     1     165.948 166.756 151.372  1.00  0.00     0.000 C 
BRANCH   8   9
ATOM      9  C   UNL     1     164.583 166.332 150.808  1.00  0.00     0.000 C 
BRANCH   9  10
ATOM     10  C   UNL     1     163.489 167.389 151.031  1.00  0.00     0.000 C 
BRANCH  10  11
ATOM     11  C   UNL     1     163.297 167.776 152.513  1.00  0.00     0.000 C 
BRANCH  11  12
ATOM     12  C   UNL     1     163.249 169.298 152.711  1.00  0.00     0.000 C 
BRANCH  12  13
ATOM     13  C   UNL     1     162.592 169.993 151.514  1.00  0.00     0.006 C 
BRANCH  13  14
ATOM     14  C   UNL     1     163.354 171.264 151.129  1.00  0.00     0.053 C 
BRANCH  14  15
ATOM     15  C   UNL     1     163.660 171.275 149.665  1.00  0.00     0.041 C 
ATOM     16  O   UNL     1     164.191 170.272 149.119  1.00  0.00    -0.550 OA
ATOM     17  O   UNL     1     163.391 172.407 148.906  1.00  0.00    -0.550 OA
ENDBRANCH  14  15
ENDBRANCH  13  14
ENDBRANCH  12  13
ENDBRANCH  11  12
ENDBRANCH  10  11
ENDBRANCH   9  10
ENDBRANCH   8   9
ENDBRANCH   7   8
ENDBRANCH   6   7
ENDBRANCH   5   6
ENDBRANCH   4   5
ENDBRANCH   3   4
ENDBRANCH   2   3
ENDBRANCH   1   2
BRANCH   1  18
ATOM     18  C   UNL     1     171.122 172.735 153.502  1.00  0.00     0.000 C 
BRANCH  18  19
ATOM     19  C   UNL     1     171.896 173.129 152.233  1.00  0.00     0.000 C 
BRANCH  19  20
ATOM     20  C   UNL     1     172.174 171.902 151.357  1.00  0.00     0.000 C 
BRANCH  20  21
ATOM     21  C   UNL     1     171.005 171.571 150.411  1.00  0.00     0.000 C 
BRANCH  21  22
ATOM     22  C   UNL     1     170.395 170.168 150.597  1.00  0.00     0.000 C 
BRANCH  22  23
ATOM     23  C   UNL     1     171.157 169.233 151.559  1.00  0.00     0.000 C 
BRANCH  23  24
ATOM     24  C   UNL     1     170.370 168.861 152.834  1.00  0.00    -0.000 C 
BRANCH  24  25
ATOM     25  C   UNL     1     171.189 169.084 154.118  1.00  0.00    -0.000 C 
BRANCH  25  26
ATOM     26  C   UNL     1     170.313 169.413 155.342  1.00  0.00    -0.000 C 
BRANCH  26  27
ATOM     27  C   UNL     1     168.833 169.001 155.217  1.00  0.00    -0.000 C 
BRANCH  27  28
ATOM     28  C   UNL     1     168.505 167.575 155.703  1.00  0.00    -0.000 C 
BRANCH  28  29
ATOM     29  C   UNL     1     167.420 166.842 154.889  1.00  0.00    -0.000 C 
BRANCH  29  30
ATOM     30  C   UNL     1     165.982 167.338 155.131  1.00  0.00    -0.000 C 
BRANCH  30  31
ATOM     31  C   UNL     1     164.942 166.225 155.350  1.00  0.00    -0.003 C 
ATOM     32  C   UNL     1     165.036 165.585 156.738  1.00  0.00     0.004 C 
ENDBRANCH  30  31
ENDBRANCH  29  30
ENDBRANCH  28  29
ENDBRANCH  27  28
ENDBRANCH  26  27
ENDBRANCH  25  26
ENDBRANCH  24  25
ENDBRANCH  23  24
ENDBRANCH  22  23
ENDBRANCH  21  22
ENDBRANCH  20  21
ENDBRANCH  19  20
ENDBRANCH  18  19
ENDBRANCH   1  18
TORSDOF 28
ENDMDL
