MODEL 1
REMARK VINA RESULT:    -3.603      0.000      0.000
REMARK INTER + INTRA:         -14.553
REMARK INTER:                  -9.079
REMARK INTRA:                  -5.474
REMARK UNBOUND:                -5.474
REMARK SMILES CCCCCCCCCCCCCCCCCCCCCCCCCCCC(=O)[O-]
REMARK SMILES IDX 15 1 16 2 17 3 18 4 19 5 20 6 21 7 22 8 23 9 24 10 25 11
REMARK SMILES IDX 26 12 27 13 28 14 29 15 30 16 14 17 13 18 12 19 11 20 10 21
REMARK SMILES IDX 9 22 8 23 7 24 6 25 5 26 4 27 3 28 2 29 1 30
REMARK H PARENT
REMARK Flexibility Score: inf
ROOT
ATOM      1  C   UNL     1     139.454 129.843 114.118  1.00  0.00     0.000 C 
ENDROOT
BRANCH   1   2
ATOM      2  C   UNL     1     140.827 130.482 113.831  1.00  0.00     0.000 C 
BRANCH   2   3
ATOM      3  C   UNL     1     142.014 129.879 114.605  1.00  0.00     0.000 C 
BRANCH   3   4
ATOM      4  C   UNL     1     141.604 128.734 115.546  1.00  0.00     0.000 C 
BRANCH   4   5
ATOM      5  C   UNL     1     142.257 127.394 115.173  1.00  0.00     0.000 C 
BRANCH   5   6
ATOM      6  C   UNL     1     143.671 127.231 115.751  1.00  0.00     0.000 C 
BRANCH   6   7
ATOM      7  C   UNL     1     144.722 127.220 114.635  1.00  0.00     0.000 C 
BRANCH   7   8
ATOM      8  C   UNL     1     145.936 128.081 115.012  1.00  0.00     0.000 C 
BRANCH   8   9
ATOM      9  C   UNL     1     145.647 129.592 114.955  1.00  0.00     0.000 C 
BRANCH   9  10
ATOM     10  C   UNL     1     145.991 130.373 116.237  1.00  0.00     0.000 C 
BRANCH  10  11
ATOM     11  C   UNL     1     144.751 130.914 116.963  1.00  0.00     0.000 C 
BRANCH  11  12
ATOM     12  C   UNL     1     144.275 129.929 118.038  1.00  0.00     0.006 C 
BRANCH  12  13
ATOM     13  C   UNL     1     145.464 129.318 118.791  1.00  0.00     0.053 C 
BRANCH  13  14
ATOM     14  C   UNL     1     145.336 127.829 118.862  1.00  0.00     0.041 C 
ATOM     15  O   UNL     1     146.329 127.093 118.617  1.00  0.00    -0.550 OA
ATOM     16  O   UNL     1     144.124 127.250 119.219  1.00  0.00    -0.550 OA
ENDBRANCH  13  14
ENDBRANCH  12  13
ENDBRANCH  11  12
ENDBRANCH  10  11
ENDBRANCH   9  10
ENDBRANCH   8   9
ENDBRANCH   7   8
ENDBRANCH   6   7
ENDBRANCH   5   6
ENDBRANCH   4   5
ENDBRANCH   3   4
ENDBRANCH   2   3
ENDBRANCH   1   2
BRANCH   1  17
ATOM     17  C   UNL     1     138.842 129.151 112.889  1.00  0.00     0.000 C 
BRANCH  17  18
ATOM     18  C   UNL     1     138.585 127.648 113.106  1.00  0.00     0.000 C 
BRANCH  18  19
ATOM     19  C   UNL     1     138.580 127.186 114.575  1.00  0.00     0.000 C 
BRANCH  19  20
ATOM     20  C   UNL     1     137.179 127.215 115.212  1.00  0.00     0.000 C 
BRANCH  20  21
ATOM     21  C   UNL     1     137.235 127.318 116.751  1.00  0.00     0.000 C 
BRANCH  21  22
ATOM     22  C   UNL     1     138.646 127.117 117.337  1.00  0.00    -0.000 C 
BRANCH  22  23
ATOM     23  C   UNL     1     139.067 128.156 118.389  1.00  0.00    -0.000 C 
BRANCH  23  24
ATOM     24  C   UNL     1     138.374 129.527 118.261  1.00  0.00    -0.000 C 
BRANCH  24  25
ATOM     25  C   UNL     1     139.277 130.627 117.661  1.00  0.00    -0.000 C 
BRANCH  25  26
ATOM     26  C   UNL     1     140.627 130.742 118.394  1.00  0.00    -0.000 C 
BRANCH  26  27
ATOM     27  C   UNL     1     141.284 132.123 118.219  1.00  0.00    -0.000 C 
BRANCH  27  28
ATOM     28  C   UNL     1     141.220 132.700 116.791  1.00  0.00    -0.000 C 
BRANCH  28  29
ATOM     29  C   UNL     1     141.858 134.090 116.622  1.00  0.00    -0.003 C 
ATOM     30  C   UNL     1     143.157 134.056 115.818  1.00  0.00     0.004 C 
ENDBRANCH  28  29
ENDBRANCH  27  28
ENDBRANCH  26  27
ENDBRANCH  25  26
ENDBRANCH  24  25
ENDBRANCH  23  24
ENDBRANCH  22  23
ENDBRANCH  21  22
ENDBRANCH  20  21
ENDBRANCH  19  20
ENDBRANCH  18  19
ENDBRANCH  17  18
ENDBRANCH   1  17
TORSDOF 26
ENDMDL
MODEL 2
REMARK VINA RESULT:    -3.537      2.427      3.201
REMARK INTER + INTRA:         -14.388
REMARK INTER:                  -8.892
REMARK INTRA:                  -5.496
REMARK UNBOUND:                -5.474
REMARK SMILES CCCCCCCCCCCCCCCCCCCCCCCCCCCC(=O)[O-]
REMARK SMILES IDX 15 1 16 2 17 3 18 4 19 5 20 6 21 7 22 8 23 9 24 10 25 11
REMARK SMILES IDX 26 12 27 13 28 14 29 15 30 16 14 17 13 18 12 19 11 20 10 21
REMARK SMILES IDX 9 22 8 23 7 24 6 25 5 26 4 27 3 28 2 29 1 30
REMARK H PARENT
REMARK Flexibility Score: inf
ROOT
ATOM      1  C   UNL     1     139.555 129.898 114.275  1.00  0.00     0.000 C 
ENDROOT
BRANCH   1   2
ATOM      2  C   UNL     1     140.953 130.284 113.755  1.00  0.00     0.000 C 
BRANCH   2   3
ATOM      3  C   UNL     1     142.132 129.888 114.666  1.00  0.00     0.000 C 
BRANCH   3   4
ATOM      4  C   UNL     1     141.686 129.187 115.960  1.00  0.00     0.000 C 
BRANCH   4   5
ATOM      5  C   UNL     1     142.365 127.823 116.161  1.00  0.00     0.000 C 
BRANCH   5   6
ATOM      6  C   UNL     1     143.155 127.354 114.931  1.00  0.00     0.000 C 
BRANCH   6   7
ATOM      7  C   UNL     1     144.657 127.297 115.233  1.00  0.00     0.000 C 
BRANCH   7   8
ATOM      8  C   UNL     1     145.431 128.306 114.372  1.00  0.00     0.000 C 
BRANCH   8   9
ATOM      9  C   UNL     1     146.048 129.453 115.194  1.00  0.00     0.000 C 
BRANCH   9  10
ATOM     10  C   UNL     1     145.688 129.451 116.692  1.00  0.00     0.000 C 
BRANCH  10  11
ATOM     11  C   UNL     1     145.072 130.776 117.164  1.00  0.00     0.000 C 
BRANCH  11  12
ATOM     12  C   UNL     1     144.838 131.722 115.980  1.00  0.00     0.006 C 
BRANCH  12  13
ATOM     13  C   UNL     1     144.938 133.188 116.418  1.00  0.00     0.053 C 
BRANCH  13  14
ATOM     14  C   UNL     1     143.727 133.954 115.985  1.00  0.00     0.041 C 
ATOM     15  O   UNL     1     142.708 133.347 115.564  1.00  0.00    -0.550 OA
ATOM     16  O   UNL     1     143.717 135.341 116.063  1.00  0.00    -0.550 OA
ENDBRANCH  13  14
ENDBRANCH  12  13
ENDBRANCH  11  12
ENDBRANCH  10  11
ENDBRANCH   9  10
ENDBRANCH   8   9
ENDBRANCH   7   8
ENDBRANCH   6   7
ENDBRANCH   5   6
ENDBRANCH   4   5
ENDBRANCH   3   4
ENDBRANCH   2   3
ENDBRANCH   1   2
BRANCH   1  17
ATOM     17  C   UNL     1     138.741 129.075 113.262  1.00  0.00     0.000 C 
BRANCH  17  18
ATOM     18  C   UNL     1     138.911 127.555 113.441  1.00  0.00     0.000 C 
BRANCH  18  19
ATOM     19  C   UNL     1     138.901 127.058 114.898  1.00  0.00     0.000 C 
BRANCH  19  20
ATOM     20  C   UNL     1     137.542 127.254 115.592  1.00  0.00     0.000 C 
BRANCH  20  21
ATOM     21  C   UNL     1     137.659 127.227 117.132  1.00  0.00     0.000 C 
BRANCH  21  22
ATOM     22  C   UNL     1     138.422 128.430 117.718  1.00  0.00    -0.000 C 
BRANCH  22  23
ATOM     23  C   UNL     1     139.003 128.208 119.124  1.00  0.00    -0.000 C 
BRANCH  23  24
ATOM     24  C   UNL     1     140.286 127.353 119.169  1.00  0.00    -0.000 C 
BRANCH  24  25
ATOM     25  C   UNL     1     141.296 127.803 120.246  1.00  0.00    -0.000 C 
BRANCH  25  26
ATOM     26  C   UNL     1     142.568 128.418 119.637  1.00  0.00    -0.000 C 
BRANCH  26  27
ATOM     27  C   UNL     1     142.693 129.927 119.913  1.00  0.00    -0.000 C 
BRANCH  27  28
ATOM     28  C   UNL     1     141.626 130.806 119.229  1.00  0.00    -0.000 C 
BRANCH  28  29
ATOM     29  C   UNL     1     142.070 132.246 118.920  1.00  0.00    -0.003 C 
ATOM     30  C   UNL     1     143.257 132.700 119.769  1.00  0.00     0.004 C 
ENDBRANCH  28  29
ENDBRANCH  27  28
ENDBRANCH  26  27
ENDBRANCH  25  26
ENDBRANCH  24  25
ENDBRANCH  23  24
ENDBRANCH  22  23
ENDBRANCH  21  22
ENDBRANCH  20  21
ENDBRANCH  19  20
ENDBRANCH  18  19
ENDBRANCH  17  18
ENDBRANCH   1  17
TORSDOF 26
ENDMDL
MODEL 3
REMARK VINA RESULT:    -3.459      2.538      6.070
REMARK INTER + INTRA:         -14.190
REMARK INTER:                  -8.257
REMARK INTRA:                  -5.933
REMARK UNBOUND:                -5.474
REMARK SMILES CCCCCCCCCCCCCCCCCCCCCCCCCCCC(=O)[O-]
REMARK SMILES IDX 15 1 16 2 17 3 18 4 19 5 20 6 21 7 22 8 23 9 24 10 25 11
REMARK SMILES IDX 26 12 27 13 28 14 29 15 30 16 14 17 13 18 12 19 11 20 10 21
REMARK SMILES IDX 9 22 8 23 7 24 6 25 5 26 4 27 3 28 2 29 1 30
REMARK H PARENT
REMARK Flexibility Score: inf
ROOT
ATOM      1  C   UNL     1     139.914 130.484 114.482  1.00  0.00     0.000 C 
ENDROOT
BRANCH   1   2
ATOM      2  C   UNL     1     138.646 129.801 113.934  1.00  0.00     0.000 C 
BRANCH   2   3
ATOM      3  C   UNL     1     138.871 128.445 113.239  1.00  0.00     0.000 C 
BRANCH   3   4
ATOM      4  C   UNL     1     138.377 127.250 114.071  1.00  0.00     0.000 C 
BRANCH   4   5
ATOM      5  C   UNL     1     137.527 127.676 115.278  1.00  0.00     0.000 C 
BRANCH   5   6
ATOM      6  C   UNL     1     138.141 127.266 116.624  1.00  0.00     0.000 C 
BRANCH   6   7
ATOM      7  C   UNL     1     138.397 128.492 117.508  1.00  0.00     0.000 C 
BRANCH   7   8
ATOM      8  C   UNL     1     139.496 128.207 118.542  1.00  0.00     0.000 C 
BRANCH   8   9
ATOM      9  C   UNL     1     139.944 129.465 119.309  1.00  0.00     0.000 C 
BRANCH   9  10
ATOM     10  C   UNL     1     139.666 130.800 118.595  1.00  0.00     0.000 C 
BRANCH  10  11
ATOM     11  C   UNL     1     140.943 131.503 118.114  1.00  0.00     0.000 C 
BRANCH  11  12
ATOM     12  C   UNL     1     140.603 132.773 117.325  1.00  0.00     0.006 C 
BRANCH  12  13
ATOM     13  C   UNL     1     141.691 133.086 116.289  1.00  0.00     0.053 C 
BRANCH  13  14
ATOM     14  C   UNL     1     141.748 134.554 116.008  1.00  0.00     0.041 C 
ATOM     15  O   UNL     1     140.953 135.343 116.585  1.00  0.00    -0.550 OA
ATOM     16  O   UNL     1     142.692 135.057 115.121  1.00  0.00    -0.550 OA
ENDBRANCH  13  14
ENDBRANCH  12  13
ENDBRANCH  11  12
ENDBRANCH  10  11
ENDBRANCH   9  10
ENDBRANCH   8   9
ENDBRANCH   7   8
ENDBRANCH   6   7
ENDBRANCH   5   6
ENDBRANCH   4   5
ENDBRANCH   3   4
ENDBRANCH   2   3
ENDBRANCH   1   2
BRANCH   1  17
ATOM     17  C   UNL     1     141.166 129.596 114.387  1.00  0.00     0.000 C 
BRANCH  17  18
ATOM     18  C   UNL     1     141.589 129.000 115.743  1.00  0.00     0.000 C 
BRANCH  18  19
ATOM     19  C   UNL     1     142.170 127.576 115.684  1.00  0.00     0.000 C 
BRANCH  19  20
ATOM     20  C   UNL     1     143.161 127.281 116.824  1.00  0.00     0.000 C 
BRANCH  20  21
ATOM     21  C   UNL     1     144.598 127.048 116.310  1.00  0.00     0.000 C 
BRANCH  21  22
ATOM     22  C   UNL     1     144.754 127.248 114.791  1.00  0.00    -0.000 C 
BRANCH  22  23
ATOM     23  C   UNL     1     145.604 128.463 114.379  1.00  0.00    -0.000 C 
BRANCH  23  24
ATOM     24  C   UNL     1     145.859 129.487 115.503  1.00  0.00    -0.000 C 
BRANCH  24  25
ATOM     25  C   UNL     1     144.912 130.705 115.461  1.00  0.00    -0.000 C 
BRANCH  25  26
ATOM     26  C   UNL     1     144.476 131.157 116.867  1.00  0.00    -0.000 C 
BRANCH  26  27
ATOM     27  C   UNL     1     145.068 130.282 117.986  1.00  0.00    -0.000 C 
BRANCH  27  28
ATOM     28  C   UNL     1     144.138 130.050 119.194  1.00  0.00    -0.000 C 
BRANCH  28  29
ATOM     29  C   UNL     1     144.405 128.755 119.982  1.00  0.00    -0.003 C 
ATOM     30  C   UNL     1     143.130 128.121 120.536  1.00  0.00     0.004 C 
ENDBRANCH  28  29
ENDBRANCH  27  28
ENDBRANCH  26  27
ENDBRANCH  25  26
ENDBRANCH  24  25
ENDBRANCH  23  24
ENDBRANCH  22  23
ENDBRANCH  21  22
ENDBRANCH  20  21
ENDBRANCH  19  20
ENDBRANCH  18  19
ENDBRANCH  17  18
ENDBRANCH   1  17
TORSDOF 26
ENDMDL
MODEL 4
REMARK VINA RESULT:    -3.457      1.775      4.663
REMARK INTER + INTRA:         -14.187
REMARK INTER:                  -9.067
REMARK INTRA:                  -5.120
REMARK UNBOUND:                -5.474
REMARK SMILES CCCCCCCCCCCCCCCCCCCCCCCCCCCC(=O)[O-]
REMARK SMILES IDX 15 1 16 2 17 3 18 4 19 5 20 6 21 7 22 8 23 9 24 10 25 11
REMARK SMILES IDX 26 12 27 13 28 14 29 15 30 16 14 17 13 18 12 19 11 20 10 21
REMARK SMILES IDX 9 22 8 23 7 24 6 25 5 26 4 27 3 28 2 29 1 30
REMARK H PARENT
REMARK Flexibility Score: inf
ROOT
ATOM      1  C   UNL     1     143.874 133.013 116.756  1.00  0.00     0.000 C 
ENDROOT
BRANCH   1   2
ATOM      2  C   UNL     1     145.167 132.271 117.147  1.00  0.00     0.000 C 
BRANCH   2   3
ATOM      3  C   UNL     1     146.382 132.529 116.234  1.00  0.00     0.000 C 
BRANCH   3   4
ATOM      4  C   UNL     1     146.942 131.247 115.596  1.00  0.00     0.000 C 
BRANCH   4   5
ATOM      5  C   UNL     1     146.069 130.013 115.874  1.00  0.00     0.000 C 
BRANCH   5   6
ATOM      6  C   UNL     1     145.454 129.410 114.602  1.00  0.00     0.000 C 
BRANCH   6   7
ATOM      7  C   UNL     1     145.220 127.904 114.767  1.00  0.00     0.000 C 
BRANCH   7   8
ATOM      8  C   UNL     1     143.719 127.580 114.807  1.00  0.00     0.000 C 
BRANCH   8   9
ATOM      9  C   UNL     1     143.229 127.160 116.205  1.00  0.00     0.000 C 
BRANCH   9  10
ATOM     10  C   UNL     1     144.331 127.028 117.272  1.00  0.00     0.000 C 
BRANCH  10  11
ATOM     11  C   UNL     1     143.791 127.094 118.708  1.00  0.00     0.000 C 
BRANCH  11  12
ATOM     12  C   UNL     1     142.412 127.766 118.741  1.00  0.00     0.006 C 
BRANCH  12  13
ATOM     13  C   UNL     1     142.369 128.884 119.789  1.00  0.00     0.053 C 
BRANCH  13  14
ATOM     14  C   UNL     1     142.446 128.317 121.172  1.00  0.00     0.041 C 
ATOM     15  O   UNL     1     143.244 128.804 122.015  1.00  0.00    -0.550 OA
ATOM     16  O   UNL     1     141.620 127.261 121.538  1.00  0.00    -0.550 OA
ENDBRANCH  13  14
ENDBRANCH  12  13
ENDBRANCH  11  12
ENDBRANCH  10  11
ENDBRANCH   9  10
ENDBRANCH   8   9
ENDBRANCH   7   8
ENDBRANCH   6   7
ENDBRANCH   5   6
ENDBRANCH   4   5
ENDBRANCH   3   4
ENDBRANCH   2   3
ENDBRANCH   1   2
BRANCH   1  17
ATOM     17  C   UNL     1     142.936 132.169 115.877  1.00  0.00     0.000 C 
BRANCH  17  18
ATOM     18  C   UNL     1     142.555 130.821 116.518  1.00  0.00     0.000 C 
BRANCH  18  19
ATOM     19  C   UNL     1     141.200 130.241 116.074  1.00  0.00     0.000 C 
BRANCH  19  20
ATOM     20  C   UNL     1     141.116 129.995 114.558  1.00  0.00     0.000 C 
BRANCH  20  21
ATOM     21  C   UNL     1     139.834 130.588 113.935  1.00  0.00     0.000 C 
BRANCH  21  22
ATOM     22  C   UNL     1     138.894 129.532 113.324  1.00  0.00    -0.000 C 
BRANCH  22  23
ATOM     23  C   UNL     1     139.224 128.076 113.696  1.00  0.00    -0.000 C 
BRANCH  23  24
ATOM     24  C   UNL     1     138.019 127.237 114.166  1.00  0.00    -0.000 C 
BRANCH  24  25
ATOM     25  C   UNL     1     137.764 127.314 115.686  1.00  0.00    -0.000 C 
BRANCH  25  26
ATOM     26  C   UNL     1     139.065 127.236 116.505  1.00  0.00    -0.000 C 
BRANCH  26  27
ATOM     27  C   UNL     1     138.924 127.849 117.910  1.00  0.00    -0.000 C 
BRANCH  27  28
ATOM     28  C   UNL     1     137.730 128.809 118.086  1.00  0.00    -0.000 C 
BRANCH  28  29
ATOM     29  C   UNL     1     138.092 130.304 118.096  1.00  0.00    -0.003 C 
ATOM     30  C   UNL     1     137.577 131.051 116.867  1.00  0.00     0.004 C 
ENDBRANCH  28  29
ENDBRANCH  27  28
ENDBRANCH  26  27
ENDBRANCH  25  26
ENDBRANCH  24  25
ENDBRANCH  23  24
ENDBRANCH  22  23
ENDBRANCH  21  22
ENDBRANCH  20  21
ENDBRANCH  19  20
ENDBRANCH  18  19
ENDBRANCH  17  18
ENDBRANCH   1  17
TORSDOF 26
ENDMDL
MODEL 5
REMARK VINA RESULT:    -3.450      4.188      8.320
REMARK INTER + INTRA:         -14.169
REMARK INTER:                 -10.246
REMARK INTRA:                  -3.923
REMARK UNBOUND:                -5.474
REMARK SMILES CCCCCCCCCCCCCCCCCCCCCCCCCCCC(=O)[O-]
REMARK SMILES IDX 15 1 16 2 17 3 18 4 19 5 20 6 21 7 22 8 23 9 24 10 25 11
REMARK SMILES IDX 26 12 27 13 28 14 29 15 30 16 14 17 13 18 12 19 11 20 10 21
REMARK SMILES IDX 9 22 8 23 7 24 6 25 5 26 4 27 3 28 2 29 1 30
REMARK H PARENT
REMARK Flexibility Score: inf
ROOT
ATOM      1  C   UNL     1     139.516 130.552 114.656  1.00  0.00     0.000 C 
ENDROOT
BRANCH   1   2
ATOM      2  C   UNL     1     138.347 129.806 113.984  1.00  0.00     0.000 C 
BRANCH   2   3
ATOM      3  C   UNL     1     138.750 128.665 113.030  1.00  0.00     0.000 C 
BRANCH   3   4
ATOM      4  C   UNL     1     138.657 127.274 113.677  1.00  0.00     0.000 C 
BRANCH   4   5
ATOM      5  C   UNL     1     137.735 127.250 114.906  1.00  0.00     0.000 C 
BRANCH   5   6
ATOM      6  C   UNL     1     138.502 127.203 116.236  1.00  0.00     0.000 C 
BRANCH   6   7
ATOM      7  C   UNL     1     137.712 127.898 117.350  1.00  0.00     0.000 C 
BRANCH   7   8
ATOM      8  C   UNL     1     136.324 128.330 116.855  1.00  0.00     0.000 C 
BRANCH   8   9
ATOM      9  C   UNL     1     135.202 128.034 117.868  1.00  0.00     0.000 C 
BRANCH   9  10
ATOM     10  C   UNL     1     134.060 127.147 117.338  1.00  0.00     0.000 C 
BRANCH  10  11
ATOM     11  C   UNL     1     133.869 127.256 115.819  1.00  0.00     0.000 C 
BRANCH  11  12
ATOM     12  C   UNL     1     132.624 128.086 115.484  1.00  0.00     0.006 C 
BRANCH  12  13
ATOM     13  C   UNL     1     133.001 129.534 115.150  1.00  0.00     0.053 C 
BRANCH  13  14
ATOM     14  C   UNL     1     131.885 130.219 114.426  1.00  0.00     0.041 C 
ATOM     15  O   UNL     1     130.687 129.988 114.740  1.00  0.00    -0.550 OA
ATOM     16  O   UNL     1     132.166 131.129 113.414  1.00  0.00    -0.550 OA
ENDBRANCH  13  14
ENDBRANCH  12  13
ENDBRANCH  11  12
ENDBRANCH  10  11
ENDBRANCH   9  10
ENDBRANCH   8   9
ENDBRANCH   7   8
ENDBRANCH   6   7
ENDBRANCH   5   6
ENDBRANCH   4   5
ENDBRANCH   3   4
ENDBRANCH   2   3
ENDBRANCH   1   2
BRANCH   1  17
ATOM     17  C   UNL     1     140.874 130.268 113.993  1.00  0.00     0.000 C 
BRANCH  17  18
ATOM     18  C   UNL     1     141.919 129.702 114.972  1.00  0.00     0.000 C 
BRANCH  18  19
ATOM     19  C   UNL     1     141.928 128.168 115.113  1.00  0.00     0.000 C 
BRANCH  19  20
ATOM     20  C   UNL     1     142.461 127.691 116.475  1.00  0.00     0.000 C 
BRANCH  20  21
ATOM     21  C   UNL     1     143.949 127.282 116.413  1.00  0.00     0.000 C 
BRANCH  21  22
ATOM     22  C   UNL     1     144.486 127.108 114.980  1.00  0.00    -0.000 C 
BRANCH  22  23
ATOM     23  C   UNL     1     145.755 127.915 114.659  1.00  0.00    -0.000 C 
BRANCH  23  24
ATOM     24  C   UNL     1     145.555 129.443 114.599  1.00  0.00    -0.000 C 
BRANCH  24  25
ATOM     25  C   UNL     1     146.363 130.218 115.661  1.00  0.00    -0.000 C 
BRANCH  25  26
ATOM     26  C   UNL     1     145.788 131.621 115.927  1.00  0.00    -0.000 C 
BRANCH  26  27
ATOM     27  C   UNL     1     144.411 131.581 116.613  1.00  0.00    -0.000 C 
BRANCH  27  28
ATOM     28  C   UNL     1     144.450 131.540 118.155  1.00  0.00    -0.000 C 
BRANCH  28  29
ATOM     29  C   UNL     1     144.076 130.186 118.781  1.00  0.00    -0.003 C 
ATOM     30  C   UNL     1     145.279 129.262 118.968  1.00  0.00     0.004 C 
ENDBRANCH  28  29
ENDBRANCH  27  28
ENDBRANCH  26  27
ENDBRANCH  25  26
ENDBRANCH  24  25
ENDBRANCH  23  24
ENDBRANCH  22  23
ENDBRANCH  21  22
ENDBRANCH  20  21
ENDBRANCH  19  20
ENDBRANCH  18  19
ENDBRANCH  17  18
ENDBRANCH   1  17
TORSDOF 26
ENDMDL
MODEL 6
REMARK VINA RESULT:    -3.429      1.610      5.606
REMARK INTER + INTRA:         -14.114
REMARK INTER:                  -8.895
REMARK INTRA:                  -5.219
REMARK UNBOUND:                -5.474
REMARK SMILES CCCCCCCCCCCCCCCCCCCCCCCCCCCC(=O)[O-]
REMARK SMILES IDX 15 1 16 2 17 3 18 4 19 5 20 6 21 7 22 8 23 9 24 10 25 11
REMARK SMILES IDX 26 12 27 13 28 14 29 15 30 16 14 17 13 18 12 19 11 20 10 21
REMARK SMILES IDX 9 22 8 23 7 24 6 25 5 26 4 27 3 28 2 29 1 30
REMARK H PARENT
REMARK Flexibility Score: inf
ROOT
ATOM      1  C   UNL     1     140.346 130.921 114.376  1.00  0.00     0.000 C 
ENDROOT
BRANCH   1   2
ATOM      2  C   UNL     1     139.705 130.278 113.131  1.00  0.00     0.000 C 
BRANCH   2   3
ATOM      3  C   UNL     1     138.505 129.352 113.406  1.00  0.00     0.000 C 
BRANCH   3   4
ATOM      4  C   UNL     1     138.882 127.861 113.416  1.00  0.00     0.000 C 
BRANCH   4   5
ATOM      5  C   UNL     1     138.650 127.198 114.783  1.00  0.00     0.000 C 
BRANCH   5   6
ATOM      6  C   UNL     1     137.186 127.259 115.243  1.00  0.00     0.000 C 
BRANCH   6   7
ATOM      7  C   UNL     1     137.094 127.557 116.744  1.00  0.00     0.000 C 
BRANCH   7   8
ATOM      8  C   UNL     1     136.505 128.953 116.994  1.00  0.00     0.000 C 
BRANCH   8   9
ATOM      9  C   UNL     1     137.528 129.945 117.578  1.00  0.00     0.000 C 
BRANCH   9  10
ATOM     10  C   UNL     1     138.990 129.464 117.559  1.00  0.00     0.000 C 
BRANCH  10  11
ATOM     11  C   UNL     1     139.593 129.311 118.963  1.00  0.00     0.000 C 
BRANCH  11  12
ATOM     12  C   UNL     1     139.212 127.958 119.576  1.00  0.00     0.006 C 
BRANCH  12  13
ATOM     13  C   UNL     1     140.232 126.876 119.199  1.00  0.00     0.053 C 
BRANCH  13  14
ATOM     14  C   UNL     1     141.453 126.977 120.058  1.00  0.00     0.041 C 
ATOM     15  O   UNL     1     141.347 126.995 121.313  1.00  0.00    -0.550 OA
ATOM     16  O   UNL     1     142.712 127.033 119.474  1.00  0.00    -0.550 OA
ENDBRANCH  13  14
ENDBRANCH  12  13
ENDBRANCH  11  12
ENDBRANCH  10  11
ENDBRANCH   9  10
ENDBRANCH   8   9
ENDBRANCH   7   8
ENDBRANCH   6   7
ENDBRANCH   5   6
ENDBRANCH   4   5
ENDBRANCH   3   4
ENDBRANCH   2   3
ENDBRANCH   1   2
BRANCH   1  17
ATOM     17  C   UNL     1     141.788 130.448 114.625  1.00  0.00     0.000 C 
BRANCH  17  18
ATOM     18  C   UNL     1     142.244 130.639 116.084  1.00  0.00     0.000 C 
BRANCH  18  19
ATOM     19  C   UNL     1     142.614 129.345 116.833  1.00  0.00     0.000 C 
BRANCH  19  20
ATOM     20  C   UNL     1     142.037 128.080 116.173  1.00  0.00     0.000 C 
BRANCH  20  21
ATOM     21  C   UNL     1     143.137 127.173 115.579  1.00  0.00     0.000 C 
BRANCH  21  22
ATOM     22  C   UNL     1     144.413 127.100 116.439  1.00  0.00    -0.000 C 
BRANCH  22  23
ATOM     23  C   UNL     1     145.708 127.505 115.715  1.00  0.00    -0.000 C 
BRANCH  23  24
ATOM     24  C   UNL     1     145.501 128.246 114.379  1.00  0.00    -0.000 C 
BRANCH  24  25
ATOM     25  C   UNL     1     145.559 129.784 114.506  1.00  0.00    -0.000 C 
BRANCH  25  26
ATOM     26  C   UNL     1     146.158 130.240 115.849  1.00  0.00    -0.000 C 
BRANCH  26  27
ATOM     27  C   UNL     1     146.015 131.755 116.081  1.00  0.00    -0.000 C 
BRANCH  27  28
ATOM     28  C   UNL     1     145.284 132.149 117.381  1.00  0.00    -0.000 C 
BRANCH  28  29
ATOM     29  C   UNL     1     144.506 133.475 117.313  1.00  0.00    -0.003 C 
ATOM     30  C   UNL     1     144.046 133.825 115.898  1.00  0.00     0.004 C 
ENDBRANCH  28  29
ENDBRANCH  27  28
ENDBRANCH  26  27
ENDBRANCH  25  26
ENDBRANCH  24  25
ENDBRANCH  23  24
ENDBRANCH  22  23
ENDBRANCH  21  22
ENDBRANCH  20  21
ENDBRANCH  19  20
ENDBRANCH  18  19
ENDBRANCH  17  18
ENDBRANCH   1  17
TORSDOF 26
ENDMDL
MODEL 7
REMARK VINA RESULT:    -3.400      3.672      7.732
REMARK INTER + INTRA:         -14.043
REMARK INTER:                  -9.193
REMARK INTRA:                  -4.850
REMARK UNBOUND:                -5.474
REMARK SMILES CCCCCCCCCCCCCCCCCCCCCCCCCCCC(=O)[O-]
REMARK SMILES IDX 15 1 16 2 17 3 18 4 19 5 20 6 21 7 22 8 23 9 24 10 25 11
REMARK SMILES IDX 26 12 27 13 28 14 29 15 30 16 14 17 13 18 12 19 11 20 10 21
REMARK SMILES IDX 9 22 8 23 7 24 6 25 5 26 4 27 3 28 2 29 1 30
REMARK H PARENT
REMARK Flexibility Score: inf
ROOT
ATOM      1  C   UNL     1     142.727 127.682 115.095  1.00  0.00     0.000 C 
ENDROOT
BRANCH   1   2
ATOM      2  C   UNL     1     141.873 128.881 115.551  1.00  0.00     0.000 C 
BRANCH   2   3
ATOM      3  C   UNL     1     141.990 130.147 114.682  1.00  0.00     0.000 C 
BRANCH   3   4
ATOM      4  C   UNL     1     140.900 130.241 113.601  1.00  0.00     0.000 C 
BRANCH   4   5
ATOM      5  C   UNL     1     139.516 129.807 114.112  1.00  0.00     0.000 C 
BRANCH   5   6
ATOM      6  C   UNL     1     138.848 128.751 113.220  1.00  0.00     0.000 C 
BRANCH   6   7
ATOM      7  C   UNL     1     138.989 127.350 113.827  1.00  0.00     0.000 C 
BRANCH   7   8
ATOM      8  C   UNL     1     138.569 127.345 115.304  1.00  0.00     0.000 C 
BRANCH   8   9
ATOM      9  C   UNL     1     137.041 127.313 115.498  1.00  0.00     0.000 C 
BRANCH   9  10
ATOM     10  C   UNL     1     136.426 128.612 116.052  1.00  0.00     0.000 C 
BRANCH  10  11
ATOM     11  C   UNL     1     136.026 128.505 117.530  1.00  0.00     0.000 C 
BRANCH  11  12
ATOM     12  C   UNL     1     134.797 127.604 117.699  1.00  0.00     0.006 C 
BRANCH  12  13
ATOM     13  C   UNL     1     133.538 128.435 117.975  1.00  0.00     0.053 C 
BRANCH  13  14
ATOM     14  C   UNL     1     132.587 128.355 116.822  1.00  0.00     0.041 C 
ATOM     15  O   UNL     1     132.968 127.891 115.715  1.00  0.00    -0.550 OA
ATOM     16  O   UNL     1     131.272 128.776 116.974  1.00  0.00    -0.550 OA
ENDBRANCH  13  14
ENDBRANCH  12  13
ENDBRANCH  11  12
ENDBRANCH  10  11
ENDBRANCH   9  10
ENDBRANCH   8   9
ENDBRANCH   7   8
ENDBRANCH   6   7
ENDBRANCH   5   6
ENDBRANCH   4   5
ENDBRANCH   3   4
ENDBRANCH   2   3
ENDBRANCH   1   2
BRANCH   1  17
ATOM     17  C   UNL     1     143.654 127.147 116.199  1.00  0.00     0.000 C 
BRANCH  17  18
ATOM     18  C   UNL     1     145.149 127.312 115.868  1.00  0.00     0.000 C 
BRANCH  18  19
ATOM     19  C   UNL     1     145.454 127.976 114.512  1.00  0.00     0.000 C 
BRANCH  19  20
ATOM     20  C   UNL     1     145.669 129.496 114.620  1.00  0.00     0.000 C 
BRANCH  20  21
ATOM     21  C   UNL     1     146.019 129.940 116.056  1.00  0.00     0.000 C 
BRANCH  21  22
ATOM     22  C   UNL     1     145.125 131.074 116.592  1.00  0.00    -0.000 C 
BRANCH  22  23
ATOM     23  C   UNL     1     144.731 130.946 118.073  1.00  0.00    -0.000 C 
BRANCH  23  24
ATOM     24  C   UNL     1     143.484 130.081 118.341  1.00  0.00    -0.000 C 
BRANCH  24  25
ATOM     25  C   UNL     1     143.438 129.479 119.762  1.00  0.00    -0.000 C 
BRANCH  25  26
ATOM     26  C   UNL     1     143.272 127.948 119.746  1.00  0.00    -0.000 C 
BRANCH  26  27
ATOM     27  C   UNL     1     141.826 127.502 120.031  1.00  0.00    -0.000 C 
BRANCH  27  28
ATOM     28  C   UNL     1     140.927 127.369 118.785  1.00  0.00    -0.000 C 
BRANCH  28  29
ATOM     29  C   UNL     1     139.573 128.093 118.879  1.00  0.00    -0.003 C 
ATOM     30  C   UNL     1     139.606 129.499 118.280  1.00  0.00     0.004 C 
ENDBRANCH  28  29
ENDBRANCH  27  28
ENDBRANCH  26  27
ENDBRANCH  25  26
ENDBRANCH  24  25
ENDBRANCH  23  24
ENDBRANCH  22  23
ENDBRANCH  21  22
ENDBRANCH  20  21
ENDBRANCH  19  20
ENDBRANCH  18  19
ENDBRANCH  17  18
ENDBRANCH   1  17
TORSDOF 26
ENDMDL
MODEL 8
REMARK VINA RESULT:    -3.374      1.355      2.295
REMARK INTER + INTRA:         -13.978
REMARK INTER:                  -8.441
REMARK INTRA:                  -5.537
REMARK UNBOUND:                -5.474
REMARK SMILES CCCCCCCCCCCCCCCCCCCCCCCCCCCC(=O)[O-]
REMARK SMILES IDX 15 1 16 2 17 3 18 4 19 5 20 6 21 7 22 8 23 9 24 10 25 11
REMARK SMILES IDX 26 12 27 13 28 14 29 15 30 16 14 17 13 18 12 19 11 20 10 21
REMARK SMILES IDX 9 22 8 23 7 24 6 25 5 26 4 27 3 28 2 29 1 30
REMARK H PARENT
REMARK Flexibility Score: inf
ROOT
ATOM      1  C   UNL     1     139.390 129.630 114.474  1.00  0.00     0.000 C 
ENDROOT
BRANCH   1   2
ATOM      2  C   UNL     1     140.915 129.837 114.399  1.00  0.00     0.000 C 
BRANCH   2   3
ATOM      3  C   UNL     1     141.739 129.090 115.465  1.00  0.00     0.000 C 
BRANCH   3   4
ATOM      4  C   UNL     1     142.366 127.787 114.941  1.00  0.00     0.000 C 
BRANCH   4   5
ATOM      5  C   UNL     1     143.723 127.475 115.593  1.00  0.00     0.000 C 
BRANCH   5   6
ATOM      6  C   UNL     1     144.907 127.637 114.628  1.00  0.00     0.000 C 
BRANCH   6   7
ATOM      7  C   UNL     1     145.257 129.116 114.432  1.00  0.00     0.000 C 
BRANCH   7   8
ATOM      8  C   UNL     1     146.191 129.614 115.546  1.00  0.00     0.000 C 
BRANCH   8   9
ATOM      9  C   UNL     1     145.903 131.066 115.972  1.00  0.00     0.000 C 
BRANCH   9  10
ATOM     10  C   UNL     1     144.429 131.500 115.861  1.00  0.00     0.000 C 
BRANCH  10  11
ATOM     11  C   UNL     1     143.815 131.897 117.211  1.00  0.00     0.000 C 
BRANCH  11  12
ATOM     12  C   UNL     1     144.445 131.092 118.354  1.00  0.00     0.006 C 
BRANCH  12  13
ATOM     13  C   UNL     1     143.700 129.770 118.574  1.00  0.00     0.053 C 
BRANCH  13  14
ATOM     14  C   UNL     1     144.651 128.685 118.971  1.00  0.00     0.041 C 
ATOM     15  O   UNL     1     144.236 127.509 119.146  1.00  0.00    -0.550 OA
ATOM     16  O   UNL     1     146.002 128.968 119.131  1.00  0.00    -0.550 OA
ENDBRANCH  13  14
ENDBRANCH  12  13
ENDBRANCH  11  12
ENDBRANCH  10  11
ENDBRANCH   9  10
ENDBRANCH   8   9
ENDBRANCH   7   8
ENDBRANCH   6   7
ENDBRANCH   5   6
ENDBRANCH   4   5
ENDBRANCH   3   4
ENDBRANCH   2   3
ENDBRANCH   1   2
BRANCH   1  17
ATOM     17  C   UNL     1     138.893 128.478 113.586  1.00  0.00     0.000 C 
BRANCH  17  18
ATOM     18  C   UNL     1     138.270 127.319 114.388  1.00  0.00     0.000 C 
BRANCH  18  19
ATOM     19  C   UNL     1     138.606 127.305 115.891  1.00  0.00     0.000 C 
BRANCH  19  20
ATOM     20  C   UNL     1     137.361 127.163 116.785  1.00  0.00     0.000 C 
BRANCH  20  21
ATOM     21  C   UNL     1     136.047 127.223 115.977  1.00  0.00     0.000 C 
BRANCH  21  22
ATOM     22  C   UNL     1     135.197 128.475 116.267  1.00  0.00    -0.000 C 
BRANCH  22  23
ATOM     23  C   UNL     1     135.820 129.804 115.806  1.00  0.00    -0.000 C 
BRANCH  23  24
ATOM     24  C   UNL     1     135.965 130.870 116.910  1.00  0.00    -0.000 C 
BRANCH  24  25
ATOM     25  C   UNL     1     137.430 131.214 117.253  1.00  0.00    -0.000 C 
BRANCH  25  26
ATOM     26  C   UNL     1     137.999 130.316 118.366  1.00  0.00    -0.000 C 
BRANCH  26  27
ATOM     27  C   UNL     1     139.524 130.137 118.268  1.00  0.00    -0.000 C 
BRANCH  27  28
ATOM     28  C   UNL     1     140.307 131.410 117.887  1.00  0.00    -0.000 C 
BRANCH  28  29
ATOM     29  C   UNL     1     140.542 132.400 119.042  1.00  0.00    -0.003 C 
ATOM     30  C   UNL     1     141.067 131.725 120.308  1.00  0.00     0.004 C 
ENDBRANCH  28  29
ENDBRANCH  27  28
ENDBRANCH  26  27
ENDBRANCH  25  26
ENDBRANCH  24  25
ENDBRANCH  23  24
ENDBRANCH  22  23
ENDBRANCH  21  22
ENDBRANCH  20  21
ENDBRANCH  19  20
ENDBRANCH  18  19
ENDBRANCH  17  18
ENDBRANCH   1  17
TORSDOF 26
ENDMDL
MODEL 9
REMARK VINA RESULT:    -3.239      1.411      3.710
REMARK INTER + INTRA:         -13.638
REMARK INTER:                  -8.290
REMARK INTRA:                  -5.348
REMARK UNBOUND:                -5.474
REMARK SMILES CCCCCCCCCCCCCCCCCCCCCCCCCCCC(=O)[O-]
REMARK SMILES IDX 15 1 16 2 17 3 18 4 19 5 20 6 21 7 22 8 23 9 24 10 25 11
REMARK SMILES IDX 26 12 27 13 28 14 29 15 30 16 14 17 13 18 12 19 11 20 10 21
REMARK SMILES IDX 9 22 8 23 7 24 6 25 5 26 4 27 3 28 2 29 1 30
REMARK H PARENT
REMARK Flexibility Score: inf
ROOT
ATOM      1  C   UNL     1     142.553 132.091 117.542  1.00  0.00     0.000 C 
ENDROOT
BRANCH   1   2
ATOM      2  C   UNL     1     143.982 132.664 117.608  1.00  0.00     0.000 C 
BRANCH   2   3
ATOM      3  C   UNL     1     144.585 133.100 116.258  1.00  0.00     0.000 C 
BRANCH   3   4
ATOM      4  C   UNL     1     145.843 132.304 115.873  1.00  0.00     0.000 C 
BRANCH   4   5
ATOM      5  C   UNL     1     145.715 130.803 116.179  1.00  0.00     0.000 C 
BRANCH   5   6
ATOM      6  C   UNL     1     146.304 129.910 115.077  1.00  0.00     0.000 C 
BRANCH   6   7
ATOM      7  C   UNL     1     145.202 129.118 114.364  1.00  0.00     0.000 C 
BRANCH   7   8
ATOM      8  C   UNL     1     145.028 127.728 114.993  1.00  0.00     0.000 C 
BRANCH   8   9
ATOM      9  C   UNL     1     143.560 127.265 115.038  1.00  0.00     0.000 C 
BRANCH   9  10
ATOM     10  C   UNL     1     142.915 127.270 116.437  1.00  0.00     0.000 C 
BRANCH  10  11
ATOM     11  C   UNL     1     143.946 127.257 117.574  1.00  0.00     0.000 C 
BRANCH  11  12
ATOM     12  C   UNL     1     143.853 128.539 118.410  1.00  0.00     0.006 C 
BRANCH  12  13
ATOM     13  C   UNL     1     145.226 128.938 118.963  1.00  0.00     0.053 C 
BRANCH  13  14
ATOM     14  C   UNL     1     145.423 128.386 120.340  1.00  0.00     0.041 C 
ATOM     15  O   UNL     1     146.545 127.932 120.689  1.00  0.00    -0.550 OA
ATOM     16  O   UNL     1     144.371 128.388 121.248  1.00  0.00    -0.550 OA
ENDBRANCH  13  14
ENDBRANCH  12  13
ENDBRANCH  11  12
ENDBRANCH  10  11
ENDBRANCH   9  10
ENDBRANCH   8   9
ENDBRANCH   7   8
ENDBRANCH   6   7
ENDBRANCH   5   6
ENDBRANCH   4   5
ENDBRANCH   3   4
ENDBRANCH   2   3
ENDBRANCH   1   2
BRANCH   1  17
ATOM     17  C   UNL     1     142.039 131.917 116.103  1.00  0.00     0.000 C 
BRANCH  17  18
ATOM     18  C   UNL     1     141.959 130.444 115.662  1.00  0.00     0.000 C 
BRANCH  18  19
ATOM     19  C   UNL     1     141.479 130.214 114.217  1.00  0.00     0.000 C 
BRANCH  19  20
ATOM     20  C   UNL     1     140.021 129.728 114.137  1.00  0.00     0.000 C 
BRANCH  20  21
ATOM     21  C   UNL     1     139.889 128.216 114.420  1.00  0.00     0.000 C 
BRANCH  21  22
ATOM     22  C   UNL     1     138.472 127.784 114.843  1.00  0.00    -0.000 C 
BRANCH  22  23
ATOM     23  C   UNL     1     138.339 127.337 116.309  1.00  0.00    -0.000 C 
BRANCH  23  24
ATOM     24  C   UNL     1     139.611 127.520 117.161  1.00  0.00    -0.000 C 
BRANCH  24  25
ATOM     25  C   UNL     1     139.577 128.767 118.069  1.00  0.00    -0.000 C 
BRANCH  25  26
ATOM     26  C   UNL     1     138.197 128.987 118.715  1.00  0.00    -0.000 C 
BRANCH  26  27
ATOM     27  C   UNL     1     137.573 130.344 118.343  1.00  0.00    -0.000 C 
BRANCH  27  28
ATOM     28  C   UNL     1     138.091 130.962 117.028  1.00  0.00    -0.000 C 
BRANCH  28  29
ATOM     29  C   UNL     1     138.769 132.335 117.177  1.00  0.00    -0.003 C 
ATOM     30  C   UNL     1     138.651 132.908 118.589  1.00  0.00     0.004 C 
ENDBRANCH  28  29
ENDBRANCH  27  28
ENDBRANCH  26  27
ENDBRANCH  25  26
ENDBRANCH  24  25
ENDBRANCH  23  24
ENDBRANCH  22  23
ENDBRANCH  21  22
ENDBRANCH  20  21
ENDBRANCH  19  20
ENDBRANCH  18  19
ENDBRANCH  17  18
ENDBRANCH   1  17
TORSDOF 26
ENDMDL
