MODEL 1
REMARK VINA RESULT:    -5.047      0.000      0.000
REMARK INTER + INTRA:         -12.177
REMARK INTER:                  -9.768
REMARK INTRA:                  -2.408
REMARK UNBOUND:                -2.408
REMARK SMILES CCCCCCCCCCCCCCCCCC(=O)[O-]
REMARK SMILES IDX 10 1 11 2 12 3 13 4 14 5 15 6 16 7 17 8 18 9 19 10 20 11
REMARK SMILES IDX 9 12 8 13 7 14 6 15 5 16 4 17 3 18 2 19 1 20
REMARK H PARENT
REMARK Flexibility Score: inf
ROOT
ATOM      1  C   UNL     1      -6.595   8.003 -10.741  1.00  0.00     0.000 C 
ENDROOT
BRANCH   1   2
ATOM      2  C   UNL     1      -7.097   9.358 -11.281  1.00  0.00     0.000 C 
BRANCH   2   3
ATOM      3  C   UNL     1      -7.945  10.180 -10.290  1.00  0.00     0.000 C 
BRANCH   3   4
ATOM      4  C   UNL     1      -7.177  11.268  -9.518  1.00  0.00     0.000 C 
BRANCH   4   5
ATOM      5  C   UNL     1      -6.438  10.716  -8.286  1.00  0.00     0.000 C 
BRANCH   5   6
ATOM      6  C   UNL     1      -4.934  10.520  -8.541  1.00  0.00     0.000 C 
BRANCH   6   7
ATOM      7  C   UNL     1      -4.252   9.690  -7.442  1.00  0.00     0.006 C 
BRANCH   7   8
ATOM      8  C   UNL     1      -3.820   8.323  -7.977  1.00  0.00     0.053 C 
BRANCH   8   9
ATOM      9  C   UNL     1      -3.329   7.458  -6.859  1.00  0.00     0.041 C 
ATOM     10  O   UNL     1      -2.302   7.787  -6.208  1.00  0.00    -0.550 OA
ATOM     11  O   UNL     1      -4.041   6.320  -6.495  1.00  0.00    -0.550 OA
ENDBRANCH   8   9
ENDBRANCH   7   8
ENDBRANCH   6   7
ENDBRANCH   5   6
ENDBRANCH   4   5
ENDBRANCH   3   4
ENDBRANCH   2   3
ENDBRANCH   1   2
BRANCH   1  12
ATOM     12  C   UNL     1      -7.578   7.271  -9.805  1.00  0.00     0.000 C 
BRANCH  12  13
ATOM     13  C   UNL     1      -6.988   6.846  -8.447  1.00  0.00    -0.000 C 
BRANCH  13  14
ATOM     14  C   UNL     1      -7.700   7.500  -7.255  1.00  0.00    -0.000 C 
BRANCH  14  15
ATOM     15  C   UNL     1      -8.563   6.476  -6.502  1.00  0.00    -0.000 C 
BRANCH  15  16
ATOM     16  C   UNL     1     -10.012   6.422  -7.016  1.00  0.00    -0.000 C 
BRANCH  16  17
ATOM     17  C   UNL     1     -10.477   5.037  -7.508  1.00  0.00    -0.000 C 
BRANCH  17  18
ATOM     18  C   UNL     1     -10.126   4.709  -8.973  1.00  0.00    -0.000 C 
BRANCH  18  19
ATOM     19  C   UNL     1      -8.965   3.716  -9.153  1.00  0.00    -0.003 C 
ATOM     20  C   UNL     1      -9.380   2.265  -8.916  1.00  0.00     0.004 C 
ENDBRANCH  18  19
ENDBRANCH  17  18
ENDBRANCH  16  17
ENDBRANCH  15  16
ENDBRANCH  14  15
ENDBRANCH  13  14
ENDBRANCH  12  13
ENDBRANCH   1  12
TORSDOF 16
ENDMDL
MODEL 2
REMARK VINA RESULT:    -4.986     12.122     15.151
REMARK INTER + INTRA:         -12.058
REMARK INTER:                  -9.462
REMARK INTRA:                  -2.596
REMARK UNBOUND:                -2.408
REMARK SMILES CCCCCCCCCCCCCCCCCC(=O)[O-]
REMARK SMILES IDX 10 1 11 2 12 3 13 4 14 5 15 6 16 7 17 8 18 9 19 10 20 11
REMARK SMILES IDX 9 12 8 13 7 14 6 15 5 16 4 17 3 18 2 19 1 20
REMARK H PARENT
REMARK Flexibility Score: inf
ROOT
ATOM      1  C   UNL     1       6.872  12.005 -16.622  1.00  0.00     0.000 C 
ENDROOT
BRANCH   1   2
ATOM      2  C   UNL     1       6.751  13.351 -17.365  1.00  0.00     0.000 C 
BRANCH   2   3
ATOM      3  C   UNL     1       5.309  13.778 -17.707  1.00  0.00     0.000 C 
BRANCH   3   4
ATOM      4  C   UNL     1       4.703  14.839 -16.770  1.00  0.00     0.000 C 
BRANCH   4   5
ATOM      5  C   UNL     1       3.223  14.572 -16.445  1.00  0.00     0.000 C 
BRANCH   5   6
ATOM      6  C   UNL     1       2.682  13.317 -17.149  1.00  0.00     0.000 C 
BRANCH   6   7
ATOM      7  C   UNL     1       1.868  12.416 -16.208  1.00  0.00     0.006 C 
BRANCH   7   8
ATOM      8  C   UNL     1       1.827  10.976 -16.728  1.00  0.00     0.053 C 
BRANCH   8   9
ATOM      9  C   UNL     1       1.365  10.047 -15.650  1.00  0.00     0.041 C 
ATOM     10  O   UNL     1       0.917   8.907 -15.946  1.00  0.00    -0.550 OA
ATOM     11  O   UNL     1       1.487  10.415 -14.315  1.00  0.00    -0.550 OA
ENDBRANCH   8   9
ENDBRANCH   7   8
ENDBRANCH   6   7
ENDBRANCH   5   6
ENDBRANCH   4   5
ENDBRANCH   3   4
ENDBRANCH   2   3
ENDBRANCH   1   2
BRANCH   1  12
ATOM     12  C   UNL     1       5.530  11.338 -16.259  1.00  0.00     0.000 C 
BRANCH  12  13
ATOM     13  C   UNL     1       5.621  10.234 -15.188  1.00  0.00    -0.000 C 
BRANCH  13  14
ATOM     14  C   UNL     1       5.423  10.767 -13.762  1.00  0.00    -0.000 C 
BRANCH  14  15
ATOM     15  C   UNL     1       4.673  12.108 -13.776  1.00  0.00    -0.000 C 
BRANCH  15  16
ATOM     16  C   UNL     1       5.519  13.272 -13.233  1.00  0.00    -0.000 C 
BRANCH  16  17
ATOM     17  C   UNL     1       6.983  12.916 -12.905  1.00  0.00    -0.000 C 
BRANCH  17  18
ATOM     18  C   UNL     1       7.366  13.025 -11.416  1.00  0.00    -0.000 C 
BRANCH  18  19
ATOM     19  C   UNL     1       8.441  12.028 -10.950  1.00  0.00    -0.003 C 
ATOM     20  C   UNL     1       8.122  10.585 -11.334  1.00  0.00     0.004 C 
ENDBRANCH  18  19
ENDBRANCH  17  18
ENDBRANCH  16  17
ENDBRANCH  15  16
ENDBRANCH  14  15
ENDBRANCH  13  14
ENDBRANCH  12  13
ENDBRANCH   1  12
TORSDOF 16
ENDMDL
MODEL 3
REMARK VINA RESULT:    -4.980      2.604      4.020
REMARK INTER + INTRA:         -12.047
REMARK INTER:                  -9.929
REMARK INTRA:                  -2.118
REMARK UNBOUND:                -2.408
REMARK SMILES CCCCCCCCCCCCCCCCCC(=O)[O-]
REMARK SMILES IDX 10 1 11 2 12 3 13 4 14 5 15 6 16 7 17 8 18 9 19 10 20 11
REMARK SMILES IDX 9 12 8 13 7 14 6 15 5 16 4 17 3 18 2 19 1 20
REMARK H PARENT
REMARK Flexibility Score: inf
ROOT
ATOM      1  C   UNL     1      -5.303   6.155  -7.244  1.00  0.00     0.000 C 
ENDROOT
BRANCH   1   2
ATOM      2  C   UNL     1      -3.942   6.668  -6.730  1.00  0.00     0.000 C 
BRANCH   2   3
ATOM      3  C   UNL     1      -3.380   7.890  -7.483  1.00  0.00     0.000 C 
BRANCH   3   4
ATOM      4  C   UNL     1      -3.787   9.258  -6.904  1.00  0.00     0.000 C 
BRANCH   4   5
ATOM      5  C   UNL     1      -4.838   9.982  -7.765  1.00  0.00     0.000 C 
BRANCH   5   6
ATOM      6  C   UNL     1      -4.680   9.679  -9.264  1.00  0.00     0.000 C 
BRANCH   6   7
ATOM      7  C   UNL     1      -5.498  10.632 -10.149  1.00  0.00     0.006 C 
BRANCH   7   8
ATOM      8  C   UNL     1      -6.575   9.870 -10.926  1.00  0.00     0.053 C 
BRANCH   8   9
ATOM      9  C   UNL     1      -7.938  10.265 -10.451  1.00  0.00     0.041 C 
ATOM     10  O   UNL     1      -8.085  11.278  -9.717  1.00  0.00    -0.550 OA
ATOM     11  O   UNL     1      -9.054   9.549 -10.869  1.00  0.00    -0.550 OA
ENDBRANCH   8   9
ENDBRANCH   7   8
ENDBRANCH   6   7
ENDBRANCH   5   6
ENDBRANCH   4   5
ENDBRANCH   3   4
ENDBRANCH   2   3
ENDBRANCH   1   2
BRANCH   1  12
ATOM     12  C   UNL     1      -5.432   6.079  -8.779  1.00  0.00     0.000 C 
BRANCH  12  13
ATOM     13  C   UNL     1      -6.751   6.635  -9.348  1.00  0.00    -0.000 C 
BRANCH  13  14
ATOM     14  C   UNL     1      -7.635   7.289  -8.277  1.00  0.00    -0.000 C 
BRANCH  14  15
ATOM     15  C   UNL     1      -8.959   6.528  -8.118  1.00  0.00    -0.000 C 
BRANCH  15  16
ATOM     16  C   UNL     1      -9.673   6.282  -9.458  1.00  0.00    -0.000 C 
BRANCH  16  17
ATOM     17  C   UNL     1     -10.915   5.373  -9.378  1.00  0.00    -0.000 C 
BRANCH  17  18
ATOM     18  C   UNL     1     -10.682   3.906  -9.790  1.00  0.00    -0.000 C 
BRANCH  18  19
ATOM     19  C   UNL     1      -9.333   3.315  -9.344  1.00  0.00    -0.003 C 
ATOM     20  C   UNL     1      -9.483   2.020  -8.548  1.00  0.00     0.004 C 
ENDBRANCH  18  19
ENDBRANCH  17  18
ENDBRANCH  16  17
ENDBRANCH  15  16
ENDBRANCH  14  15
ENDBRANCH  13  14
ENDBRANCH  12  13
ENDBRANCH   1  12
TORSDOF 16
ENDMDL
MODEL 4
REMARK VINA RESULT:    -4.917     12.096     15.035
REMARK INTER + INTRA:         -11.924
REMARK INTER:                  -9.089
REMARK INTRA:                  -2.836
REMARK UNBOUND:                -2.408
REMARK SMILES CCCCCCCCCCCCCCCCCC(=O)[O-]
REMARK SMILES IDX 10 1 11 2 12 3 13 4 14 5 15 6 16 7 17 8 18 9 19 10 20 11
REMARK SMILES IDX 9 12 8 13 7 14 6 15 5 16 4 17 3 18 2 19 1 20
REMARK H PARENT
REMARK Flexibility Score: inf
ROOT
ATOM      1  C   UNL     1       6.099  14.860 -16.388  1.00  0.00     0.000 C 
ENDROOT
BRANCH   1   2
ATOM      2  C   UNL     1       4.565  15.013 -16.378  1.00  0.00     0.000 C 
BRANCH   2   3
ATOM      3  C   UNL     1       3.884  14.838 -17.751  1.00  0.00     0.000 C 
BRANCH   3   4
ATOM      4  C   UNL     1       2.426  15.328 -17.824  1.00  0.00     0.000 C 
BRANCH   4   5
ATOM      5  C   UNL     1       1.424  14.186 -18.071  1.00  0.00     0.000 C 
BRANCH   5   6
ATOM      6  C   UNL     1       2.073  12.798 -17.946  1.00  0.00     0.000 C 
BRANCH   6   7
ATOM      7  C   UNL     1       1.628  12.049 -16.680  1.00  0.00     0.006 C 
BRANCH   7   8
ATOM      8  C   UNL     1       1.861  10.543 -16.824  1.00  0.00     0.053 C 
BRANCH   8   9
ATOM      9  C   UNL     1       1.241   9.809 -15.677  1.00  0.00     0.041 C 
ATOM     10  O   UNL     1       0.784   8.646 -15.841  1.00  0.00    -0.550 OA
ATOM     11  O   UNL     1       1.225  10.383 -14.411  1.00  0.00    -0.550 OA
ENDBRANCH   8   9
ENDBRANCH   7   8
ENDBRANCH   6   7
ENDBRANCH   5   6
ENDBRANCH   4   5
ENDBRANCH   3   4
ENDBRANCH   2   3
ENDBRANCH   1   2
BRANCH   1  12
ATOM     12  C   UNL     1       6.637  13.743 -17.305  1.00  0.00     0.000 C 
BRANCH  12  13
ATOM     13  C   UNL     1       6.756  12.359 -16.640  1.00  0.00    -0.000 C 
BRANCH  13  14
ATOM     14  C   UNL     1       5.401  11.656 -16.475  1.00  0.00    -0.000 C 
BRANCH  14  15
ATOM     15  C   UNL     1       5.500  10.500 -15.469  1.00  0.00    -0.000 C 
BRANCH  15  16
ATOM     16  C   UNL     1       4.769  10.794 -14.147  1.00  0.00    -0.000 C 
BRANCH  16  17
ATOM     17  C   UNL     1       4.167  12.209 -14.036  1.00  0.00    -0.000 C 
BRANCH  17  18
ATOM     18  C   UNL     1       4.869  13.144 -13.031  1.00  0.00    -0.000 C 
BRANCH  18  19
ATOM     19  C   UNL     1       6.331  12.779 -12.721  1.00  0.00    -0.003 C 
ATOM     20  C   UNL     1       7.322  13.842 -13.191  1.00  0.00     0.004 C 
ENDBRANCH  18  19
ENDBRANCH  17  18
ENDBRANCH  16  17
ENDBRANCH  15  16
ENDBRANCH  14  15
ENDBRANCH  13  14
ENDBRANCH  12  13
ENDBRANCH   1  12
TORSDOF 16
ENDMDL
MODEL 5
REMARK VINA RESULT:    -4.895      2.241      6.089
REMARK INTER + INTRA:         -11.882
REMARK INTER:                  -9.845
REMARK INTRA:                  -2.037
REMARK UNBOUND:                -2.408
REMARK SMILES CCCCCCCCCCCCCCCCCC(=O)[O-]
REMARK SMILES IDX 10 1 11 2 12 3 13 4 14 5 15 6 16 7 17 8 18 9 19 10 20 11
REMARK SMILES IDX 9 12 8 13 7 14 6 15 5 16 4 17 3 18 2 19 1 20
REMARK H PARENT
REMARK Flexibility Score: inf
ROOT
ATOM      1  C   UNL     1      -5.376   7.228  -7.630  1.00  0.00     0.000 C 
ENDROOT
BRANCH   1   2
ATOM      2  C   UNL     1      -5.442   6.656  -9.060  1.00  0.00     0.000 C 
BRANCH   2   3
ATOM      3  C   UNL     1      -6.040   5.239  -9.168  1.00  0.00     0.000 C 
BRANCH   3   4
ATOM      4  C   UNL     1      -7.562   5.153  -8.950  1.00  0.00     0.000 C 
BRANCH   4   5
ATOM      5  C   UNL     1      -8.323   6.326  -9.593  1.00  0.00     0.000 C 
BRANCH   5   6
ATOM      6  C   UNL     1      -9.813   6.340  -9.212  1.00  0.00     0.000 C 
BRANCH   6   7
ATOM      7  C   UNL     1     -10.183   5.218  -8.230  1.00  0.00     0.006 C 
BRANCH   7   8
ATOM      8  C   UNL     1     -10.813   5.789  -6.958  1.00  0.00     0.053 C 
BRANCH   8   9
ATOM      9  C   UNL     1      -9.800   5.851  -5.858  1.00  0.00     0.041 C 
ATOM     10  O   UNL     1      -9.898   5.085  -4.862  1.00  0.00    -0.550 OA
ATOM     11  O   UNL     1      -8.712   6.711  -5.962  1.00  0.00    -0.550 OA
ENDBRANCH   8   9
ENDBRANCH   7   8
ENDBRANCH   6   7
ENDBRANCH   5   6
ENDBRANCH   4   5
ENDBRANCH   3   4
ENDBRANCH   2   3
ENDBRANCH   1   2
BRANCH   1  12
ATOM     12  C   UNL     1      -3.955   7.533  -7.114  1.00  0.00     0.000 C 
BRANCH  12  13
ATOM     13  C   UNL     1      -3.506   8.997  -7.276  1.00  0.00    -0.000 C 
BRANCH  13  14
ATOM     14  C   UNL     1      -4.673   9.953  -7.557  1.00  0.00    -0.000 C 
BRANCH  14  15
ATOM     15  C   UNL     1      -4.652  10.432  -9.016  1.00  0.00    -0.000 C 
BRANCH  15  16
ATOM     16  C   UNL     1      -5.569  11.643  -9.262  1.00  0.00    -0.000 C 
BRANCH  16  17
ATOM     17  C   UNL     1      -7.079  11.340  -9.200  1.00  0.00    -0.000 C 
BRANCH  17  18
ATOM     18  C   UNL     1      -7.477   9.907  -9.607  1.00  0.00    -0.000 C 
BRANCH  18  19
ATOM     19  C   UNL     1      -7.710   9.703 -11.114  1.00  0.00    -0.003 C 
ATOM     20  C   UNL     1      -6.548   8.993 -11.806  1.00  0.00     0.004 C 
ENDBRANCH  18  19
ENDBRANCH  17  18
ENDBRANCH  16  17
ENDBRANCH  15  16
ENDBRANCH  14  15
ENDBRANCH  13  14
ENDBRANCH  12  13
ENDBRANCH   1  12
TORSDOF 16
ENDMDL
MODEL 6
REMARK VINA RESULT:    -4.858      3.012      6.656
REMARK INTER + INTRA:         -11.809
REMARK INTER:                  -9.722
REMARK INTRA:                  -2.087
REMARK UNBOUND:                -2.408
REMARK SMILES CCCCCCCCCCCCCCCCCC(=O)[O-]
REMARK SMILES IDX 10 1 11 2 12 3 13 4 14 5 15 6 16 7 17 8 18 9 19 10 20 11
REMARK SMILES IDX 9 12 8 13 7 14 6 15 5 16 4 17 3 18 2 19 1 20
REMARK H PARENT
REMARK Flexibility Score: inf
ROOT
ATOM      1  C   UNL     1      -5.722   6.537  -9.067  1.00  0.00     0.000 C 
ENDROOT
BRANCH   1   2
ATOM      2  C   UNL     1      -7.063   5.776  -9.032  1.00  0.00     0.000 C 
BRANCH   2   3
ATOM      3  C   UNL     1      -8.293   6.640  -8.686  1.00  0.00     0.000 C 
BRANCH   3   4
ATOM      4  C   UNL     1      -9.563   6.323  -9.497  1.00  0.00     0.000 C 
BRANCH   4   5
ATOM      5  C   UNL     1     -10.687   5.724  -8.634  1.00  0.00     0.000 C 
BRANCH   5   6
ATOM      6  C   UNL     1     -10.326   4.337  -8.075  1.00  0.00     0.000 C 
BRANCH   6   7
ATOM      7  C   UNL     1     -10.176   3.277  -9.177  1.00  0.00     0.006 C 
BRANCH   7   8
ATOM      8  C   UNL     1      -8.920   2.430  -8.956  1.00  0.00     0.053 C 
BRANCH   8   9
ATOM      9  C   UNL     1      -9.275   1.136  -8.295  1.00  0.00     0.041 C 
ATOM     10  O   UNL     1      -9.326   0.073  -8.969  1.00  0.00    -0.550 OA
ATOM     11  O   UNL     1      -9.487   1.092  -6.922  1.00  0.00    -0.550 OA
ENDBRANCH   8   9
ENDBRANCH   7   8
ENDBRANCH   6   7
ENDBRANCH   5   6
ENDBRANCH   4   5
ENDBRANCH   3   4
ENDBRANCH   2   3
ENDBRANCH   1   2
BRANCH   1  12
ATOM     12  C   UNL     1      -5.093   6.813  -7.687  1.00  0.00     0.000 C 
BRANCH  12  13
ATOM     13  C   UNL     1      -3.843   7.713  -7.711  1.00  0.00    -0.000 C 
BRANCH  13  14
ATOM     14  C   UNL     1      -3.993   8.919  -8.649  1.00  0.00    -0.000 C 
BRANCH  14  15
ATOM     15  C   UNL     1      -4.902   9.990  -8.026  1.00  0.00    -0.000 C 
BRANCH  15  16
ATOM     16  C   UNL     1      -5.152  11.182  -8.966  1.00  0.00    -0.000 C 
BRANCH  16  17
ATOM     17  C   UNL     1      -6.610  11.345  -9.437  1.00  0.00    -0.000 C 
BRANCH  17  18
ATOM     18  C   UNL     1      -7.405  10.031  -9.576  1.00  0.00    -0.000 C 
BRANCH  18  19
ATOM     19  C   UNL     1      -7.691   9.598 -11.024  1.00  0.00    -0.003 C 
ATOM     20  C   UNL     1      -6.460   9.039 -11.734  1.00  0.00     0.004 C 
ENDBRANCH  18  19
ENDBRANCH  17  18
ENDBRANCH  16  17
ENDBRANCH  15  16
ENDBRANCH  14  15
ENDBRANCH  13  14
ENDBRANCH  12  13
ENDBRANCH   1  12
TORSDOF 16
ENDMDL
MODEL 7
REMARK VINA RESULT:    -4.857      3.160      6.481
REMARK INTER + INTRA:         -11.809
REMARK INTER:                  -9.772
REMARK INTRA:                  -2.037
REMARK UNBOUND:                -2.408
REMARK SMILES CCCCCCCCCCCCCCCCCC(=O)[O-]
REMARK SMILES IDX 10 1 11 2 12 3 13 4 14 5 15 6 16 7 17 8 18 9 19 10 20 11
REMARK SMILES IDX 9 12 8 13 7 14 6 15 5 16 4 17 3 18 2 19 1 20
REMARK H PARENT
REMARK Flexibility Score: inf
ROOT
ATOM      1  C   UNL     1      -3.657   7.966  -7.851  1.00  0.00     0.000 C 
ENDROOT
BRANCH   1   2
ATOM      2  C   UNL     1      -4.190   6.769  -7.039  1.00  0.00     0.000 C 
BRANCH   2   3
ATOM      3  C   UNL     1      -5.648   6.371  -7.346  1.00  0.00     0.000 C 
BRANCH   3   4
ATOM      4  C   UNL     1      -5.894   5.845  -8.772  1.00  0.00     0.000 C 
BRANCH   4   5
ATOM      5  C   UNL     1      -7.375   5.524  -9.042  1.00  0.00     0.000 C 
BRANCH   5   6
ATOM      6  C   UNL     1      -8.324   6.303  -8.117  1.00  0.00     0.000 C 
BRANCH   6   7
ATOM      7  C   UNL     1      -9.802   5.965  -8.367  1.00  0.00     0.006 C 
BRANCH   7   8
ATOM      8  C   UNL     1     -10.013   4.451  -8.442  1.00  0.00     0.053 C 
BRANCH   8   9
ATOM      9  C   UNL     1     -10.596   4.071  -9.767  1.00  0.00     0.041 C 
ATOM     10  O   UNL     1     -10.735   2.858 -10.073  1.00  0.00    -0.550 OA
ATOM     11  O   UNL     1     -11.043   5.059 -10.638  1.00  0.00    -0.550 OA
ENDBRANCH   8   9
ENDBRANCH   7   8
ENDBRANCH   6   7
ENDBRANCH   5   6
ENDBRANCH   4   5
ENDBRANCH   3   4
ENDBRANCH   2   3
ENDBRANCH   1   2
BRANCH   1  12
ATOM     12  C   UNL     1      -3.953   9.351  -7.242  1.00  0.00     0.000 C 
BRANCH  12  13
ATOM     13  C   UNL     1      -5.157  10.088  -7.858  1.00  0.00    -0.000 C 
BRANCH  13  14
ATOM     14  C   UNL     1      -4.766  10.984  -9.042  1.00  0.00    -0.000 C 
BRANCH  14  15
ATOM     15  C   UNL     1      -5.847  12.042  -9.310  1.00  0.00    -0.000 C 
BRANCH  15  16
ATOM     16  C   UNL     1      -7.268  11.537  -9.008  1.00  0.00    -0.000 C 
BRANCH  16  17
ATOM     17  C   UNL     1      -7.960  10.802 -10.173  1.00  0.00    -0.000 C 
BRANCH  17  18
ATOM     18  C   UNL     1      -7.929   9.263 -10.087  1.00  0.00    -0.000 C 
BRANCH  18  19
ATOM     19  C   UNL     1      -6.830   8.590 -10.927  1.00  0.00    -0.003 C 
ATOM     20  C   UNL     1      -6.334   9.468 -12.074  1.00  0.00     0.004 C 
ENDBRANCH  18  19
ENDBRANCH  17  18
ENDBRANCH  16  17
ENDBRANCH  15  16
ENDBRANCH  14  15
ENDBRANCH  13  14
ENDBRANCH  12  13
ENDBRANCH   1  12
TORSDOF 16
ENDMDL
MODEL 8
REMARK VINA RESULT:    -4.851      3.009      6.732
REMARK INTER + INTRA:         -11.797
REMARK INTER:                  -9.616
REMARK INTRA:                  -2.181
REMARK UNBOUND:                -2.408
REMARK SMILES CCCCCCCCCCCCCCCCCC(=O)[O-]
REMARK SMILES IDX 10 1 11 2 12 3 13 4 14 5 15 6 16 7 17 8 18 9 19 10 20 11
REMARK SMILES IDX 9 12 8 13 7 14 6 15 5 16 4 17 3 18 2 19 1 20
REMARK H PARENT
REMARK Flexibility Score: inf
ROOT
ATOM      1  C   UNL     1      -6.583   7.511 -10.162  1.00  0.00     0.000 C 
ENDROOT
BRANCH   1   2
ATOM      2  C   UNL     1      -6.902   6.445  -9.095  1.00  0.00     0.000 C 
BRANCH   2   3
ATOM      3  C   UNL     1      -7.926   6.879  -8.027  1.00  0.00     0.000 C 
BRANCH   3   4
ATOM      4  C   UNL     1      -9.249   6.091  -8.032  1.00  0.00     0.000 C 
BRANCH   4   5
ATOM      5  C   UNL     1      -9.590   5.507  -9.414  1.00  0.00     0.000 C 
BRANCH   5   6
ATOM      6  C   UNL     1      -9.661   3.971  -9.403  1.00  0.00     0.000 C 
BRANCH   6   7
ATOM      7  C   UNL     1     -10.078   3.409  -8.036  1.00  0.00     0.006 C 
BRANCH   7   8
ATOM      8  C   UNL     1     -10.283   1.893  -8.106  1.00  0.00     0.053 C 
BRANCH   8   9
ATOM      9  C   UNL     1      -9.975   1.264  -6.784  1.00  0.00     0.041 C 
ATOM     10  O   UNL     1     -10.322   1.833  -5.715  1.00  0.00    -0.550 OA
ATOM     11  O   UNL     1      -9.360   0.018  -6.733  1.00  0.00    -0.550 OA
ENDBRANCH   8   9
ENDBRANCH   7   8
ENDBRANCH   6   7
ENDBRANCH   5   6
ENDBRANCH   4   5
ENDBRANCH   3   4
ENDBRANCH   2   3
ENDBRANCH   1   2
BRANCH   1  12
ATOM     12  C   UNL     1      -7.698   8.550 -10.399  1.00  0.00     0.000 C 
BRANCH  12  13
ATOM     13  C   UNL     1      -7.207   9.998 -10.589  1.00  0.00    -0.000 C 
BRANCH  13  14
ATOM     14  C   UNL     1      -5.678  10.105 -10.666  1.00  0.00    -0.000 C 
BRANCH  14  15
ATOM     15  C   UNL     1      -5.135  11.019  -9.557  1.00  0.00    -0.000 C 
BRANCH  15  16
ATOM     16  C   UNL     1      -5.919  10.892  -8.240  1.00  0.00    -0.000 C 
BRANCH  16  17
ATOM     17  C   UNL     1      -5.492   9.718  -7.337  1.00  0.00    -0.000 C 
BRANCH  17  18
ATOM     18  C   UNL     1      -3.991   9.369  -7.383  1.00  0.00    -0.000 C 
BRANCH  18  19
ATOM     19  C   UNL     1      -3.671   7.950  -7.882  1.00  0.00    -0.003 C 
ATOM     20  C   UNL     1      -3.874   6.881  -6.809  1.00  0.00     0.004 C 
ENDBRANCH  18  19
ENDBRANCH  17  18
ENDBRANCH  16  17
ENDBRANCH  15  16
ENDBRANCH  14  15
ENDBRANCH  13  14
ENDBRANCH  12  13
ENDBRANCH   1  12
TORSDOF 16
ENDMDL
MODEL 9
REMARK VINA RESULT:    -4.833      2.950      7.046
REMARK INTER + INTRA:         -11.762
REMARK INTER:                  -9.719
REMARK INTRA:                  -2.043
REMARK UNBOUND:                -2.408
REMARK SMILES CCCCCCCCCCCCCCCCCC(=O)[O-]
REMARK SMILES IDX 10 1 11 2 12 3 13 4 14 5 15 6 16 7 17 8 18 9 19 10 20 11
REMARK SMILES IDX 9 12 8 13 7 14 6 15 5 16 4 17 3 18 2 19 1 20
REMARK H PARENT
REMARK Flexibility Score: inf
ROOT
ATOM      1  C   UNL     1      -7.867   7.358  -9.191  1.00  0.00     0.000 C 
ENDROOT
BRANCH   1   2
ATOM      2  C   UNL     1      -8.738   6.223  -8.616  1.00  0.00     0.000 C 
BRANCH   2   3
ATOM      3  C   UNL     1      -9.927   5.801  -9.502  1.00  0.00     0.000 C 
BRANCH   3   4
ATOM      4  C   UNL     1     -10.076   4.284  -9.718  1.00  0.00     0.000 C 
BRANCH   4   5
ATOM      5  C   UNL     1      -8.865   3.487  -9.203  1.00  0.00     0.000 C 
BRANCH   5   6
ATOM      6  C   UNL     1      -9.251   2.082  -8.711  1.00  0.00     0.000 C 
BRANCH   6   7
ATOM      7  C   UNL     1     -10.577   2.071  -7.936  1.00  0.00     0.006 C 
BRANCH   7   8
ATOM      8  C   UNL     1     -10.352   1.694  -6.469  1.00  0.00     0.053 C 
BRANCH   8   9
ATOM      9  C   UNL     1     -10.464   2.904  -5.597  1.00  0.00     0.041 C 
ATOM     10  O   UNL     1     -10.316   2.803  -4.350  1.00  0.00    -0.550 OA
ATOM     11  O   UNL     1     -10.670   4.156  -6.168  1.00  0.00    -0.550 OA
ENDBRANCH   8   9
ENDBRANCH   7   8
ENDBRANCH   6   7
ENDBRANCH   5   6
ENDBRANCH   4   5
ENDBRANCH   3   4
ENDBRANCH   2   3
ENDBRANCH   1   2
BRANCH   1  12
ATOM     12  C   UNL     1      -6.529   6.904  -9.809  1.00  0.00     0.000 C 
BRANCH  12  13
ATOM     13  C   UNL     1      -5.635   6.064  -8.878  1.00  0.00    -0.000 C 
BRANCH  13  14
ATOM     14  C   UNL     1      -5.016   6.890  -7.741  1.00  0.00    -0.000 C 
BRANCH  14  15
ATOM     15  C   UNL     1      -3.874   7.775  -8.263  1.00  0.00    -0.000 C 
BRANCH  15  16
ATOM     16  C   UNL     1      -3.844   9.164  -7.602  1.00  0.00    -0.000 C 
BRANCH  16  17
ATOM     17  C   UNL     1      -5.212   9.685  -7.119  1.00  0.00    -0.000 C 
BRANCH  17  18
ATOM     18  C   UNL     1      -5.999  10.514  -8.153  1.00  0.00    -0.000 C 
BRANCH  18  19
ATOM     19  C   UNL     1      -5.157  11.072  -9.313  1.00  0.00    -0.003 C 
ATOM     20  C   UNL     1      -5.326  10.280 -10.608  1.00  0.00     0.004 C 
ENDBRANCH  18  19
ENDBRANCH  17  18
ENDBRANCH  16  17
ENDBRANCH  15  16
ENDBRANCH  14  15
ENDBRANCH  13  14
ENDBRANCH  12  13
ENDBRANCH   1  12
TORSDOF 16
ENDMDL
