MODEL 1
REMARK VINA RESULT:    -5.597      0.000      0.000
REMARK INTER + INTRA:          -5.761
REMARK INTER:                  -5.761
REMARK INTRA:                   0.000
REMARK UNBOUND:                 0.000
REMARK SMILES O=c1ccc2ccc(O)cc2o1
REMARK SMILES IDX 6 1 7 2 8 3 10 4 11 5 5 6 4 7 3 8 2 9 1 10 12 11 9 12
REMARK H PARENT 9 13
REMARK Flexibility Score: inf
ROOT
ATOM      1  C   UNL     1     -21.737  -2.981  22.540  1.00  0.00     0.016 A 
ATOM      2  C   UNL     1     -22.074  -1.754  23.121  1.00  0.00     0.047 A 
ATOM      3  C   UNL     1     -22.025  -0.575  22.363  1.00  0.00     0.119 A 
ATOM      4  C   UNL     1     -21.637  -0.625  21.019  1.00  0.00     0.094 A 
ATOM      5  C   UNL     1     -21.298  -1.847  20.429  1.00  0.00     0.142 A 
ATOM      6  C   UNL     1     -21.347  -3.033  21.195  1.00  0.00     0.018 A 
ATOM      7  C   UNL     1     -21.003  -4.240  20.578  1.00  0.00     0.019 A 
ATOM      8  C   UNL     1     -20.623  -4.238  19.236  1.00  0.00     0.094 A 
ATOM      9  C   UNL     1     -20.596  -3.025  18.540  1.00  0.00     0.336 A 
ATOM     10  O   UNL     1     -20.256  -3.002  17.328  1.00  0.00    -0.246 OA
ATOM     11  O   UNL     1     -20.929  -1.890  19.150  1.00  0.00    -0.423 OA
ENDROOT
BRANCH   3  12
ATOM     12  O   UNL     1     -22.360   0.650  22.936  1.00  0.00    -0.508 OA
ATOM     13  H   UNL     1     -22.158   1.526  22.467  1.00  0.00     0.293 HD
ENDBRANCH   3  12
TORSDOF 1
ENDMDL
MODEL 2
REMARK VINA RESULT:    -5.412      0.847      4.223
REMARK INTER + INTRA:          -5.570
REMARK INTER:                  -5.570
REMARK INTRA:                   0.000
REMARK UNBOUND:                 0.000
REMARK SMILES O=c1ccc2ccc(O)cc2o1
REMARK SMILES IDX 6 1 7 2 8 3 10 4 11 5 5 6 4 7 3 8 2 9 1 10 12 11 9 12
REMARK H PARENT 9 13
REMARK Flexibility Score: inf
ROOT
ATOM      1  C   UNL     1     -20.898  -4.435  20.392  1.00  0.00     0.016 A 
ATOM      2  C   UNL     1     -20.541  -4.336  19.044  1.00  0.00     0.047 A 
ATOM      3  C   UNL     1     -20.549  -3.091  18.399  1.00  0.00     0.119 A 
ATOM      4  C   UNL     1     -20.917  -1.940  19.108  1.00  0.00     0.094 A 
ATOM      5  C   UNL     1     -21.277  -2.030  20.456  1.00  0.00     0.142 A 
ATOM      6  C   UNL     1     -21.268  -3.285  21.103  1.00  0.00     0.018 A 
ATOM      7  C   UNL     1     -21.632  -3.343  22.453  1.00  0.00     0.019 A 
ATOM      8  C   UNL     1     -21.990  -2.170  23.115  1.00  0.00     0.094 A 
ATOM      9  C   UNL     1     -21.977  -0.961  22.410  1.00  0.00     0.336 A 
ATOM     10  O   UNL     1     -22.298   0.109  22.990  1.00  0.00    -0.246 OA
ATOM     11  O   UNL     1     -21.626  -0.933  21.126  1.00  0.00    -0.423 OA
ENDROOT
BRANCH   3  12
ATOM     12  O   UNL     1     -20.193  -2.985  17.056  1.00  0.00    -0.508 OA
ATOM     13  H   UNL     1     -19.228  -3.065  16.757  1.00  0.00     0.293 HD
ENDBRANCH   3  12
TORSDOF 1
ENDMDL
MODEL 3
REMARK VINA RESULT:    -5.196      1.941      2.883
REMARK INTER + INTRA:          -5.348
REMARK INTER:                  -5.348
REMARK INTRA:                   0.000
REMARK UNBOUND:                 0.000
REMARK SMILES O=c1ccc2ccc(O)cc2o1
REMARK SMILES IDX 6 1 7 2 8 3 10 4 11 5 5 6 4 7 3 8 2 9 1 10 12 11 9 12
REMARK H PARENT 9 13
REMARK Flexibility Score: inf
ROOT
ATOM      1  C   UNL     1     -21.696  -1.709  20.028  1.00  0.00     0.016 A 
ATOM      2  C   UNL     1     -21.918  -2.120  21.346  1.00  0.00     0.047 A 
ATOM      3  C   UNL     1     -21.372  -3.325  21.813  1.00  0.00     0.119 A 
ATOM      4  C   UNL     1     -20.602  -4.120  20.955  1.00  0.00     0.094 A 
ATOM      5  C   UNL     1     -20.375  -3.718  19.636  1.00  0.00     0.142 A 
ATOM      6  C   UNL     1     -20.926  -2.504  19.168  1.00  0.00     0.018 A 
ATOM      7  C   UNL     1     -20.682  -2.127  17.843  1.00  0.00     0.019 A 
ATOM      8  C   UNL     1     -19.908  -2.953  17.029  1.00  0.00     0.094 A 
ATOM      9  C   UNL     1     -19.396  -4.142  17.560  1.00  0.00     0.336 A 
ATOM     10  O   UNL     1     -18.695  -4.902  16.840  1.00  0.00    -0.246 OA
ATOM     11  O   UNL     1     -19.643  -4.478  18.824  1.00  0.00    -0.423 OA
ENDROOT
BRANCH   3  12
ATOM     12  O   UNL     1     -21.589  -3.740  23.125  1.00  0.00    -0.508 OA
ATOM     13  H   UNL     1     -21.426  -3.119  23.909  1.00  0.00     0.293 HD
ENDBRANCH   3  12
TORSDOF 1
ENDMDL
MODEL 4
REMARK VINA RESULT:    -5.172      1.462      2.387
REMARK INTER + INTRA:          -5.324
REMARK INTER:                  -5.324
REMARK INTRA:                   0.000
REMARK UNBOUND:                 0.000
REMARK SMILES O=c1ccc2ccc(O)cc2o1
REMARK SMILES IDX 6 1 7 2 8 3 10 4 11 5 5 6 4 7 3 8 2 9 1 10 12 11 9 12
REMARK H PARENT 9 13
REMARK Flexibility Score: inf
ROOT
ATOM      1  C   UNL     1     -22.395   0.147  19.500  1.00  0.00     0.016 A 
ATOM      2  C   UNL     1     -22.449   0.818  20.726  1.00  0.00     0.047 A 
ATOM      3  C   UNL     1     -22.016   0.184  21.900  1.00  0.00     0.119 A 
ATOM      4  C   UNL     1     -21.528  -1.127  21.845  1.00  0.00     0.094 A 
ATOM      5  C   UNL     1     -21.470  -1.806  20.624  1.00  0.00     0.142 A 
ATOM      6  C   UNL     1     -21.907  -1.165  19.443  1.00  0.00     0.018 A 
ATOM      7  C   UNL     1     -21.837  -1.870  18.237  1.00  0.00     0.019 A 
ATOM      8  C   UNL     1     -21.343  -3.173  18.234  1.00  0.00     0.094 A 
ATOM      9  C   UNL     1     -20.929  -3.745  19.442  1.00  0.00     0.336 A 
ATOM     10  O   UNL     1     -20.480  -4.921  19.460  1.00  0.00    -0.246 OA
ATOM     11  O   UNL     1     -21.005  -3.053  20.576  1.00  0.00    -0.423 OA
ENDROOT
BRANCH   3  12
ATOM     12  O   UNL     1     -22.067   0.847  23.124  1.00  0.00    -0.508 OA
ATOM     13  H   UNL     1     -22.930   0.925  23.648  1.00  0.00     0.293 HD
ENDBRANCH   3  12
TORSDOF 1
ENDMDL
MODEL 5
REMARK VINA RESULT:    -5.130     17.503     18.738
REMARK INTER + INTRA:          -5.280
REMARK INTER:                  -5.280
REMARK INTRA:                   0.000
REMARK UNBOUND:                 0.000
REMARK SMILES O=c1ccc2ccc(O)cc2o1
REMARK SMILES IDX 6 1 7 2 8 3 10 4 11 5 5 6 4 7 3 8 2 9 1 10 12 11 9 12
REMARK H PARENT 9 13
REMARK Flexibility Score: inf
ROOT
ATOM      1  C   UNL     1      -7.537  -5.383   6.326  1.00  0.00     0.016 A 
ATOM      2  C   UNL     1      -8.513  -4.628   5.667  1.00  0.00     0.047 A 
ATOM      3  C   UNL     1      -9.811  -4.538   6.191  1.00  0.00     0.119 A 
ATOM      4  C   UNL     1     -10.132  -5.207   7.378  1.00  0.00     0.094 A 
ATOM      5  C   UNL     1      -9.163  -5.963   8.044  1.00  0.00     0.142 A 
ATOM      6  C   UNL     1      -7.856  -6.053   7.515  1.00  0.00     0.018 A 
ATOM      7  C   UNL     1      -6.909  -6.817   8.203  1.00  0.00     0.019 A 
ATOM      8  C   UNL     1      -7.277  -7.464   9.382  1.00  0.00     0.094 A 
ATOM      9  C   UNL     1      -8.590  -7.331   9.847  1.00  0.00     0.336 A 
ATOM     10  O   UNL     1      -8.943  -7.908  10.910  1.00  0.00    -0.246 OA
ATOM     11  O   UNL     1      -9.473  -6.597   9.173  1.00  0.00    -0.423 OA
ENDROOT
BRANCH   3  12
ATOM     12  O   UNL     1     -10.788  -3.787   5.540  1.00  0.00    -0.508 OA
ATOM     13  H   UNL     1     -10.547  -2.975   4.985  1.00  0.00     0.293 HD
ENDBRANCH   3  12
TORSDOF 1
ENDMDL
MODEL 6
REMARK VINA RESULT:    -5.081     16.855     18.959
REMARK INTER + INTRA:          -5.229
REMARK INTER:                  -5.229
REMARK INTRA:                   0.000
REMARK UNBOUND:                 0.000
REMARK SMILES O=c1ccc2ccc(O)cc2o1
REMARK SMILES IDX 6 1 7 2 8 3 10 4 11 5 5 6 4 7 3 8 2 9 1 10 12 11 9 12
REMARK H PARENT 9 13
REMARK Flexibility Score: inf
ROOT
ATOM      1  C   UNL     1      -7.222  -3.507   7.762  1.00  0.00     0.016 A 
ATOM      2  C   UNL     1      -6.974  -3.012   6.477  1.00  0.00     0.047 A 
ATOM      3  C   UNL     1      -7.762  -3.430   5.394  1.00  0.00     0.119 A 
ATOM      4  C   UNL     1      -8.800  -4.347   5.599  1.00  0.00     0.094 A 
ATOM      5  C   UNL     1      -9.054  -4.848   6.880  1.00  0.00     0.142 A 
ATOM      6  C   UNL     1      -8.260  -4.426   7.969  1.00  0.00     0.018 A 
ATOM      7  C   UNL     1      -8.538  -4.943   9.238  1.00  0.00     0.019 A 
ATOM      8  C   UNL     1      -9.583  -5.854   9.391  1.00  0.00     0.094 A 
ATOM      9  C   UNL     1     -10.328  -6.227   8.267  1.00  0.00     0.336 A 
ATOM     10  O   UNL     1     -11.275  -7.048   8.384  1.00  0.00    -0.246 OA
ATOM     11  O   UNL     1     -10.043  -5.720   7.070  1.00  0.00    -0.423 OA
ENDROOT
BRANCH   3  12
ATOM     12  O   UNL     1      -7.521  -2.940   4.112  1.00  0.00    -0.508 OA
ATOM     13  H   UNL     1      -6.887  -2.167   3.952  1.00  0.00     0.293 HD
ENDBRANCH   3  12
TORSDOF 1
ENDMDL
MODEL 7
REMARK VINA RESULT:    -5.035     16.799     19.211
REMARK INTER + INTRA:          -5.182
REMARK INTER:                  -5.182
REMARK INTRA:                   0.000
REMARK UNBOUND:                 0.000
REMARK SMILES O=c1ccc2ccc(O)cc2o1
REMARK SMILES IDX 6 1 7 2 8 3 10 4 11 5 5 6 4 7 3 8 2 9 1 10 12 11 9 12
REMARK H PARENT 9 13
REMARK Flexibility Score: inf
ROOT
ATOM      1  C   UNL     1     -13.129   4.973   3.414  1.00  0.00     0.016 A 
ATOM      2  C   UNL     1     -11.984   4.377   2.875  1.00  0.00     0.047 A 
ATOM      3  C   UNL     1     -11.235   3.468   3.636  1.00  0.00     0.119 A 
ATOM      4  C   UNL     1     -11.634   3.155   4.941  1.00  0.00     0.094 A 
ATOM      5  C   UNL     1     -12.777   3.746   5.488  1.00  0.00     0.142 A 
ATOM      6  C   UNL     1     -13.530   4.662   4.720  1.00  0.00     0.018 A 
ATOM      7  C   UNL     1     -14.669   5.237   5.294  1.00  0.00     0.019 A 
ATOM      8  C   UNL     1     -15.025   4.893   6.597  1.00  0.00     0.094 A 
ATOM      9  C   UNL     1     -14.232   3.979   7.299  1.00  0.00     0.336 A 
ATOM     10  O   UNL     1     -14.537   3.656   8.477  1.00  0.00    -0.246 OA
ATOM     11  O   UNL     1     -13.153   3.446   6.730  1.00  0.00    -0.423 OA
ENDROOT
BRANCH   3  12
ATOM     12  O   UNL     1     -10.094   2.870   3.105  1.00  0.00    -0.508 OA
ATOM     13  H   UNL     1     -10.108   1.918   2.760  1.00  0.00     0.293 HD
ENDBRANCH   3  12
TORSDOF 1
ENDMDL
MODEL 8
REMARK VINA RESULT:    -4.927      2.265      4.299
REMARK INTER + INTRA:          -5.071
REMARK INTER:                  -5.071
REMARK INTRA:                   0.000
REMARK UNBOUND:                 0.000
REMARK SMILES O=c1ccc2ccc(O)cc2o1
REMARK SMILES IDX 6 1 7 2 8 3 10 4 11 5 5 6 4 7 3 8 2 9 1 10 12 11 9 12
REMARK H PARENT 9 13
REMARK Flexibility Score: inf
ROOT
ATOM      1  C   UNL     1     -20.510  -2.607  17.228  1.00  0.00     0.016 A 
ATOM      2  C   UNL     1     -21.340  -1.879  16.369  1.00  0.00     0.047 A 
ATOM      3  C   UNL     1     -22.430  -1.159  16.881  1.00  0.00     0.119 A 
ATOM      4  C   UNL     1     -22.689  -1.170  18.257  1.00  0.00     0.094 A 
ATOM      5  C   UNL     1     -21.865  -1.895  19.123  1.00  0.00     0.142 A 
ATOM      6  C   UNL     1     -20.768  -2.619  18.605  1.00  0.00     0.018 A 
ATOM      7  C   UNL     1     -19.961  -3.335  19.496  1.00  0.00     0.019 A 
ATOM      8  C   UNL     1     -20.260  -3.314  20.857  1.00  0.00     0.094 A 
ATOM      9  C   UNL     1     -21.363  -2.575  21.299  1.00  0.00     0.336 A 
ATOM     10  O   UNL     1     -21.650  -2.544  22.524  1.00  0.00    -0.246 OA
ATOM     11  O   UNL     1     -22.115  -1.902  20.431  1.00  0.00    -0.423 OA
ENDROOT
BRANCH   3  12
ATOM     12  O   UNL     1     -23.261  -0.431  16.031  1.00  0.00    -0.508 OA
ATOM     13  H   UNL     1     -23.941   0.226  16.393  1.00  0.00     0.293 HD
ENDBRANCH   3  12
TORSDOF 1
ENDMDL
