MODEL 1
REMARK VINA RESULT:    -5.380      0.000      0.000
REMARK INTER + INTRA:         -12.106
REMARK INTER:                 -10.413
REMARK INTRA:                  -1.693
REMARK UNBOUND:                -1.693
REMARK SMILES CCCCCCCCCCCCCCCCCC(=O)[O-]
REMARK SMILES IDX 10 1 11 2 12 3 13 4 14 5 15 6 16 7 17 8 18 9 19 10 20 11
REMARK SMILES IDX 9 12 8 13 7 14 6 15 5 16 4 17 3 18 2 19 1 20
REMARK H PARENT
REMARK Flexibility Score: inf
ROOT
ATOM      1  C   UNL     1       9.323   1.208  35.833  1.00  0.00     0.000 C 
ENDROOT
BRANCH   1   2
ATOM      2  C   UNL     1       7.877   1.289  36.351  1.00  0.00     0.000 C 
BRANCH   2   3
ATOM      3  C   UNL     1       7.023   0.090  35.906  1.00  0.00     0.000 C 
BRANCH   3   4
ATOM      4  C   UNL     1       5.552   0.223  36.333  1.00  0.00     0.000 C 
BRANCH   4   5
ATOM      5  C   UNL     1       4.921  -1.127  36.716  1.00  0.00     0.000 C 
BRANCH   5   6
ATOM      6  C   UNL     1       5.781  -2.329  36.288  1.00  0.00     0.000 C 
BRANCH   6   7
ATOM      7  C   UNL     1       5.250  -3.704  36.745  1.00  0.00     0.006 C 
BRANCH   7   8
ATOM      8  C   UNL     1       4.231  -3.644  37.895  1.00  0.00     0.053 C 
BRANCH   8   9
ATOM      9  C   UNL     1       3.591  -4.974  38.147  1.00  0.00     0.041 C 
ATOM     10  O   UNL     1       2.795  -5.121  39.113  1.00  0.00    -0.550 OA
ATOM     11  O   UNL     1       3.898  -6.059  37.336  1.00  0.00    -0.550 OA
ENDBRANCH   8   9
ENDBRANCH   7   8
ENDBRANCH   6   7
ENDBRANCH   5   6
ENDBRANCH   4   5
ENDBRANCH   3   4
ENDBRANCH   2   3
ENDBRANCH   1   2
BRANCH   1  12
ATOM     12  C   UNL     1       9.484   1.806  34.424  1.00  0.00     0.000 C 
BRANCH  12  13
ATOM     13  C   UNL     1      10.272   0.887  33.477  1.00  0.00    -0.000 C 
BRANCH  13  14
ATOM     14  C   UNL     1      11.323   0.041  34.215  1.00  0.00    -0.000 C 
BRANCH  14  15
ATOM     15  C   UNL     1      12.698   0.727  34.274  1.00  0.00    -0.000 C 
BRANCH  15  16
ATOM     16  C   UNL     1      13.034   1.262  35.677  1.00  0.00    -0.000 C 
BRANCH  16  17
ATOM     17  C   UNL     1      13.137   2.795  35.715  1.00  0.00    -0.000 C 
BRANCH  17  18
ATOM     18  C   UNL     1      13.287   3.412  34.318  1.00  0.00    -0.000 C 
BRANCH  18  19
ATOM     19  C   UNL     1      12.164   4.419  34.039  1.00  0.00    -0.003 C 
ATOM     20  C   UNL     1      11.660   4.299  32.604  1.00  0.00     0.004 C 
ENDBRANCH  18  19
ENDBRANCH  17  18
ENDBRANCH  16  17
ENDBRANCH  15  16
ENDBRANCH  14  15
ENDBRANCH  13  14
ENDBRANCH  12  13
ENDBRANCH   1  12
TORSDOF 16
ENDMDL
MODEL 2
REMARK VINA RESULT:    -5.368      4.523      9.383
REMARK INTER + INTRA:         -12.081
REMARK INTER:                 -10.879
REMARK INTRA:                  -1.202
REMARK UNBOUND:                -1.693
REMARK SMILES CCCCCCCCCCCCCCCCCC(=O)[O-]
REMARK SMILES IDX 10 1 11 2 12 3 13 4 14 5 15 6 16 7 17 8 18 9 19 10 20 11
REMARK SMILES IDX 9 12 8 13 7 14 6 15 5 16 4 17 3 18 2 19 1 20
REMARK H PARENT
REMARK Flexibility Score: inf
ROOT
ATOM      1  C   UNL     1       7.372  -0.836  35.575  1.00  0.00     0.000 C 
ENDROOT
BRANCH   1   2
ATOM      2  C   UNL     1       7.444   0.620  36.066  1.00  0.00     0.000 C 
BRANCH   2   3
ATOM      3  C   UNL     1       8.699   1.352  35.559  1.00  0.00     0.000 C 
BRANCH   3   4
ATOM      4  C   UNL     1       8.941   1.134  34.057  1.00  0.00     0.000 C 
BRANCH   4   5
ATOM      5  C   UNL     1      10.423   1.282  33.668  1.00  0.00     0.000 C 
BRANCH   5   6
ATOM      6  C   UNL     1      11.282   0.092  34.129  1.00  0.00     0.000 C 
BRANCH   6   7
ATOM      7  C   UNL     1      12.707   0.459  34.592  1.00  0.00     0.006 C 
BRANCH   7   8
ATOM      8  C   UNL     1      12.761   1.447  35.768  1.00  0.00     0.053 C 
BRANCH   8   9
ATOM      9  C   UNL     1      13.155   2.823  35.328  1.00  0.00     0.041 C 
ATOM     10  O   UNL     1      13.105   3.786  36.138  1.00  0.00    -0.550 OA
ATOM     11  O   UNL     1      13.545   3.048  34.014  1.00  0.00    -0.550 OA
ENDBRANCH   8   9
ENDBRANCH   7   8
ENDBRANCH   6   7
ENDBRANCH   5   6
ENDBRANCH   4   5
ENDBRANCH   3   4
ENDBRANCH   2   3
ENDBRANCH   1   2
BRANCH   1  12
ATOM     12  C   UNL     1       6.142  -1.586  36.119  1.00  0.00     0.000 C 
BRANCH  12  13
ATOM     13  C   UNL     1       6.256  -3.109  35.952  1.00  0.00    -0.000 C 
BRANCH  13  14
ATOM     14  C   UNL     1       5.004  -3.852  36.448  1.00  0.00    -0.000 C 
BRANCH  14  15
ATOM     15  C   UNL     1       4.597  -3.437  37.871  1.00  0.00    -0.000 C 
BRANCH  15  16
ATOM     16  C   UNL     1       3.071  -3.357  38.052  1.00  0.00    -0.000 C 
BRANCH  16  17
ATOM     17  C   UNL     1       2.667  -2.868  39.452  1.00  0.00    -0.000 C 
BRANCH  17  18
ATOM     18  C   UNL     1       2.628  -1.337  39.554  1.00  0.00    -0.000 C 
BRANCH  18  19
ATOM     19  C   UNL     1       2.209  -0.709  38.219  1.00  0.00    -0.003 C 
ATOM     20  C   UNL     1       3.245   0.302  37.736  1.00  0.00     0.004 C 
ENDBRANCH  18  19
ENDBRANCH  17  18
ENDBRANCH  16  17
ENDBRANCH  15  16
ENDBRANCH  14  15
ENDBRANCH  13  14
ENDBRANCH  12  13
ENDBRANCH   1  12
TORSDOF 16
ENDMDL
MODEL 3
REMARK VINA RESULT:    -5.265      4.509      9.700
REMARK INTER + INTRA:         -11.883
REMARK INTER:                 -10.606
REMARK INTRA:                  -1.277
REMARK UNBOUND:                -1.693
REMARK SMILES CCCCCCCCCCCCCCCCCC(=O)[O-]
REMARK SMILES IDX 10 1 11 2 12 3 13 4 14 5 15 6 16 7 17 8 18 9 19 10 20 11
REMARK SMILES IDX 9 12 8 13 7 14 6 15 5 16 4 17 3 18 2 19 1 20
REMARK H PARENT
REMARK Flexibility Score: inf
ROOT
ATOM      1  C   UNL     1       6.501   0.375  36.068  1.00  0.00     0.000 C 
ENDROOT
BRANCH   1   2
ATOM      2  C   UNL     1       7.685  -0.484  35.592  1.00  0.00     0.000 C 
BRANCH   2   3
ATOM      3  C   UNL     1       8.092  -0.175  34.141  1.00  0.00     0.000 C 
BRANCH   3   4
ATOM      4  C   UNL     1       9.607  -0.305  33.914  1.00  0.00     0.000 C 
BRANCH   4   5
ATOM      5  C   UNL     1      10.271   1.037  33.560  1.00  0.00     0.000 C 
BRANCH   5   6
ATOM      6  C   UNL     1      10.052   2.113  34.637  1.00  0.00     0.000 C 
BRANCH   6   7
ATOM      7  C   UNL     1      10.721   1.821  35.996  1.00  0.00     0.006 C 
BRANCH   7   8
ATOM      8  C   UNL     1      12.153   1.271  35.896  1.00  0.00     0.053 C 
BRANCH   8   9
ATOM      9  C   UNL     1      13.111   2.294  35.368  1.00  0.00     0.041 C 
ATOM     10  O   UNL     1      13.478   3.254  36.097  1.00  0.00    -0.550 OA
ATOM     11  O   UNL     1      13.573   2.205  34.061  1.00  0.00    -0.550 OA
ENDBRANCH   8   9
ENDBRANCH   7   8
ENDBRANCH   6   7
ENDBRANCH   5   6
ENDBRANCH   4   5
ENDBRANCH   3   4
ENDBRANCH   2   3
ENDBRANCH   1   2
BRANCH   1  12
ATOM     12  C   UNL     1       5.270  -0.469  36.448  1.00  0.00     0.000 C 
BRANCH  12  13
ATOM     13  C   UNL     1       4.072   0.391  36.878  1.00  0.00    -0.000 C 
BRANCH  13  14
ATOM     14  C   UNL     1       3.594   0.069  38.304  1.00  0.00    -0.000 C 
BRANCH  14  15
ATOM     15  C   UNL     1       2.327  -0.801  38.320  1.00  0.00    -0.000 C 
BRANCH  15  16
ATOM     16  C   UNL     1       2.103  -1.498  39.673  1.00  0.00    -0.000 C 
BRANCH  16  17
ATOM     17  C   UNL     1       2.966  -2.759  39.838  1.00  0.00    -0.000 C 
BRANCH  17  18
ATOM     18  C   UNL     1       2.405  -3.964  39.070  1.00  0.00    -0.000 C 
BRANCH  18  19
ATOM     19  C   UNL     1       3.527  -4.740  38.371  1.00  0.00    -0.003 C 
ATOM     20  C   UNL     1       4.442  -3.802  37.590  1.00  0.00     0.004 C 
ENDBRANCH  18  19
ENDBRANCH  17  18
ENDBRANCH  16  17
ENDBRANCH  15  16
ENDBRANCH  14  15
ENDBRANCH  13  14
ENDBRANCH  12  13
ENDBRANCH   1  12
TORSDOF 16
ENDMDL
MODEL 4
REMARK VINA RESULT:    -5.197      4.196      9.364
REMARK INTER + INTRA:         -11.752
REMARK INTER:                 -10.118
REMARK INTRA:                  -1.634
REMARK UNBOUND:                -1.693
REMARK SMILES CCCCCCCCCCCCCCCCCC(=O)[O-]
REMARK SMILES IDX 10 1 11 2 12 3 13 4 14 5 15 6 16 7 17 8 18 9 19 10 20 11
REMARK SMILES IDX 9 12 8 13 7 14 6 15 5 16 4 17 3 18 2 19 1 20
REMARK H PARENT
REMARK Flexibility Score: inf
ROOT
ATOM      1  C   UNL     1       6.354  -2.976  36.269  1.00  0.00     0.000 C 
ENDROOT
BRANCH   1   2
ATOM      2  C   UNL     1       7.198  -1.787  35.780  1.00  0.00     0.000 C 
BRANCH   2   3
ATOM      3  C   UNL     1       6.486  -0.438  35.978  1.00  0.00     0.000 C 
BRANCH   3   4
ATOM      4  C   UNL     1       7.452   0.756  35.894  1.00  0.00     0.000 C 
BRANCH   4   5
ATOM      5  C   UNL     1       8.929   0.323  35.877  1.00  0.00     0.000 C 
BRANCH   5   6
ATOM      6  C   UNL     1       9.598   0.541  34.509  1.00  0.00     0.000 C 
BRANCH   6   7
ATOM      7  C   UNL     1       9.969   2.004  34.191  1.00  0.00     0.006 C 
BRANCH   7   8
ATOM      8  C   UNL     1      11.081   2.587  35.077  1.00  0.00     0.053 C 
BRANCH   8   9
ATOM      9  C   UNL     1      12.327   1.758  35.033  1.00  0.00     0.041 C 
ATOM     10  O   UNL     1      12.974   1.644  33.958  1.00  0.00    -0.550 OA
ATOM     11  O   UNL     1      12.756   1.085  36.170  1.00  0.00    -0.550 OA
ENDBRANCH   8   9
ENDBRANCH   7   8
ENDBRANCH   6   7
ENDBRANCH   5   6
ENDBRANCH   4   5
ENDBRANCH   3   4
ENDBRANCH   2   3
ENDBRANCH   1   2
BRANCH   1  12
ATOM     12  C   UNL     1       4.899  -2.581  36.584  1.00  0.00     0.000 C 
BRANCH  12  13
ATOM     13  C   UNL     1       4.029  -3.788  36.971  1.00  0.00    -0.000 C 
BRANCH  13  14
ATOM     14  C   UNL     1       4.124  -4.128  38.468  1.00  0.00    -0.000 C 
BRANCH  14  15
ATOM     15  C   UNL     1       2.806  -3.870  39.216  1.00  0.00    -0.000 C 
BRANCH  15  16
ATOM     16  C   UNL     1       2.970  -2.885  40.386  1.00  0.00    -0.000 C 
BRANCH  16  17
ATOM     17  C   UNL     1       2.640  -1.437  39.989  1.00  0.00    -0.000 C 
BRANCH  17  18
ATOM     18  C   UNL     1       1.558  -1.354  38.903  1.00  0.00    -0.000 C 
BRANCH  18  19
ATOM     19  C   UNL     1       1.915  -0.295  37.853  1.00  0.00    -0.003 C 
ATOM     20  C   UNL     1       3.346   0.204  38.036  1.00  0.00     0.004 C 
ENDBRANCH  18  19
ENDBRANCH  17  18
ENDBRANCH  16  17
ENDBRANCH  15  16
ENDBRANCH  14  15
ENDBRANCH  13  14
ENDBRANCH  12  13
ENDBRANCH   1  12
TORSDOF 16
ENDMDL
MODEL 5
REMARK VINA RESULT:    -5.195      2.061      2.813
REMARK INTER + INTRA:         -11.747
REMARK INTER:                 -10.699
REMARK INTRA:                  -1.048
REMARK UNBOUND:                -1.693
REMARK SMILES CCCCCCCCCCCCCCCCCC(=O)[O-]
REMARK SMILES IDX 10 1 11 2 12 3 13 4 14 5 15 6 16 7 17 8 18 9 19 10 20 11
REMARK SMILES IDX 9 12 8 13 7 14 6 15 5 16 4 17 3 18 2 19 1 20
REMARK H PARENT
REMARK Flexibility Score: inf
ROOT
ATOM      1  C   UNL     1       7.531  -0.453  35.639  1.00  0.00     0.000 C 
ENDROOT
BRANCH   1   2
ATOM      2  C   UNL     1       6.186   0.174  36.043  1.00  0.00     0.000 C 
BRANCH   2   3
ATOM      3  C   UNL     1       5.180  -0.870  36.557  1.00  0.00     0.000 C 
BRANCH   3   4
ATOM      4  C   UNL     1       5.683  -2.312  36.378  1.00  0.00     0.000 C 
BRANCH   4   5
ATOM      5  C   UNL     1       4.851  -3.333  37.171  1.00  0.00     0.000 C 
BRANCH   5   6
ATOM      6  C   UNL     1       3.436  -2.824  37.499  1.00  0.00     0.000 C 
BRANCH   6   7
ATOM      7  C   UNL     1       3.071  -2.836  38.998  1.00  0.00     0.006 C 
BRANCH   7   8
ATOM      8  C   UNL     1       2.310  -1.590  39.479  1.00  0.00     0.053 C 
BRANCH   8   9
ATOM      9  C   UNL     1       2.319  -1.468  40.971  1.00  0.00     0.041 C 
ATOM     10  O   UNL     1       1.800  -2.368  41.683  1.00  0.00    -0.550 OA
ATOM     11  O   UNL     1       2.873  -0.346  41.574  1.00  0.00    -0.550 OA
ENDBRANCH   8   9
ENDBRANCH   7   8
ENDBRANCH   6   7
ENDBRANCH   5   6
ENDBRANCH   4   5
ENDBRANCH   3   4
ENDBRANCH   2   3
ENDBRANCH   1   2
BRANCH   1  12
ATOM     12  C   UNL     1       8.451   0.538  34.902  1.00  0.00     0.000 C 
BRANCH  12  13
ATOM     13  C   UNL     1       9.481  -0.165  34.004  1.00  0.00    -0.000 C 
BRANCH  13  14
ATOM     14  C   UNL     1      10.738   0.689  33.768  1.00  0.00    -0.000 C 
BRANCH  14  15
ATOM     15  C   UNL     1      12.031  -0.040  34.169  1.00  0.00    -0.000 C 
BRANCH  15  16
ATOM     16  C   UNL     1      13.151   0.926  34.592  1.00  0.00    -0.000 C 
BRANCH  16  17
ATOM     17  C   UNL     1      12.819   1.685  35.887  1.00  0.00    -0.000 C 
BRANCH  17  18
ATOM     18  C   UNL     1      12.645   3.193  35.660  1.00  0.00    -0.000 C 
BRANCH  18  19
ATOM     19  C   UNL     1      13.076   3.588  34.243  1.00  0.00    -0.003 C 
ATOM     20  C   UNL     1      12.136   4.633  33.651  1.00  0.00     0.004 C 
ENDBRANCH  18  19
ENDBRANCH  17  18
ENDBRANCH  16  17
ENDBRANCH  15  16
ENDBRANCH  14  15
ENDBRANCH  13  14
ENDBRANCH  12  13
ENDBRANCH   1  12
TORSDOF 16
ENDMDL
MODEL 6
REMARK VINA RESULT:    -5.193      2.307      4.866
REMARK INTER + INTRA:         -11.744
REMARK INTER:                 -10.454
REMARK INTRA:                  -1.289
REMARK UNBOUND:                -1.693
REMARK SMILES CCCCCCCCCCCCCCCCCC(=O)[O-]
REMARK SMILES IDX 10 1 11 2 12 3 13 4 14 5 15 6 16 7 17 8 18 9 19 10 20 11
REMARK SMILES IDX 9 12 8 13 7 14 6 15 5 16 4 17 3 18 2 19 1 20
REMARK H PARENT
REMARK Flexibility Score: inf
ROOT
ATOM      1  C   UNL     1       3.367   0.083  38.439  1.00  0.00     0.000 C 
ENDROOT
BRANCH   1   2
ATOM      2  C   UNL     1       2.369  -1.085  38.363  1.00  0.00     0.000 C 
BRANCH   2   3
ATOM      3  C   UNL     1       2.331  -1.914  39.658  1.00  0.00     0.000 C 
BRANCH   3   4
ATOM      4  C   UNL     1       3.159  -3.206  39.555  1.00  0.00     0.000 C 
BRANCH   4   5
ATOM      5  C   UNL     1       3.231  -3.751  38.118  1.00  0.00     0.000 C 
BRANCH   5   6
ATOM      6  C   UNL     1       4.668  -3.805  37.571  1.00  0.00     0.000 C 
BRANCH   6   7
ATOM      7  C   UNL     1       4.782  -3.760  36.034  1.00  0.00     0.006 C 
BRANCH   7   8
ATOM      8  C   UNL     1       6.164  -4.150  35.484  1.00  0.00     0.053 C 
BRANCH   8   9
ATOM      9  C   UNL     1       6.204  -5.575  35.028  1.00  0.00     0.041 C 
ATOM     10  O   UNL     1       7.025  -6.382  35.541  1.00  0.00    -0.550 OA
ATOM     11  O   UNL     1       5.358  -6.006  34.014  1.00  0.00    -0.550 OA
ENDBRANCH   8   9
ENDBRANCH   7   8
ENDBRANCH   6   7
ENDBRANCH   5   6
ENDBRANCH   4   5
ENDBRANCH   3   4
ENDBRANCH   2   3
ENDBRANCH   1   2
BRANCH   1  12
ATOM     12  C   UNL     1       3.941   0.464  37.063  1.00  0.00     0.000 C 
BRANCH  12  13
ATOM     13  C   UNL     1       5.142  -0.407  36.661  1.00  0.00    -0.000 C 
BRANCH  13  14
ATOM     14  C   UNL     1       6.292   0.417  36.055  1.00  0.00    -0.000 C 
BRANCH  14  15
ATOM     15  C   UNL     1       7.459  -0.462  35.577  1.00  0.00    -0.000 C 
BRANCH  15  16
ATOM     16  C   UNL     1       8.366   0.257  34.563  1.00  0.00    -0.000 C 
BRANCH  16  17
ATOM     17  C   UNL     1       9.816   0.387  35.057  1.00  0.00    -0.000 C 
BRANCH  17  18
ATOM     18  C   UNL     1      10.843   0.041  33.969  1.00  0.00    -0.000 C 
BRANCH  18  19
ATOM     19  C   UNL     1      12.272   0.290  34.466  1.00  0.00    -0.003 C 
ATOM     20  C   UNL     1      12.281   1.206  35.687  1.00  0.00     0.004 C 
ENDBRANCH  18  19
ENDBRANCH  17  18
ENDBRANCH  16  17
ENDBRANCH  15  16
ENDBRANCH  14  15
ENDBRANCH  13  14
ENDBRANCH  12  13
ENDBRANCH   1  12
TORSDOF 16
ENDMDL
MODEL 7
REMARK VINA RESULT:    -5.180      1.588      3.318
REMARK INTER + INTRA:         -11.718
REMARK INTER:                 -10.510
REMARK INTRA:                  -1.208
REMARK UNBOUND:                -1.693
REMARK SMILES CCCCCCCCCCCCCCCCCC(=O)[O-]
REMARK SMILES IDX 10 1 11 2 12 3 13 4 14 5 15 6 16 7 17 8 18 9 19 10 20 11
REMARK SMILES IDX 9 12 8 13 7 14 6 15 5 16 4 17 3 18 2 19 1 20
REMARK H PARENT
REMARK Flexibility Score: inf
ROOT
ATOM      1  C   UNL     1       6.227  -1.500  36.020  1.00  0.00     0.000 C 
ENDROOT
BRANCH   1   2
ATOM      2  C   UNL     1       4.867  -1.345  36.721  1.00  0.00     0.000 C 
BRANCH   2   3
ATOM      3  C   UNL     1       4.499   0.126  36.975  1.00  0.00     0.000 C 
BRANCH   3   4
ATOM      4  C   UNL     1       3.187   0.278  37.762  1.00  0.00     0.000 C 
BRANCH   4   5
ATOM      5  C   UNL     1       2.596  -1.075  38.197  1.00  0.00     0.000 C 
BRANCH   5   6
ATOM      6  C   UNL     1       2.474  -1.209  39.725  1.00  0.00     0.000 C 
BRANCH   6   7
ATOM      7  C   UNL     1       2.944  -2.561  40.299  1.00  0.00     0.006 C 
BRANCH   7   8
ATOM      8  C   UNL     1       3.282  -3.621  39.239  1.00  0.00     0.053 C 
BRANCH   8   9
ATOM      9  C   UNL     1       2.246  -4.700  39.173  1.00  0.00     0.041 C 
ATOM     10  O   UNL     1       1.377  -4.800  40.080  1.00  0.00    -0.550 OA
ATOM     11  O   UNL     1       2.258  -5.614  38.127  1.00  0.00    -0.550 OA
ENDBRANCH   8   9
ENDBRANCH   7   8
ENDBRANCH   6   7
ENDBRANCH   5   6
ENDBRANCH   4   5
ENDBRANCH   3   4
ENDBRANCH   2   3
ENDBRANCH   1   2
BRANCH   1  12
ATOM     12  C   UNL     1       6.867  -0.147  35.661  1.00  0.00     0.000 C 
BRANCH  12  13
ATOM     13  C   UNL     1       8.372  -0.104  35.965  1.00  0.00    -0.000 C 
BRANCH  13  14
ATOM     14  C   UNL     1       9.010   1.249  35.605  1.00  0.00    -0.000 C 
BRANCH  14  15
ATOM     15  C   UNL     1       9.068   1.489  34.088  1.00  0.00    -0.000 C 
BRANCH  15  16
ATOM     16  C   UNL     1      10.492   1.351  33.520  1.00  0.00    -0.000 C 
BRANCH  16  17
ATOM     17  C   UNL     1      11.245   0.144  34.101  1.00  0.00    -0.000 C 
BRANCH  17  18
ATOM     18  C   UNL     1      12.722   0.451  34.386  1.00  0.00    -0.000 C 
BRANCH  18  19
ATOM     19  C   UNL     1      12.897   1.055  35.785  1.00  0.00    -0.003 C 
ATOM     20  C   UNL     1      13.176   2.553  35.708  1.00  0.00     0.004 C 
ENDBRANCH  18  19
ENDBRANCH  17  18
ENDBRANCH  16  17
ENDBRANCH  15  16
ENDBRANCH  14  15
ENDBRANCH  13  14
ENDBRANCH  12  13
ENDBRANCH   1  12
TORSDOF 16
ENDMDL
MODEL 8
REMARK VINA RESULT:    -5.163      1.573      2.309
REMARK INTER + INTRA:         -11.685
REMARK INTER:                 -10.576
REMARK INTRA:                  -1.109
REMARK UNBOUND:                -1.693
REMARK SMILES CCCCCCCCCCCCCCCCCC(=O)[O-]
REMARK SMILES IDX 10 1 11 2 12 3 13 4 14 5 15 6 16 7 17 8 18 9 19 10 20 11
REMARK SMILES IDX 9 12 8 13 7 14 6 15 5 16 4 17 3 18 2 19 1 20
REMARK H PARENT
REMARK Flexibility Score: inf
ROOT
ATOM      1  C   UNL     1       7.491   0.924  36.242  1.00  0.00     0.000 C 
ENDROOT
BRANCH   1   2
ATOM      2  C   UNL     1       6.376  -0.115  36.039  1.00  0.00     0.000 C 
BRANCH   2   3
ATOM      3  C   UNL     1       4.986   0.432  36.406  1.00  0.00     0.000 C 
BRANCH   3   4
ATOM      4  C   UNL     1       4.172  -0.553  37.261  1.00  0.00     0.000 C 
BRANCH   4   5
ATOM      5  C   UNL     1       2.936   0.101  37.902  1.00  0.00     0.000 C 
BRANCH   5   6
ATOM      6  C   UNL     1       2.043  -0.910  38.642  1.00  0.00     0.000 C 
BRANCH   6   7
ATOM      7  C   UNL     1       2.755  -1.725  39.741  1.00  0.00     0.006 C 
BRANCH   7   8
ATOM      8  C   UNL     1       2.194  -3.142  39.949  1.00  0.00     0.053 C 
BRANCH   8   9
ATOM      9  C   UNL     1       2.930  -4.161  39.136  1.00  0.00     0.041 C 
ATOM     10  O   UNL     1       3.968  -3.835  38.500  1.00  0.00    -0.550 OA
ATOM     11  O   UNL     1       2.454  -5.463  39.055  1.00  0.00    -0.550 OA
ENDBRANCH   8   9
ENDBRANCH   7   8
ENDBRANCH   6   7
ENDBRANCH   5   6
ENDBRANCH   4   5
ENDBRANCH   3   4
ENDBRANCH   2   3
ENDBRANCH   1   2
BRANCH   1  12
ATOM     12  C   UNL     1       8.840   0.470  35.654  1.00  0.00     0.000 C 
BRANCH  12  13
ATOM     13  C   UNL     1       8.936   0.708  34.139  1.00  0.00    -0.000 C 
BRANCH  13  14
ATOM     14  C   UNL     1      10.373   1.009  33.679  1.00  0.00    -0.000 C 
BRANCH  14  15
ATOM     15  C   UNL     1      11.343  -0.144  33.981  1.00  0.00    -0.000 C 
BRANCH  15  16
ATOM     16  C   UNL     1      12.700   0.346  34.516  1.00  0.00    -0.000 C 
BRANCH  16  17
ATOM     17  C   UNL     1      12.555   1.256  35.746  1.00  0.00    -0.000 C 
BRANCH  17  18
ATOM     18  C   UNL     1      13.300   2.589  35.585  1.00  0.00    -0.000 C 
BRANCH  18  19
ATOM     19  C   UNL     1      12.321   3.770  35.602  1.00  0.00    -0.003 C 
ATOM     20  C   UNL     1      12.188   4.396  34.218  1.00  0.00     0.004 C 
ENDBRANCH  18  19
ENDBRANCH  17  18
ENDBRANCH  16  17
ENDBRANCH  15  16
ENDBRANCH  14  15
ENDBRANCH  13  14
ENDBRANCH  12  13
ENDBRANCH   1  12
TORSDOF 16
ENDMDL
MODEL 9
REMARK VINA RESULT:    -5.130      4.524      9.603
REMARK INTER + INTRA:         -11.621
REMARK INTER:                 -10.326
REMARK INTRA:                  -1.296
REMARK UNBOUND:                -1.693
REMARK SMILES CCCCCCCCCCCCCCCCCC(=O)[O-]
REMARK SMILES IDX 10 1 11 2 12 3 13 4 14 5 15 6 16 7 17 8 18 9 19 10 20 11
REMARK SMILES IDX 9 12 8 13 7 14 6 15 5 16 4 17 3 18 2 19 1 20
REMARK H PARENT
REMARK Flexibility Score: inf
ROOT
ATOM      1  C   UNL     1       4.704  -0.420  36.748  1.00  0.00     0.000 C 
ENDROOT
BRANCH   1   2
ATOM      2  C   UNL     1       5.986   0.347  36.381  1.00  0.00     0.000 C 
BRANCH   2   3
ATOM      3  C   UNL     1       7.044  -0.555  35.723  1.00  0.00     0.000 C 
BRANCH   3   4
ATOM      4  C   UNL     1       8.415   0.132  35.610  1.00  0.00     0.000 C 
BRANCH   4   5
ATOM      5  C   UNL     1       8.723   0.610  34.180  1.00  0.00     0.000 C 
BRANCH   5   6
ATOM      6  C   UNL     1       9.322   2.026  34.140  1.00  0.00     0.000 C 
BRANCH   6   7
ATOM      7  C   UNL     1      10.436   2.291  35.174  1.00  0.00     0.006 C 
BRANCH   7   8
ATOM      8  C   UNL     1      11.641   3.075  34.627  1.00  0.00     0.053 C 
BRANCH   8   9
ATOM      9  C   UNL     1      12.596   3.464  35.712  1.00  0.00     0.041 C 
ATOM     10  O   UNL     1      13.470   2.647  36.109  1.00  0.00    -0.550 OA
ATOM     11  O   UNL     1      12.502   4.715  36.307  1.00  0.00    -0.550 OA
ENDBRANCH   8   9
ENDBRANCH   7   8
ENDBRANCH   6   7
ENDBRANCH   5   6
ENDBRANCH   4   5
ENDBRANCH   3   4
ENDBRANCH   2   3
ENDBRANCH   1   2
BRANCH   1  12
ATOM     12  C   UNL     1       3.719   0.430  37.571  1.00  0.00     0.000 C 
BRANCH  12  13
ATOM     13  C   UNL     1       2.399  -0.304  37.857  1.00  0.00    -0.000 C 
BRANCH  13  14
ATOM     14  C   UNL     1       2.496  -1.240  39.073  1.00  0.00    -0.000 C 
BRANCH  14  15
ATOM     15  C   UNL     1       1.951  -2.647  38.780  1.00  0.00    -0.000 C 
BRANCH  15  16
ATOM     16  C   UNL     1       2.964  -3.756  39.109  1.00  0.00    -0.000 C 
BRANCH  16  17
ATOM     17  C   UNL     1       4.231  -3.675  38.242  1.00  0.00    -0.000 C 
BRANCH  17  18
ATOM     18  C   UNL     1       4.164  -4.591  37.011  1.00  0.00    -0.000 C 
BRANCH  18  19
ATOM     19  C   UNL     1       4.582  -3.836  35.743  1.00  0.00    -0.003 C 
ATOM     20  C   UNL     1       6.041  -4.112  35.393  1.00  0.00     0.004 C 
ENDBRANCH  18  19
ENDBRANCH  17  18
ENDBRANCH  16  17
ENDBRANCH  15  16
ENDBRANCH  14  15
ENDBRANCH  13  14
ENDBRANCH  12  13
ENDBRANCH   1  12
TORSDOF 16
ENDMDL
