MODEL 1
REMARK VINA RESULT:    10.520      0.000      0.000
REMARK INTER + INTRA:          10.520
REMARK INTER:                  10.520
REMARK INTRA:                   0.000
REMARK UNBOUND:                 0.000
REMARK SMILES CC1(C)O[C@]2(C)CC[C@H]1CC2
REMARK SMILES IDX 1 1 2 2 9 3 10 4 11 5 5 6 4 7 7 8 8 9 6 10 3 11
REMARK H PARENT
REMARK Flexibility Score: inf
ROOT
ATOM      1  C   UNL     1      15.099  54.568  64.250  1.00  0.00     0.042 C 
ATOM      2  C   UNL     1      14.761  54.401  62.752  1.00  0.00     0.066 C 
ATOM      3  C   UNL     1      15.902  55.014  61.851  1.00  0.00     0.021 C 
ATOM      4  C   UNL     1      17.206  54.220  62.106  1.00  0.00     0.009 C 
ATOM      5  C   UNL     1      16.921  52.708  61.940  1.00  0.00     0.035 C 
ATOM      6  C   UNL     1      15.447  52.495  61.485  1.00  0.00     0.066 C 
ATOM      7  O   UNL     1      14.569  53.004  62.491  1.00  0.00    -0.369 OA
ATOM      8  C   UNL     1      15.211  53.275  60.159  1.00  0.00     0.035 C 
ATOM      9  C   UNL     1      15.536  54.773  60.367  1.00  0.00     0.009 C 
ATOM     10  C   UNL     1      15.160  51.004  61.286  1.00  0.00     0.042 C 
ATOM     11  C   UNL     1      13.421  55.125  62.501  1.00  0.00     0.042 C 
ENDROOT
TORSDOF 0
ENDMDL
MODEL 2
REMARK VINA RESULT:    12.129      1.342      1.869
REMARK INTER + INTRA:          12.129
REMARK INTER:                  12.129
REMARK INTRA:                   0.000
REMARK UNBOUND:                 0.000
REMARK SMILES CC1(C)O[C@]2(C)CC[C@H]1CC2
REMARK SMILES IDX 1 1 2 2 9 3 10 4 11 5 5 6 4 7 7 8 8 9 6 10 3 11
REMARK H PARENT
REMARK Flexibility Score: inf
ROOT
ATOM      1  C   UNL     1      16.613  54.154  62.666  1.00  0.00     0.042 C 
ATOM      2  C   UNL     1      15.606  53.646  61.612  1.00  0.00     0.066 C 
ATOM      3  C   UNL     1      16.335  53.337  60.247  1.00  0.00     0.021 C 
ATOM      4  C   UNL     1      17.349  52.192  60.484  1.00  0.00     0.009 C 
ATOM      5  C   UNL     1      16.629  51.010  61.175  1.00  0.00     0.035 C 
ATOM      6  C   UNL     1      15.112  51.327  61.319  1.00  0.00     0.066 C 
ATOM      7  O   UNL     1      14.953  52.484  62.142  1.00  0.00    -0.369 OA
ATOM      8  C   UNL     1      14.521  51.616  59.910  1.00  0.00     0.035 C 
ATOM      9  C   UNL     1      15.291  52.784  59.248  1.00  0.00     0.009 C 
ATOM     10  C   UNL     1      14.381  50.151  61.974  1.00  0.00     0.042 C 
ATOM     11  C   UNL     1      14.543  54.750  61.423  1.00  0.00     0.042 C 
ENDROOT
TORSDOF 0
ENDMDL
MODEL 3
REMARK VINA RESULT:    12.528      1.522      3.009
REMARK INTER + INTRA:          12.528
REMARK INTER:                  12.528
REMARK INTRA:                   0.000
REMARK UNBOUND:                 0.000
REMARK SMILES CC1(C)O[C@]2(C)CC[C@H]1CC2
REMARK SMILES IDX 1 1 2 2 9 3 10 4 11 5 5 6 4 7 7 8 8 9 6 10 3 11
REMARK H PARENT
REMARK Flexibility Score: inf
ROOT
ATOM      1  C   UNL     1      15.002  54.731  60.954  1.00  0.00     0.042 C 
ATOM      2  C   UNL     1      15.210  53.361  61.637  1.00  0.00     0.066 C 
ATOM      3  C   UNL     1      14.348  52.247  60.927  1.00  0.00     0.021 C 
ATOM      4  C   UNL     1      14.844  52.099  59.469  1.00  0.00     0.009 C 
ATOM      5  C   UNL     1      16.378  51.899  59.472  1.00  0.00     0.035 C 
ATOM      6  C   UNL     1      16.898  51.821  60.937  1.00  0.00     0.066 C 
ATOM      7  O   UNL     1      16.611  53.053  61.601  1.00  0.00    -0.369 OA
ATOM      8  C   UNL     1      16.164  50.662  61.672  1.00  0.00     0.035 C 
ATOM      9  C   UNL     1      14.635  50.892  61.617  1.00  0.00     0.009 C 
ATOM     10  C   UNL     1      18.412  51.590  60.955  1.00  0.00     0.042 C 
ATOM     11  C   UNL     1      14.791  53.516  63.114  1.00  0.00     0.042 C 
ENDROOT
TORSDOF 0
ENDMDL
MODEL 4
REMARK VINA RESULT:    13.034      1.378      2.849
REMARK INTER + INTRA:          13.034
REMARK INTER:                  13.034
REMARK INTRA:                   0.000
REMARK UNBOUND:                 0.000
REMARK SMILES CC1(C)O[C@]2(C)CC[C@H]1CC2
REMARK SMILES IDX 1 1 2 2 9 3 10 4 11 5 5 6 4 7 7 8 8 9 6 10 3 11
REMARK H PARENT
REMARK Flexibility Score: inf
ROOT
ATOM      1  C   UNL     1      14.459  53.614  62.875  1.00  0.00     0.042 C 
ATOM      2  C   UNL     1      15.668  53.396  61.939  1.00  0.00     0.066 C 
ATOM      3  C   UNL     1      16.259  51.945  62.120  1.00  0.00     0.021 C 
ATOM      4  C   UNL     1      15.178  50.920  61.699  1.00  0.00     0.009 C 
ATOM      5  C   UNL     1      14.648  51.289  60.293  1.00  0.00     0.035 C 
ATOM      6  C   UNL     1      15.439  52.507  59.733  1.00  0.00     0.066 C 
ATOM      7  O   UNL     1      15.236  53.631  60.591  1.00  0.00    -0.369 OA
ATOM      8  C   UNL     1      16.955  52.154  59.704  1.00  0.00     0.035 C 
ATOM      9  C   UNL     1      17.430  51.765  61.124  1.00  0.00     0.009 C 
ATOM     10  C   UNL     1      14.947  52.862  58.327  1.00  0.00     0.042 C 
ATOM     11  C   UNL     1      16.725  54.463  62.297  1.00  0.00     0.042 C 
ENDROOT
TORSDOF 0
ENDMDL
MODEL 5
REMARK VINA RESULT:    13.255      1.850      3.433
REMARK INTER + INTRA:          13.255
REMARK INTER:                  13.255
REMARK INTRA:                   0.000
REMARK UNBOUND:                 0.000
REMARK SMILES CC1(C)O[C@]2(C)CC[C@H]1CC2
REMARK SMILES IDX 1 1 2 2 9 3 10 4 11 5 5 6 4 7 7 8 8 9 6 10 3 11
REMARK H PARENT
REMARK Flexibility Score: inf
ROOT
ATOM      1  C   UNL     1      18.216  51.669  59.947  1.00  0.00     0.042 C 
ATOM      2  C   UNL     1      17.212  52.159  61.014  1.00  0.00     0.066 C 
ATOM      3  C   UNL     1      16.195  53.190  60.390  1.00  0.00     0.021 C 
ATOM      4  C   UNL     1      15.370  52.465  59.299  1.00  0.00     0.009 C 
ATOM      5  C   UNL     1      14.773  51.167  59.894  1.00  0.00     0.035 C 
ATOM      6  C   UNL     1      15.123  51.069  61.407  1.00  0.00     0.066 C 
ATOM      7  O   UNL     1      16.543  51.012  61.556  1.00  0.00    -0.369 OA
ATOM      8  C   UNL     1      14.584  52.336  62.132  1.00  0.00     0.035 C 
ATOM      9  C   UNL     1      15.185  53.607  61.486  1.00  0.00     0.009 C 
ATOM     10  C   UNL     1      14.511  49.804  62.016  1.00  0.00     0.042 C 
ATOM     11  C   UNL     1      18.030  52.818  62.146  1.00  0.00     0.042 C 
ENDROOT
TORSDOF 0
ENDMDL
MODEL 6
REMARK VINA RESULT:    13.315      1.842      3.533
REMARK INTER + INTRA:          13.315
REMARK INTER:                  13.315
REMARK INTRA:                   0.000
REMARK UNBOUND:                 0.000
REMARK SMILES CC1(C)O[C@]2(C)CC[C@H]1CC2
REMARK SMILES IDX 1 1 2 2 9 3 10 4 11 5 5 6 4 7 7 8 8 9 6 10 3 11
REMARK H PARENT
REMARK Flexibility Score: inf
ROOT
ATOM      1  C   UNL     1      14.401  51.750  58.663  1.00  0.00     0.042 C 
ATOM      2  C   UNL     1      15.165  52.626  59.680  1.00  0.00     0.066 C 
ATOM      3  C   UNL     1      14.580  52.434  61.133  1.00  0.00     0.021 C 
ATOM      4  C   UNL     1      14.800  50.962  61.558  1.00  0.00     0.009 C 
ATOM      5  C   UNL     1      16.288  50.590  61.348  1.00  0.00     0.035 C 
ATOM      6  C   UNL     1      17.082  51.840  60.869  1.00  0.00     0.066 C 
ATOM      7  O   UNL     1      16.555  52.277  59.615  1.00  0.00    -0.369 OA
ATOM      8  C   UNL     1      16.915  52.977  61.918  1.00  0.00     0.035 C 
ATOM      9  C   UNL     1      15.413  53.293  62.114  1.00  0.00     0.009 C 
ATOM     10  C   UNL     1      18.563  51.494  60.688  1.00  0.00     0.042 C 
ATOM     11  C   UNL     1      15.017  54.094  59.224  1.00  0.00     0.042 C 
ENDROOT
TORSDOF 0
ENDMDL
