MODEL 1
REMARK VINA RESULT:    -6.370      0.000      0.000
REMARK INTER + INTRA:          -7.752
REMARK INTER:                  -7.488
REMARK INTRA:                  -0.264
REMARK UNBOUND:                -0.264
REMARK SMILES O=c1cc(-c2ccc(O)c(O)c2)oc2cc(O)cc(O)c12
REMARK SMILES IDX 4 1 3 2 2 3 1 4 21 5 19 6 18 7 16 8 15 9 14 10 13 11 5 12
REMARK SMILES IDX 6 13 7 14 8 15 12 16 10 17 9 18 11 20 20 22 17 24
REMARK H PARENT 9 19 11 21 20 23 17 25
REMARK Flexibility Score: inf
ROOT
ATOM      1  C   UNL     1      14.492  56.129  32.813  1.00  0.00     0.138 A 
ATOM      2  C   UNL     1      14.404  55.903  31.433  1.00  0.00     0.100 A 
ATOM      3  C   UNL     1      14.869  56.872  30.543  1.00  0.00     0.197 A 
ATOM      4  O   UNL     1      14.833  56.614  29.312  1.00  0.00    -0.289 OA
ATOM      5  C   UNL     1      15.398  58.087  31.040  1.00  0.00     0.107 A 
ATOM      6  C   UNL     1      15.865  59.163  30.226  1.00  0.00     0.134 A 
ATOM      7  C   UNL     1      16.474  60.269  30.830  1.00  0.00     0.093 A 
ATOM      8  C   UNL     1      16.580  60.366  32.220  1.00  0.00     0.123 A 
ATOM      9  C   UNL     1      16.079  59.345  33.024  1.00  0.00     0.094 A 
ATOM     10  C   UNL     1      15.495  58.213  32.451  1.00  0.00     0.146 A 
ATOM     11  O   UNL     1      15.043  57.255  33.254  1.00  0.00    -0.456 OA
ENDROOT
BRANCH   1  12
ATOM     12  C   UNL     1      14.011  55.133  33.804  1.00  0.00     0.021 A 
ATOM     13  C   UNL     1      12.870  55.420  34.574  1.00  0.00     0.016 A 
ATOM     14  C   UNL     1      12.393  54.497  35.507  1.00  0.00     0.051 A 
ATOM     15  C   UNL     1      13.041  53.267  35.679  1.00  0.00     0.157 A 
ATOM     16  C   UNL     1      14.649  53.889  33.972  1.00  0.00     0.062 A 
ATOM     17  C   UNL     1      14.169  52.961  34.909  1.00  0.00     0.158 A 
BRANCH  15  18
ATOM     18  O   UNL     1      12.567  52.344  36.610  1.00  0.00    -0.504 OA
ATOM     19  H   UNL     1      13.190  51.697  37.080  1.00  0.00     0.293 HD
ENDBRANCH  15  18
BRANCH  17  20
ATOM     20  O   UNL     1      14.803  51.732  35.073  1.00  0.00    -0.504 OA
ATOM     21  H   UNL     1      14.780  51.021  34.352  1.00  0.00     0.293 HD
ENDBRANCH  17  20
ENDBRANCH   1  12
BRANCH   6  22
ATOM     22  O   UNL     1      15.731  59.206  28.836  1.00  0.00    -0.507 OA
ATOM     23  H   UNL     1      16.246  58.628  28.188  1.00  0.00     0.293 HD
ENDBRANCH   6  22
BRANCH   8  24
ATOM     24  O   UNL     1      17.175  61.478  32.813  1.00  0.00    -0.508 OA
ATOM     25  H   UNL     1      16.685  62.362  32.889  1.00  0.00     0.293 HD
ENDBRANCH   8  24
TORSDOF 5
ENDMDL
MODEL 2
REMARK VINA RESULT:    -6.336      0.786      1.442
REMARK INTER + INTRA:          -7.711
REMARK INTER:                  -7.447
REMARK INTRA:                  -0.265
REMARK UNBOUND:                -0.264
REMARK SMILES O=c1cc(-c2ccc(O)c(O)c2)oc2cc(O)cc(O)c12
REMARK SMILES IDX 4 1 3 2 2 3 1 4 21 5 19 6 18 7 16 8 15 9 14 10 13 11 5 12
REMARK SMILES IDX 6 13 7 14 8 15 12 16 10 17 9 18 11 20 20 22 17 24
REMARK H PARENT 9 19 11 21 20 23 17 25
REMARK Flexibility Score: inf
ROOT
ATOM      1  C   UNL     1      14.428  56.374  32.682  1.00  0.00     0.138 A 
ATOM      2  C   UNL     1      14.358  56.158  31.299  1.00  0.00     0.100 A 
ATOM      3  C   UNL     1      14.839  57.133  30.422  1.00  0.00     0.197 A 
ATOM      4  O   UNL     1      14.820  56.884  29.189  1.00  0.00    -0.289 OA
ATOM      5  C   UNL     1      15.365  58.342  30.936  1.00  0.00     0.107 A 
ATOM      6  C   UNL     1      15.846  59.423  30.137  1.00  0.00     0.134 A 
ATOM      7  C   UNL     1      16.450  60.523  30.758  1.00  0.00     0.093 A 
ATOM      8  C   UNL     1      16.536  60.609  32.150  1.00  0.00     0.123 A 
ATOM      9  C   UNL     1      16.021  59.583  32.940  1.00  0.00     0.094 A 
ATOM     10  C   UNL     1      15.442  58.457  32.350  1.00  0.00     0.146 A 
ATOM     11  O   UNL     1      14.976  57.495  33.139  1.00  0.00    -0.456 OA
ENDROOT
BRANCH   1  12
ATOM     12  C   UNL     1      13.930  55.372  33.658  1.00  0.00     0.021 A 
ATOM     13  C   UNL     1      14.850  54.653  34.441  1.00  0.00     0.016 A 
ATOM     14  C   UNL     1      14.407  53.710  35.371  1.00  0.00     0.051 A 
ATOM     15  C   UNL     1      13.037  53.477  35.541  1.00  0.00     0.157 A 
ATOM     16  C   UNL     1      12.553  55.141  33.844  1.00  0.00     0.062 A 
ATOM     17  C   UNL     1      12.108  54.194  34.779  1.00  0.00     0.158 A 
BRANCH  15  18
ATOM     18  O   UNL     1      12.591  52.535  36.468  1.00  0.00    -0.504 OA
ATOM     19  H   UNL     1      12.502  51.555  36.228  1.00  0.00     0.293 HD
ENDBRANCH  15  18
BRANCH  17  20
ATOM     20  O   UNL     1      10.745  53.968  34.960  1.00  0.00    -0.504 OA
ATOM     21  H   UNL     1      10.061  54.274  34.278  1.00  0.00     0.293 HD
ENDBRANCH  17  20
ENDBRANCH   1  12
BRANCH   6  22
ATOM     22  O   UNL     1      15.733  59.477  28.745  1.00  0.00    -0.507 OA
ATOM     23  H   UNL     1      16.140  58.810  28.107  1.00  0.00     0.293 HD
ENDBRANCH   6  22
BRANCH   8  24
ATOM     24  O   UNL     1      17.126  61.714  32.760  1.00  0.00    -0.508 OA
ATOM     25  H   UNL     1      17.314  62.566  32.243  1.00  0.00     0.293 HD
ENDBRANCH   8  24
TORSDOF 5
ENDMDL
MODEL 3
REMARK VINA RESULT:    -5.852      1.796      2.430
REMARK INTER + INTRA:          -7.143
REMARK INTER:                  -6.870
REMARK INTRA:                  -0.273
REMARK UNBOUND:                -0.264
REMARK SMILES O=c1cc(-c2ccc(O)c(O)c2)oc2cc(O)cc(O)c12
REMARK SMILES IDX 4 1 3 2 2 3 1 4 21 5 19 6 18 7 16 8 15 9 14 10 13 11 5 12
REMARK SMILES IDX 6 13 7 14 8 15 12 16 10 17 9 18 11 20 20 22 17 24
REMARK H PARENT 9 19 11 21 20 23 17 25
REMARK Flexibility Score: inf
ROOT
ATOM      1  C   UNL     1      14.348  56.249  33.216  1.00  0.00     0.138 A 
ATOM      2  C   UNL     1      13.091  56.736  32.832  1.00  0.00     0.100 A 
ATOM      3  C   UNL     1      12.959  58.064  32.422  1.00  0.00     0.197 A 
ATOM      4  O   UNL     1      11.831  58.453  32.024  1.00  0.00    -0.289 OA
ATOM      5  C   UNL     1      14.089  58.916  32.426  1.00  0.00     0.107 A 
ATOM      6  C   UNL     1      14.066  60.297  32.068  1.00  0.00     0.134 A 
ATOM      7  C   UNL     1      15.268  61.012  31.999  1.00  0.00     0.093 A 
ATOM      8  C   UNL     1      16.485  60.411  32.334  1.00  0.00     0.123 A 
ATOM      9  C   UNL     1      16.510  59.078  32.736  1.00  0.00     0.094 A 
ATOM     10  C   UNL     1      15.332  58.329  32.783  1.00  0.00     0.146 A 
ATOM     11  O   UNL     1      15.403  57.056  33.159  1.00  0.00    -0.456 OA
ENDROOT
BRANCH   1  12
ATOM     12  C   UNL     1      14.543  54.847  33.661  1.00  0.00     0.021 A 
ATOM     13  C   UNL     1      15.537  54.060  33.051  1.00  0.00     0.016 A 
ATOM     14  C   UNL     1      15.745  52.740  33.457  1.00  0.00     0.051 A 
ATOM     15  C   UNL     1      14.973  52.187  34.486  1.00  0.00     0.157 A 
ATOM     16  C   UNL     1      13.779  54.288  34.704  1.00  0.00     0.062 A 
ATOM     17  C   UNL     1      13.990  52.962  35.112  1.00  0.00     0.158 A 
BRANCH  15  18
ATOM     18  O   UNL     1      15.178  50.869  34.892  1.00  0.00    -0.504 OA
ATOM     19  H   UNL     1      15.437  50.642  35.845  1.00  0.00     0.293 HD
ENDBRANCH  15  18
BRANCH  17  20
ATOM     20  O   UNL     1      13.231  52.413  36.143  1.00  0.00    -0.504 OA
ATOM     21  H   UNL     1      13.658  51.877  36.890  1.00  0.00     0.293 HD
ENDBRANCH  17  20
ENDBRANCH   1  12
BRANCH   6  22
ATOM     22  O   UNL     1      12.897  61.015  31.798  1.00  0.00    -0.507 OA
ATOM     23  H   UNL     1      12.801  61.710  31.074  1.00  0.00     0.293 HD
ENDBRANCH   6  22
BRANCH   8  24
ATOM     24  O   UNL     1      17.674  61.134  32.277  1.00  0.00    -0.508 OA
ATOM     25  H   UNL     1      18.492  60.850  32.805  1.00  0.00     0.293 HD
ENDBRANCH   8  24
TORSDOF 5
ENDMDL
MODEL 4
REMARK VINA RESULT:    -5.848      1.760      6.815
REMARK INTER + INTRA:          -7.138
REMARK INTER:                  -6.847
REMARK INTRA:                  -0.291
REMARK UNBOUND:                -0.264
REMARK SMILES O=c1cc(-c2ccc(O)c(O)c2)oc2cc(O)cc(O)c12
REMARK SMILES IDX 4 1 3 2 2 3 1 4 21 5 19 6 18 7 16 8 15 9 14 10 13 11 5 12
REMARK SMILES IDX 6 13 7 14 8 15 12 16 10 17 9 18 11 20 20 22 17 24
REMARK H PARENT 9 19 11 21 20 23 17 25
REMARK Flexibility Score: inf
ROOT
ATOM      1  C   UNL     1      15.654  56.622  31.804  1.00  0.00     0.138 A 
ATOM      2  C   UNL     1      15.547  56.013  30.546  1.00  0.00     0.100 A 
ATOM      3  C   UNL     1      15.235  54.655  30.460  1.00  0.00     0.197 A 
ATOM      4  O   UNL     1      15.084  54.153  29.316  1.00  0.00    -0.289 OA
ATOM      5  C   UNL     1      15.060  53.897  31.642  1.00  0.00     0.107 A 
ATOM      6  C   UNL     1      14.780  52.498  31.676  1.00  0.00     0.134 A 
ATOM      7  C   UNL     1      14.513  51.878  32.903  1.00  0.00     0.093 A 
ATOM      8  C   UNL     1      14.575  52.594  34.101  1.00  0.00     0.123 A 
ATOM      9  C   UNL     1      14.900  53.948  34.082  1.00  0.00     0.094 A 
ATOM     10  C   UNL     1      15.139  54.603  32.872  1.00  0.00     0.146 A 
ATOM     11  O   UNL     1      15.432  55.899  32.898  1.00  0.00    -0.456 OA
ENDROOT
BRANCH   1  12
ATOM     12  C   UNL     1      15.985  58.061  31.954  1.00  0.00     0.021 A 
ATOM     13  C   UNL     1      16.543  58.520  33.160  1.00  0.00     0.016 A 
ATOM     14  C   UNL     1      16.870  59.869  33.323  1.00  0.00     0.051 A 
ATOM     15  C   UNL     1      16.655  60.778  32.281  1.00  0.00     0.157 A 
ATOM     16  C   UNL     1      15.785  58.979  30.905  1.00  0.00     0.062 A 
ATOM     17  C   UNL     1      16.114  60.333  31.069  1.00  0.00     0.158 A 
BRANCH  15  18
ATOM     18  O   UNL     1      16.979  62.125  32.440  1.00  0.00    -0.504 OA
ATOM     19  H   UNL     1      17.936  62.428  32.578  1.00  0.00     0.293 HD
ENDBRANCH  15  18
BRANCH  17  20
ATOM     20  O   UNL     1      15.913  61.239  30.029  1.00  0.00    -0.504 OA
ATOM     21  H   UNL     1      15.078  61.213  29.456  1.00  0.00     0.293 HD
ENDBRANCH  17  20
ENDBRANCH   1  12
BRANCH   6  22
ATOM     22  O   UNL     1      14.779  51.674  30.547  1.00  0.00    -0.507 OA
ATOM     23  H   UNL     1      14.014  51.078  30.269  1.00  0.00     0.293 HD
ENDBRANCH   6  22
BRANCH   8  24
ATOM     24  O   UNL     1      14.323  51.965  35.318  1.00  0.00    -0.508 OA
ATOM     25  H   UNL     1      14.903  52.134  36.133  1.00  0.00     0.293 HD
ENDBRANCH   8  24
TORSDOF 5
ENDMDL
MODEL 5
REMARK VINA RESULT:    -5.516      5.825      9.748
REMARK INTER + INTRA:          -6.747
REMARK INTER:                  -6.480
REMARK INTRA:                  -0.267
REMARK UNBOUND:                -0.264
REMARK SMILES O=c1cc(-c2ccc(O)c(O)c2)oc2cc(O)cc(O)c12
REMARK SMILES IDX 4 1 3 2 2 3 1 4 21 5 19 6 18 7 16 8 15 9 14 10 13 11 5 12
REMARK SMILES IDX 6 13 7 14 8 15 12 16 10 17 9 18 11 20 20 22 17 24
REMARK H PARENT 9 19 11 21 20 23 17 25
REMARK Flexibility Score: inf
ROOT
ATOM      1  C   UNL     1      15.258  49.840  31.753  1.00  0.00     0.138 A 
ATOM      2  C   UNL     1      16.267  49.483  30.847  1.00  0.00     0.100 A 
ATOM      3  C   UNL     1      16.345  48.169  30.382  1.00  0.00     0.197 A 
ATOM      4  O   UNL     1      17.222  47.895  29.523  1.00  0.00    -0.289 OA
ATOM      5  C   UNL     1      15.425  47.202  30.852  1.00  0.00     0.107 A 
ATOM      6  C   UNL     1      15.434  45.824  30.478  1.00  0.00     0.134 A 
ATOM      7  C   UNL     1      14.403  44.984  30.917  1.00  0.00     0.093 A 
ATOM      8  C   UNL     1      13.398  45.457  31.765  1.00  0.00     0.123 A 
ATOM      9  C   UNL     1      13.411  46.788  32.177  1.00  0.00     0.094 A 
ATOM     10  C   UNL     1      14.407  47.659  31.730  1.00  0.00     0.146 A 
ATOM     11  O   UNL     1      14.374  48.924  32.136  1.00  0.00    -0.456 OA
ENDROOT
BRANCH   1  12
ATOM     12  C   UNL     1      15.131  51.222  32.281  1.00  0.00     0.021 A 
ATOM     13  C   UNL     1      15.992  51.652  33.305  1.00  0.00     0.016 A 
ATOM     14  C   UNL     1      15.897  52.950  33.814  1.00  0.00     0.051 A 
ATOM     15  C   UNL     1      14.948  53.842  33.300  1.00  0.00     0.157 A 
ATOM     16  C   UNL     1      14.188  52.129  31.760  1.00  0.00     0.062 A 
ATOM     17  C   UNL     1      14.094  53.433  32.270  1.00  0.00     0.158 A 
BRANCH  15  18
ATOM     18  O   UNL     1      14.850  55.137  33.806  1.00  0.00    -0.504 OA
ATOM     19  H   UNL     1      15.474  55.472  34.531  1.00  0.00     0.293 HD
ENDBRANCH  15  18
BRANCH  17  20
ATOM     20  O   UNL     1      13.158  54.326  31.753  1.00  0.00    -0.504 OA
ATOM     21  H   UNL     1      12.911  55.178  32.242  1.00  0.00     0.293 HD
ENDBRANCH  17  20
ENDBRANCH   1  12
BRANCH   6  22
ATOM     22  O   UNL     1      16.437  45.230  29.707  1.00  0.00    -0.507 OA
ATOM     23  H   UNL     1      16.365  44.328  29.262  1.00  0.00     0.293 HD
ENDBRANCH   6  22
BRANCH   8  24
ATOM     24  O   UNL     1      12.385  44.611  32.208  1.00  0.00    -0.508 OA
ATOM     25  H   UNL     1      11.570  44.969  32.695  1.00  0.00     0.293 HD
ENDBRANCH   8  24
TORSDOF 5
ENDMDL
MODEL 6
REMARK VINA RESULT:    -5.427      2.284      3.449
REMARK INTER + INTRA:          -6.644
REMARK INTER:                  -6.380
REMARK INTRA:                  -0.264
REMARK UNBOUND:                -0.264
REMARK SMILES O=c1cc(-c2ccc(O)c(O)c2)oc2cc(O)cc(O)c12
REMARK SMILES IDX 4 1 3 2 2 3 1 4 21 5 19 6 18 7 16 8 15 9 14 10 13 11 5 12
REMARK SMILES IDX 6 13 7 14 8 15 12 16 10 17 9 18 11 20 20 22 17 24
REMARK H PARENT 9 19 11 21 20 23 17 25
REMARK Flexibility Score: inf
ROOT
ATOM      1  C   UNL     1      15.289  57.119  32.751  1.00  0.00     0.138 A 
ATOM      2  C   UNL     1      16.556  57.718  32.728  1.00  0.00     0.100 A 
ATOM      3  C   UNL     1      16.662  59.110  32.719  1.00  0.00     0.197 A 
ATOM      4  O   UNL     1      17.813  59.618  32.761  1.00  0.00    -0.289 OA
ATOM      5  C   UNL     1      15.491  59.904  32.702  1.00  0.00     0.107 A 
ATOM      6  C   UNL     1      15.478  61.330  32.651  1.00  0.00     0.134 A 
ATOM      7  C   UNL     1      14.259  62.012  32.756  1.00  0.00     0.093 A 
ATOM      8  C   UNL     1      13.049  61.319  32.849  1.00  0.00     0.123 A 
ATOM      9  C   UNL     1      13.049  59.926  32.846  1.00  0.00     0.094 A 
ATOM     10  C   UNL     1      14.250  59.217  32.776  1.00  0.00     0.146 A 
ATOM     11  O   UNL     1      14.206  57.888  32.789  1.00  0.00    -0.456 OA
ENDROOT
BRANCH   1  12
ATOM     12  C   UNL     1      15.119  55.644  32.759  1.00  0.00     0.021 A 
ATOM     13  C   UNL     1      15.065  54.962  33.988  1.00  0.00     0.016 A 
ATOM     14  C   UNL     1      14.899  53.576  34.024  1.00  0.00     0.051 A 
ATOM     15  C   UNL     1      14.774  52.849  32.834  1.00  0.00     0.157 A 
ATOM     16  C   UNL     1      14.979  54.908  31.567  1.00  0.00     0.062 A 
ATOM     17  C   UNL     1      14.811  53.515  31.603  1.00  0.00     0.158 A 
BRANCH  15  18
ATOM     18  O   UNL     1      14.609  51.465  32.866  1.00  0.00    -0.504 OA
ATOM     19  H   UNL     1      14.499  50.964  33.739  1.00  0.00     0.293 HD
ENDBRANCH  15  18
BRANCH  17  20
ATOM     20  O   UNL     1      14.674  52.791  30.421  1.00  0.00    -0.504 OA
ATOM     21  H   UNL     1      15.239  51.971  30.233  1.00  0.00     0.293 HD
ENDBRANCH  17  20
ENDBRANCH   1  12
BRANCH   6  22
ATOM     22  O   UNL     1      16.619  62.117  32.474  1.00  0.00    -0.507 OA
ATOM     23  H   UNL     1      17.414  62.128  33.095  1.00  0.00     0.293 HD
ENDBRANCH   6  22
BRANCH   8  24
ATOM     24  O   UNL     1      11.841  62.005  32.938  1.00  0.00    -0.508 OA
ATOM     25  H   UNL     1      11.442  62.482  32.137  1.00  0.00     0.293 HD
ENDBRANCH   8  24
TORSDOF 5
ENDMDL
MODEL 7
REMARK VINA RESULT:    -5.380      1.994      7.210
REMARK INTER + INTRA:          -6.588
REMARK INTER:                  -6.279
REMARK INTRA:                  -0.309
REMARK UNBOUND:                -0.264
REMARK SMILES O=c1cc(-c2ccc(O)c(O)c2)oc2cc(O)cc(O)c12
REMARK SMILES IDX 4 1 3 2 2 3 1 4 21 5 19 6 18 7 16 8 15 9 14 10 13 11 5 12
REMARK SMILES IDX 6 13 7 14 8 15 12 16 10 17 9 18 11 20 20 22 17 24
REMARK H PARENT 9 19 11 21 20 23 17 25
REMARK Flexibility Score: inf
ROOT
ATOM      1  C   UNL     1      15.583  56.757  32.517  1.00  0.00     0.138 A 
ATOM      2  C   UNL     1      15.450  56.343  33.849  1.00  0.00     0.100 A 
ATOM      3  C   UNL     1      15.122  55.015  34.131  1.00  0.00     0.197 A 
ATOM      4  O   UNL     1      15.072  54.659  35.337  1.00  0.00    -0.289 OA
ATOM      5  C   UNL     1      14.897  54.106  33.070  1.00  0.00     0.107 A 
ATOM      6  C   UNL     1      14.518  52.741  33.237  1.00  0.00     0.134 A 
ATOM      7  C   UNL     1      14.435  51.906  32.115  1.00  0.00     0.093 A 
ATOM      8  C   UNL     1      14.658  52.402  30.828  1.00  0.00     0.123 A 
ATOM      9  C   UNL     1      14.977  53.747  30.651  1.00  0.00     0.094 A 
ATOM     10  C   UNL     1      15.099  54.597  31.752  1.00  0.00     0.146 A 
ATOM     11  O   UNL     1      15.418  55.870  31.540  1.00  0.00    -0.456 OA
ENDROOT
BRANCH   1  12
ATOM     12  C   UNL     1      15.928  58.156  32.161  1.00  0.00     0.021 A 
ATOM     13  C   UNL     1      16.631  58.950  33.085  1.00  0.00     0.016 A 
ATOM     14  C   UNL     1      16.974  60.267  32.772  1.00  0.00     0.051 A 
ATOM     15  C   UNL     1      16.630  60.810  31.528  1.00  0.00     0.157 A 
ATOM     16  C   UNL     1      15.598  58.705  30.907  1.00  0.00     0.062 A 
ATOM     17  C   UNL     1      15.944  60.027  30.593  1.00  0.00     0.158 A 
BRANCH  15  18
ATOM     18  O   UNL     1      16.971  62.125  31.213  1.00  0.00    -0.504 OA
ATOM     19  H   UNL     1      17.269  62.781  31.925  1.00  0.00     0.293 HD
ENDBRANCH  15  18
BRANCH  17  20
ATOM     20  O   UNL     1      15.614  60.567  29.351  1.00  0.00    -0.504 OA
ATOM     21  H   UNL     1      16.045  61.418  29.010  1.00  0.00     0.293 HD
ENDBRANCH  17  20
ENDBRANCH   1  12
BRANCH   6  22
ATOM     22  O   UNL     1      14.189  52.166  34.468  1.00  0.00    -0.507 OA
ATOM     23  H   UNL     1      14.362  51.205  34.721  1.00  0.00     0.293 HD
ENDBRANCH   6  22
BRANCH   8  24
ATOM     24  O   UNL     1      14.559  51.568  29.717  1.00  0.00    -0.508 OA
ATOM     25  H   UNL     1      13.772  51.625  29.080  1.00  0.00     0.293 HD
ENDBRANCH   8  24
TORSDOF 5
ENDMDL
MODEL 8
REMARK VINA RESULT:    -5.361      1.748      3.441
REMARK INTER + INTRA:          -6.565
REMARK INTER:                  -6.276
REMARK INTRA:                  -0.289
REMARK UNBOUND:                -0.264
REMARK SMILES O=c1cc(-c2ccc(O)c(O)c2)oc2cc(O)cc(O)c12
REMARK SMILES IDX 4 1 3 2 2 3 1 4 21 5 19 6 18 7 16 8 15 9 14 10 13 11 5 12
REMARK SMILES IDX 6 13 7 14 8 15 12 16 10 17 9 18 11 20 20 22 17 24
REMARK H PARENT 9 19 11 21 20 23 17 25
REMARK Flexibility Score: inf
ROOT
ATOM      1  C   UNL     1      15.522  57.194  32.108  1.00  0.00     0.138 A 
ATOM      2  C   UNL     1      16.113  57.912  33.157  1.00  0.00     0.100 A 
ATOM      3  C   UNL     1      16.390  59.271  32.994  1.00  0.00     0.197 A 
ATOM      4  O   UNL     1      16.863  59.902  33.975  1.00  0.00    -0.289 OA
ATOM      5  C   UNL     1      16.101  59.904  31.762  1.00  0.00     0.107 A 
ATOM      6  C   UNL     1      16.378  61.273  31.469  1.00  0.00     0.134 A 
ATOM      7  C   UNL     1      15.943  61.820  30.255  1.00  0.00     0.093 A 
ATOM      8  C   UNL     1      15.294  61.032  29.300  1.00  0.00     0.123 A 
ATOM      9  C   UNL     1      15.067  59.682  29.557  1.00  0.00     0.094 A 
ATOM     10  C   UNL     1      15.460  59.115  30.771  1.00  0.00     0.146 A 
ATOM     11  O   UNL     1      15.212  57.826  30.981  1.00  0.00    -0.456 OA
ENDROOT
BRANCH   1  12
ATOM     12  C   UNL     1      15.208  55.748  32.228  1.00  0.00     0.021 A 
ATOM     13  C   UNL     1      15.138  54.958  31.066  1.00  0.00     0.016 A 
ATOM     14  C   UNL     1      14.851  53.594  31.152  1.00  0.00     0.051 A 
ATOM     15  C   UNL     1      14.639  52.994  32.399  1.00  0.00     0.157 A 
ATOM     16  C   UNL     1      15.007  55.135  33.479  1.00  0.00     0.062 A 
ATOM     17  C   UNL     1      14.720  53.764  33.565  1.00  0.00     0.158 A 
BRANCH  15  18
ATOM     18  O   UNL     1      14.352  51.633  32.488  1.00  0.00    -0.504 OA
ATOM     19  H   UNL     1      14.094  51.201  33.368  1.00  0.00     0.293 HD
ENDBRANCH  15  18
BRANCH  17  20
ATOM     20  O   UNL     1      14.521  53.162  34.806  1.00  0.00    -0.504 OA
ATOM     21  H   UNL     1      15.085  53.405  35.611  1.00  0.00     0.293 HD
ENDBRANCH  17  20
ENDBRANCH   1  12
BRANCH   6  22
ATOM     22  O   UNL     1      17.094  62.125  32.315  1.00  0.00    -0.507 OA
ATOM     23  H   UNL     1      17.914  62.649  32.048  1.00  0.00     0.293 HD
ENDBRANCH   6  22
BRANCH   8  24
ATOM     24  O   UNL     1      14.877  61.581  28.090  1.00  0.00    -0.508 OA
ATOM     25  H   UNL     1      13.901  61.577  27.815  1.00  0.00     0.293 HD
ENDBRANCH   8  24
TORSDOF 5
ENDMDL
