MODEL 1
REMARK VINA RESULT:    -5.503      0.000      0.000
REMARK INTER + INTRA:          -6.594
REMARK INTER:                  -6.308
REMARK INTRA:                  -0.286
REMARK UNBOUND:                -0.286
REMARK SMILES O=C([O-])C=Cc1ccc(O)cc1
REMARK SMILES IDX 6 1 7 2 12 3 8 4 11 5 9 6 5 7 4 8 2 9 1 10 3 11 10 12
REMARK H PARENT 10 13
REMARK Flexibility Score: inf
ROOT
ATOM      1  C   UNL     1      -6.895 -10.997  52.681  1.00  0.00    -0.025 A 
ATOM      2  C   UNL     1      -8.229 -10.602  52.862  1.00  0.00     0.012 A 
ATOM      3  C   UNL     1      -6.549 -11.752  51.548  1.00  0.00     0.012 A 
ATOM      4  C   UNL     1      -9.212 -11.002  51.952  1.00  0.00     0.047 A 
ATOM      5  C   UNL     1      -7.534 -12.150  50.639  1.00  0.00     0.047 A 
ATOM      6  C   UNL     1      -8.867 -11.780  50.839  1.00  0.00     0.115 A 
ENDROOT
BRANCH   1   7
ATOM      7  C   UNL     1      -5.865 -10.519  53.626  1.00  0.00     0.010 C 
ATOM      8  C   UNL     1      -5.317 -11.246  54.611  1.00  0.00     0.025 C 
BRANCH   8   9
ATOM      9  C   UNL     1      -5.775 -12.578  55.047  1.00  0.00     0.064 C 
ATOM     10  O   UNL     1      -6.607 -12.666  55.987  1.00  0.00    -0.545 OA
ATOM     11  O   UNL     1      -5.362 -13.736  54.398  1.00  0.00    -0.545 OA
ENDBRANCH   8   9
ENDBRANCH   1   7
BRANCH   6  12
ATOM     12  O   UNL     1      -9.838 -12.185  49.926  1.00  0.00    -0.508 OA
ATOM     13  H   UNL     1     -10.448 -11.516  49.470  1.00  0.00     0.293 HD
ENDBRANCH   6  12
TORSDOF 3
ENDMDL
MODEL 2
REMARK VINA RESULT:    -5.443      0.143      1.406
REMARK INTER + INTRA:          -6.525
REMARK INTER:                  -6.248
REMARK INTRA:                  -0.277
REMARK UNBOUND:                -0.286
REMARK SMILES O=C([O-])C=Cc1ccc(O)cc1
REMARK SMILES IDX 6 1 7 2 12 3 8 4 11 5 9 6 5 7 4 8 2 9 1 10 3 11 10 12
REMARK H PARENT 10 13
REMARK Flexibility Score: inf
ROOT
ATOM      1  C   UNL     1      -6.821 -10.971  52.684  1.00  0.00    -0.025 A 
ATOM      2  C   UNL     1      -6.482 -11.744  51.564  1.00  0.00     0.012 A 
ATOM      3  C   UNL     1      -8.169 -10.643  52.910  1.00  0.00     0.012 A 
ATOM      4  C   UNL     1      -7.467 -12.138  50.654  1.00  0.00     0.047 A 
ATOM      5  C   UNL     1      -9.153 -11.038  51.999  1.00  0.00     0.047 A 
ATOM      6  C   UNL     1      -8.805 -11.783  50.867  1.00  0.00     0.115 A 
ENDROOT
BRANCH   1   7
ATOM      7  C   UNL     1      -5.772 -10.611  53.660  1.00  0.00     0.010 C 
ATOM      8  C   UNL     1      -5.273 -11.426  54.600  1.00  0.00     0.025 C 
BRANCH   8   9
ATOM      9  C   UNL     1      -5.809 -12.754  54.954  1.00  0.00     0.064 C 
ATOM     10  O   UNL     1      -6.722 -12.841  55.815  1.00  0.00    -0.545 OA
ATOM     11  O   UNL     1      -5.378 -13.907  54.306  1.00  0.00    -0.545 OA
ENDBRANCH   8   9
ENDBRANCH   1   7
BRANCH   6  12
ATOM     12  O   UNL     1      -9.796 -12.170  49.967  1.00  0.00    -0.508 OA
ATOM     13  H   UNL     1      -9.977 -13.146  49.766  1.00  0.00     0.293 HD
ENDBRANCH   6  12
TORSDOF 3
ENDMDL
MODEL 3
REMARK VINA RESULT:    -5.402     12.271     13.740
REMARK INTER + INTRA:          -6.477
REMARK INTER:                  -6.255
REMARK INTRA:                  -0.222
REMARK UNBOUND:                -0.286
REMARK SMILES O=C([O-])C=Cc1ccc(O)cc1
REMARK SMILES IDX 6 1 7 2 12 3 8 4 11 5 9 6 5 7 4 8 2 9 1 10 3 11 10 12
REMARK H PARENT 10 13
REMARK Flexibility Score: inf
ROOT
ATOM      1  C   UNL     1      -3.370 -24.168  49.777  1.00  0.00    -0.025 A 
ATOM      2  C   UNL     1      -2.353 -24.902  49.146  1.00  0.00     0.012 A 
ATOM      3  C   UNL     1      -3.030 -23.030  50.528  1.00  0.00     0.012 A 
ATOM      4  C   UNL     1      -1.014 -24.535  49.307  1.00  0.00     0.047 A 
ATOM      5  C   UNL     1      -1.691 -22.665  50.688  1.00  0.00     0.047 A 
ATOM      6  C   UNL     1      -0.679 -23.416  50.082  1.00  0.00     0.115 A 
ENDROOT
BRANCH   1   7
ATOM      7  C   UNL     1      -4.781 -24.543  49.549  1.00  0.00     0.010 C 
ATOM      8  C   UNL     1      -5.607 -23.959  48.669  1.00  0.00     0.025 C 
BRANCH   8   9
ATOM      9  C   UNL     1      -5.319 -22.725  47.914  1.00  0.00     0.064 C 
ATOM     10  O   UNL     1      -5.779 -21.628  48.327  1.00  0.00    -0.545 OA
ATOM     11  O   UNL     1      -4.494 -22.734  46.795  1.00  0.00    -0.545 OA
ENDBRANCH   8   9
ENDBRANCH   1   7
BRANCH   6  12
ATOM     12  O   UNL     1       0.652 -23.041  50.251  1.00  0.00    -0.508 OA
ATOM     13  H   UNL     1       1.395 -23.729  50.286  1.00  0.00     0.293 HD
ENDBRANCH   6  12
TORSDOF 3
ENDMDL
MODEL 4
REMARK VINA RESULT:    -5.400     12.256     13.661
REMARK INTER + INTRA:          -6.475
REMARK INTER:                  -6.272
REMARK INTRA:                  -0.202
REMARK UNBOUND:                -0.286
REMARK SMILES O=C([O-])C=Cc1ccc(O)cc1
REMARK SMILES IDX 6 1 7 2 12 3 8 4 11 5 9 6 5 7 4 8 2 9 1 10 3 11 10 12
REMARK H PARENT 10 13
REMARK Flexibility Score: inf
ROOT
ATOM      1  C   UNL     1      -3.319 -24.144  49.718  1.00  0.00    -0.025 A 
ATOM      2  C   UNL     1      -2.988 -23.036  50.513  1.00  0.00     0.012 A 
ATOM      3  C   UNL     1      -2.289 -24.914  49.149  1.00  0.00     0.012 A 
ATOM      4  C   UNL     1      -1.651 -22.671  50.692  1.00  0.00     0.047 A 
ATOM      5  C   UNL     1      -0.953 -24.547  49.330  1.00  0.00     0.047 A 
ATOM      6  C   UNL     1      -0.629 -23.424  50.098  1.00  0.00     0.115 A 
ENDROOT
BRANCH   1   7
ATOM      7  C   UNL     1      -4.735 -24.543  49.585  1.00  0.00     0.010 C 
ATOM      8  C   UNL     1      -5.638 -23.948  48.792  1.00  0.00     0.025 C 
BRANCH   8   9
ATOM      9  C   UNL     1      -5.434 -22.684  48.060  1.00  0.00     0.064 C 
ATOM     10  O   UNL     1      -5.879 -21.612  48.545  1.00  0.00    -0.545 OA
ATOM     11  O   UNL     1      -4.699 -22.639  46.880  1.00  0.00    -0.545 OA
ENDBRANCH   8   9
ENDBRANCH   1   7
BRANCH   6  12
ATOM     12  O   UNL     1       0.707 -23.069  50.269  1.00  0.00    -0.508 OA
ATOM     13  H   UNL     1       1.453 -23.576  49.806  1.00  0.00     0.293 HD
ENDBRANCH   6  12
TORSDOF 3
ENDMDL
MODEL 5
REMARK VINA RESULT:    -5.391     10.848     13.466
REMARK INTER + INTRA:          -6.464
REMARK INTER:                  -6.249
REMARK INTRA:                  -0.215
REMARK UNBOUND:                -0.286
REMARK SMILES O=C([O-])C=Cc1ccc(O)cc1
REMARK SMILES IDX 6 1 7 2 12 3 8 4 11 5 9 6 5 7 4 8 2 9 1 10 3 11 10 12
REMARK H PARENT 10 13
REMARK Flexibility Score: inf
ROOT
ATOM      1  C   UNL     1       1.223 -19.493  58.168  1.00  0.00    -0.025 A 
ATOM      2  C   UNL     1       0.714 -20.696  57.656  1.00  0.00     0.012 A 
ATOM      3  C   UNL     1       2.543 -19.456  58.651  1.00  0.00     0.012 A 
ATOM      4  C   UNL     1       1.491 -21.857  57.676  1.00  0.00     0.047 A 
ATOM      5  C   UNL     1       3.318 -20.619  58.671  1.00  0.00     0.047 A 
ATOM      6  C   UNL     1       2.796 -21.822  58.187  1.00  0.00     0.115 A 
ENDROOT
BRANCH   1   7
ATOM      7  C   UNL     1       0.403 -18.267  58.088  1.00  0.00     0.010 C 
ATOM      8  C   UNL     1       0.463 -17.355  57.107  1.00  0.00     0.025 C 
BRANCH   8   9
ATOM      9  C   UNL     1       1.481 -17.311  56.040  1.00  0.00     0.064 C 
ATOM     10  O   UNL     1       2.380 -16.432  56.083  1.00  0.00    -0.545 OA
ATOM     11  O   UNL     1       1.511 -18.261  55.026  1.00  0.00    -0.545 OA
ENDBRANCH   8   9
ENDBRANCH   1   7
BRANCH   6  12
ATOM     12  O   UNL     1       3.580 -22.973  58.213  1.00  0.00    -0.508 OA
ATOM     13  H   UNL     1       3.285 -23.803  58.713  1.00  0.00     0.293 HD
ENDBRANCH   6  12
TORSDOF 3
ENDMDL
MODEL 6
REMARK VINA RESULT:    -5.244     12.771     14.182
REMARK INTER + INTRA:          -6.296
REMARK INTER:                  -6.013
REMARK INTRA:                  -0.284
REMARK UNBOUND:                -0.286
REMARK SMILES O=C([O-])C=Cc1ccc(O)cc1
REMARK SMILES IDX 6 1 7 2 12 3 8 4 11 5 9 6 5 7 4 8 2 9 1 10 3 11 10 12
REMARK H PARENT 10 13
REMARK Flexibility Score: inf
ROOT
ATOM      1  C   UNL     1      -1.106 -24.012  48.733  1.00  0.00    -0.025 A 
ATOM      2  C   UNL     1      -0.784 -22.734  48.249  1.00  0.00     0.012 A 
ATOM      3  C   UNL     1      -0.861 -24.317  50.082  1.00  0.00     0.012 A 
ATOM      4  C   UNL     1      -0.177 -21.795  49.087  1.00  0.00     0.047 A 
ATOM      5  C   UNL     1      -0.253 -23.376  50.919  1.00  0.00     0.047 A 
ATOM      6  C   UNL     1       0.093 -22.115  50.424  1.00  0.00     0.115 A 
ENDROOT
BRANCH   1   7
ATOM      7  C   UNL     1      -1.795 -24.970  47.844  1.00  0.00     0.010 C 
ATOM      8  C   UNL     1      -3.121 -25.040  47.657  1.00  0.00     0.025 C 
BRANCH   8   9
ATOM      9  C   UNL     1      -4.136 -24.311  48.441  1.00  0.00     0.064 C 
ATOM     10  O   UNL     1      -4.682 -23.292  47.944  1.00  0.00    -0.545 OA
ATOM     11  O   UNL     1      -4.554 -24.763  49.687  1.00  0.00    -0.545 OA
ENDBRANCH   8   9
ENDBRANCH   1   7
BRANCH   6  12
ATOM     12  O   UNL     1       0.699 -21.187  51.269  1.00  0.00    -0.508 OA
ATOM     13  H   UNL     1       0.155 -20.617  51.906  1.00  0.00     0.293 HD
ENDBRANCH   6  12
TORSDOF 3
ENDMDL
MODEL 7
REMARK VINA RESULT:    -5.227     10.993     12.081
REMARK INTER + INTRA:          -6.277
REMARK INTER:                  -6.003
REMARK INTRA:                  -0.275
REMARK UNBOUND:                -0.286
REMARK SMILES O=C([O-])C=Cc1ccc(O)cc1
REMARK SMILES IDX 6 1 7 2 12 3 8 4 11 5 9 6 5 7 4 8 2 9 1 10 3 11 10 12
REMARK H PARENT 10 13
REMARK Flexibility Score: inf
ROOT
ATOM      1  C   UNL     1      -5.433 -22.827  48.281  1.00  0.00    -0.025 A 
ATOM      2  C   UNL     1      -5.857 -21.679  48.969  1.00  0.00     0.012 A 
ATOM      3  C   UNL     1      -4.922 -22.697  46.978  1.00  0.00     0.012 A 
ATOM      4  C   UNL     1      -5.820 -20.429  48.345  1.00  0.00     0.047 A 
ATOM      5  C   UNL     1      -4.886 -21.446  46.356  1.00  0.00     0.047 A 
ATOM      6  C   UNL     1      -5.337 -20.310  47.035  1.00  0.00     0.115 A 
ENDROOT
BRANCH   1   7
ATOM      7  C   UNL     1      -5.432 -24.129  48.978  1.00  0.00     0.010 C 
ATOM      8  C   UNL     1      -4.404 -24.635  49.676  1.00  0.00     0.025 C 
BRANCH   8   9
ATOM      9  C   UNL     1      -3.039 -24.078  49.715  1.00  0.00     0.064 C 
ATOM     10  O   UNL     1      -2.228 -24.371  48.797  1.00  0.00    -0.545 OA
ATOM     11  O   UNL     1      -2.648 -23.182  50.702  1.00  0.00    -0.545 OA
ENDBRANCH   8   9
ENDBRANCH   1   7
BRANCH   6  12
ATOM     12  O   UNL     1      -5.297 -19.069  46.402  1.00  0.00    -0.508 OA
ATOM     13  H   UNL     1      -5.651 -18.943  45.461  1.00  0.00     0.293 HD
ENDBRANCH   6  12
TORSDOF 3
ENDMDL
MODEL 8
REMARK VINA RESULT:    -5.160     10.437     11.425
REMARK INTER + INTRA:          -6.200
REMARK INTER:                  -5.937
REMARK INTRA:                  -0.263
REMARK UNBOUND:                -0.286
REMARK SMILES O=C([O-])C=Cc1ccc(O)cc1
REMARK SMILES IDX 6 1 7 2 12 3 8 4 11 5 9 6 5 7 4 8 2 9 1 10 3 11 10 12
REMARK H PARENT 10 13
REMARK Flexibility Score: inf
ROOT
ATOM      1  C   UNL     1      -4.673 -22.414  49.431  1.00  0.00    -0.025 A 
ATOM      2  C   UNL     1      -5.018 -22.493  48.073  1.00  0.00     0.012 A 
ATOM      3  C   UNL     1      -5.013 -21.261  50.160  1.00  0.00     0.012 A 
ATOM      4  C   UNL     1      -5.644 -21.416  47.440  1.00  0.00     0.047 A 
ATOM      5  C   UNL     1      -5.640 -20.185  49.525  1.00  0.00     0.047 A 
ATOM      6  C   UNL     1      -5.954 -20.257  48.165  1.00  0.00     0.115 A 
ENDROOT
BRANCH   1   7
ATOM      7  C   UNL     1      -4.059 -23.584  50.092  1.00  0.00     0.010 C 
ATOM      8  C   UNL     1      -2.762 -23.704  50.411  1.00  0.00     0.025 C 
BRANCH   8   9
ATOM      9  C   UNL     1      -1.689 -22.781  49.994  1.00  0.00     0.064 C 
ATOM     10  O   UNL     1      -1.091 -22.098  50.866  1.00  0.00    -0.545 OA
ATOM     11  O   UNL     1      -1.274 -22.701  48.670  1.00  0.00    -0.545 OA
ENDBRANCH   8   9
ENDBRANCH   1   7
BRANCH   6  12
ATOM     12  O   UNL     1      -6.578 -19.176  47.545  1.00  0.00    -0.508 OA
ATOM     13  H   UNL     1      -6.406 -18.223  47.843  1.00  0.00     0.293 HD
ENDBRANCH   6  12
TORSDOF 3
ENDMDL
MODEL 9
REMARK VINA RESULT:    -5.038     11.339     12.843
REMARK INTER + INTRA:          -6.060
REMARK INTER:                  -5.767
REMARK INTRA:                  -0.293
REMARK UNBOUND:                -0.286
REMARK SMILES O=C([O-])C=Cc1ccc(O)cc1
REMARK SMILES IDX 6 1 7 2 12 3 8 4 11 5 9 6 5 7 4 8 2 9 1 10 3 11 10 12
REMARK H PARENT 10 13
REMARK Flexibility Score: inf
ROOT
ATOM      1  C   UNL     1      -4.830 -22.211  48.825  1.00  0.00    -0.025 A 
ATOM      2  C   UNL     1      -3.834 -21.550  49.560  1.00  0.00     0.012 A 
ATOM      3  C   UNL     1      -4.936 -23.610  48.915  1.00  0.00     0.012 A 
ATOM      4  C   UNL     1      -2.924 -22.280  50.330  1.00  0.00     0.047 A 
ATOM      5  C   UNL     1      -4.025 -24.337  49.686  1.00  0.00     0.047 A 
ATOM      6  C   UNL     1      -3.015 -23.677  50.392  1.00  0.00     0.115 A 
ENDROOT
BRANCH   1   7
ATOM      7  C   UNL     1      -5.814 -21.416  48.061  1.00  0.00     0.010 C 
ATOM      8  C   UNL     1      -5.752 -21.162  46.745  1.00  0.00     0.025 C 
BRANCH   8   9
ATOM      9  C   UNL     1      -4.606 -21.464  45.868  1.00  0.00     0.064 C 
ATOM     10  O   UNL     1      -3.758 -20.564  45.631  1.00  0.00    -0.545 OA
ATOM     11  O   UNL     1      -4.401 -22.739  45.353  1.00  0.00    -0.545 OA
ENDBRANCH   8   9
ENDBRANCH   1   7
BRANCH   6  12
ATOM     12  O   UNL     1      -2.113 -24.415  51.156  1.00  0.00    -0.508 OA
ATOM     13  H   UNL     1      -1.953 -25.400  50.980  1.00  0.00     0.293 HD
ENDBRANCH   6  12
TORSDOF 3
ENDMDL
