MODEL 1
REMARK VINA RESULT:    -5.310      0.000      0.000
REMARK INTER + INTRA:         -11.502
REMARK INTER:                  -9.656
REMARK INTRA:                  -1.846
REMARK UNBOUND:                -1.846
REMARK SMILES CCCCCCCCCCCCCCCC(=O)[O-]
REMARK SMILES IDX 9 1 10 2 11 3 12 4 13 5 14 6 15 7 16 8 17 9 18 10 8 11 7 12
REMARK SMILES IDX 6 13 5 14 4 15 3 16 2 17 1 18
REMARK H PARENT
REMARK Flexibility Score: inf
ROOT
ATOM      1  C   UNL     1      53.115  33.894  42.759  1.00  0.00     0.000 C 
ENDROOT
BRANCH   1   2
ATOM      2  C   UNL     1      51.984  34.693  43.426  1.00  0.00     0.000 C 
BRANCH   2   3
ATOM      3  C   UNL     1      52.249  34.966  44.915  1.00  0.00     0.000 C 
BRANCH   3   4
ATOM      4  C   UNL     1      52.317  36.476  45.191  1.00  0.00     0.000 C 
BRANCH   4   5
ATOM      5  C   UNL     1      53.716  36.936  45.634  1.00  0.00     0.000 C 
BRANCH   5   6
ATOM      6  C   UNL     1      54.417  37.802  44.574  1.00  0.00     0.006 C 
BRANCH   6   7
ATOM      7  C   UNL     1      55.387  36.985  43.708  1.00  0.00     0.053 C 
BRANCH   7   8
ATOM      8  C   UNL     1      54.967  36.965  42.271  1.00  0.00     0.041 C 
ATOM      9  O   UNL     1      53.825  37.381  41.937  1.00  0.00    -0.550 OA
ATOM     10  O   UNL     1      55.845  36.512  41.296  1.00  0.00    -0.550 OA
ENDBRANCH   7   8
ENDBRANCH   6   7
ENDBRANCH   5   6
ENDBRANCH   4   5
ENDBRANCH   3   4
ENDBRANCH   2   3
ENDBRANCH   1   2
BRANCH   1  11
ATOM     11  C   UNL     1      54.263  33.572  43.730  1.00  0.00     0.000 C 
BRANCH  11  12
ATOM     12  C   UNL     1      55.304  32.610  43.127  1.00  0.00    -0.000 C 
BRANCH  12  13
ATOM     13  C   UNL     1      55.319  31.192  43.733  1.00  0.00    -0.000 C 
BRANCH  13  14
ATOM     14  C   UNL     1      54.729  30.092  42.834  1.00  0.00    -0.000 C 
BRANCH  14  15
ATOM     15  C   UNL     1      53.316  29.663  43.265  1.00  0.00    -0.000 C 
BRANCH  15  16
ATOM     16  C   UNL     1      52.288  29.813  42.124  1.00  0.00    -0.000 C 
BRANCH  16  17
ATOM     17  C   UNL     1      50.866  30.130  42.614  1.00  0.00    -0.003 C 
ATOM     18  C   UNL     1      50.427  31.559  42.295  1.00  0.00     0.004 C 
ENDBRANCH  16  17
ENDBRANCH  15  16
ENDBRANCH  14  15
ENDBRANCH  13  14
ENDBRANCH  12  13
ENDBRANCH  11  12
ENDBRANCH   1  11
TORSDOF 14
ENDMDL
MODEL 2
REMARK VINA RESULT:    -5.052      6.852     10.330
REMARK INTER + INTRA:         -11.033
REMARK INTER:                  -9.231
REMARK INTRA:                  -1.802
REMARK UNBOUND:                -1.846
REMARK SMILES CCCCCCCCCCCCCCCC(=O)[O-]
REMARK SMILES IDX 9 1 10 2 11 3 12 4 13 5 14 6 15 7 16 8 17 9 18 10 8 11 7 12
REMARK SMILES IDX 6 13 5 14 4 15 3 16 2 17 1 18
REMARK H PARENT
REMARK Flexibility Score: inf
ROOT
ATOM      1  C   UNL     1      58.155  37.271  35.695  1.00  0.00     0.000 C 
ENDROOT
BRANCH   1   2
ATOM      2  C   UNL     1      58.603  37.366  37.162  1.00  0.00     0.000 C 
BRANCH   2   3
ATOM      3  C   UNL     1      58.197  38.692  37.822  1.00  0.00     0.000 C 
BRANCH   3   4
ATOM      4  C   UNL     1      57.572  38.447  39.205  1.00  0.00     0.000 C 
BRANCH   4   5
ATOM      5  C   UNL     1      56.258  37.652  39.129  1.00  0.00     0.000 C 
BRANCH   5   6
ATOM      6  C   UNL     1      55.424  37.764  40.418  1.00  0.00     0.006 C 
BRANCH   6   7
ATOM      7  C   UNL     1      55.888  36.774  41.495  1.00  0.00     0.053 C 
BRANCH   7   8
ATOM      8  C   UNL     1      55.003  36.813  42.703  1.00  0.00     0.041 C 
ATOM      9  O   UNL     1      55.475  37.141  43.825  1.00  0.00    -0.550 OA
ATOM     10  O   UNL     1      53.653  36.513  42.586  1.00  0.00    -0.550 OA
ENDBRANCH   7   8
ENDBRANCH   6   7
ENDBRANCH   5   6
ENDBRANCH   4   5
ENDBRANCH   3   4
ENDBRANCH   2   3
ENDBRANCH   1   2
BRANCH   1  11
ATOM     11  C   UNL     1      56.785  37.927  35.453  1.00  0.00     0.000 C 
BRANCH  11  12
ATOM     12  C   UNL     1      56.836  39.044  34.395  1.00  0.00    -0.000 C 
BRANCH  12  13
ATOM     13  C   UNL     1      58.250  39.545  34.033  1.00  0.00    -0.000 C 
BRANCH  13  14
ATOM     14  C   UNL     1      58.726  40.778  34.822  1.00  0.00    -0.000 C 
BRANCH  14  15
ATOM     15  C   UNL     1      60.207  40.689  35.229  1.00  0.00    -0.000 C 
BRANCH  15  16
ATOM     16  C   UNL     1      60.944  39.546  34.500  1.00  0.00    -0.000 C 
BRANCH  16  17
ATOM     17  C   UNL     1      61.671  38.578  35.447  1.00  0.00    -0.003 C 
ATOM     18  C   UNL     1      61.610  37.124  34.981  1.00  0.00     0.004 C 
ENDBRANCH  16  17
ENDBRANCH  15  16
ENDBRANCH  14  15
ENDBRANCH  13  14
ENDBRANCH  12  13
ENDBRANCH  11  12
ENDBRANCH   1  11
TORSDOF 14
ENDMDL
MODEL 3
REMARK VINA RESULT:    -5.028      2.191      3.129
REMARK INTER + INTRA:         -10.989
REMARK INTER:                  -9.515
REMARK INTRA:                  -1.474
REMARK UNBOUND:                -1.846
REMARK SMILES CCCCCCCCCCCCCCCC(=O)[O-]
REMARK SMILES IDX 9 1 10 2 11 3 12 4 13 5 14 6 15 7 16 8 17 9 18 10 8 11 7 12
REMARK SMILES IDX 6 13 5 14 4 15 3 16 2 17 1 18
REMARK H PARENT
REMARK Flexibility Score: inf
ROOT
ATOM      1  C   UNL     1      53.790  34.758  42.662  1.00  0.00     0.000 C 
ENDROOT
BRANCH   1   2
ATOM      2  C   UNL     1      55.210  35.335  42.543  1.00  0.00     0.000 C 
BRANCH   2   3
ATOM      3  C   UNL     1      55.490  36.440  43.572  1.00  0.00     0.000 C 
BRANCH   3   4
ATOM      4  C   UNL     1      54.180  37.077  44.061  1.00  0.00     0.000 C 
BRANCH   4   5
ATOM      5  C   UNL     1      53.896  36.787  45.544  1.00  0.00     0.000 C 
BRANCH   5   6
ATOM      6  C   UNL     1      52.414  36.977  45.911  1.00  0.00     0.006 C 
BRANCH   6   7
ATOM      7  C   UNL     1      51.475  36.405  44.840  1.00  0.00     0.053 C 
BRANCH   7   8
ATOM      8  C   UNL     1      50.713  35.218  45.345  1.00  0.00     0.041 C 
ATOM      9  O   UNL     1      50.360  34.306  44.552  1.00  0.00    -0.550 OA
ATOM     10  O   UNL     1      50.416  35.107  46.697  1.00  0.00    -0.550 OA
ENDBRANCH   7   8
ENDBRANCH   6   7
ENDBRANCH   5   6
ENDBRANCH   4   5
ENDBRANCH   3   4
ENDBRANCH   2   3
ENDBRANCH   1   2
BRANCH   1  11
ATOM     11  C   UNL     1      53.788  33.279  43.085  1.00  0.00     0.000 C 
BRANCH  11  12
ATOM     12  C   UNL     1      55.206  32.705  43.259  1.00  0.00    -0.000 C 
BRANCH  12  13
ATOM     13  C   UNL     1      55.270  31.247  43.757  1.00  0.00    -0.000 C 
BRANCH  13  14
ATOM     14  C   UNL     1      54.738  30.196  42.766  1.00  0.00    -0.000 C 
BRANCH  14  15
ATOM     15  C   UNL     1      53.375  29.619  43.185  1.00  0.00    -0.000 C 
BRANCH  15  16
ATOM     16  C   UNL     1      52.331  29.711  42.052  1.00  0.00    -0.000 C 
BRANCH  16  17
ATOM     17  C   UNL     1      50.938  30.153  42.531  1.00  0.00    -0.003 C 
ATOM     18  C   UNL     1      50.641  31.621  42.234  1.00  0.00     0.004 C 
ENDBRANCH  16  17
ENDBRANCH  15  16
ENDBRANCH  14  15
ENDBRANCH  13  14
ENDBRANCH  12  13
ENDBRANCH  11  12
ENDBRANCH   1  11
TORSDOF 14
ENDMDL
MODEL 4
REMARK VINA RESULT:    -4.998      2.726      6.530
REMARK INTER + INTRA:         -10.934
REMARK INTER:                  -9.006
REMARK INTRA:                  -1.928
REMARK UNBOUND:                -1.846
REMARK SMILES CCCCCCCCCCCCCCCC(=O)[O-]
REMARK SMILES IDX 9 1 10 2 11 3 12 4 13 5 14 6 15 7 16 8 17 9 18 10 8 11 7 12
REMARK SMILES IDX 6 13 5 14 4 15 3 16 2 17 1 18
REMARK H PARENT
REMARK Flexibility Score: inf
ROOT
ATOM      1  C   UNL     1      51.937  34.586  43.163  1.00  0.00     0.000 C 
ENDROOT
BRANCH   1   2
ATOM      2  C   UNL     1      52.877  33.400  42.890  1.00  0.00     0.000 C 
BRANCH   2   3
ATOM      3  C   UNL     1      54.111  33.399  43.805  1.00  0.00     0.000 C 
BRANCH   3   4
ATOM      4  C   UNL     1      55.253  32.582  43.182  1.00  0.00     0.000 C 
BRANCH   4   5
ATOM      5  C   UNL     1      55.322  31.146  43.726  1.00  0.00     0.000 C 
BRANCH   5   6
ATOM      6  C   UNL     1      54.647  30.127  42.790  1.00  0.00     0.006 C 
BRANCH   6   7
ATOM      7  C   UNL     1      53.307  29.628  43.348  1.00  0.00     0.053 C 
BRANCH   7   8
ATOM      8  C   UNL     1      52.219  29.691  42.320  1.00  0.00     0.041 C 
ATOM      9  O   UNL     1      51.151  30.313  42.564  1.00  0.00    -0.550 OA
ATOM     10  O   UNL     1      52.395  29.086  41.083  1.00  0.00    -0.550 OA
ENDBRANCH   7   8
ENDBRANCH   6   7
ENDBRANCH   5   6
ENDBRANCH   4   5
ENDBRANCH   3   4
ENDBRANCH   2   3
ENDBRANCH   1   2
BRANCH   1  11
ATOM     11  C   UNL     1      51.370  34.574  44.592  1.00  0.00     0.000 C 
BRANCH  11  12
ATOM     12  C   UNL     1      51.221  35.986  45.187  1.00  0.00    -0.000 C 
BRANCH  12  13
ATOM     13  C   UNL     1      52.213  36.333  46.316  1.00  0.00    -0.000 C 
BRANCH  13  14
ATOM     14  C   UNL     1      53.692  36.379  45.892  1.00  0.00    -0.000 C 
BRANCH  14  15
ATOM     15  C   UNL     1      54.054  37.667  45.133  1.00  0.00    -0.000 C 
BRANCH  15  16
ATOM     16  C   UNL     1      54.275  37.412  43.627  1.00  0.00    -0.000 C 
BRANCH  16  17
ATOM     17  C   UNL     1      55.622  36.743  43.306  1.00  0.00    -0.003 C 
ATOM     18  C   UNL     1      55.661  36.111  41.915  1.00  0.00     0.004 C 
ENDBRANCH  16  17
ENDBRANCH  15  16
ENDBRANCH  14  15
ENDBRANCH  13  14
ENDBRANCH  12  13
ENDBRANCH  11  12
ENDBRANCH   1  11
TORSDOF 14
ENDMDL
MODEL 5
REMARK VINA RESULT:    -4.991      6.548      9.867
REMARK INTER + INTRA:         -10.923
REMARK INTER:                  -9.152
REMARK INTRA:                  -1.771
REMARK UNBOUND:                -1.846
REMARK SMILES CCCCCCCCCCCCCCCC(=O)[O-]
REMARK SMILES IDX 9 1 10 2 11 3 12 4 13 5 14 6 15 7 16 8 17 9 18 10 8 11 7 12
REMARK SMILES IDX 6 13 5 14 4 15 3 16 2 17 1 18
REMARK H PARENT
REMARK Flexibility Score: inf
ROOT
ATOM      1  C   UNL     1      59.644  38.114  38.323  1.00  0.00     0.000 C 
ENDROOT
BRANCH   1   2
ATOM      2  C   UNL     1      58.189  38.606  38.363  1.00  0.00     0.000 C 
BRANCH   2   3
ATOM      3  C   UNL     1      57.207  37.612  37.724  1.00  0.00     0.000 C 
BRANCH   3   4
ATOM      4  C   UNL     1      55.997  37.371  38.640  1.00  0.00     0.000 C 
BRANCH   4   5
ATOM      5  C   UNL     1      56.238  37.852  40.080  1.00  0.00     0.000 C 
BRANCH   5   6
ATOM      6  C   UNL     1      55.580  36.937  41.128  1.00  0.00     0.006 C 
BRANCH   6   7
ATOM      7  C   UNL     1      54.673  37.718  42.089  1.00  0.00     0.053 C 
BRANCH   7   8
ATOM      8  C   UNL     1      53.686  38.571  41.354  1.00  0.00     0.041 C 
ATOM      9  O   UNL     1      53.752  39.827  41.429  1.00  0.00    -0.550 OA
ATOM     10  O   UNL     1      52.709  37.981  40.563  1.00  0.00    -0.550 OA
ENDBRANCH   7   8
ENDBRANCH   6   7
ENDBRANCH   5   6
ENDBRANCH   4   5
ENDBRANCH   3   4
ENDBRANCH   2   3
ENDBRANCH   1   2
BRANCH   1  11
ATOM     11  C   UNL     1      60.595  39.135  37.676  1.00  0.00     0.000 C 
BRANCH  11  12
ATOM     12  C   UNL     1      61.221  38.621  36.366  1.00  0.00    -0.000 C 
BRANCH  12  13
ATOM     13  C   UNL     1      61.198  39.619  35.190  1.00  0.00    -0.000 C 
BRANCH  13  14
ATOM     14  C   UNL     1      60.163  40.751  35.316  1.00  0.00    -0.000 C 
BRANCH  14  15
ATOM     15  C   UNL     1      59.028  40.638  34.284  1.00  0.00    -0.000 C 
BRANCH  15  16
ATOM     16  C   UNL     1      57.833  39.821  34.820  1.00  0.00    -0.000 C 
BRANCH  16  17
ATOM     17  C   UNL     1      57.479  38.604  33.951  1.00  0.00    -0.003 C 
ATOM     18  C   UNL     1      58.352  37.384  34.244  1.00  0.00     0.004 C 
ENDBRANCH  16  17
ENDBRANCH  15  16
ENDBRANCH  14  15
ENDBRANCH  13  14
ENDBRANCH  12  13
ENDBRANCH  11  12
ENDBRANCH   1  11
TORSDOF 14
ENDMDL
MODEL 6
REMARK VINA RESULT:    -4.942      2.590      4.791
REMARK INTER + INTRA:         -10.833
REMARK INTER:                  -8.607
REMARK INTRA:                  -2.226
REMARK UNBOUND:                -1.846
REMARK SMILES CCCCCCCCCCCCCCCC(=O)[O-]
REMARK SMILES IDX 9 1 10 2 11 3 12 4 13 5 14 6 15 7 16 8 17 9 18 10 8 11 7 12
REMARK SMILES IDX 6 13 5 14 4 15 3 16 2 17 1 18
REMARK H PARENT
REMARK Flexibility Score: inf
ROOT
ATOM      1  C   UNL     1      53.048  38.977  45.394  1.00  0.00     0.000 C 
ENDROOT
BRANCH   1   2
ATOM      2  C   UNL     1      52.187  39.134  44.130  1.00  0.00     0.000 C 
BRANCH   2   3
ATOM      3  C   UNL     1      52.604  40.339  43.274  1.00  0.00     0.000 C 
BRANCH   3   4
ATOM      4  C   UNL     1      53.318  39.880  41.993  1.00  0.00     0.000 C 
BRANCH   4   5
ATOM      5  C   UNL     1      52.923  38.455  41.572  1.00  0.00     0.000 C 
BRANCH   5   6
ATOM      6  C   UNL     1      53.952  37.811  40.627  1.00  0.00     0.006 C 
BRANCH   6   7
ATOM      7  C   UNL     1      55.357  38.402  40.813  1.00  0.00     0.053 C 
BRANCH   7   8
ATOM      8  C   UNL     1      56.299  37.944  39.742  1.00  0.00     0.041 C 
ATOM      9  O   UNL     1      57.484  38.372  39.713  1.00  0.00    -0.550 OA
ATOM     10  O   UNL     1      55.878  37.023  38.793  1.00  0.00    -0.550 OA
ENDBRANCH   7   8
ENDBRANCH   6   7
ENDBRANCH   5   6
ENDBRANCH   4   5
ENDBRANCH   3   4
ENDBRANCH   2   3
ENDBRANCH   1   2
BRANCH   1  11
ATOM     11  C   UNL     1      54.481  38.515  45.079  1.00  0.00     0.000 C 
BRANCH  11  12
ATOM     12  C   UNL     1      54.535  37.088  44.505  1.00  0.00    -0.000 C 
BRANCH  12  13
ATOM     13  C   UNL     1      53.712  36.036  45.276  1.00  0.00    -0.000 C 
BRANCH  13  14
ATOM     14  C   UNL     1      52.609  35.343  44.457  1.00  0.00    -0.000 C 
BRANCH  14  15
ATOM     15  C   UNL     1      53.106  34.845  43.089  1.00  0.00    -0.000 C 
BRANCH  15  16
ATOM     16  C   UNL     1      53.823  33.482  43.191  1.00  0.00    -0.000 C 
BRANCH  16  17
ATOM     17  C   UNL     1      55.314  33.540  42.818  1.00  0.00    -0.003 C 
ATOM     18  C   UNL     1      55.669  34.752  41.957  1.00  0.00     0.004 C 
ENDBRANCH  16  17
ENDBRANCH  15  16
ENDBRANCH  14  15
ENDBRANCH  13  14
ENDBRANCH  12  13
ENDBRANCH  11  12
ENDBRANCH   1  11
TORSDOF 14
ENDMDL
MODEL 7
REMARK VINA RESULT:    -4.941      2.198      3.641
REMARK INTER + INTRA:         -10.832
REMARK INTER:                  -9.567
REMARK INTRA:                  -1.264
REMARK UNBOUND:                -1.846
REMARK SMILES CCCCCCCCCCCCCCCC(=O)[O-]
REMARK SMILES IDX 9 1 10 2 11 3 12 4 13 5 14 6 15 7 16 8 17 9 18 10 8 11 7 12
REMARK SMILES IDX 6 13 5 14 4 15 3 16 2 17 1 18
REMARK H PARENT
REMARK Flexibility Score: inf
ROOT
ATOM      1  C   UNL     1      51.930  34.708  43.391  1.00  0.00     0.000 C 
ENDROOT
BRANCH   1   2
ATOM      2  C   UNL     1      53.073  35.681  43.059  1.00  0.00     0.000 C 
BRANCH   2   3
ATOM      3  C   UNL     1      52.566  37.039  42.550  1.00  0.00     0.000 C 
BRANCH   3   4
ATOM      4  C   UNL     1      53.315  38.194  43.232  1.00  0.00     0.000 C 
BRANCH   4   5
ATOM      5  C   UNL     1      52.581  38.725  44.474  1.00  0.00     0.000 C 
BRANCH   5   6
ATOM      6  C   UNL     1      53.520  38.920  45.678  1.00  0.00     0.006 C 
BRANCH   6   7
ATOM      7  C   UNL     1      53.017  38.187  46.929  1.00  0.00     0.053 C 
BRANCH   7   8
ATOM      8  C   UNL     1      52.800  36.728  46.670  1.00  0.00     0.041 C 
ATOM      9  O   UNL     1      51.632  36.264  46.593  1.00  0.00    -0.550 OA
ATOM     10  O   UNL     1      53.888  35.885  46.485  1.00  0.00    -0.550 OA
ENDBRANCH   7   8
ENDBRANCH   6   7
ENDBRANCH   5   6
ENDBRANCH   4   5
ENDBRANCH   3   4
ENDBRANCH   2   3
ENDBRANCH   1   2
BRANCH   1  11
ATOM     11  C   UNL     1      51.989  33.421  42.551  1.00  0.00     0.000 C 
BRANCH  11  12
ATOM     12  C   UNL     1      50.764  32.513  42.762  1.00  0.00    -0.000 C 
BRANCH  12  13
ATOM     13  C   UNL     1      50.839  31.135  42.073  1.00  0.00    -0.000 C 
BRANCH  13  14
ATOM     14  C   UNL     1      50.825  29.927  43.027  1.00  0.00    -0.000 C 
BRANCH  14  15
ATOM     15  C   UNL     1      52.148  29.142  43.013  1.00  0.00    -0.000 C 
BRANCH  15  16
ATOM     16  C   UNL     1      53.325  29.992  42.489  1.00  0.00    -0.000 C 
BRANCH  16  17
ATOM     17  C   UNL     1      54.517  30.057  43.457  1.00  0.00    -0.003 C 
ATOM     18  C   UNL     1      55.177  31.434  43.504  1.00  0.00     0.004 C 
ENDBRANCH  16  17
ENDBRANCH  15  16
ENDBRANCH  14  15
ENDBRANCH  13  14
ENDBRANCH  12  13
ENDBRANCH  11  12
ENDBRANCH   1  11
TORSDOF 14
ENDMDL
MODEL 8
REMARK VINA RESULT:    -4.936      3.100      6.847
REMARK INTER + INTRA:         -10.821
REMARK INTER:                  -8.657
REMARK INTRA:                  -2.164
REMARK UNBOUND:                -1.846
REMARK SMILES CCCCCCCCCCCCCCCC(=O)[O-]
REMARK SMILES IDX 9 1 10 2 11 3 12 4 13 5 14 6 15 7 16 8 17 9 18 10 8 11 7 12
REMARK SMILES IDX 6 13 5 14 4 15 3 16 2 17 1 18
REMARK H PARENT
REMARK Flexibility Score: inf
ROOT
ATOM      1  C   UNL     1      55.252  36.891  43.091  1.00  0.00     0.000 C 
ENDROOT
BRANCH   1   2
ATOM      2  C   UNL     1      56.027  35.566  42.998  1.00  0.00     0.000 C 
BRANCH   2   3
ATOM      3  C   UNL     1      55.210  34.446  42.336  1.00  0.00     0.000 C 
BRANCH   3   4
ATOM      4  C   UNL     1      54.251  33.798  43.346  1.00  0.00     0.000 C 
BRANCH   4   5
ATOM      5  C   UNL     1      52.788  33.824  42.876  1.00  0.00     0.000 C 
BRANCH   5   6
ATOM      6  C   UNL     1      51.972  34.944  43.546  1.00  0.00     0.006 C 
BRANCH   6   7
ATOM      7  C   UNL     1      52.008  34.849  45.077  1.00  0.00     0.053 C 
BRANCH   7   8
ATOM      8  C   UNL     1      50.815  35.504  45.704  1.00  0.00     0.041 C 
ATOM      9  O   UNL     1      50.669  35.493  46.955  1.00  0.00    -0.550 OA
ATOM     10  O   UNL     1      49.878  36.149  44.908  1.00  0.00    -0.550 OA
ENDBRANCH   7   8
ENDBRANCH   6   7
ENDBRANCH   5   6
ENDBRANCH   4   5
ENDBRANCH   3   4
ENDBRANCH   2   3
ENDBRANCH   1   2
BRANCH   1  11
ATOM     11  C   UNL     1      54.642  37.313  41.744  1.00  0.00     0.000 C 
BRANCH  11  12
ATOM     12  C   UNL     1      53.232  37.916  41.890  1.00  0.00    -0.000 C 
BRANCH  12  13
ATOM     13  C   UNL     1      53.188  39.444  42.098  1.00  0.00    -0.000 C 
BRANCH  13  14
ATOM     14  C   UNL     1      52.900  39.897  43.540  1.00  0.00    -0.000 C 
BRANCH  14  15
ATOM     15  C   UNL     1      52.155  38.832  44.363  1.00  0.00    -0.000 C 
BRANCH  15  16
ATOM     16  C   UNL     1      52.965  38.376  45.595  1.00  0.00    -0.000 C 
BRANCH  16  17
ATOM     17  C   UNL     1      54.225  39.220  45.851  1.00  0.00    -0.003 C 
ATOM     18  C   UNL     1      54.184  39.969  47.182  1.00  0.00     0.004 C 
ENDBRANCH  16  17
ENDBRANCH  15  16
ENDBRANCH  14  15
ENDBRANCH  13  14
ENDBRANCH  12  13
ENDBRANCH  11  12
ENDBRANCH   1  11
TORSDOF 14
ENDMDL
MODEL 9
REMARK VINA RESULT:    -4.879      2.533      3.726
REMARK INTER + INTRA:         -10.718
REMARK INTER:                  -8.765
REMARK INTRA:                  -1.953
REMARK UNBOUND:                -1.846
REMARK SMILES CCCCCCCCCCCCCCCC(=O)[O-]
REMARK SMILES IDX 9 1 10 2 11 3 12 4 13 5 14 6 15 7 16 8 17 9 18 10 8 11 7 12
REMARK SMILES IDX 6 13 5 14 4 15 3 16 2 17 1 18
REMARK H PARENT
REMARK Flexibility Score: inf
ROOT
ATOM      1  C   UNL     1      55.345  36.282  41.605  1.00  0.00     0.000 C 
ENDROOT
BRANCH   1   2
ATOM      2  C   UNL     1      54.767  37.662  41.959  1.00  0.00     0.000 C 
BRANCH   2   3
ATOM      3  C   UNL     1      53.241  37.727  41.794  1.00  0.00     0.000 C 
BRANCH   3   4
ATOM      4  C   UNL     1      52.542  37.714  43.162  1.00  0.00     0.000 C 
BRANCH   4   5
ATOM      5  C   UNL     1      52.732  39.028  43.938  1.00  0.00     0.000 C 
BRANCH   5   6
ATOM      6  C   UNL     1      53.427  38.818  45.294  1.00  0.00     0.006 C 
BRANCH   6   7
ATOM      7  C   UNL     1      53.739  37.339  45.562  1.00  0.00     0.053 C 
BRANCH   7   8
ATOM      8  C   UNL     1      53.012  36.825  46.766  1.00  0.00     0.041 C 
ATOM      9  O   UNL     1      53.543  36.896  47.906  1.00  0.00    -0.550 OA
ATOM     10  O   UNL     1      51.737  36.293  46.634  1.00  0.00    -0.550 OA
ENDBRANCH   7   8
ENDBRANCH   6   7
ENDBRANCH   5   6
ENDBRANCH   4   5
ENDBRANCH   3   4
ENDBRANCH   2   3
ENDBRANCH   1   2
BRANCH   1  11
ATOM     11  C   UNL     1      55.669  35.441  42.850  1.00  0.00     0.000 C 
BRANCH  11  12
ATOM     12  C   UNL     1      55.562  33.926  42.592  1.00  0.00    -0.000 C 
BRANCH  12  13
ATOM     13  C   UNL     1      54.374  33.223  43.280  1.00  0.00    -0.000 C 
BRANCH  13  14
ATOM     14  C   UNL     1      53.476  34.141  44.128  1.00  0.00    -0.000 C 
BRANCH  14  15
ATOM     15  C   UNL     1      52.038  34.232  43.588  1.00  0.00    -0.000 C 
BRANCH  15  16
ATOM     16  C   UNL     1      51.765  33.192  42.481  1.00  0.00    -0.000 C 
BRANCH  16  17
ATOM     17  C   UNL     1      50.671  32.176  42.847  1.00  0.00    -0.003 C 
ATOM     18  C   UNL     1      50.905  30.796  42.233  1.00  0.00     0.004 C 
ENDBRANCH  16  17
ENDBRANCH  15  16
ENDBRANCH  14  15
ENDBRANCH  13  14
ENDBRANCH  12  13
ENDBRANCH  11  12
ENDBRANCH   1  11
TORSDOF 14
ENDMDL
