MODEL 1
REMARK VINA RESULT:    -5.704      0.000      0.000
REMARK INTER + INTRA:         -16.303
REMARK INTER:                 -12.372
REMARK INTRA:                  -3.931
REMARK UNBOUND:                -3.931
REMARK SMILES CCCCCCCCCCCCCCCCCCCCCC(=O)[O-]
REMARK SMILES IDX 12 1 11 2 10 3 9 4 8 5 7 6 6 7 5 8 4 9 3 10 2 11 1 12 13 13
REMARK SMILES IDX 14 14 15 15 16 16 17 17 18 18 19 19 20 20 21 21 22 22 23 23
REMARK SMILES IDX 24 24
REMARK H PARENT
REMARK Flexibility Score: inf
ROOT
ATOM      1  C   UNL     1      -9.439  -0.973  13.616  1.00  0.00     0.000 C 
ENDROOT
BRANCH   1   2
ATOM      2  C   UNL     1      -8.055  -1.522  13.228  1.00  0.00     0.000 C 
BRANCH   2   3
ATOM      3  C   UNL     1      -7.970  -3.050  13.358  1.00  0.00     0.000 C 
BRANCH   3   4
ATOM      4  C   UNL     1      -7.249  -3.495  14.642  1.00  0.00    -0.000 C 
BRANCH   4   5
ATOM      5  C   UNL     1      -7.962  -4.658  15.355  1.00  0.00    -0.000 C 
BRANCH   5   6
ATOM      6  C   UNL     1      -9.330  -5.042  14.762  1.00  0.00    -0.000 C 
BRANCH   6   7
ATOM      7  C   UNL     1     -10.261  -5.710  15.785  1.00  0.00    -0.000 C 
BRANCH   7   8
ATOM      8  C   UNL     1     -11.618  -4.996  15.836  1.00  0.00    -0.000 C 
BRANCH   8   9
ATOM      9  C   UNL     1     -11.489  -3.468  15.976  1.00  0.00    -0.000 C 
BRANCH   9  10
ATOM     10  C   UNL     1     -11.190  -2.970  17.402  1.00  0.00    -0.000 C 
BRANCH  10  11
ATOM     11  C   UNL     1      -9.833  -2.262  17.517  1.00  0.00    -0.003 C 
ATOM     12  C   UNL     1      -8.927  -2.966  18.522  1.00  0.00     0.004 C 
ENDBRANCH  10  11
ENDBRANCH   9  10
ENDBRANCH   8   9
ENDBRANCH   7   8
ENDBRANCH   6   7
ENDBRANCH   5   6
ENDBRANCH   4   5
ENDBRANCH   3   4
ENDBRANCH   2   3
ENDBRANCH   1   2
BRANCH   1  13
ATOM     13  C   UNL     1     -10.597  -1.774  12.994  1.00  0.00     0.000 C 
BRANCH  13  14
ATOM     14  C   UNL     1     -11.486  -0.972  12.025  1.00  0.00     0.000 C 
BRANCH  14  15
ATOM     15  C   UNL     1     -12.939  -1.475  11.993  1.00  0.00     0.000 C 
BRANCH  15  16
ATOM     16  C   UNL     1     -13.533  -1.648  13.399  1.00  0.00     0.000 C 
BRANCH  16  17
ATOM     17  C   UNL     1     -14.045  -3.076  13.653  1.00  0.00     0.000 C 
BRANCH  17  18
ATOM     18  C   UNL     1     -13.832  -3.996  12.433  1.00  0.00     0.000 C 
BRANCH  18  19
ATOM     19  C   UNL     1     -13.387  -5.421  12.807  1.00  0.00     0.000 C 
BRANCH  19  20
ATOM     20  C   UNL     1     -12.318  -5.980  11.854  1.00  0.00     0.006 C 
BRANCH  20  21
ATOM     21  C   UNL     1     -11.144  -5.009  11.663  1.00  0.00     0.053 C 
BRANCH  21  22
ATOM     22  C   UNL     1     -10.086  -5.583  10.771  1.00  0.00     0.041 C 
ATOM     23  O   UNL     1     -10.280  -5.671   9.530  1.00  0.00    -0.550 OA
ATOM     24  O   UNL     1      -8.895  -6.047  11.315  1.00  0.00    -0.550 OA
ENDBRANCH  21  22
ENDBRANCH  20  21
ENDBRANCH  19  20
ENDBRANCH  18  19
ENDBRANCH  17  18
ENDBRANCH  16  17
ENDBRANCH  15  16
ENDBRANCH  14  15
ENDBRANCH  13  14
ENDBRANCH   1  13
TORSDOF 20
ENDMDL
MODEL 2
REMARK VINA RESULT:    -5.676      1.894      4.195
REMARK INTER + INTRA:         -16.244
REMARK INTER:                 -12.407
REMARK INTRA:                  -3.837
REMARK UNBOUND:                -3.931
REMARK SMILES CCCCCCCCCCCCCCCCCCCCCC(=O)[O-]
REMARK SMILES IDX 12 1 11 2 10 3 9 4 8 5 7 6 6 7 5 8 4 9 3 10 2 11 1 12 13 13
REMARK SMILES IDX 14 14 15 15 16 16 17 17 18 18 19 19 20 20 21 21 22 22 23 23
REMARK SMILES IDX 24 24
REMARK H PARENT
REMARK Flexibility Score: inf
ROOT
ATOM      1  C   UNL     1     -13.039  -3.595  16.247  1.00  0.00     0.000 C 
ENDROOT
BRANCH   1   2
ATOM      2  C   UNL     1     -11.696  -3.301  16.936  1.00  0.00     0.000 C 
BRANCH   2   3
ATOM      3  C   UNL     1     -10.517  -3.292  15.951  1.00  0.00     0.000 C 
BRANCH   3   4
ATOM      4  C   UNL     1      -9.313  -4.099  16.464  1.00  0.00    -0.000 C 
BRANCH   4   5
ATOM      5  C   UNL     1      -8.094  -3.216  16.786  1.00  0.00    -0.000 C 
BRANCH   5   6
ATOM      6  C   UNL     1      -7.143  -2.968  15.601  1.00  0.00    -0.000 C 
BRANCH   6   7
ATOM      7  C   UNL     1      -7.499  -3.801  14.361  1.00  0.00    -0.000 C 
BRANCH   7   8
ATOM      8  C   UNL     1      -7.720  -2.897  13.140  1.00  0.00    -0.000 C 
BRANCH   8   9
ATOM      9  C   UNL     1      -7.746  -1.400  13.498  1.00  0.00    -0.000 C 
BRANCH   9  10
ATOM     10  C   UNL     1      -9.081  -0.688  13.213  1.00  0.00    -0.000 C 
BRANCH  10  11
ATOM     11  C   UNL     1     -10.188  -1.650  12.758  1.00  0.00    -0.003 C 
ATOM     12  C   UNL     1     -11.353  -0.893  12.130  1.00  0.00     0.004 C 
ENDBRANCH  10  11
ENDBRANCH   9  10
ENDBRANCH   8   9
ENDBRANCH   7   8
ENDBRANCH   6   7
ENDBRANCH   5   6
ENDBRANCH   4   5
ENDBRANCH   3   4
ENDBRANCH   2   3
ENDBRANCH   1   2
BRANCH   1  13
ATOM     13  C   UNL     1     -13.086  -3.099  14.791  1.00  0.00     0.000 C 
BRANCH  13  14
ATOM     14  C   UNL     1     -14.487  -3.114  14.151  1.00  0.00     0.000 C 
BRANCH  14  15
ATOM     15  C   UNL     1     -14.562  -4.004  12.899  1.00  0.00     0.000 C 
BRANCH  15  16
ATOM     16  C   UNL     1     -13.762  -3.431  11.720  1.00  0.00     0.000 C 
BRANCH  16  17
ATOM     17  C   UNL     1     -13.395  -4.503  10.678  1.00  0.00     0.000 C 
BRANCH  17  18
ATOM     18  C   UNL     1     -12.479  -5.596  11.267  1.00  0.00     0.000 C 
BRANCH  18  19
ATOM     19  C   UNL     1     -11.074  -5.087  11.636  1.00  0.00     0.000 C 
BRANCH  19  20
ATOM     20  C   UNL     1     -10.605  -5.582  13.014  1.00  0.00     0.006 C 
BRANCH  20  21
ATOM     21  C   UNL     1     -11.759  -6.147  13.853  1.00  0.00     0.053 C 
BRANCH  21  22
ATOM     22  C   UNL     1     -11.277  -7.140  14.865  1.00  0.00     0.041 C 
ATOM     23  O   UNL     1     -11.509  -6.962  16.090  1.00  0.00    -0.550 OA
ATOM     24  O   UNL     1     -10.547  -8.250  14.458  1.00  0.00    -0.550 OA
ENDBRANCH  21  22
ENDBRANCH  20  21
ENDBRANCH  19  20
ENDBRANCH  18  19
ENDBRANCH  17  18
ENDBRANCH  16  17
ENDBRANCH  15  16
ENDBRANCH  14  15
ENDBRANCH  13  14
ENDBRANCH   1  13
TORSDOF 20
ENDMDL
MODEL 3
REMARK VINA RESULT:    -5.639      1.716      5.060
REMARK INTER + INTRA:         -16.163
REMARK INTER:                 -12.224
REMARK INTRA:                  -3.939
REMARK UNBOUND:                -3.931
REMARK SMILES CCCCCCCCCCCCCCCCCCCCCC(=O)[O-]
REMARK SMILES IDX 12 1 11 2 10 3 9 4 8 5 7 6 6 7 5 8 4 9 3 10 2 11 1 12 13 13
REMARK SMILES IDX 14 14 15 15 16 16 17 17 18 18 19 19 20 20 21 21 22 22 23 23
REMARK SMILES IDX 24 24
REMARK H PARENT
REMARK Flexibility Score: inf
ROOT
ATOM      1  C   UNL     1      -8.495  -4.300  13.043  1.00  0.00     0.000 C 
ENDROOT
BRANCH   1   2
ATOM      2  C   UNL     1      -8.104  -5.540  12.220  1.00  0.00     0.000 C 
BRANCH   2   3
ATOM      3  C   UNL     1      -9.243  -6.027  11.312  1.00  0.00     0.000 C 
BRANCH   3   4
ATOM      4  C   UNL     1     -10.589  -5.360  11.644  1.00  0.00    -0.000 C 
BRANCH   4   5
ATOM      5  C   UNL     1     -11.538  -5.295  10.434  1.00  0.00    -0.000 C 
BRANCH   5   6
ATOM      6  C   UNL     1     -12.913  -4.665  10.722  1.00  0.00    -0.000 C 
BRANCH   6   7
ATOM      7  C   UNL     1     -13.407  -4.931  12.153  1.00  0.00    -0.000 C 
BRANCH   7   8
ATOM      8  C   UNL     1     -13.942  -3.643  12.795  1.00  0.00    -0.000 C 
BRANCH   8   9
ATOM      9  C   UNL     1     -13.588  -2.378  11.991  1.00  0.00    -0.000 C 
BRANCH   9  10
ATOM     10  C   UNL     1     -12.599  -1.425  12.687  1.00  0.00    -0.000 C 
BRANCH  10  11
ATOM     11  C   UNL     1     -11.175  -1.994  12.769  1.00  0.00    -0.003 C 
ATOM     12  C   UNL     1     -10.137  -0.878  12.815  1.00  0.00     0.004 C 
ENDBRANCH  10  11
ENDBRANCH   9  10
ENDBRANCH   8   9
ENDBRANCH   7   8
ENDBRANCH   6   7
ENDBRANCH   5   6
ENDBRANCH   4   5
ENDBRANCH   3   4
ENDBRANCH   2   3
ENDBRANCH   1   2
BRANCH   1  13
ATOM     13  C   UNL     1      -7.494  -3.990  14.170  1.00  0.00     0.000 C 
BRANCH  13  14
ATOM     14  C   UNL     1      -7.944  -2.885  15.143  1.00  0.00     0.000 C 
BRANCH  14  15
ATOM     15  C   UNL     1      -7.562  -3.183  16.603  1.00  0.00     0.000 C 
BRANCH  15  16
ATOM     16  C   UNL     1      -8.739  -2.990  17.571  1.00  0.00     0.000 C 
BRANCH  16  17
ATOM     17  C   UNL     1      -9.971  -2.370  16.887  1.00  0.00     0.000 C 
BRANCH  17  18
ATOM     18  C   UNL     1     -11.293  -2.955  17.429  1.00  0.00     0.000 C 
BRANCH  18  19
ATOM     19  C   UNL     1     -12.233  -3.474  16.328  1.00  0.00     0.000 C 
BRANCH  19  20
ATOM     20  C   UNL     1     -11.513  -4.363  15.300  1.00  0.00     0.006 C 
BRANCH  20  21
ATOM     21  C   UNL     1     -11.615  -5.854  15.650  1.00  0.00     0.053 C 
BRANCH  21  22
ATOM     22  C   UNL     1     -10.306  -6.560  15.465  1.00  0.00     0.041 C 
ATOM     23  O   UNL     1      -9.299  -6.219  16.140  1.00  0.00    -0.550 OA
ATOM     24  O   UNL     1     -10.191  -7.576  14.525  1.00  0.00    -0.550 OA
ENDBRANCH  21  22
ENDBRANCH  20  21
ENDBRANCH  19  20
ENDBRANCH  18  19
ENDBRANCH  17  18
ENDBRANCH  16  17
ENDBRANCH  15  16
ENDBRANCH  14  15
ENDBRANCH  13  14
ENDBRANCH   1  13
TORSDOF 20
ENDMDL
MODEL 4
REMARK VINA RESULT:    -5.618      1.435      4.007
REMARK INTER + INTRA:         -16.118
REMARK INTER:                 -12.701
REMARK INTRA:                  -3.417
REMARK UNBOUND:                -3.931
REMARK SMILES CCCCCCCCCCCCCCCCCCCCCC(=O)[O-]
REMARK SMILES IDX 12 1 11 2 10 3 9 4 8 5 7 6 6 7 5 8 4 9 3 10 2 11 1 12 13 13
REMARK SMILES IDX 14 14 15 15 16 16 17 17 18 18 19 19 20 20 21 21 22 22 23 23
REMARK SMILES IDX 24 24
REMARK H PARENT
REMARK Flexibility Score: inf
ROOT
ATOM      1  C   UNL     1     -10.034  -1.461  13.416  1.00  0.00     0.000 C 
ENDROOT
BRANCH   1   2
ATOM      2  C   UNL     1     -10.734  -1.099  12.095  1.00  0.00     0.000 C 
BRANCH   2   3
ATOM      3  C   UNL     1     -12.260  -1.009  12.241  1.00  0.00     0.000 C 
BRANCH   3   4
ATOM      4  C   UNL     1     -12.896  -2.355  12.628  1.00  0.00    -0.000 C 
BRANCH   4   5
ATOM      5  C   UNL     1     -13.822  -2.249  13.854  1.00  0.00    -0.000 C 
BRANCH   5   6
ATOM      6  C   UNL     1     -13.416  -3.129  15.050  1.00  0.00    -0.000 C 
BRANCH   6   7
ATOM      7  C   UNL     1     -12.253  -4.079  14.729  1.00  0.00    -0.000 C 
BRANCH   7   8
ATOM      8  C   UNL     1     -11.318  -4.227  15.937  1.00  0.00    -0.000 C 
BRANCH   8   9
ATOM      9  C   UNL     1     -11.529  -3.132  16.998  1.00  0.00    -0.000 C 
BRANCH   9  10
ATOM     10  C   UNL     1     -10.235  -2.524  17.571  1.00  0.00    -0.000 C 
BRANCH  10  11
ATOM     11  C   UNL     1      -9.105  -3.553  17.719  1.00  0.00    -0.003 C 
ATOM     12  C   UNL     1      -7.950  -2.990  18.539  1.00  0.00     0.004 C 
ENDBRANCH  10  11
ENDBRANCH   9  10
ENDBRANCH   8   9
ENDBRANCH   7   8
ENDBRANCH   6   7
ENDBRANCH   5   6
ENDBRANCH   4   5
ENDBRANCH   3   4
ENDBRANCH   2   3
ENDBRANCH   1   2
BRANCH   1  13
ATOM     13  C   UNL     1      -8.585  -0.950  13.486  1.00  0.00     0.000 C 
BRANCH  13  14
ATOM     14  C   UNL     1      -7.509  -2.047  13.372  1.00  0.00     0.000 C 
BRANCH  14  15
ATOM     15  C   UNL     1      -7.557  -3.053  14.535  1.00  0.00     0.000 C 
BRANCH  15  16
ATOM     16  C   UNL     1      -7.466  -4.510  14.058  1.00  0.00     0.000 C 
BRANCH  16  17
ATOM     17  C   UNL     1      -8.715  -4.955  13.277  1.00  0.00     0.000 C 
BRANCH  17  18
ATOM     18  C   UNL     1      -8.352  -5.683  11.965  1.00  0.00     0.000 C 
BRANCH  18  19
ATOM     19  C   UNL     1      -9.552  -5.888  11.024  1.00  0.00     0.000 C 
BRANCH  19  20
ATOM     20  C   UNL     1     -10.739  -4.971  11.363  1.00  0.00     0.006 C 
BRANCH  20  21
ATOM     21  C   UNL     1     -12.081  -5.713  11.307  1.00  0.00     0.053 C 
BRANCH  21  22
ATOM     22  C   UNL     1     -12.848  -5.382  10.064  1.00  0.00     0.041 C 
ATOM     23  O   UNL     1     -12.502  -5.868   8.955  1.00  0.00    -0.550 OA
ATOM     24  O   UNL     1     -13.930  -4.513  10.125  1.00  0.00    -0.550 OA
ENDBRANCH  21  22
ENDBRANCH  20  21
ENDBRANCH  19  20
ENDBRANCH  18  19
ENDBRANCH  17  18
ENDBRANCH  16  17
ENDBRANCH  15  16
ENDBRANCH  14  15
ENDBRANCH  13  14
ENDBRANCH   1  13
TORSDOF 20
ENDMDL
MODEL 5
REMARK VINA RESULT:    -5.609      2.079      5.839
REMARK INTER + INTRA:         -16.098
REMARK INTER:                 -12.787
REMARK INTRA:                  -3.311
REMARK UNBOUND:                -3.931
REMARK SMILES CCCCCCCCCCCCCCCCCCCCCC(=O)[O-]
REMARK SMILES IDX 12 1 11 2 10 3 9 4 8 5 7 6 6 7 5 8 4 9 3 10 2 11 1 12 13 13
REMARK SMILES IDX 14 14 15 15 16 16 17 17 18 18 19 19 20 20 21 21 22 22 23 23
REMARK SMILES IDX 24 24
REMARK H PARENT
REMARK Flexibility Score: inf
ROOT
ATOM      1  C   UNL     1     -11.385  -3.824  15.660  1.00  0.00     0.000 C 
ENDROOT
BRANCH   1   2
ATOM      2  C   UNL     1     -11.779  -5.310  15.719  1.00  0.00     0.000 C 
BRANCH   2   3
ATOM      3  C   UNL     1     -10.561  -6.245  15.681  1.00  0.00     0.000 C 
BRANCH   3   4
ATOM      4  C   UNL     1     -10.810  -7.504  14.833  1.00  0.00    -0.000 C 
BRANCH   4   5
ATOM      5  C   UNL     1     -10.853  -7.209  13.323  1.00  0.00    -0.000 C 
BRANCH   5   6
ATOM      6  C   UNL     1      -9.588  -6.540  12.756  1.00  0.00    -0.000 C 
BRANCH   6   7
ATOM      7  C   UNL     1      -9.899  -5.341  11.848  1.00  0.00    -0.000 C 
BRANCH   7   8
ATOM      8  C   UNL     1      -9.911  -5.762  10.372  1.00  0.00    -0.000 C 
BRANCH   8   9
ATOM      9  C   UNL     1     -11.175  -5.299   9.625  1.00  0.00    -0.000 C 
BRANCH   9  10
ATOM     10  C   UNL     1     -12.505  -5.686  10.299  1.00  0.00    -0.000 C 
BRANCH  10  11
ATOM     11  C   UNL     1     -13.216  -4.490  10.949  1.00  0.00    -0.003 C 
ATOM     12  C   UNL     1     -13.490  -4.748  12.426  1.00  0.00     0.004 C 
ENDBRANCH  10  11
ENDBRANCH   9  10
ENDBRANCH   8   9
ENDBRANCH   7   8
ENDBRANCH   6   7
ENDBRANCH   5   6
ENDBRANCH   4   5
ENDBRANCH   3   4
ENDBRANCH   2   3
ENDBRANCH   1   2
BRANCH   1  13
ATOM     13  C   UNL     1     -11.385  -3.149  17.042  1.00  0.00     0.000 C 
BRANCH  13  14
ATOM     14  C   UNL     1     -10.056  -2.474  17.428  1.00  0.00     0.000 C 
BRANCH  14  15
ATOM     15  C   UNL     1      -8.868  -3.451  17.432  1.00  0.00     0.000 C 
BRANCH  15  16
ATOM     16  C   UNL     1      -7.811  -3.097  16.375  1.00  0.00     0.000 C 
BRANCH  16  17
ATOM     17  C   UNL     1      -7.797  -4.089  15.198  1.00  0.00     0.000 C 
BRANCH  17  18
ATOM     18  C   UNL     1      -7.280  -3.439  13.897  1.00  0.00     0.000 C 
BRANCH  18  19
ATOM     19  C   UNL     1      -7.901  -2.061  13.609  1.00  0.00     0.000 C 
BRANCH  19  20
ATOM     20  C   UNL     1      -9.380  -2.150  13.196  1.00  0.00     0.006 C 
BRANCH  20  21
ATOM     21  C   UNL     1      -9.983  -0.770  12.899  1.00  0.00     0.053 C 
BRANCH  21  22
ATOM     22  C   UNL     1     -11.401  -0.874  12.425  1.00  0.00     0.041 C 
ATOM     23  O   UNL     1     -11.790  -0.203  11.433  1.00  0.00    -0.550 OA
ATOM     24  O   UNL     1     -12.301  -1.692  13.097  1.00  0.00    -0.550 OA
ENDBRANCH  21  22
ENDBRANCH  20  21
ENDBRANCH  19  20
ENDBRANCH  18  19
ENDBRANCH  17  18
ENDBRANCH  16  17
ENDBRANCH  15  16
ENDBRANCH  14  15
ENDBRANCH  13  14
ENDBRANCH   1  13
TORSDOF 20
ENDMDL
MODEL 6
REMARK VINA RESULT:    -5.568      1.395      3.902
REMARK INTER + INTRA:         -16.010
REMARK INTER:                 -12.617
REMARK INTRA:                  -3.393
REMARK UNBOUND:                -3.931
REMARK SMILES CCCCCCCCCCCCCCCCCCCCCC(=O)[O-]
REMARK SMILES IDX 12 1 11 2 10 3 9 4 8 5 7 6 6 7 5 8 4 9 3 10 2 11 1 12 13 13
REMARK SMILES IDX 14 14 15 15 16 16 17 17 18 18 19 19 20 20 21 21 22 22 23 23
REMARK SMILES IDX 24 24
REMARK H PARENT
REMARK Flexibility Score: inf
ROOT
ATOM      1  C   UNL     1      -7.494  -3.361  15.433  1.00  0.00     0.000 C 
ENDROOT
BRANCH   1   2
ATOM      2  C   UNL     1      -7.592  -2.978  16.919  1.00  0.00     0.000 C 
BRANCH   2   3
ATOM      3  C   UNL     1      -8.977  -3.272  17.513  1.00  0.00     0.000 C 
BRANCH   3   4
ATOM      4  C   UNL     1     -10.123  -2.800  16.602  1.00  0.00    -0.000 C 
BRANCH   4   5
ATOM      5  C   UNL     1     -11.510  -2.980  17.243  1.00  0.00    -0.000 C 
BRANCH   5   6
ATOM      6  C   UNL     1     -12.577  -3.595  16.318  1.00  0.00    -0.000 C 
BRANCH   6   7
ATOM      7  C   UNL     1     -11.978  -4.505  15.235  1.00  0.00    -0.000 C 
BRANCH   7   8
ATOM      8  C   UNL     1     -11.394  -5.782  15.856  1.00  0.00    -0.000 C 
BRANCH   8   9
ATOM      9  C   UNL     1     -10.173  -6.320  15.087  1.00  0.00    -0.000 C 
BRANCH   9  10
ATOM     10  C   UNL     1      -9.814  -5.537  13.811  1.00  0.00    -0.000 C 
BRANCH  10  11
ATOM     11  C   UNL     1      -9.635  -6.442  12.584  1.00  0.00    -0.003 C 
ATOM     12  C   UNL     1      -8.408  -6.037  11.774  1.00  0.00     0.004 C 
ENDBRANCH  10  11
ENDBRANCH   9  10
ENDBRANCH   8   9
ENDBRANCH   7   8
ENDBRANCH   6   7
ENDBRANCH   5   6
ENDBRANCH   4   5
ENDBRANCH   3   4
ENDBRANCH   2   3
ENDBRANCH   1   2
BRANCH   1  13
ATOM     13  C   UNL     1      -6.889  -2.244  14.564  1.00  0.00     0.000 C 
BRANCH  13  14
ATOM     14  C   UNL     1      -7.589  -2.033  13.208  1.00  0.00     0.000 C 
BRANCH  14  15
ATOM     15  C   UNL     1      -9.118  -2.166  13.299  1.00  0.00     0.000 C 
BRANCH  15  16
ATOM     16  C   UNL     1      -9.842  -0.840  13.021  1.00  0.00     0.000 C 
BRANCH  16  17
ATOM     17  C   UNL     1     -11.046  -1.009  12.078  1.00  0.00     0.000 C 
BRANCH  17  18
ATOM     18  C   UNL     1     -12.290  -1.550  12.813  1.00  0.00     0.000 C 
BRANCH  18  19
ATOM     19  C   UNL     1     -13.004  -2.686  12.061  1.00  0.00     0.000 C 
BRANCH  19  20
ATOM     20  C   UNL     1     -12.040  -3.790  11.594  1.00  0.00     0.006 C 
BRANCH  20  21
ATOM     21  C   UNL     1     -12.783  -5.026  11.071  1.00  0.00     0.053 C 
BRANCH  21  22
ATOM     22  C   UNL     1     -12.305  -5.426   9.708  1.00  0.00     0.041 C 
ATOM     23  O   UNL     1     -11.140  -5.134   9.332  1.00  0.00    -0.550 OA
ATOM     24  O   UNL     1     -13.159  -6.098   8.841  1.00  0.00    -0.550 OA
ENDBRANCH  21  22
ENDBRANCH  20  21
ENDBRANCH  19  20
ENDBRANCH  18  19
ENDBRANCH  17  18
ENDBRANCH  16  17
ENDBRANCH  15  16
ENDBRANCH  14  15
ENDBRANCH  13  14
ENDBRANCH   1  13
TORSDOF 20
ENDMDL
MODEL 7
REMARK VINA RESULT:    -5.560      1.849      5.467
REMARK INTER + INTRA:         -15.992
REMARK INTER:                 -12.485
REMARK INTRA:                  -3.507
REMARK UNBOUND:                -3.931
REMARK SMILES CCCCCCCCCCCCCCCCCCCCCC(=O)[O-]
REMARK SMILES IDX 12 1 11 2 10 3 9 4 8 5 7 6 6 7 5 8 4 9 3 10 2 11 1 12 13 13
REMARK SMILES IDX 14 14 15 15 16 16 17 17 18 18 19 19 20 20 21 21 22 22 23 23
REMARK SMILES IDX 24 24
REMARK H PARENT
REMARK Flexibility Score: inf
ROOT
ATOM      1  C   UNL     1     -11.144  -6.975  13.374  1.00  0.00     0.000 C 
ENDROOT
BRANCH   1   2
ATOM      2  C   UNL     1      -9.821  -6.624  12.672  1.00  0.00     0.000 C 
BRANCH   2   3
ATOM      3  C   UNL     1      -9.935  -5.370  11.792  1.00  0.00     0.000 C 
BRANCH   3   4
ATOM      4  C   UNL     1      -9.908  -5.699  10.290  1.00  0.00    -0.000 C 
BRANCH   4   5
ATOM      5  C   UNL     1     -11.192  -5.265   9.560  1.00  0.00    -0.000 C 
BRANCH   5   6
ATOM      6  C   UNL     1     -12.503  -5.674  10.256  1.00  0.00    -0.000 C 
BRANCH   6   7
ATOM      7  C   UNL     1     -13.362  -4.469  10.670  1.00  0.00    -0.000 C 
BRANCH   7   8
ATOM      8  C   UNL     1     -13.236  -4.199  12.176  1.00  0.00    -0.000 C 
BRANCH   8   9
ATOM      9  C   UNL     1     -13.976  -2.925  12.622  1.00  0.00    -0.000 C 
BRANCH   9  10
ATOM     10  C   UNL     1     -13.062  -1.756  13.035  1.00  0.00    -0.000 C 
BRANCH  10  11
ATOM     11  C   UNL     1     -11.575  -2.136  13.054  1.00  0.00    -0.003 C 
ATOM     12  C   UNL     1     -10.765  -1.243  12.121  1.00  0.00     0.004 C 
ENDBRANCH  10  11
ENDBRANCH   9  10
ENDBRANCH   8   9
ENDBRANCH   7   8
ENDBRANCH   6   7
ENDBRANCH   5   6
ENDBRANCH   4   5
ENDBRANCH   3   4
ENDBRANCH   2   3
ENDBRANCH   1   2
BRANCH   1  13
ATOM     13  C   UNL     1     -10.944  -7.466  14.819  1.00  0.00     0.000 C 
BRANCH  13  14
ATOM     14  C   UNL     1     -11.200  -6.401  15.901  1.00  0.00     0.000 C 
BRANCH  14  15
ATOM     15  C   UNL     1     -11.566  -5.028  15.313  1.00  0.00     0.000 C 
BRANCH  15  16
ATOM     16  C   UNL     1     -12.389  -4.171  16.287  1.00  0.00     0.000 C 
BRANCH  16  17
ATOM     17  C   UNL     1     -11.526  -3.145  17.044  1.00  0.00     0.000 C 
BRANCH  17  18
ATOM     18  C   UNL     1     -10.221  -2.813  16.291  1.00  0.00     0.000 C 
BRANCH  18  19
ATOM     19  C   UNL     1      -8.949  -3.111  17.104  1.00  0.00     0.000 C 
BRANCH  19  20
ATOM     20  C   UNL     1      -7.732  -3.413  16.215  1.00  0.00     0.006 C 
BRANCH  20  21
ATOM     21  C   UNL     1      -8.127  -3.662  14.753  1.00  0.00     0.053 C 
BRANCH  21  22
ATOM     22  C   UNL     1      -7.297  -2.849  13.806  1.00  0.00     0.041 C 
ATOM     23  O   UNL     1      -6.893  -1.704  14.138  1.00  0.00    -0.550 OA
ATOM     24  O   UNL     1      -6.994  -3.346  12.545  1.00  0.00    -0.550 OA
ENDBRANCH  21  22
ENDBRANCH  20  21
ENDBRANCH  19  20
ENDBRANCH  18  19
ENDBRANCH  17  18
ENDBRANCH  16  17
ENDBRANCH  15  16
ENDBRANCH  14  15
ENDBRANCH  13  14
ENDBRANCH   1  13
TORSDOF 20
ENDMDL
MODEL 8
REMARK VINA RESULT:    -5.543      2.377      4.889
REMARK INTER + INTRA:         -15.956
REMARK INTER:                 -12.469
REMARK INTRA:                  -3.487
REMARK UNBOUND:                -3.931
REMARK SMILES CCCCCCCCCCCCCCCCCCCCCC(=O)[O-]
REMARK SMILES IDX 12 1 11 2 10 3 9 4 8 5 7 6 6 7 5 8 4 9 3 10 2 11 1 12 13 13
REMARK SMILES IDX 14 14 15 15 16 16 17 17 18 18 19 19 20 20 21 21 22 22 23 23
REMARK SMILES IDX 24 24
REMARK H PARENT
REMARK Flexibility Score: inf
ROOT
ATOM      1  C   UNL     1      -9.535  -0.928  12.884  1.00  0.00     0.000 C 
ENDROOT
BRANCH   1   2
ATOM      2  C   UNL     1      -8.297  -1.725  13.330  1.00  0.00     0.000 C 
BRANCH   2   3
ATOM      3  C   UNL     1      -8.637  -3.168  13.730  1.00  0.00     0.000 C 
BRANCH   3   4
ATOM      4  C   UNL     1      -8.000  -4.206  12.791  1.00  0.00    -0.000 C 
BRANCH   4   5
ATOM      5  C   UNL     1      -8.835  -5.494  12.669  1.00  0.00    -0.000 C 
BRANCH   5   6
ATOM      6  C   UNL     1     -10.122  -5.515  13.515  1.00  0.00    -0.000 C 
BRANCH   6   7
ATOM      7  C   UNL     1     -11.007  -6.737  13.229  1.00  0.00    -0.000 C 
BRANCH   7   8
ATOM      8  C   UNL     1     -12.356  -6.307  12.635  1.00  0.00    -0.000 C 
BRANCH   8   9
ATOM      9  C   UNL     1     -12.244  -5.078  11.714  1.00  0.00    -0.000 C 
BRANCH   9  10
ATOM     10  C   UNL     1     -13.007  -5.194  10.382  1.00  0.00    -0.000 C 
BRANCH  10  11
ATOM     11  C   UNL     1     -12.148  -5.772   9.248  1.00  0.00    -0.003 C 
ATOM     12  C   UNL     1     -10.666  -5.515   9.494  1.00  0.00     0.004 C 
ENDBRANCH  10  11
ENDBRANCH   9  10
ENDBRANCH   8   9
ENDBRANCH   7   8
ENDBRANCH   6   7
ENDBRANCH   5   6
ENDBRANCH   4   5
ENDBRANCH   3   4
ENDBRANCH   2   3
ENDBRANCH   1   2
BRANCH   1  13
ATOM     13  C   UNL     1     -10.821  -1.774  12.877  1.00  0.00     0.000 C 
BRANCH  13  14
ATOM     14  C   UNL     1     -12.004  -1.140  12.121  1.00  0.00     0.000 C 
BRANCH  14  15
ATOM     15  C   UNL     1     -13.352  -1.792  12.469  1.00  0.00     0.000 C 
BRANCH  15  16
ATOM     16  C   UNL     1     -13.593  -1.876  13.983  1.00  0.00     0.000 C 
BRANCH  16  17
ATOM     17  C   UNL     1     -14.135  -3.248  14.421  1.00  0.00     0.000 C 
BRANCH  17  18
ATOM     18  C   UNL     1     -13.461  -3.755  15.713  1.00  0.00     0.000 C 
BRANCH  18  19
ATOM     19  C   UNL     1     -11.946  -3.490  15.761  1.00  0.00     0.000 C 
BRANCH  19  20
ATOM     20  C   UNL     1     -11.473  -2.985  17.134  1.00  0.00     0.006 C 
BRANCH  20  21
ATOM     21  C   UNL     1     -10.090  -2.324  17.065  1.00  0.00     0.053 C 
BRANCH  21  22
ATOM     22  C   UNL     1      -9.013  -3.232  17.575  1.00  0.00     0.041 C 
ATOM     23  O   UNL     1      -8.684  -4.257  16.922  1.00  0.00    -0.550 OA
ATOM     24  O   UNL     1      -8.391  -2.961  18.788  1.00  0.00    -0.550 OA
ENDBRANCH  21  22
ENDBRANCH  20  21
ENDBRANCH  19  20
ENDBRANCH  18  19
ENDBRANCH  17  18
ENDBRANCH  16  17
ENDBRANCH  15  16
ENDBRANCH  14  15
ENDBRANCH  13  14
ENDBRANCH   1  13
TORSDOF 20
ENDMDL
MODEL 9
REMARK VINA RESULT:    -5.481      1.626      3.721
REMARK INTER + INTRA:         -15.820
REMARK INTER:                 -12.495
REMARK INTRA:                  -3.325
REMARK UNBOUND:                -3.931
REMARK SMILES CCCCCCCCCCCCCCCCCCCCCC(=O)[O-]
REMARK SMILES IDX 12 1 11 2 10 3 9 4 8 5 7 6 6 7 5 8 4 9 3 10 2 11 1 12 13 13
REMARK SMILES IDX 14 14 15 15 16 16 17 17 18 18 19 19 20 20 21 21 22 22 23 23
REMARK SMILES IDX 24 24
REMARK H PARENT
REMARK Flexibility Score: inf
ROOT
ATOM      1  C   UNL     1     -11.238  -5.614   9.654  1.00  0.00     0.000 C 
ENDROOT
BRANCH   1   2
ATOM      2  C   UNL     1     -10.313  -4.962  10.697  1.00  0.00     0.000 C 
BRANCH   2   3
ATOM      3  C   UNL     1      -9.372  -5.976  11.364  1.00  0.00     0.000 C 
BRANCH   3   4
ATOM      4  C   UNL     1      -9.514  -5.993  12.896  1.00  0.00    -0.000 C 
BRANCH   4   5
ATOM      5  C   UNL     1     -10.588  -6.980  13.386  1.00  0.00    -0.000 C 
BRANCH   5   6
ATOM      6  C   UNL     1     -11.288  -6.578  14.697  1.00  0.00    -0.000 C 
BRANCH   6   7
ATOM      7  C   UNL     1     -11.030  -5.115  15.090  1.00  0.00    -0.000 C 
BRANCH   7   8
ATOM      8  C   UNL     1     -11.985  -4.673  16.208  1.00  0.00    -0.000 C 
BRANCH   8   9
ATOM      9  C   UNL     1     -11.912  -3.163  16.499  1.00  0.00    -0.000 C 
BRANCH   9  10
ATOM     10  C   UNL     1     -10.990  -2.771  17.669  1.00  0.00    -0.000 C 
BRANCH  10  11
ATOM     11  C   UNL     1      -9.512  -2.686  17.265  1.00  0.00    -0.003 C 
ATOM     12  C   UNL     1      -8.598  -2.994  18.446  1.00  0.00     0.004 C 
ENDBRANCH  10  11
ENDBRANCH   9  10
ENDBRANCH   8   9
ENDBRANCH   7   8
ENDBRANCH   6   7
ENDBRANCH   5   6
ENDBRANCH   4   5
ENDBRANCH   3   4
ENDBRANCH   2   3
ENDBRANCH   1   2
BRANCH   1  13
ATOM     13  C   UNL     1     -12.723  -5.561  10.054  1.00  0.00     0.000 C 
BRANCH  13  14
ATOM     14  C   UNL     1     -12.993  -4.966  11.449  1.00  0.00     0.000 C 
BRANCH  14  15
ATOM     15  C   UNL     1     -13.838  -3.682  11.396  1.00  0.00     0.000 C 
BRANCH  15  16
ATOM     16  C   UNL     1     -13.920  -2.974  12.756  1.00  0.00     0.000 C 
BRANCH  16  17
ATOM     17  C   UNL     1     -12.561  -2.417  13.216  1.00  0.00     0.000 C 
BRANCH  17  18
ATOM     18  C   UNL     1     -11.866  -1.595  12.110  1.00  0.00     0.000 C 
BRANCH  18  19
ATOM     19  C   UNL     1     -10.499  -1.028  12.533  1.00  0.00     0.000 C 
BRANCH  19  20
ATOM     20  C   UNL     1      -9.717  -1.982  13.450  1.00  0.00     0.006 C 
BRANCH  20  21
ATOM     21  C   UNL     1      -8.203  -1.740  13.384  1.00  0.00     0.053 C 
BRANCH  21  22
ATOM     22  C   UNL     1      -7.429  -3.018  13.508  1.00  0.00     0.041 C 
ATOM     23  O   UNL     1      -7.301  -3.577  14.629  1.00  0.00    -0.550 OA
ATOM     24  O   UNL     1      -6.827  -3.577  12.388  1.00  0.00    -0.550 OA
ENDBRANCH  21  22
ENDBRANCH  20  21
ENDBRANCH  19  20
ENDBRANCH  18  19
ENDBRANCH  17  18
ENDBRANCH  16  17
ENDBRANCH  15  16
ENDBRANCH  14  15
ENDBRANCH  13  14
ENDBRANCH   1  13
TORSDOF 20
ENDMDL
