MODEL 1
REMARK VINA RESULT:    -3.895      0.000      0.000
REMARK INTER + INTRA:          -7.860
REMARK INTER:                  -6.172
REMARK INTRA:                  -1.689
REMARK UNBOUND:                -1.689
REMARK SMILES CCCCCCCCCCCC(=O)[O-]
REMARK SMILES IDX 7 1 8 2 9 3 10 4 11 5 12 6 13 7 14 8 6 9 5 10 4 11 3 12 2 13
REMARK SMILES IDX 1 14
REMARK H PARENT
REMARK Flexibility Score: inf
ROOT
ATOM      1  C   UNL     1     206.636 204.470 159.636  1.00  0.00     0.000 C 
ENDROOT
BRANCH   1   2
ATOM      2  C   UNL     1     205.593 203.688 158.824  1.00  0.00     0.000 C 
BRANCH   2   3
ATOM      3  C   UNL     1     206.226 202.719 157.809  1.00  0.00     0.000 C 
BRANCH   3   4
ATOM      4  C   UNL     1     205.954 203.055 156.328  1.00  0.00     0.006 C 
BRANCH   4   5
ATOM      5  C   UNL     1     207.047 203.900 155.655  1.00  0.00     0.053 C 
BRANCH   5   6
ATOM      6  C   UNL     1     208.421 203.378 155.948  1.00  0.00     0.041 C 
ATOM      7  O   UNL     1     209.265 204.110 156.530  1.00  0.00    -0.550 OA
ATOM      8  O   UNL     1     208.780 202.098 155.549  1.00  0.00    -0.550 OA
ENDBRANCH   5   6
ENDBRANCH   4   5
ENDBRANCH   3   4
ENDBRANCH   2   3
ENDBRANCH   1   2
BRANCH   1   9
ATOM      9  C   UNL     1     206.477 205.981 159.424  1.00  0.00     0.000 C 
BRANCH   9  10
ATOM     10  C   UNL     1     207.319 206.462 158.235  1.00  0.00    -0.000 C 
BRANCH  10  11
ATOM     11  C   UNL     1     206.475 207.297 157.265  1.00  0.00    -0.000 C 
BRANCH  11  12
ATOM     12  C   UNL     1     204.979 207.166 157.586  1.00  0.00    -0.000 C 
BRANCH  12  13
ATOM     13  C   UNL     1     204.227 206.312 156.552  1.00  0.00    -0.003 C 
ATOM     14  C   UNL     1     203.051 205.548 157.159  1.00  0.00     0.004 C 
ENDBRANCH  12  13
ENDBRANCH  11  12
ENDBRANCH  10  11
ENDBRANCH   9  10
ENDBRANCH   1   9
TORSDOF 10
ENDMDL
MODEL 2
REMARK VINA RESULT:    -3.810      1.580      2.497
REMARK INTER + INTRA:          -7.726
REMARK INTER:                  -6.171
REMARK INTRA:                  -1.555
REMARK UNBOUND:                -1.689
REMARK SMILES CCCCCCCCCCCC(=O)[O-]
REMARK SMILES IDX 7 1 8 2 9 3 10 4 11 5 12 6 13 7 14 8 6 9 5 10 4 11 3 12 2 13
REMARK SMILES IDX 1 14
REMARK H PARENT
REMARK Flexibility Score: inf
ROOT
ATOM      1  C   UNL     1     208.408 207.492 157.236  1.00  0.00     0.000 C 
ENDROOT
BRANCH   1   2
ATOM      2  C   UNL     1     207.814 206.500 158.247  1.00  0.00     0.000 C 
BRANCH   2   3
ATOM      3  C   UNL     1     207.747 205.060 157.707  1.00  0.00     0.000 C 
BRANCH   3   4
ATOM      4  C   UNL     1     207.728 204.939 156.169  1.00  0.00     0.006 C 
BRANCH   4   5
ATOM      5  C   UNL     1     206.756 203.881 155.624  1.00  0.00     0.053 C 
BRANCH   5   6
ATOM      6  C   UNL     1     207.288 202.490 155.791  1.00  0.00     0.041 C 
ATOM      7  O   UNL     1     208.494 202.238 155.529  1.00  0.00    -0.550 OA
ATOM      8  O   UNL     1     206.445 201.466 156.203  1.00  0.00    -0.550 OA
ENDBRANCH   5   6
ENDBRANCH   4   5
ENDBRANCH   3   4
ENDBRANCH   2   3
ENDBRANCH   1   2
BRANCH   1   9
ATOM      9  C   UNL     1     207.511 208.726 157.084  1.00  0.00     0.000 C 
BRANCH   9  10
ATOM     10  C   UNL     1     206.038 208.369 157.320  1.00  0.00    -0.000 C 
BRANCH  10  11
ATOM     11  C   UNL     1     205.293 208.203 155.990  1.00  0.00    -0.000 C 
BRANCH  11  12
ATOM     12  C   UNL     1     204.539 206.865 155.947  1.00  0.00    -0.000 C 
BRANCH  12  13
ATOM     13  C   UNL     1     204.164 206.353 157.346  1.00  0.00    -0.003 C 
ATOM     14  C   UNL     1     203.361 205.054 157.305  1.00  0.00     0.004 C 
ENDBRANCH  12  13
ENDBRANCH  11  12
ENDBRANCH  10  11
ENDBRANCH   9  10
ENDBRANCH   1   9
TORSDOF 10
ENDMDL
MODEL 3
REMARK VINA RESULT:    -3.793      1.378      2.253
REMARK INTER + INTRA:          -7.699
REMARK INTER:                  -6.129
REMARK INTRA:                  -1.569
REMARK UNBOUND:                -1.689
REMARK SMILES CCCCCCCCCCCC(=O)[O-]
REMARK SMILES IDX 7 1 8 2 9 3 10 4 11 5 12 6 13 7 14 8 6 9 5 10 4 11 3 12 2 13
REMARK SMILES IDX 1 14
REMARK H PARENT
REMARK Flexibility Score: inf
ROOT
ATOM      1  C   UNL     1     208.297 205.608 159.196  1.00  0.00     0.000 C 
ENDROOT
BRANCH   1   2
ATOM      2  C   UNL     1     206.875 205.304 159.687  1.00  0.00     0.000 C 
BRANCH   2   3
ATOM      3  C   UNL     1     206.391 203.897 159.290  1.00  0.00     0.000 C 
BRANCH   3   4
ATOM      4  C   UNL     1     205.238 203.869 158.264  1.00  0.00     0.006 C 
BRANCH   4   5
ATOM      5  C   UNL     1     205.692 203.872 156.795  1.00  0.00     0.053 C 
BRANCH   5   6
ATOM      6  C   UNL     1     206.715 202.813 156.521  1.00  0.00     0.041 C 
ATOM      7  O   UNL     1     206.428 201.598 156.684  1.00  0.00    -0.550 OA
ATOM      8  O   UNL     1     207.996 203.169 156.120  1.00  0.00    -0.550 OA
ENDBRANCH   5   6
ENDBRANCH   4   5
ENDBRANCH   3   4
ENDBRANCH   2   3
ENDBRANCH   1   2
BRANCH   1   9
ATOM      9  C   UNL     1     208.272 206.239 157.798  1.00  0.00     0.000 C 
BRANCH   9  10
ATOM     10  C   UNL     1     208.508 207.753 157.873  1.00  0.00    -0.000 C 
BRANCH  10  11
ATOM     11  C   UNL     1     207.257 208.527 157.439  1.00  0.00    -0.000 C 
BRANCH  11  12
ATOM     12  C   UNL     1     206.255 207.601 156.734  1.00  0.00    -0.000 C 
BRANCH  12  13
ATOM     13  C   UNL     1     204.899 207.541 157.453  1.00  0.00    -0.003 C 
ATOM     14  C   UNL     1     204.917 208.246 158.808  1.00  0.00     0.004 C 
ENDBRANCH  12  13
ENDBRANCH  11  12
ENDBRANCH  10  11
ENDBRANCH   9  10
ENDBRANCH   1   9
TORSDOF 10
ENDMDL
MODEL 4
REMARK VINA RESULT:    -3.779      2.347      4.129
REMARK INTER + INTRA:          -7.676
REMARK INTER:                  -6.525
REMARK INTRA:                  -1.152
REMARK UNBOUND:                -1.689
REMARK SMILES CCCCCCCCCCCC(=O)[O-]
REMARK SMILES IDX 7 1 8 2 9 3 10 4 11 5 12 6 13 7 14 8 6 9 5 10 4 11 3 12 2 13
REMARK SMILES IDX 1 14
REMARK H PARENT
REMARK Flexibility Score: inf
ROOT
ATOM      1  C   UNL     1     205.423 208.200 156.123  1.00  0.00     0.000 C 
ENDROOT
BRANCH   1   2
ATOM      2  C   UNL     1     204.861 206.815 155.773  1.00  0.00     0.000 C 
BRANCH   2   3
ATOM      3  C   UNL     1     204.027 206.200 156.913  1.00  0.00     0.000 C 
BRANCH   3   4
ATOM      4  C   UNL     1     204.572 204.871 157.477  1.00  0.00     0.006 C 
BRANCH   4   5
ATOM      5  C   UNL     1     205.702 204.242 156.646  1.00  0.00     0.053 C 
BRANCH   5   6
ATOM      6  C   UNL     1     206.107 202.900 157.174  1.00  0.00     0.041 C 
ATOM      7  O   UNL     1     206.657 202.060 156.414  1.00  0.00    -0.550 OA
ATOM      8  O   UNL     1     205.845 202.563 158.495  1.00  0.00    -0.550 OA
ENDBRANCH   5   6
ENDBRANCH   4   5
ENDBRANCH   3   4
ENDBRANCH   2   3
ENDBRANCH   1   2
BRANCH   1   9
ATOM      9  C   UNL     1     206.103 208.186 157.497  1.00  0.00     0.000 C 
BRANCH   9  10
ATOM     10  C   UNL     1     207.623 208.347 157.361  1.00  0.00    -0.000 C 
BRANCH  10  11
ATOM     11  C   UNL     1     208.337 207.000 157.532  1.00  0.00    -0.000 C 
BRANCH  11  12
ATOM     12  C   UNL     1     208.648 206.367 156.168  1.00  0.00    -0.000 C 
BRANCH  12  13
ATOM     13  C   UNL     1     209.287 207.363 155.187  1.00  0.00    -0.003 C 
ATOM     14  C   UNL     1     210.808 207.242 155.129  1.00  0.00     0.004 C 
ENDBRANCH  12  13
ENDBRANCH  11  12
ENDBRANCH  10  11
ENDBRANCH   9  10
ENDBRANCH   1   9
TORSDOF 10
ENDMDL
MODEL 5
REMARK VINA RESULT:    -3.767      3.162      4.884
REMARK INTER + INTRA:          -7.658
REMARK INTER:                  -6.263
REMARK INTRA:                  -1.395
REMARK UNBOUND:                -1.689
REMARK SMILES CCCCCCCCCCCC(=O)[O-]
REMARK SMILES IDX 7 1 8 2 9 3 10 4 11 5 12 6 13 7 14 8 6 9 5 10 4 11 3 12 2 13
REMARK SMILES IDX 1 14
REMARK H PARENT
REMARK Flexibility Score: inf
ROOT
ATOM      1  C   UNL     1     208.253 205.448 159.289  1.00  0.00     0.000 C 
ENDROOT
BRANCH   1   2
ATOM      2  C   UNL     1     208.344 206.770 158.513  1.00  0.00     0.000 C 
BRANCH   2   3
ATOM      3  C   UNL     1     208.047 206.605 157.011  1.00  0.00     0.000 C 
BRANCH   3   4
ATOM      4  C   UNL     1     206.897 207.481 156.472  1.00  0.00     0.006 C 
BRANCH   4   5
ATOM      5  C   UNL     1     205.861 207.894 157.531  1.00  0.00     0.053 C 
BRANCH   5   6
ATOM      6  C   UNL     1     205.912 209.363 157.823  1.00  0.00     0.041 C 
ATOM      7  O   UNL     1     204.946 209.927 158.400  1.00  0.00    -0.550 OA
ATOM      8  O   UNL     1     207.011 210.114 157.428  1.00  0.00    -0.550 OA
ENDBRANCH   5   6
ENDBRANCH   4   5
ENDBRANCH   3   4
ENDBRANCH   2   3
ENDBRANCH   1   2
BRANCH   1   9
ATOM      9  C   UNL     1     206.823 205.197 159.782  1.00  0.00     0.000 C 
BRANCH   9  10
ATOM     10  C   UNL     1     206.310 203.830 159.312  1.00  0.00    -0.000 C 
BRANCH  10  11
ATOM     11  C   UNL     1     205.119 203.986 158.359  1.00  0.00    -0.000 C 
BRANCH  11  12
ATOM     12  C   UNL     1     205.579 203.958 156.894  1.00  0.00    -0.000 C 
BRANCH  12  13
ATOM     13  C   UNL     1     206.837 203.100 156.687  1.00  0.00    -0.003 C 
ATOM     14  C   UNL     1     206.513 201.673 156.249  1.00  0.00     0.004 C 
ENDBRANCH  12  13
ENDBRANCH  11  12
ENDBRANCH  10  11
ENDBRANCH   9  10
ENDBRANCH   1   9
TORSDOF 10
ENDMDL
MODEL 6
REMARK VINA RESULT:    -3.740      3.322      5.386
REMARK INTER + INTRA:          -7.615
REMARK INTER:                  -6.151
REMARK INTRA:                  -1.463
REMARK UNBOUND:                -1.689
REMARK SMILES CCCCCCCCCCCC(=O)[O-]
REMARK SMILES IDX 7 1 8 2 9 3 10 4 11 5 12 6 13 7 14 8 6 9 5 10 4 11 3 12 2 13
REMARK SMILES IDX 1 14
REMARK H PARENT
REMARK Flexibility Score: inf
ROOT
ATOM      1  C   UNL     1     208.399 205.873 156.316  1.00  0.00     0.000 C 
ENDROOT
BRANCH   1   2
ATOM      2  C   UNL     1     207.303 206.338 155.347  1.00  0.00     0.000 C 
BRANCH   2   3
ATOM      3  C   UNL     1     206.204 207.168 156.038  1.00  0.00     0.000 C 
BRANCH   3   4
ATOM      4  C   UNL     1     206.488 207.529 157.511  1.00  0.00     0.006 C 
BRANCH   4   5
ATOM      5  C   UNL     1     205.230 207.760 158.364  1.00  0.00     0.053 C 
BRANCH   5   6
ATOM      6  C   UNL     1     205.124 209.179 158.834  1.00  0.00     0.041 C 
ATOM      7  O   UNL     1     204.256 209.499 159.689  1.00  0.00    -0.550 OA
ATOM      8  O   UNL     1     205.959 210.153 158.304  1.00  0.00    -0.550 OA
ENDBRANCH   5   6
ENDBRANCH   4   5
ENDBRANCH   3   4
ENDBRANCH   2   3
ENDBRANCH   1   2
BRANCH   1   9
ATOM      9  C   UNL     1     208.432 204.343 156.413  1.00  0.00     0.000 C 
BRANCH   9  10
ATOM     10  C   UNL     1     207.185 203.723 155.772  1.00  0.00    -0.000 C 
BRANCH  10  11
ATOM     11  C   UNL     1     206.388 202.905 156.796  1.00  0.00    -0.000 C 
BRANCH  11  12
ATOM     12  C   UNL     1     205.616 203.827 157.754  1.00  0.00    -0.000 C 
BRANCH  12  13
ATOM     13  C   UNL     1     205.991 203.595 159.226  1.00  0.00    -0.003 C 
ATOM     14  C   UNL     1     206.904 204.686 159.783  1.00  0.00     0.004 C 
ENDBRANCH  12  13
ENDBRANCH  11  12
ENDBRANCH  10  11
ENDBRANCH   9  10
ENDBRANCH   1   9
TORSDOF 10
ENDMDL
MODEL 7
REMARK VINA RESULT:    -3.705      1.613      3.214
REMARK INTER + INTRA:          -7.560
REMARK INTER:                  -6.261
REMARK INTRA:                  -1.299
REMARK UNBOUND:                -1.689
REMARK SMILES CCCCCCCCCCCC(=O)[O-]
REMARK SMILES IDX 7 1 8 2 9 3 10 4 11 5 12 6 13 7 14 8 6 9 5 10 4 11 3 12 2 13
REMARK SMILES IDX 1 14
REMARK H PARENT
REMARK Flexibility Score: inf
ROOT
ATOM      1  C   UNL     1     204.129 206.371 157.293  1.00  0.00     0.000 C 
ENDROOT
BRANCH   1   2
ATOM      2  C   UNL     1     204.078 204.843 157.148  1.00  0.00     0.000 C 
BRANCH   2   3
ATOM      3  C   UNL     1     205.027 204.116 158.119  1.00  0.00     0.000 C 
BRANCH   3   4
ATOM      4  C   UNL     1     206.501 204.055 157.668  1.00  0.00     0.006 C 
BRANCH   4   5
ATOM      5  C   UNL     1     206.698 203.761 156.172  1.00  0.00     0.053 C 
BRANCH   5   6
ATOM      6  C   UNL     1     207.154 202.354 155.931  1.00  0.00     0.041 C 
ATOM      7  O   UNL     1     206.626 201.401 156.562  1.00  0.00    -0.550 OA
ATOM      8  O   UNL     1     208.185 202.100 155.037  1.00  0.00    -0.550 OA
ENDBRANCH   5   6
ENDBRANCH   4   5
ENDBRANCH   3   4
ENDBRANCH   2   3
ENDBRANCH   1   2
BRANCH   1   9
ATOM      9  C   UNL     1     204.819 207.014 156.084  1.00  0.00     0.000 C 
BRANCH   9  10
ATOM     10  C   UNL     1     205.675 208.213 156.511  1.00  0.00    -0.000 C 
BRANCH  10  11
ATOM     11  C   UNL     1     206.547 207.863 157.723  1.00  0.00    -0.000 C 
BRANCH  11  12
ATOM     12  C   UNL     1     208.029 208.147 157.433  1.00  0.00    -0.000 C 
BRANCH  12  13
ATOM     13  C   UNL     1     208.722 206.983 156.707  1.00  0.00    -0.003 C 
ATOM     14  C   UNL     1     209.071 207.316 155.257  1.00  0.00     0.004 C 
ENDBRANCH  12  13
ENDBRANCH  11  12
ENDBRANCH  10  11
ENDBRANCH   9  10
ENDBRANCH   1   9
TORSDOF 10
ENDMDL
MODEL 8
REMARK VINA RESULT:    -3.683      2.273      4.387
REMARK INTER + INTRA:          -7.525
REMARK INTER:                  -6.117
REMARK INTRA:                  -1.408
REMARK UNBOUND:                -1.689
REMARK SMILES CCCCCCCCCCCC(=O)[O-]
REMARK SMILES IDX 7 1 8 2 9 3 10 4 11 5 12 6 13 7 14 8 6 9 5 10 4 11 3 12 2 13
REMARK SMILES IDX 1 14
REMARK H PARENT
REMARK Flexibility Score: inf
ROOT
ATOM      1  C   UNL     1     205.438 208.418 156.210  1.00  0.00     0.000 C 
ENDROOT
BRANCH   1   2
ATOM      2  C   UNL     1     206.113 208.465 157.589  1.00  0.00     0.000 C 
BRANCH   2   3
ATOM      3  C   UNL     1     207.611 208.814 157.513  1.00  0.00     0.000 C 
BRANCH   3   4
ATOM      4  C   UNL     1     208.570 207.650 157.837  1.00  0.00     0.006 C 
BRANCH   4   5
ATOM      5  C   UNL     1     208.612 206.543 156.771  1.00  0.00     0.053 C 
BRANCH   5   6
ATOM      6  C   UNL     1     209.020 207.070 155.429  1.00  0.00     0.041 C 
ATOM      7  O   UNL     1     210.186 207.508 155.249  1.00  0.00    -0.550 OA
ATOM      8  O   UNL     1     208.102 207.110 154.388  1.00  0.00    -0.550 OA
ENDBRANCH   5   6
ENDBRANCH   4   5
ENDBRANCH   3   4
ENDBRANCH   2   3
ENDBRANCH   1   2
BRANCH   1   9
ATOM      9  C   UNL     1     204.703 207.088 156.003  1.00  0.00     0.000 C 
BRANCH   9  10
ATOM     10  C   UNL     1     204.475 206.371 157.339  1.00  0.00    -0.000 C 
BRANCH  10  11
ATOM     11  C   UNL     1     204.462 204.849 157.152  1.00  0.00    -0.000 C 
BRANCH  11  12
ATOM     12  C   UNL     1     205.818 204.237 157.535  1.00  0.00    -0.000 C 
BRANCH  12  13
ATOM     13  C   UNL     1     205.916 203.911 159.034  1.00  0.00    -0.003 C 
ATOM     14  C   UNL     1     206.830 204.874 159.789  1.00  0.00     0.004 C 
ENDBRANCH  12  13
ENDBRANCH  11  12
ENDBRANCH  10  11
ENDBRANCH   9  10
ENDBRANCH   1   9
TORSDOF 10
ENDMDL
MODEL 9
REMARK VINA RESULT:    -3.659      3.153      4.820
REMARK INTER + INTRA:          -7.486
REMARK INTER:                  -5.910
REMARK INTRA:                  -1.576
REMARK UNBOUND:                -1.689
REMARK SMILES CCCCCCCCCCCC(=O)[O-]
REMARK SMILES IDX 7 1 8 2 9 3 10 4 11 5 12 6 13 7 14 8 6 9 5 10 4 11 3 12 2 13
REMARK SMILES IDX 1 14
REMARK H PARENT
REMARK Flexibility Score: inf
ROOT
ATOM      1  C   UNL     1     208.566 206.163 156.600  1.00  0.00     0.000 C 
ENDROOT
BRANCH   1   2
ATOM      2  C   UNL     1     207.648 206.872 155.594  1.00  0.00     0.000 C 
BRANCH   2   3
ATOM      3  C   UNL     1     206.216 206.308 155.587  1.00  0.00     0.000 C 
BRANCH   3   4
ATOM      4  C   UNL     1     205.173 207.164 156.335  1.00  0.00     0.006 C 
BRANCH   4   5
ATOM      5  C   UNL     1     205.526 208.657 156.432  1.00  0.00     0.053 C 
BRANCH   5   6
ATOM      6  C   UNL     1     205.630 209.118 157.854  1.00  0.00     0.041 C 
ATOM      7  O   UNL     1     204.888 208.616 158.738  1.00  0.00    -0.550 OA
ATOM      8  O   UNL     1     206.522 210.127 158.195  1.00  0.00    -0.550 OA
ENDBRANCH   5   6
ENDBRANCH   4   5
ENDBRANCH   3   4
ENDBRANCH   2   3
ENDBRANCH   1   2
BRANCH   1   9
ATOM      9  C   UNL     1     208.496 206.836 157.976  1.00  0.00     0.000 C 
BRANCH   9  10
ATOM     10  C   UNL     1     208.253 205.803 159.084  1.00  0.00    -0.000 C 
BRANCH  10  11
ATOM     11  C   UNL     1     206.756 205.660 159.384  1.00  0.00    -0.000 C 
BRANCH  11  12
ATOM     12  C   UNL     1     206.351 204.180 159.462  1.00  0.00    -0.000 C 
BRANCH  12  13
ATOM     13  C   UNL     1     205.491 203.740 158.266  1.00  0.00    -0.003 C 
ATOM     14  C   UNL     1     206.301 203.029 157.185  1.00  0.00     0.004 C 
ENDBRANCH  12  13
ENDBRANCH  11  12
ENDBRANCH  10  11
ENDBRANCH   9  10
ENDBRANCH   1   9
TORSDOF 10
ENDMDL
