MODEL 1
REMARK VINA RESULT:    -3.911      0.000      0.000
REMARK INTER + INTRA:         -10.410
REMARK INTER:                  -7.341
REMARK INTRA:                  -3.069
REMARK UNBOUND:                -3.069
REMARK SMILES CCCCCCCCC=CCCCCCCCC(=O)[O-]
REMARK SMILES IDX 10 1 9 2 11 3 12 4 13 5 14 6 15 7 16 8 17 9 18 10 19 11
REMARK SMILES IDX 20 12 8 13 7 14 6 15 5 16 4 17 3 18 2 19 1 20
REMARK H PARENT
REMARK Flexibility Score: inf
ROOT
ATOM      1  C   UNL     1       8.811  -3.627  28.236  1.00  0.00    -0.031 C 
ATOM      2  C   UNL     1       9.821  -4.503  28.081  1.00  0.00    -0.031 C 
ENDROOT
BRANCH   1   3
ATOM      3  C   UNL     1       8.764  -2.550  29.292  1.00  0.00     0.027 C 
BRANCH   3   4
ATOM      4  C   UNL     1       8.620  -1.150  28.677  1.00  0.00     0.004 C 
BRANCH   4   5
ATOM      5  C   UNL     1       9.914  -0.688  27.985  1.00  0.00     0.000 C 
BRANCH   5   6
ATOM      6  C   UNL     1       9.827  -0.783  26.452  1.00  0.00     0.000 C 
BRANCH   6   7
ATOM      7  C   UNL     1      11.016  -1.543  25.840  1.00  0.00     0.000 C 
BRANCH   7   8
ATOM      8  C   UNL     1      10.694  -2.159  24.465  1.00  0.00     0.006 C 
BRANCH   8   9
ATOM      9  C   UNL     1       9.802  -3.410  24.537  1.00  0.00     0.053 C 
BRANCH   9  10
ATOM     10  C   UNL     1      10.554  -4.672  24.241  1.00  0.00     0.041 C 
ATOM     11  O   UNL     1      10.302  -5.725  24.884  1.00  0.00    -0.550 OA
ATOM     12  O   UNL     1      11.510  -4.695  23.233  1.00  0.00    -0.550 OA
ENDBRANCH   9  10
ENDBRANCH   8   9
ENDBRANCH   7   8
ENDBRANCH   6   7
ENDBRANCH   5   6
ENDBRANCH   4   5
ENDBRANCH   3   4
ENDBRANCH   1   3
BRANCH   2  13
ATOM     13  C   UNL     1      11.015  -4.605  28.997  1.00  0.00     0.027 C 
BRANCH  13  14
ATOM     14  C   UNL     1      12.121  -3.641  28.555  1.00  0.00     0.004 C 
BRANCH  14  15
ATOM     15  C   UNL     1      12.500  -2.681  29.688  1.00  0.00     0.000 C 
BRANCH  15  16
ATOM     16  C   UNL     1      12.111  -3.264  31.055  1.00  0.00     0.000 C 
BRANCH  16  17
ATOM     17  C   UNL     1      11.284  -2.285  31.903  1.00  0.00    -0.000 C 
BRANCH  17  18
ATOM     18  C   UNL     1      11.425  -0.830  31.434  1.00  0.00    -0.000 C 
BRANCH  18  19
ATOM     19  C   UNL     1      10.241   0.018  31.915  1.00  0.00    -0.003 C 
ATOM     20  C   UNL     1       9.190  -0.845  32.607  1.00  0.00     0.004 C 
ENDBRANCH  18  19
ENDBRANCH  17  18
ENDBRANCH  16  17
ENDBRANCH  15  16
ENDBRANCH  14  15
ENDBRANCH  13  14
ENDBRANCH   2  13
TORSDOF 15
ENDMDL
MODEL 2
REMARK VINA RESULT:    -3.883      4.275      6.394
REMARK INTER + INTRA:         -10.356
REMARK INTER:                  -7.080
REMARK INTRA:                  -3.276
REMARK UNBOUND:                -3.069
REMARK SMILES CCCCCCCCC=CCCCCCCCC(=O)[O-]
REMARK SMILES IDX 10 1 9 2 11 3 12 4 13 5 14 6 15 7 16 8 17 9 18 10 19 11
REMARK SMILES IDX 20 12 8 13 7 14 6 15 5 16 4 17 3 18 2 19 1 20
REMARK H PARENT
REMARK Flexibility Score: inf
ROOT
ATOM      1  C   UNL     1       9.297   0.032  27.169  1.00  0.00    -0.031 C 
ATOM      2  C   UNL     1       8.297   0.017  28.070  1.00  0.00    -0.031 C 
ENDROOT
BRANCH   1   3
ATOM      3  C   UNL     1      10.323  -1.064  27.007  1.00  0.00     0.027 C 
BRANCH   3   4
ATOM      4  C   UNL     1      11.754  -0.508  26.971  1.00  0.00     0.004 C 
BRANCH   4   5
ATOM      5  C   UNL     1      12.510  -0.772  28.284  1.00  0.00     0.000 C 
BRANCH   5   6
ATOM      6  C   UNL     1      12.198   0.276  29.364  1.00  0.00     0.000 C 
BRANCH   6   7
ATOM      7  C   UNL     1      12.271   1.716  28.828  1.00  0.00     0.000 C 
BRANCH   7   8
ATOM      8  C   UNL     1      10.995   2.531  29.113  1.00  0.00     0.006 C 
BRANCH   8   9
ATOM      9  C   UNL     1      10.657   2.654  30.609  1.00  0.00     0.053 C 
BRANCH   9  10
ATOM     10  C   UNL     1      11.663   3.470  31.362  1.00  0.00     0.041 C 
ATOM     11  O   UNL     1      11.832   4.685  31.078  1.00  0.00    -0.550 OA
ATOM     12  O   UNL     1      12.390   2.899  32.399  1.00  0.00    -0.550 OA
ENDBRANCH   9  10
ENDBRANCH   8   9
ENDBRANCH   7   8
ENDBRANCH   6   7
ENDBRANCH   5   6
ENDBRANCH   4   5
ENDBRANCH   3   4
ENDBRANCH   1   3
BRANCH   2  13
ATOM     13  C   UNL     1       8.105  -1.049  29.119  1.00  0.00     0.027 C 
BRANCH  13  14
ATOM     14  C   UNL     1       8.824  -0.668  30.418  1.00  0.00     0.004 C 
BRANCH  14  15
ATOM     15  C   UNL     1       9.737  -1.803  30.895  1.00  0.00     0.000 C 
BRANCH  15  16
ATOM     16  C   UNL     1       9.510  -3.076  30.065  1.00  0.00     0.000 C 
BRANCH  16  17
ATOM     17  C   UNL     1      10.825  -3.759  29.657  1.00  0.00    -0.000 C 
BRANCH  17  18
ATOM     18  C   UNL     1      10.725  -4.477  28.304  1.00  0.00    -0.000 C 
BRANCH  18  19
ATOM     19  C   UNL     1       9.321  -4.324  27.705  1.00  0.00    -0.003 C 
ATOM     20  C   UNL     1       9.297  -4.747  26.239  1.00  0.00     0.004 C 
ENDBRANCH  18  19
ENDBRANCH  17  18
ENDBRANCH  16  17
ENDBRANCH  15  16
ENDBRANCH  14  15
ENDBRANCH  13  14
ENDBRANCH   2  13
TORSDOF 15
ENDMDL
MODEL 3
REMARK VINA RESULT:    -3.880      3.966      5.968
REMARK INTER + INTRA:         -10.352
REMARK INTER:                  -7.524
REMARK INTRA:                  -2.827
REMARK UNBOUND:                -3.069
REMARK SMILES CCCCCCCCC=CCCCCCCCC(=O)[O-]
REMARK SMILES IDX 10 1 9 2 11 3 12 4 13 5 14 6 15 7 16 8 17 9 18 10 19 11
REMARK SMILES IDX 20 12 8 13 7 14 6 15 5 16 4 17 3 18 2 19 1 20
REMARK H PARENT
REMARK Flexibility Score: inf
ROOT
ATOM      1  C   UNL     1       9.996  -4.688  28.205  1.00  0.00    -0.031 C 
ATOM      2  C   UNL     1      11.340  -4.613  28.166  1.00  0.00    -0.031 C 
ENDROOT
BRANCH   1   3
ATOM      3  C   UNL     1       9.062  -3.608  27.717  1.00  0.00     0.027 C 
BRANCH   3   4
ATOM      4  C   UNL     1       8.650  -2.653  28.847  1.00  0.00     0.004 C 
BRANCH   4   5
ATOM      5  C   UNL     1       8.809  -1.178  28.443  1.00  0.00     0.000 C 
BRANCH   5   6
ATOM      6  C   UNL     1       9.447  -0.329  29.555  1.00  0.00     0.000 C 
BRANCH   6   7
ATOM      7  C   UNL     1       8.673  -0.416  30.882  1.00  0.00     0.000 C 
BRANCH   7   8
ATOM      8  C   UNL     1       9.501   0.048  32.095  1.00  0.00     0.006 C 
BRANCH   8   9
ATOM      9  C   UNL     1       9.010  -0.521  33.437  1.00  0.00     0.053 C 
BRANCH   9  10
ATOM     10  C   UNL     1      10.058  -0.459  34.507  1.00  0.00     0.041 C 
ATOM     11  O   UNL     1      11.093  -1.170  34.422  1.00  0.00    -0.550 OA
ATOM     12  O   UNL     1       9.908   0.408  35.582  1.00  0.00    -0.550 OA
ENDBRANCH   9  10
ENDBRANCH   8   9
ENDBRANCH   7   8
ENDBRANCH   6   7
ENDBRANCH   5   6
ENDBRANCH   4   5
ENDBRANCH   3   4
ENDBRANCH   1   3
BRANCH   2  13
ATOM     13  C   UNL     1      12.117  -3.401  27.719  1.00  0.00     0.027 C 
BRANCH  13  14
ATOM     14  C   UNL     1      12.432  -2.489  28.910  1.00  0.00     0.004 C 
BRANCH  14  15
ATOM     15  C   UNL     1      12.605  -3.304  30.197  1.00  0.00     0.000 C 
BRANCH  15  16
ATOM     16  C   UNL     1      11.791  -2.693  31.347  1.00  0.00     0.000 C 
BRANCH  16  17
ATOM     17  C   UNL     1      10.535  -3.511  31.684  1.00  0.00    -0.000 C 
BRANCH  17  18
ATOM     18  C   UNL     1      10.861  -4.951  32.107  1.00  0.00    -0.000 C 
BRANCH  18  19
ATOM     19  C   UNL     1      11.122  -5.034  33.616  1.00  0.00    -0.003 C 
ATOM     20  C   UNL     1      12.613  -5.169  33.911  1.00  0.00     0.004 C 
ENDBRANCH  18  19
ENDBRANCH  17  18
ENDBRANCH  16  17
ENDBRANCH  15  16
ENDBRANCH  14  15
ENDBRANCH  13  14
ENDBRANCH   2  13
TORSDOF 15
ENDMDL
MODEL 4
REMARK VINA RESULT:    -3.871      3.056      4.778
REMARK INTER + INTRA:         -10.334
REMARK INTER:                  -7.321
REMARK INTRA:                  -3.013
REMARK UNBOUND:                -3.069
REMARK SMILES CCCCCCCCC=CCCCCCCCC(=O)[O-]
REMARK SMILES IDX 10 1 9 2 11 3 12 4 13 5 14 6 15 7 16 8 17 9 18 10 19 11
REMARK SMILES IDX 20 12 8 13 7 14 6 15 5 16 4 17 3 18 2 19 1 20
REMARK H PARENT
REMARK Flexibility Score: inf
ROOT
ATOM      1  C   UNL     1      12.070  -3.402  27.684  1.00  0.00    -0.031 C 
ATOM      2  C   UNL     1      12.542  -2.439  28.497  1.00  0.00    -0.031 C 
ENDROOT
BRANCH   1   3
ATOM      3  C   UNL     1      11.391  -4.666  28.153  1.00  0.00     0.027 C 
BRANCH   3   4
ATOM      4  C   UNL     1      10.065  -4.911  27.418  1.00  0.00     0.004 C 
BRANCH   4   5
ATOM      5  C   UNL     1       9.214  -3.633  27.321  1.00  0.00     0.000 C 
BRANCH   5   6
ATOM      6  C   UNL     1       8.496  -3.303  28.640  1.00  0.00     0.000 C 
BRANCH   6   7
ATOM      7  C   UNL     1       8.331  -1.789  28.859  1.00  0.00     0.000 C 
BRANCH   7   8
ATOM      8  C   UNL     1       9.216  -0.944  27.925  1.00  0.00     0.006 C 
BRANCH   8   9
ATOM      9  C   UNL     1       9.485   0.480  28.442  1.00  0.00     0.053 C 
BRANCH   9  10
ATOM     10  C   UNL     1       8.983   1.538  27.506  1.00  0.00     0.041 C 
ATOM     11  O   UNL     1       7.761   1.841  27.492  1.00  0.00    -0.550 OA
ATOM     12  O   UNL     1       9.868   2.211  26.674  1.00  0.00    -0.550 OA
ENDBRANCH   9  10
ENDBRANCH   8   9
ENDBRANCH   7   8
ENDBRANCH   6   7
ENDBRANCH   5   6
ENDBRANCH   4   5
ENDBRANCH   3   4
ENDBRANCH   1   3
BRANCH   2  13
ATOM     13  C   UNL     1      12.551  -2.519  30.003  1.00  0.00     0.027 C 
BRANCH  13  14
ATOM     14  C   UNL     1      11.772  -1.348  30.612  1.00  0.00     0.004 C 
BRANCH  14  15
ATOM     15  C   UNL     1      10.913  -1.814  31.793  1.00  0.00     0.000 C 
BRANCH  15  16
ATOM     16  C   UNL     1      10.383  -3.236  31.560  1.00  0.00     0.000 C 
BRANCH  16  17
ATOM     17  C   UNL     1      10.721  -4.192  32.715  1.00  0.00    -0.000 C 
BRANCH  17  18
ATOM     18  C   UNL     1      10.816  -5.656  32.264  1.00  0.00    -0.000 C 
BRANCH  18  19
ATOM     19  C   UNL     1      12.123  -5.911  31.503  1.00  0.00    -0.003 C 
ATOM     20  C   UNL     1      13.325  -5.377  32.277  1.00  0.00     0.004 C 
ENDBRANCH  18  19
ENDBRANCH  17  18
ENDBRANCH  16  17
ENDBRANCH  15  16
ENDBRANCH  14  15
ENDBRANCH  13  14
ENDBRANCH   2  13
TORSDOF 15
ENDMDL
MODEL 5
REMARK VINA RESULT:    -3.836      3.810      5.143
REMARK INTER + INTRA:         -10.269
REMARK INTER:                  -8.100
REMARK INTRA:                  -2.169
REMARK UNBOUND:                -3.069
REMARK SMILES CCCCCCCCC=CCCCCCCCC(=O)[O-]
REMARK SMILES IDX 10 1 9 2 11 3 12 4 13 5 14 6 15 7 16 8 17 9 18 10 19 11
REMARK SMILES IDX 20 12 8 13 7 14 6 15 5 16 4 17 3 18 2 19 1 20
REMARK H PARENT
REMARK Flexibility Score: inf
ROOT
ATOM      1  C   UNL     1      10.323  -3.559  27.331  1.00  0.00    -0.031 C 
ATOM      2  C   UNL     1      11.342  -4.305  27.799  1.00  0.00    -0.031 C 
ENDROOT
BRANCH   1   3
ATOM      3  C   UNL     1       8.892  -3.673  27.795  1.00  0.00     0.027 C 
BRANCH   3   4
ATOM      4  C   UNL     1       8.584  -2.704  28.946  1.00  0.00     0.004 C 
BRANCH   4   5
ATOM      5  C   UNL     1       9.111  -1.286  28.665  1.00  0.00     0.000 C 
BRANCH   5   6
ATOM      6  C   UNL     1       9.022  -0.370  29.896  1.00  0.00     0.000 C 
BRANCH   6   7
ATOM      7  C   UNL     1       7.627   0.258  30.065  1.00  0.00     0.000 C 
BRANCH   7   8
ATOM      8  C   UNL     1       7.144   1.001  28.806  1.00  0.00     0.006 C 
BRANCH   8   9
ATOM      9  C   UNL     1       7.017   2.523  28.992  1.00  0.00     0.053 C 
BRANCH   9  10
ATOM     10  C   UNL     1       7.058   3.267  27.692  1.00  0.00     0.041 C 
ATOM     11  O   UNL     1       6.579   4.429  27.613  1.00  0.00    -0.550 OA
ATOM     12  O   UNL     1       7.654   2.694  26.576  1.00  0.00    -0.550 OA
ENDBRANCH   9  10
ENDBRANCH   8   9
ENDBRANCH   7   8
ENDBRANCH   6   7
ENDBRANCH   5   6
ENDBRANCH   4   5
ENDBRANCH   3   4
ENDBRANCH   1   3
BRANCH   2  13
ATOM     13  C   UNL     1      11.193  -5.432  28.790  1.00  0.00     0.027 C 
BRANCH  13  14
ATOM     14  C   UNL     1      11.431  -4.933  30.219  1.00  0.00     0.004 C 
BRANCH  14  15
ATOM     15  C   UNL     1      12.399  -3.745  30.233  1.00  0.00     0.000 C 
BRANCH  15  16
ATOM     16  C   UNL     1      11.830  -2.582  31.059  1.00  0.00     0.000 C 
BRANCH  16  17
ATOM     17  C   UNL     1      10.667  -3.013  31.966  1.00  0.00    -0.000 C 
BRANCH  17  18
ATOM     18  C   UNL     1      11.066  -3.088  33.447  1.00  0.00    -0.000 C 
BRANCH  18  19
ATOM     19  C   UNL     1      11.149  -4.544  33.919  1.00  0.00    -0.003 C 
ATOM     20  C   UNL     1      12.570  -5.085  33.789  1.00  0.00     0.004 C 
ENDBRANCH  18  19
ENDBRANCH  17  18
ENDBRANCH  16  17
ENDBRANCH  15  16
ENDBRANCH  14  15
ENDBRANCH  13  14
ENDBRANCH   2  13
TORSDOF 15
ENDMDL
MODEL 6
REMARK VINA RESULT:    -3.824      3.261      5.203
REMARK INTER + INTRA:         -10.247
REMARK INTER:                  -7.014
REMARK INTRA:                  -3.233
REMARK UNBOUND:                -3.069
REMARK SMILES CCCCCCCCC=CCCCCCCCC(=O)[O-]
REMARK SMILES IDX 10 1 9 2 11 3 12 4 13 5 14 6 15 7 16 8 17 9 18 10 19 11
REMARK SMILES IDX 20 12 8 13 7 14 6 15 5 16 4 17 3 18 2 19 1 20
REMARK H PARENT
REMARK Flexibility Score: inf
ROOT
ATOM      1  C   UNL     1      12.576  -1.445  28.935  1.00  0.00    -0.031 C 
ATOM      2  C   UNL     1      12.268  -1.968  27.734  1.00  0.00    -0.031 C 
ENDROOT
BRANCH   1   3
ATOM      3  C   UNL     1      12.089  -0.110  29.442  1.00  0.00     0.027 C 
BRANCH   3   4
ATOM      4  C   UNL     1      11.341  -0.241  30.777  1.00  0.00     0.004 C 
BRANCH   4   5
ATOM      5  C   UNL     1      10.216  -1.288  30.708  1.00  0.00     0.000 C 
BRANCH   5   6
ATOM      6  C   UNL     1       8.836  -0.654  30.465  1.00  0.00     0.000 C 
BRANCH   6   7
ATOM      7  C   UNL     1       8.330  -0.874  29.029  1.00  0.00     0.000 C 
BRANCH   7   8
ATOM      8  C   UNL     1       7.845   0.423  28.355  1.00  0.00     0.006 C 
BRANCH   8   9
ATOM      9  C   UNL     1       8.878   1.054  27.405  1.00  0.00     0.053 C 
BRANCH   9  10
ATOM     10  C   UNL     1       9.567   2.240  28.009  1.00  0.00     0.041 C 
ATOM     11  O   UNL     1       9.045   2.848  28.980  1.00  0.00    -0.550 OA
ATOM     12  O   UNL     1      10.800   2.655  27.522  1.00  0.00    -0.550 OA
ENDBRANCH   9  10
ENDBRANCH   8   9
ENDBRANCH   7   8
ENDBRANCH   6   7
ENDBRANCH   5   6
ENDBRANCH   4   5
ENDBRANCH   3   4
ENDBRANCH   1   3
BRANCH   2  13
ATOM     13  C   UNL     1      11.467  -1.258  26.672  1.00  0.00     0.027 C 
BRANCH  13  14
ATOM     14  C   UNL     1      10.399  -2.188  26.086  1.00  0.00     0.004 C 
BRANCH  14  15
ATOM     15  C   UNL     1      10.520  -3.601  26.668  1.00  0.00     0.000 C 
BRANCH  15  16
ATOM     16  C   UNL     1       9.284  -3.956  27.509  1.00  0.00     0.000 C 
BRANCH  16  17
ATOM     17  C   UNL     1       9.648  -4.441  28.921  1.00  0.00    -0.000 C 
BRANCH  17  18
ATOM     18  C   UNL     1      11.056  -5.050  28.994  1.00  0.00    -0.000 C 
BRANCH  18  19
ATOM     19  C   UNL     1      11.668  -4.849  30.385  1.00  0.00    -0.003 C 
ATOM     20  C   UNL     1      10.592  -4.851  31.467  1.00  0.00     0.004 C 
ENDBRANCH  18  19
ENDBRANCH  17  18
ENDBRANCH  16  17
ENDBRANCH  15  16
ENDBRANCH  14  15
ENDBRANCH  13  14
ENDBRANCH   2  13
TORSDOF 15
ENDMDL
MODEL 7
REMARK VINA RESULT:    -3.819      2.880      4.402
REMARK INTER + INTRA:         -10.238
REMARK INTER:                  -7.474
REMARK INTRA:                  -2.763
REMARK UNBOUND:                -3.069
REMARK SMILES CCCCCCCCC=CCCCCCCCC(=O)[O-]
REMARK SMILES IDX 10 1 9 2 11 3 12 4 13 5 14 6 15 7 16 8 17 9 18 10 19 11
REMARK SMILES IDX 20 12 8 13 7 14 6 15 5 16 4 17 3 18 2 19 1 20
REMARK H PARENT
REMARK Flexibility Score: inf
ROOT
ATOM      1  C   UNL     1       8.464  -2.331  28.916  1.00  0.00    -0.031 C 
ATOM      2  C   UNL     1       8.988  -1.378  29.708  1.00  0.00    -0.031 C 
ENDROOT
BRANCH   1   3
ATOM      3  C   UNL     1       8.942  -3.761  28.861  1.00  0.00     0.027 C 
BRANCH   3   4
ATOM      4  C   UNL     1       9.449  -4.143  27.462  1.00  0.00     0.004 C 
BRANCH   4   5
ATOM      5  C   UNL     1      10.981  -4.277  27.420  1.00  0.00     0.000 C 
BRANCH   5   6
ATOM      6  C   UNL     1      11.684  -2.929  27.192  1.00  0.00     0.000 C 
BRANCH   6   7
ATOM      7  C   UNL     1      10.883  -1.995  26.268  1.00  0.00     0.000 C 
BRANCH   7   8
ATOM      8  C   UNL     1      11.442  -0.561  26.229  1.00  0.00     0.006 C 
BRANCH   8   9
ATOM      9  C   UNL     1      11.827  -0.005  27.611  1.00  0.00     0.053 C 
BRANCH   9  10
ATOM     10  C   UNL     1      13.181   0.637  27.617  1.00  0.00     0.041 C 
ATOM     11  O   UNL     1      13.897   0.594  28.652  1.00  0.00    -0.550 OA
ATOM     12  O   UNL     1      13.666   1.256  26.472  1.00  0.00    -0.550 OA
ENDBRANCH   9  10
ENDBRANCH   8   9
ENDBRANCH   7   8
ENDBRANCH   6   7
ENDBRANCH   5   6
ENDBRANCH   4   5
ENDBRANCH   3   4
ENDBRANCH   1   3
BRANCH   2  13
ATOM     13  C   UNL     1      10.196  -1.567  30.591  1.00  0.00     0.027 C 
BRANCH  13  14
ATOM     14  C   UNL     1       9.799  -1.512  32.070  1.00  0.00     0.004 C 
BRANCH  14  15
ATOM     15  C   UNL     1      11.017  -1.733  32.975  1.00  0.00     0.000 C 
BRANCH  15  16
ATOM     16  C   UNL     1      10.871  -3.030  33.785  1.00  0.00     0.000 C 
BRANCH  16  17
ATOM     17  C   UNL     1      11.696  -4.189  33.202  1.00  0.00    -0.000 C 
BRANCH  17  18
ATOM     18  C   UNL     1      10.894  -5.047  32.212  1.00  0.00    -0.000 C 
BRANCH  18  19
ATOM     19  C   UNL     1      11.681  -5.265  30.914  1.00  0.00    -0.003 C 
ATOM     20  C   UNL     1      12.784  -4.222  30.756  1.00  0.00     0.004 C 
ENDBRANCH  18  19
ENDBRANCH  17  18
ENDBRANCH  16  17
ENDBRANCH  15  16
ENDBRANCH  14  15
ENDBRANCH  13  14
ENDBRANCH   2  13
TORSDOF 15
ENDMDL
MODEL 8
REMARK VINA RESULT:    -3.811      3.289      4.652
REMARK INTER + INTRA:         -10.221
REMARK INTER:                  -7.436
REMARK INTRA:                  -2.785
REMARK UNBOUND:                -3.069
REMARK SMILES CCCCCCCCC=CCCCCCCCC(=O)[O-]
REMARK SMILES IDX 10 1 9 2 11 3 12 4 13 5 14 6 15 7 16 8 17 9 18 10 19 11
REMARK SMILES IDX 20 12 8 13 7 14 6 15 5 16 4 17 3 18 2 19 1 20
REMARK H PARENT
REMARK Flexibility Score: inf
ROOT
ATOM      1  C   UNL     1      10.269  -4.566  27.959  1.00  0.00    -0.031 C 
ATOM      2  C   UNL     1      11.562  -4.342  28.259  1.00  0.00    -0.031 C 
ENDROOT
BRANCH   1   3
ATOM      3  C   UNL     1       9.277  -3.493  27.583  1.00  0.00     0.027 C 
BRANCH   3   4
ATOM      4  C   UNL     1       8.511  -2.966  28.805  1.00  0.00     0.004 C 
BRANCH   4   5
ATOM      5  C   UNL     1       8.523  -1.429  28.876  1.00  0.00     0.000 C 
BRANCH   5   6
ATOM      6  C   UNL     1       9.302  -0.793  27.713  1.00  0.00     0.000 C 
BRANCH   6   7
ATOM      7  C   UNL     1       9.647   0.684  27.972  1.00  0.00     0.000 C 
BRANCH   7   8
ATOM      8  C   UNL     1      11.006   0.873  28.670  1.00  0.00     0.006 C 
BRANCH   8   9
ATOM      9  C   UNL     1      11.955   1.835  27.934  1.00  0.00     0.053 C 
BRANCH   9  10
ATOM     10  C   UNL     1      13.391   1.623  28.304  1.00  0.00     0.041 C 
ATOM     11  O   UNL     1      13.800   0.476  28.622  1.00  0.00    -0.550 OA
ATOM     12  O   UNL     1      14.287   2.685  28.266  1.00  0.00    -0.550 OA
ENDBRANCH   9  10
ENDBRANCH   8   9
ENDBRANCH   7   8
ENDBRANCH   6   7
ENDBRANCH   5   6
ENDBRANCH   4   5
ENDBRANCH   3   4
ENDBRANCH   1   3
BRANCH   2  13
ATOM     13  C   UNL     1      12.194  -2.976  28.357  1.00  0.00     0.027 C 
BRANCH  13  14
ATOM     14  C   UNL     1      12.711  -2.719  29.777  1.00  0.00     0.004 C 
BRANCH  14  15
ATOM     15  C   UNL     1      11.636  -2.050  30.641  1.00  0.00     0.000 C 
BRANCH  15  16
ATOM     16  C   UNL     1      11.395  -2.846  31.933  1.00  0.00     0.000 C 
BRANCH  16  17
ATOM     17  C   UNL     1      10.460  -4.047  31.723  1.00  0.00    -0.000 C 
BRANCH  17  18
ATOM     18  C   UNL     1      10.992  -5.332  32.374  1.00  0.00    -0.000 C 
BRANCH  18  19
ATOM     19  C   UNL     1      12.290  -5.791  31.700  1.00  0.00    -0.003 C 
ATOM     20  C   UNL     1      13.474  -5.693  32.658  1.00  0.00     0.004 C 
ENDBRANCH  18  19
ENDBRANCH  17  18
ENDBRANCH  16  17
ENDBRANCH  15  16
ENDBRANCH  14  15
ENDBRANCH  13  14
ENDBRANCH   2  13
TORSDOF 15
ENDMDL
MODEL 9
REMARK VINA RESULT:    -3.762      3.606      4.974
REMARK INTER + INTRA:         -10.130
REMARK INTER:                  -6.972
REMARK INTRA:                  -3.158
REMARK UNBOUND:                -3.069
REMARK SMILES CCCCCCCCC=CCCCCCCCC(=O)[O-]
REMARK SMILES IDX 10 1 9 2 11 3 12 4 13 5 14 6 15 7 16 8 17 9 18 10 19 11
REMARK SMILES IDX 20 12 8 13 7 14 6 15 5 16 4 17 3 18 2 19 1 20
REMARK H PARENT
REMARK Flexibility Score: inf
ROOT
ATOM      1  C   UNL     1       9.057  -0.997  28.402  1.00  0.00    -0.031 C 
ATOM      2  C   UNL     1       8.468  -2.101  28.898  1.00  0.00    -0.031 C 
ENDROOT
BRANCH   1   3
ATOM      3  C   UNL     1      10.093  -0.995  27.305  1.00  0.00     0.027 C 
BRANCH   3   4
ATOM      4  C   UNL     1      11.288  -0.094  27.647  1.00  0.00     0.004 C 
BRANCH   4   5
ATOM      5  C   UNL     1      10.857   1.354  27.934  1.00  0.00     0.000 C 
BRANCH   5   6
ATOM      6  C   UNL     1      11.262   1.821  29.342  1.00  0.00     0.000 C 
BRANCH   6   7
ATOM      7  C   UNL     1      10.075   2.390  30.139  1.00  0.00     0.000 C 
BRANCH   7   8
ATOM      8  C   UNL     1       8.993   3.020  29.243  1.00  0.00     0.006 C 
BRANCH   8   9
ATOM      9  C   UNL     1       7.608   2.364  29.386  1.00  0.00     0.053 C 
BRANCH   9  10
ATOM     10  C   UNL     1       6.791   2.465  28.134  1.00  0.00     0.041 C 
ATOM     11  O   UNL     1       5.909   3.357  28.025  1.00  0.00    -0.550 OA
ATOM     12  O   UNL     1       7.025   1.597  27.075  1.00  0.00    -0.550 OA
ENDBRANCH   9  10
ENDBRANCH   8   9
ENDBRANCH   7   8
ENDBRANCH   6   7
ENDBRANCH   5   6
ENDBRANCH   4   5
ENDBRANCH   3   4
ENDBRANCH   1   3
BRANCH   2  13
ATOM     13  C   UNL     1       8.822  -3.512  28.501  1.00  0.00     0.027 C 
BRANCH  13  14
ATOM     14  C   UNL     1       9.831  -4.115  29.483  1.00  0.00     0.004 C 
BRANCH  14  15
ATOM     15  C   UNL     1      11.214  -4.252  28.837  1.00  0.00     0.000 C 
BRANCH  15  16
ATOM     16  C   UNL     1      12.204  -3.242  29.437  1.00  0.00     0.000 C 
BRANCH  16  17
ATOM     17  C   UNL     1      11.882  -2.894  30.899  1.00  0.00    -0.000 C 
BRANCH  17  18
ATOM     18  C   UNL     1      11.605  -1.398  31.105  1.00  0.00    -0.000 C 
BRANCH  18  19
ATOM     19  C   UNL     1      10.842  -1.157  32.413  1.00  0.00    -0.003 C 
ATOM     20  C   UNL     1       9.406  -0.717  32.141  1.00  0.00     0.004 C 
ENDBRANCH  18  19
ENDBRANCH  17  18
ENDBRANCH  16  17
ENDBRANCH  15  16
ENDBRANCH  14  15
ENDBRANCH  13  14
ENDBRANCH   2  13
TORSDOF 15
ENDMDL
