MODEL 1
REMARK VINA RESULT:    -4.249      0.000      0.000
REMARK INTER + INTRA:          -9.865
REMARK INTER:                  -7.727
REMARK INTRA:                  -2.138
REMARK UNBOUND:                -2.138
REMARK SMILES CCCCCCCCCCCCCCCC(=O)[O-]
REMARK SMILES IDX 9 1 10 2 11 3 12 4 13 5 14 6 15 7 16 8 17 9 18 10 8 11 7 12
REMARK SMILES IDX 6 13 5 14 4 15 3 16 2 17 1 18
REMARK H PARENT
REMARK Flexibility Score: inf
ROOT
ATOM      1  C   UNL     1       9.029   5.763  -2.445  1.00  0.00     0.000 C 
ENDROOT
BRANCH   1   2
ATOM      2  C   UNL     1       8.020   4.636  -2.720  1.00  0.00     0.000 C 
BRANCH   2   3
ATOM      3  C   UNL     1       7.423   4.014  -1.439  1.00  0.00     0.000 C 
BRANCH   3   4
ATOM      4  C   UNL     1       7.827   4.790  -0.172  1.00  0.00     0.000 C 
BRANCH   4   5
ATOM      5  C   UNL     1       8.553   3.895   0.854  1.00  0.00     0.000 C 
BRANCH   5   6
ATOM      6  C   UNL     1       9.911   4.456   1.311  1.00  0.00     0.006 C 
BRANCH   6   7
ATOM      7  C   UNL     1       9.959   5.988   1.291  1.00  0.00     0.053 C 
BRANCH   7   8
ATOM      8  C   UNL     1      10.000   6.528   2.686  1.00  0.00     0.041 C 
ATOM      9  O   UNL     1       9.113   7.331   3.081  1.00  0.00    -0.550 OA
ATOM     10  O   UNL     1      10.989   6.108   3.566  1.00  0.00    -0.550 OA
ENDBRANCH   7   8
ENDBRANCH   6   7
ENDBRANCH   5   6
ENDBRANCH   4   5
ENDBRANCH   3   4
ENDBRANCH   2   3
ENDBRANCH   1   2
BRANCH   1  11
ATOM     11  C   UNL     1      10.421   5.473  -3.022  1.00  0.00     0.000 C 
BRANCH  11  12
ATOM     12  C   UNL     1      11.049   4.245  -2.354  1.00  0.00    -0.000 C 
BRANCH  12  13
ATOM     13  C   UNL     1      11.260   3.113  -3.367  1.00  0.00    -0.000 C 
BRANCH  13  14
ATOM     14  C   UNL     1      11.218   1.742  -2.676  1.00  0.00    -0.000 C 
BRANCH  14  15
ATOM     15  C   UNL     1      10.481   1.778  -1.328  1.00  0.00    -0.000 C 
BRANCH  15  16
ATOM     16  C   UNL     1      11.420   1.528  -0.135  1.00  0.00    -0.000 C 
BRANCH  16  17
ATOM     17  C   UNL     1      12.676   0.736  -0.530  1.00  0.00    -0.003 C 
ATOM     18  C   UNL     1      13.196  -0.155   0.598  1.00  0.00     0.004 C 
ENDBRANCH  16  17
ENDBRANCH  15  16
ENDBRANCH  14  15
ENDBRANCH  13  14
ENDBRANCH  12  13
ENDBRANCH  11  12
ENDBRANCH   1  11
TORSDOF 14
ENDMDL
MODEL 2
REMARK VINA RESULT:    -4.177      1.498      3.863
REMARK INTER + INTRA:          -9.733
REMARK INTER:                  -7.970
REMARK INTRA:                  -1.762
REMARK UNBOUND:                -2.138
REMARK SMILES CCCCCCCCCCCCCCCC(=O)[O-]
REMARK SMILES IDX 9 1 10 2 11 3 12 4 13 5 14 6 15 7 16 8 17 9 18 10 8 11 7 12
REMARK SMILES IDX 6 13 5 14 4 15 3 16 2 17 1 18
REMARK H PARENT
REMARK Flexibility Score: inf
ROOT
ATOM      1  C   UNL     1      12.221   1.443  -1.161  1.00  0.00     0.000 C 
ENDROOT
BRANCH   1   2
ATOM      2  C   UNL     1      11.129   1.807  -0.142  1.00  0.00     0.000 C 
BRANCH   2   3
ATOM      3  C   UNL     1       9.746   2.058  -0.779  1.00  0.00     0.000 C 
BRANCH   3   4
ATOM      4  C   UNL     1       9.089   3.349  -0.255  1.00  0.00     0.000 C 
BRANCH   4   5
ATOM      5  C   UNL     1       9.797   3.895   1.003  1.00  0.00     0.000 C 
BRANCH   5   6
ATOM      6  C   UNL     1       9.256   5.256   1.474  1.00  0.00     0.006 C 
BRANCH   6   7
ATOM      7  C   UNL     1      10.237   6.004   2.384  1.00  0.00     0.053 C 
BRANCH   7   8
ATOM      8  C   UNL     1       9.584   7.214   2.975  1.00  0.00     0.041 C 
ATOM      9  O   UNL     1      10.199   8.312   3.009  1.00  0.00    -0.550 OA
ATOM     10  O   UNL     1       8.279   7.141   3.443  1.00  0.00    -0.550 OA
ENDBRANCH   7   8
ENDBRANCH   6   7
ENDBRANCH   5   6
ENDBRANCH   4   5
ENDBRANCH   3   4
ENDBRANCH   2   3
ENDBRANCH   1   2
BRANCH   1  11
ATOM     11  C   UNL     1      12.241   2.379  -2.377  1.00  0.00     0.000 C 
BRANCH  11  12
ATOM     12  C   UNL     1      11.880   1.624  -3.660  1.00  0.00    -0.000 C 
BRANCH  12  13
ATOM     13  C   UNL     1      11.248   2.564  -4.694  1.00  0.00    -0.000 C 
BRANCH  13  14
ATOM     14  C   UNL     1      10.490   3.709  -4.005  1.00  0.00    -0.000 C 
BRANCH  14  15
ATOM     15  C   UNL     1      10.383   4.965  -4.885  1.00  0.00    -0.000 C 
BRANCH  15  16
ATOM     16  C   UNL     1      10.352   6.262  -4.059  1.00  0.00    -0.000 C 
BRANCH  16  17
ATOM     17  C   UNL     1       9.891   6.029  -2.612  1.00  0.00    -0.003 C 
ATOM     18  C   UNL     1      10.962   6.386  -1.582  1.00  0.00     0.004 C 
ENDBRANCH  16  17
ENDBRANCH  15  16
ENDBRANCH  14  15
ENDBRANCH  13  14
ENDBRANCH  12  13
ENDBRANCH  11  12
ENDBRANCH   1  11
TORSDOF 14
ENDMDL
MODEL 3
REMARK VINA RESULT:    -4.101      2.134      3.933
REMARK INTER + INTRA:          -9.595
REMARK INTER:                  -7.431
REMARK INTRA:                  -2.164
REMARK UNBOUND:                -2.138
REMARK SMILES CCCCCCCCCCCCCCCC(=O)[O-]
REMARK SMILES IDX 9 1 10 2 11 3 12 4 13 5 14 6 15 7 16 8 17 9 18 10 8 11 7 12
REMARK SMILES IDX 6 13 5 14 4 15 3 16 2 17 1 18
REMARK H PARENT
REMARK Flexibility Score: inf
ROOT
ATOM      1  C   UNL     1       8.522   5.014   0.800  1.00  0.00     0.000 C 
ENDROOT
BRANCH   1   2
ATOM      2  C   UNL     1       7.590   5.431  -0.350  1.00  0.00     0.000 C 
BRANCH   2   3
ATOM      3  C   UNL     1       7.212   4.268  -1.293  1.00  0.00     0.000 C 
BRANCH   3   4
ATOM      4  C   UNL     1       8.062   4.260  -2.577  1.00  0.00     0.000 C 
BRANCH   4   5
ATOM      5  C   UNL     1       8.856   5.571  -2.760  1.00  0.00     0.000 C 
BRANCH   5   6
ATOM      6  C   UNL     1      10.382   5.380  -2.708  1.00  0.00     0.006 C 
BRANCH   6   7
ATOM      7  C   UNL     1      11.055   6.255  -1.644  1.00  0.00     0.053 C 
BRANCH   7   8
ATOM      8  C   UNL     1      10.525   7.652  -1.704  1.00  0.00     0.041 C 
ATOM      9  O   UNL     1       9.839   8.112  -0.753  1.00  0.00    -0.550 OA
ATOM     10  O   UNL     1      10.828   8.466  -2.789  1.00  0.00    -0.550 OA
ENDBRANCH   7   8
ENDBRANCH   6   7
ENDBRANCH   5   6
ENDBRANCH   4   5
ENDBRANCH   3   4
ENDBRANCH   2   3
ENDBRANCH   1   2
BRANCH   1  11
ATOM     11  C   UNL     1       8.657   3.491   0.938  1.00  0.00     0.000 C 
BRANCH  11  12
ATOM     12  C   UNL     1      10.103   3.042   0.701  1.00  0.00    -0.000 C 
BRANCH  12  13
ATOM     13  C   UNL     1      10.187   2.047  -0.463  1.00  0.00    -0.000 C 
BRANCH  13  14
ATOM     14  C   UNL     1      11.643   1.644  -0.738  1.00  0.00    -0.000 C 
BRANCH  14  15
ATOM     15  C   UNL     1      12.150   2.142  -2.100  1.00  0.00    -0.000 C 
BRANCH  15  16
ATOM     16  C   UNL     1      11.092   2.007  -3.209  1.00  0.00    -0.000 C 
BRANCH  16  17
ATOM     17  C   UNL     1      11.656   1.370  -4.488  1.00  0.00    -0.003 C 
ATOM     18  C   UNL     1      11.281   2.144  -5.753  1.00  0.00     0.004 C 
ENDBRANCH  16  17
ENDBRANCH  15  16
ENDBRANCH  14  15
ENDBRANCH  13  14
ENDBRANCH  12  13
ENDBRANCH  11  12
ENDBRANCH   1  11
TORSDOF 14
ENDMDL
MODEL 4
REMARK VINA RESULT:    -4.022      3.320      5.721
REMARK INTER + INTRA:          -9.451
REMARK INTER:                  -6.870
REMARK INTRA:                  -2.581
REMARK UNBOUND:                -2.138
REMARK SMILES CCCCCCCCCCCCCCCC(=O)[O-]
REMARK SMILES IDX 9 1 10 2 11 3 12 4 13 5 14 6 15 7 16 8 17 9 18 10 8 11 7 12
REMARK SMILES IDX 6 13 5 14 4 15 3 16 2 17 1 18
REMARK H PARENT
REMARK Flexibility Score: inf
ROOT
ATOM      1  C   UNL     1      10.380   5.499  -0.117  1.00  0.00     0.000 C 
ENDROOT
BRANCH   1   2
ATOM      2  C   UNL     1       9.614   4.849   1.048  1.00  0.00     0.000 C 
BRANCH   2   3
ATOM      3  C   UNL     1       9.498   3.314   0.933  1.00  0.00     0.000 C 
BRANCH   3   4
ATOM      4  C   UNL     1      10.064   2.786  -0.398  1.00  0.00     0.000 C 
BRANCH   4   5
ATOM      5  C   UNL     1      11.271   1.847  -0.187  1.00  0.00     0.000 C 
BRANCH   5   6
ATOM      6  C   UNL     1      12.121   1.639  -1.453  1.00  0.00     0.006 C 
BRANCH   6   7
ATOM      7  C   UNL     1      11.931   2.755  -2.487  1.00  0.00     0.053 C 
BRANCH   7   8
ATOM      8  C   UNL     1      11.602   2.176  -3.827  1.00  0.00     0.041 C 
ATOM      9  O   UNL     1      11.692   0.935  -4.020  1.00  0.00    -0.550 OA
ATOM     10  O   UNL     1      11.148   3.001  -4.848  1.00  0.00    -0.550 OA
ENDBRANCH   7   8
ENDBRANCH   6   7
ENDBRANCH   5   6
ENDBRANCH   4   5
ENDBRANCH   3   4
ENDBRANCH   2   3
ENDBRANCH   1   2
BRANCH   1  11
ATOM     11  C   UNL     1       9.744   6.813  -0.590  1.00  0.00     0.000 C 
BRANCH  11  12
ATOM     12  C   UNL     1      10.246   7.196  -1.987  1.00  0.00    -0.000 C 
BRANCH  12  13
ATOM     13  C   UNL     1      10.077   6.032  -2.971  1.00  0.00    -0.000 C 
BRANCH  13  14
ATOM     14  C   UNL     1       8.591   5.758  -3.250  1.00  0.00    -0.000 C 
BRANCH  14  15
ATOM     15  C   UNL     1       8.195   4.299  -2.976  1.00  0.00    -0.000 C 
BRANCH  15  16
ATOM     16  C   UNL     1       6.997   4.183  -2.017  1.00  0.00    -0.000 C 
BRANCH  16  17
ATOM     17  C   UNL     1       6.451   5.553  -1.588  1.00  0.00    -0.003 C 
ATOM     18  C   UNL     1       6.235   5.661  -0.079  1.00  0.00     0.004 C 
ENDBRANCH  16  17
ENDBRANCH  15  16
ENDBRANCH  14  15
ENDBRANCH  13  14
ENDBRANCH  12  13
ENDBRANCH  11  12
ENDBRANCH   1  11
TORSDOF 14
ENDMDL
MODEL 5
REMARK VINA RESULT:    -3.973      1.618      3.381
REMARK INTER + INTRA:          -9.362
REMARK INTER:                  -7.311
REMARK INTRA:                  -2.050
REMARK UNBOUND:                -2.138
REMARK SMILES CCCCCCCCCCCCCCCC(=O)[O-]
REMARK SMILES IDX 9 1 10 2 11 3 12 4 13 5 14 6 15 7 16 8 17 9 18 10 8 11 7 12
REMARK SMILES IDX 6 13 5 14 4 15 3 16 2 17 1 18
REMARK H PARENT
REMARK Flexibility Score: inf
ROOT
ATOM      1  C   UNL     1       8.519   3.527  -0.256  1.00  0.00     0.000 C 
ENDROOT
BRANCH   1   2
ATOM      2  C   UNL     1       8.480   3.669  -1.787  1.00  0.00     0.000 C 
BRANCH   2   3
ATOM      3  C   UNL     1       8.852   5.081  -2.287  1.00  0.00     0.000 C 
BRANCH   3   4
ATOM      4  C   UNL     1      10.364   5.232  -2.534  1.00  0.00     0.000 C 
BRANCH   4   5
ATOM      5  C   UNL     1      11.051   6.083  -1.445  1.00  0.00     0.000 C 
BRANCH   5   6
ATOM      6  C   UNL     1      10.064   6.788  -0.499  1.00  0.00     0.006 C 
BRANCH   6   7
ATOM      7  C   UNL     1      10.278   6.413   0.972  1.00  0.00     0.053 C 
BRANCH   7   8
ATOM      8  C   UNL     1       9.416   7.255   1.858  1.00  0.00     0.041 C 
ATOM      9  O   UNL     1       9.939   8.023   2.709  1.00  0.00    -0.550 OA
ATOM     10  O   UNL     1       8.035   7.230   1.712  1.00  0.00    -0.550 OA
ENDBRANCH   7   8
ENDBRANCH   6   7
ENDBRANCH   5   6
ENDBRANCH   4   5
ENDBRANCH   3   4
ENDBRANCH   2   3
ENDBRANCH   1   2
BRANCH   1  11
ATOM     11  C   UNL     1       9.775   2.799   0.245  1.00  0.00     0.000 C 
BRANCH  11  12
ATOM     12  C   UNL     1      10.321   1.846  -0.823  1.00  0.00    -0.000 C 
BRANCH  12  13
ATOM     13  C   UNL     1      11.826   2.056  -1.032  1.00  0.00    -0.000 C 
BRANCH  13  14
ATOM     14  C   UNL     1      12.257   1.594  -2.432  1.00  0.00    -0.000 C 
BRANCH  14  15
ATOM     15  C   UNL     1      11.098   1.602  -3.442  1.00  0.00    -0.000 C 
BRANCH  15  16
ATOM     16  C   UNL     1      11.417   2.429  -4.699  1.00  0.00    -0.000 C 
BRANCH  16  17
ATOM     17  C   UNL     1      11.388   1.585  -5.983  1.00  0.00    -0.003 C 
ATOM     18  C   UNL     1      11.786   0.128  -5.746  1.00  0.00     0.004 C 
ENDBRANCH  16  17
ENDBRANCH  15  16
ENDBRANCH  14  15
ENDBRANCH  13  14
ENDBRANCH  12  13
ENDBRANCH  11  12
ENDBRANCH   1  11
TORSDOF 14
ENDMDL
MODEL 6
REMARK VINA RESULT:    -3.949      1.500      3.710
REMARK INTER + INTRA:          -9.319
REMARK INTER:                  -7.521
REMARK INTRA:                  -1.799
REMARK UNBOUND:                -2.138
REMARK SMILES CCCCCCCCCCCCCCCC(=O)[O-]
REMARK SMILES IDX 9 1 10 2 11 3 12 4 13 5 14 6 15 7 16 8 17 9 18 10 8 11 7 12
REMARK SMILES IDX 6 13 5 14 4 15 3 16 2 17 1 18
REMARK H PARENT
REMARK Flexibility Score: inf
ROOT
ATOM      1  C   UNL     1       9.871   3.122   0.536  1.00  0.00     0.000 C 
ENDROOT
BRANCH   1   2
ATOM      2  C   UNL     1       8.677   4.005   0.137  1.00  0.00     0.000 C 
BRANCH   2   3
ATOM      3  C   UNL     1       8.970   4.938  -1.057  1.00  0.00     0.000 C 
BRANCH   3   4
ATOM      4  C   UNL     1      10.249   5.769  -0.847  1.00  0.00     0.000 C 
BRANCH   4   5
ATOM      5  C   UNL     1       9.954   7.281  -0.756  1.00  0.00     0.000 C 
BRANCH   5   6
ATOM      6  C   UNL     1       9.069   7.667   0.442  1.00  0.00     0.006 C 
BRANCH   6   7
ATOM      7  C   UNL     1       9.870   7.873   1.732  1.00  0.00     0.053 C 
BRANCH   7   8
ATOM      8  C   UNL     1       9.674   6.717   2.660  1.00  0.00     0.041 C 
ATOM      9  O   UNL     1       8.598   6.595   3.303  1.00  0.00    -0.550 OA
ATOM     10  O   UNL     1      10.660   5.745   2.780  1.00  0.00    -0.550 OA
ENDBRANCH   7   8
ENDBRANCH   6   7
ENDBRANCH   5   6
ENDBRANCH   4   5
ENDBRANCH   3   4
ENDBRANCH   2   3
ENDBRANCH   1   2
BRANCH   1  11
ATOM     11  C   UNL     1      10.127   1.979  -0.455  1.00  0.00     0.000 C 
BRANCH  11  12
ATOM     12  C   UNL     1      11.616   1.622  -0.513  1.00  0.00    -0.000 C 
BRANCH  12  13
ATOM     13  C   UNL     1      12.241   2.073  -1.839  1.00  0.00    -0.000 C 
BRANCH  13  14
ATOM     14  C   UNL     1      11.583   1.358  -3.028  1.00  0.00    -0.000 C 
BRANCH  14  15
ATOM     15  C   UNL     1      11.409   2.274  -4.250  1.00  0.00    -0.000 C 
BRANCH  15  16
ATOM     16  C   UNL     1      10.857   3.660  -3.874  1.00  0.00    -0.000 C 
BRANCH  16  17
ATOM     17  C   UNL     1      10.389   4.460  -5.100  1.00  0.00    -0.003 C 
ATOM     18  C   UNL     1       9.010   5.091  -4.907  1.00  0.00     0.004 C 
ENDBRANCH  16  17
ENDBRANCH  15  16
ENDBRANCH  14  15
ENDBRANCH  13  14
ENDBRANCH  12  13
ENDBRANCH  11  12
ENDBRANCH   1  11
TORSDOF 14
ENDMDL
MODEL 7
REMARK VINA RESULT:    -3.913      3.621      5.926
REMARK INTER + INTRA:          -9.253
REMARK INTER:                  -7.183
REMARK INTRA:                  -2.070
REMARK UNBOUND:                -2.138
REMARK SMILES CCCCCCCCCCCCCCCC(=O)[O-]
REMARK SMILES IDX 9 1 10 2 11 3 12 4 13 5 14 6 15 7 16 8 17 9 18 10 8 11 7 12
REMARK SMILES IDX 6 13 5 14 4 15 3 16 2 17 1 18
REMARK H PARENT
REMARK Flexibility Score: inf
ROOT
ATOM      1  C   UNL     1       8.124   4.949   0.519  1.00  0.00     0.000 C 
ENDROOT
BRANCH   1   2
ATOM      2  C   UNL     1       8.522   3.520   0.922  1.00  0.00     0.000 C 
BRANCH   2   3
ATOM      3  C   UNL     1      10.003   3.188   0.641  1.00  0.00     0.000 C 
BRANCH   3   4
ATOM      4  C   UNL     1      10.169   2.243  -0.564  1.00  0.00     0.000 C 
BRANCH   4   5
ATOM      5  C   UNL     1      11.605   1.688  -0.677  1.00  0.00     0.000 C 
BRANCH   5   6
ATOM      6  C   UNL     1      12.178   1.744  -2.104  1.00  0.00     0.006 C 
BRANCH   6   7
ATOM      7  C   UNL     1      11.148   2.205  -3.141  1.00  0.00     0.053 C 
BRANCH   7   8
ATOM      8  C   UNL     1      11.539   1.741  -4.508  1.00  0.00     0.041 C 
ATOM      9  O   UNL     1      11.881   0.543  -4.697  1.00  0.00    -0.550 OA
ATOM     10  O   UNL     1      11.479   2.617  -5.585  1.00  0.00    -0.550 OA
ENDBRANCH   7   8
ENDBRANCH   6   7
ENDBRANCH   5   6
ENDBRANCH   4   5
ENDBRANCH   3   4
ENDBRANCH   2   3
ENDBRANCH   1   2
BRANCH   1  11
ATOM     11  C   UNL     1       7.022   4.984  -0.549  1.00  0.00     0.000 C 
BRANCH  11  12
ATOM     12  C   UNL     1       7.258   3.913  -1.619  1.00  0.00    -0.000 C 
BRANCH  12  13
ATOM     13  C   UNL     1       6.597   4.304  -2.947  1.00  0.00    -0.000 C 
BRANCH  13  14
ATOM     14  C   UNL     1       7.467   5.307  -3.720  1.00  0.00    -0.000 C 
BRANCH  14  15
ATOM     15  C   UNL     1       8.952   4.909  -3.744  1.00  0.00    -0.000 C 
BRANCH  15  16
ATOM     16  C   UNL     1       9.876   6.049  -3.283  1.00  0.00    -0.000 C 
BRANCH  16  17
ATOM     17  C   UNL     1      10.771   5.640  -2.103  1.00  0.00    -0.003 C 
ATOM     18  C   UNL     1      10.762   6.663  -0.967  1.00  0.00     0.004 C 
ENDBRANCH  16  17
ENDBRANCH  15  16
ENDBRANCH  14  15
ENDBRANCH  13  14
ENDBRANCH  12  13
ENDBRANCH  11  12
ENDBRANCH   1  11
TORSDOF 14
ENDMDL
MODEL 8
REMARK VINA RESULT:    -3.904      1.759      3.310
REMARK INTER + INTRA:          -9.237
REMARK INTER:                  -7.411
REMARK INTRA:                  -1.826
REMARK UNBOUND:                -2.138
REMARK SMILES CCCCCCCCCCCCCCCC(=O)[O-]
REMARK SMILES IDX 9 1 10 2 11 3 12 4 13 5 14 6 15 7 16 8 17 9 18 10 8 11 7 12
REMARK SMILES IDX 6 13 5 14 4 15 3 16 2 17 1 18
REMARK H PARENT
REMARK Flexibility Score: inf
ROOT
ATOM      1  C   UNL     1       8.483   3.901  -2.170  1.00  0.00     0.000 C 
ENDROOT
BRANCH   1   2
ATOM      2  C   UNL     1       9.623   4.540  -2.980  1.00  0.00     0.000 C 
BRANCH   2   3
ATOM      3  C   UNL     1       9.589   6.084  -2.983  1.00  0.00     0.000 C 
BRANCH   3   4
ATOM      4  C   UNL     1      10.807   6.694  -2.265  1.00  0.00     0.000 C 
BRANCH   4   5
ATOM      5  C   UNL     1      10.403   7.807  -1.275  1.00  0.00     0.000 C 
BRANCH   5   6
ATOM      6  C   UNL     1       9.264   7.403  -0.323  1.00  0.00     0.006 C 
BRANCH   6   7
ATOM      7  C   UNL     1       9.635   7.571   1.155  1.00  0.00     0.053 C 
BRANCH   7   8
ATOM      8  C   UNL     1       9.449   6.282   1.891  1.00  0.00     0.041 C 
ATOM      9  O   UNL     1      10.446   5.665   2.350  1.00  0.00    -0.550 OA
ATOM     10  O   UNL     1       8.171   5.786   2.112  1.00  0.00    -0.550 OA
ENDBRANCH   7   8
ENDBRANCH   6   7
ENDBRANCH   5   6
ENDBRANCH   4   5
ENDBRANCH   3   4
ENDBRANCH   2   3
ENDBRANCH   1   2
BRANCH   1  11
ATOM     11  C   UNL     1       8.848   3.678  -0.696  1.00  0.00     0.000 C 
BRANCH  11  12
ATOM     12  C   UNL     1      10.353   3.442  -0.531  1.00  0.00    -0.000 C 
BRANCH  12  13
ATOM     13  C   UNL     1      10.687   1.946  -0.593  1.00  0.00    -0.000 C 
BRANCH  13  14
ATOM     14  C   UNL     1      12.090   1.719  -1.174  1.00  0.00    -0.000 C 
BRANCH  14  15
ATOM     15  C   UNL     1      12.186   2.098  -2.661  1.00  0.00    -0.000 C 
BRANCH  15  16
ATOM     16  C   UNL     1      11.219   1.285  -3.539  1.00  0.00    -0.000 C 
BRANCH  16  17
ATOM     17  C   UNL     1      11.520   1.433  -5.039  1.00  0.00    -0.003 C 
ATOM     18  C   UNL     1      11.804   0.096  -5.723  1.00  0.00     0.004 C 
ENDBRANCH  16  17
ENDBRANCH  15  16
ENDBRANCH  14  15
ENDBRANCH  13  14
ENDBRANCH  12  13
ENDBRANCH  11  12
ENDBRANCH   1  11
TORSDOF 14
ENDMDL
MODEL 9
REMARK VINA RESULT:    -3.879      3.234      5.057
REMARK INTER + INTRA:          -9.191
REMARK INTER:                  -7.304
REMARK INTRA:                  -1.887
REMARK UNBOUND:                -2.138
REMARK SMILES CCCCCCCCCCCCCCCC(=O)[O-]
REMARK SMILES IDX 9 1 10 2 11 3 12 4 13 5 14 6 15 7 16 8 17 9 18 10 8 11 7 12
REMARK SMILES IDX 6 13 5 14 4 15 3 16 2 17 1 18
REMARK H PARENT
REMARK Flexibility Score: inf
ROOT
ATOM      1  C   UNL     1       9.686   5.712   1.816  1.00  0.00     0.000 C 
ENDROOT
BRANCH   1   2
ATOM      2  C   UNL     1      10.050   6.918   0.933  1.00  0.00     0.000 C 
BRANCH   2   3
ATOM      3  C   UNL     1       9.266   6.971  -0.396  1.00  0.00     0.000 C 
BRANCH   3   4
ATOM      4  C   UNL     1      10.187   7.210  -1.607  1.00  0.00     0.000 C 
BRANCH   4   5
ATOM      5  C   UNL     1      10.732   5.892  -2.195  1.00  0.00     0.000 C 
BRANCH   5   6
ATOM      6  C   UNL     1       9.688   5.096  -2.998  1.00  0.00     0.006 C 
BRANCH   6   7
ATOM      7  C   UNL     1      10.090   4.897  -4.464  1.00  0.00     0.053 C 
BRANCH   7   8
ATOM      8  C   UNL     1      10.147   6.213  -5.174  1.00  0.00     0.041 C 
ATOM      9  O   UNL     1       9.130   6.955  -5.216  1.00  0.00    -0.550 OA
ATOM     10  O   UNL     1      11.336   6.643  -5.748  1.00  0.00    -0.550 OA
ENDBRANCH   7   8
ENDBRANCH   6   7
ENDBRANCH   5   6
ENDBRANCH   4   5
ENDBRANCH   3   4
ENDBRANCH   2   3
ENDBRANCH   1   2
BRANCH   1  11
ATOM     11  C   UNL     1       9.075   4.551   1.020  1.00  0.00     0.000 C 
BRANCH  11  12
ATOM     12  C   UNL     1      10.048   3.370   0.933  1.00  0.00    -0.000 C 
BRANCH  12  13
ATOM     13  C   UNL     1       9.912   2.642  -0.410  1.00  0.00    -0.000 C 
BRANCH  13  14
ATOM     14  C   UNL     1      10.956   1.521  -0.535  1.00  0.00    -0.000 C 
BRANCH  14  15
ATOM     15  C   UNL     1      12.233   1.978  -1.259  1.00  0.00    -0.000 C 
BRANCH  15  16
ATOM     16  C   UNL     1      11.986   2.301  -2.743  1.00  0.00    -0.000 C 
BRANCH  16  17
ATOM     17  C   UNL     1      11.133   1.232  -3.444  1.00  0.00    -0.003 C 
ATOM     18  C   UNL     1      11.570   0.975  -4.887  1.00  0.00     0.004 C 
ENDBRANCH  16  17
ENDBRANCH  15  16
ENDBRANCH  14  15
ENDBRANCH  13  14
ENDBRANCH  12  13
ENDBRANCH  11  12
ENDBRANCH   1  11
TORSDOF 14
ENDMDL
