MODEL 1
REMARK VINA RESULT:    -5.126      0.000      0.000
REMARK INTER + INTRA:         -13.962
REMARK INTER:                 -11.720
REMARK INTRA:                  -2.243
REMARK UNBOUND:                -2.243
REMARK SMILES CCCCCCCCCCCCCCCCCCCCCCCC(=O)[O-]
REMARK SMILES IDX 13 1 14 2 15 3 16 4 17 5 18 6 19 7 20 8 21 9 22 10 23 11
REMARK SMILES IDX 24 12 25 13 26 14 12 15 11 16 10 17 9 18 8 19 7 20 6 21 5 22
REMARK SMILES IDX 4 23 3 24 2 25 1 26
REMARK H PARENT
REMARK Flexibility Score: inf
ROOT
ATOM      1  C   UNL     1      -8.333  36.807   5.448  1.00  0.00     0.000 C 
ENDROOT
BRANCH   1   2
ATOM      2  C   UNL     1      -8.919  35.830   6.474  1.00  0.00     0.000 C 
BRANCH   2   3
ATOM      3  C   UNL     1      -8.898  34.391   5.935  1.00  0.00     0.000 C 
BRANCH   3   4
ATOM      4  C   UNL     1      -7.545  34.008   5.313  1.00  0.00     0.000 C 
BRANCH   4   5
ATOM      5  C   UNL     1      -6.786  32.964   6.149  1.00  0.00     0.000 C 
BRANCH   5   6
ATOM      6  C   UNL     1      -7.638  31.721   6.459  1.00  0.00     0.000 C 
BRANCH   6   7
ATOM      7  C   UNL     1      -7.460  30.607   5.412  1.00  0.00     0.000 C 
BRANCH   7   8
ATOM      8  C   UNL     1      -7.511  29.201   6.033  1.00  0.00     0.000 C 
BRANCH   8   9
ATOM      9  C   UNL     1      -6.195  28.429   5.859  1.00  0.00     0.000 C 
BRANCH   9  10
ATOM     10  C   UNL     1      -5.018  29.392   5.636  1.00  0.00     0.006 C 
BRANCH  10  11
ATOM     11  C   UNL     1      -3.663  28.729   5.918  1.00  0.00     0.053 C 
BRANCH  11  12
ATOM     12  C   UNL     1      -3.093  29.164   7.233  1.00  0.00     0.041 C 
ATOM     13  O   UNL     1      -3.401  30.286   7.716  1.00  0.00    -0.550 OA
ATOM     14  O   UNL     1      -2.269  28.309   7.952  1.00  0.00    -0.550 OA
ENDBRANCH  11  12
ENDBRANCH  10  11
ENDBRANCH   9  10
ENDBRANCH   8   9
ENDBRANCH   7   8
ENDBRANCH   6   7
ENDBRANCH   5   6
ENDBRANCH   4   5
ENDBRANCH   3   4
ENDBRANCH   2   3
ENDBRANCH   1   2
BRANCH   1  15
ATOM     15  C   UNL     1      -7.925  38.127   6.115  1.00  0.00     0.000 C 
BRANCH  15  16
ATOM     16  C   UNL     1      -9.130  38.801   6.782  1.00  0.00     0.000 C 
BRANCH  16  17
ATOM     17  C   UNL     1     -10.209  39.149   5.745  1.00  0.00     0.000 C 
BRANCH  17  18
ATOM     18  C   UNL     1     -11.640  39.018   6.297  1.00  0.00    -0.000 C 
BRANCH  18  19
ATOM     19  C   UNL     1     -12.462  40.320   6.298  1.00  0.00    -0.000 C 
BRANCH  19  20
ATOM     20  C   UNL     1     -12.940  40.728   7.699  1.00  0.00    -0.000 C 
BRANCH  20  21
ATOM     21  C   UNL     1     -12.023  40.141   8.782  1.00  0.00    -0.000 C 
BRANCH  21  22
ATOM     22  C   UNL     1     -12.793  39.344   9.851  1.00  0.00    -0.000 C 
BRANCH  22  23
ATOM     23  C   UNL     1     -12.555  37.819   9.832  1.00  0.00    -0.000 C 
BRANCH  23  24
ATOM     24  C   UNL     1     -11.111  37.387   9.522  1.00  0.00    -0.000 C 
BRANCH  24  25
ATOM     25  C   UNL     1     -10.930  35.864   9.530  1.00  0.00    -0.003 C 
ATOM     26  C   UNL     1     -12.120  35.166   8.876  1.00  0.00     0.004 C 
ENDBRANCH  24  25
ENDBRANCH  23  24
ENDBRANCH  22  23
ENDBRANCH  21  22
ENDBRANCH  20  21
ENDBRANCH  19  20
ENDBRANCH  18  19
ENDBRANCH  17  18
ENDBRANCH  16  17
ENDBRANCH  15  16
ENDBRANCH   1  15
TORSDOF 22
ENDMDL
MODEL 2
REMARK VINA RESULT:    -5.116      2.868      9.745
REMARK INTER + INTRA:         -13.938
REMARK INTER:                 -11.592
REMARK INTRA:                  -2.346
REMARK UNBOUND:                -2.243
REMARK SMILES CCCCCCCCCCCCCCCCCCCCCCCC(=O)[O-]
REMARK SMILES IDX 13 1 14 2 15 3 16 4 17 5 18 6 19 7 20 8 21 9 22 10 23 11
REMARK SMILES IDX 24 12 25 13 26 14 12 15 11 16 10 17 9 18 8 19 7 20 6 21 5 22
REMARK SMILES IDX 4 23 3 24 2 25 1 26
REMARK H PARENT
REMARK Flexibility Score: inf
ROOT
ATOM      1  C   UNL     1     -10.073  36.475   6.479  1.00  0.00     0.000 C 
ENDROOT
BRANCH   1   2
ATOM      2  C   UNL     1      -8.931  37.496   6.521  1.00  0.00     0.000 C 
BRANCH   2   3
ATOM      3  C   UNL     1      -9.410  38.875   6.041  1.00  0.00     0.000 C 
BRANCH   3   4
ATOM      4  C   UNL     1     -10.806  38.828   5.397  1.00  0.00     0.000 C 
BRANCH   4   5
ATOM      5  C   UNL     1     -11.763  39.878   5.987  1.00  0.00     0.000 C 
BRANCH   5   6
ATOM      6  C   UNL     1     -12.492  39.374   7.244  1.00  0.00     0.000 C 
BRANCH   6   7
ATOM      7  C   UNL     1     -11.789  39.801   8.545  1.00  0.00     0.000 C 
BRANCH   7   8
ATOM      8  C   UNL     1     -12.224  38.957   9.755  1.00  0.00     0.000 C 
BRANCH   8   9
ATOM      9  C   UNL     1     -11.572  37.567   9.771  1.00  0.00     0.000 C 
BRANCH   9  10
ATOM     10  C   UNL     1     -12.635  36.461   9.866  1.00  0.00     0.006 C 
BRANCH  10  11
ATOM     11  C   UNL     1     -12.898  35.791   8.511  1.00  0.00     0.053 C 
BRANCH  11  12
ATOM     12  C   UNL     1     -12.366  34.392   8.468  1.00  0.00     0.041 C 
ATOM     13  O   UNL     1     -13.043  33.473   7.935  1.00  0.00    -0.550 OA
ATOM     14  O   UNL     1     -11.099  34.113   8.964  1.00  0.00    -0.550 OA
ENDBRANCH  11  12
ENDBRANCH  10  11
ENDBRANCH   9  10
ENDBRANCH   8   9
ENDBRANCH   7   8
ENDBRANCH   6   7
ENDBRANCH   5   6
ENDBRANCH   4   5
ENDBRANCH   3   4
ENDBRANCH   2   3
ENDBRANCH   1   2
BRANCH   1  15
ATOM     15  C   UNL     1      -9.624  35.175   5.801  1.00  0.00     0.000 C 
BRANCH  15  16
ATOM     16  C   UNL     1      -8.094  35.088   5.737  1.00  0.00     0.000 C 
BRANCH  16  17
ATOM     17  C   UNL     1      -7.637  33.654   5.432  1.00  0.00     0.000 C 
BRANCH  17  18
ATOM     18  C   UNL     1      -6.160  33.404   5.786  1.00  0.00    -0.000 C 
BRANCH  18  19
ATOM     19  C   UNL     1      -5.893  32.139   6.624  1.00  0.00    -0.000 C 
BRANCH  19  20
ATOM     20  C   UNL     1      -6.729  30.932   6.173  1.00  0.00    -0.000 C 
BRANCH  20  21
ATOM     21  C   UNL     1      -5.859  29.914   5.423  1.00  0.00    -0.000 C 
BRANCH  21  22
ATOM     22  C   UNL     1      -5.920  28.505   6.041  1.00  0.00    -0.000 C 
BRANCH  22  23
ATOM     23  C   UNL     1      -4.554  27.815   6.243  1.00  0.00    -0.000 C 
BRANCH  23  24
ATOM     24  C   UNL     1      -3.346  28.767   6.314  1.00  0.00    -0.000 C 
BRANCH  24  25
ATOM     25  C   UNL     1      -3.036  29.231   7.743  1.00  0.00    -0.003 C 
ATOM     26  C   UNL     1      -2.421  28.101   8.565  1.00  0.00     0.004 C 
ENDBRANCH  24  25
ENDBRANCH  23  24
ENDBRANCH  22  23
ENDBRANCH  21  22
ENDBRANCH  20  21
ENDBRANCH  19  20
ENDBRANCH  18  19
ENDBRANCH  17  18
ENDBRANCH  16  17
ENDBRANCH  15  16
ENDBRANCH   1  15
TORSDOF 22
ENDMDL
MODEL 3
REMARK VINA RESULT:    -5.094      2.927     10.064
REMARK INTER + INTRA:         -13.889
REMARK INTER:                 -11.649
REMARK INTRA:                  -2.240
REMARK UNBOUND:                -2.243
REMARK SMILES CCCCCCCCCCCCCCCCCCCCCCCC(=O)[O-]
REMARK SMILES IDX 13 1 14 2 15 3 16 4 17 5 18 6 19 7 20 8 21 9 22 10 23 11
REMARK SMILES IDX 24 12 25 13 26 14 12 15 11 16 10 17 9 18 8 19 7 20 6 21 5 22
REMARK SMILES IDX 4 23 3 24 2 25 1 26
REMARK H PARENT
REMARK Flexibility Score: inf
ROOT
ATOM      1  C   UNL     1      -8.290  33.948   5.001  1.00  0.00     0.000 C 
ENDROOT
BRANCH   1   2
ATOM      2  C   UNL     1      -9.399  34.685   5.761  1.00  0.00     0.000 C 
BRANCH   2   3
ATOM      3  C   UNL     1      -8.843  35.929   6.471  1.00  0.00     0.000 C 
BRANCH   3   4
ATOM      4  C   UNL     1      -8.648  37.120   5.519  1.00  0.00     0.000 C 
BRANCH   4   5
ATOM      5  C   UNL     1      -9.178  38.439   6.107  1.00  0.00     0.000 C 
BRANCH   5   6
ATOM      6  C   UNL     1     -10.546  38.838   5.530  1.00  0.00     0.000 C 
BRANCH   6   7
ATOM      7  C   UNL     1     -11.565  39.205   6.624  1.00  0.00     0.000 C 
BRANCH   7   8
ATOM      8  C   UNL     1     -11.009  38.992   8.042  1.00  0.00     0.000 C 
BRANCH   8   9
ATOM      9  C   UNL     1     -12.116  38.841   9.094  1.00  0.00     0.000 C 
BRANCH   9  10
ATOM     10  C   UNL     1     -11.782  37.718  10.089  1.00  0.00     0.006 C 
BRANCH  10  11
ATOM     11  C   UNL     1     -10.718  36.756   9.543  1.00  0.00     0.053 C 
BRANCH  11  12
ATOM     12  C   UNL     1     -11.312  35.444   9.132  1.00  0.00     0.041 C 
ATOM     13  O   UNL     1     -11.101  34.410   9.819  1.00  0.00    -0.550 OA
ATOM     14  O   UNL     1     -12.147  35.374   8.023  1.00  0.00    -0.550 OA
ENDBRANCH  11  12
ENDBRANCH  10  11
ENDBRANCH   9  10
ENDBRANCH   8   9
ENDBRANCH   7   8
ENDBRANCH   6   7
ENDBRANCH   5   6
ENDBRANCH   4   5
ENDBRANCH   3   4
ENDBRANCH   2   3
ENDBRANCH   1   2
BRANCH   1  15
ATOM     15  C   UNL     1      -7.041  33.780   5.875  1.00  0.00     0.000 C 
BRANCH  15  16
ATOM     16  C   UNL     1      -6.758  32.298   6.150  1.00  0.00     0.000 C 
BRANCH  16  17
ATOM     17  C   UNL     1      -7.728  31.399   5.368  1.00  0.00     0.000 C 
BRANCH  17  18
ATOM     18  C   UNL     1      -8.408  30.336   6.250  1.00  0.00    -0.000 C 
BRANCH  18  19
ATOM     19  C   UNL     1      -7.992  28.882   5.959  1.00  0.00    -0.000 C 
BRANCH  19  20
ATOM     20  C   UNL     1      -7.317  28.712   4.590  1.00  0.00    -0.000 C 
BRANCH  20  21
ATOM     21  C   UNL     1      -6.192  27.669   4.661  1.00  0.00    -0.000 C 
BRANCH  21  22
ATOM     22  C   UNL     1      -4.788  28.301   4.659  1.00  0.00    -0.000 C 
BRANCH  22  23
ATOM     23  C   UNL     1      -4.465  29.193   5.876  1.00  0.00    -0.000 C 
BRANCH  23  24
ATOM     24  C   UNL     1      -3.176  28.824   6.631  1.00  0.00    -0.000 C 
BRANCH  24  25
ATOM     25  C   UNL     1      -3.420  27.840   7.782  1.00  0.00    -0.003 C 
ATOM     26  C   UNL     1      -2.194  27.737   8.686  1.00  0.00     0.004 C 
ENDBRANCH  24  25
ENDBRANCH  23  24
ENDBRANCH  22  23
ENDBRANCH  21  22
ENDBRANCH  20  21
ENDBRANCH  19  20
ENDBRANCH  18  19
ENDBRANCH  17  18
ENDBRANCH  16  17
ENDBRANCH  15  16
ENDBRANCH   1  15
TORSDOF 22
ENDMDL
MODEL 4
REMARK VINA RESULT:    -4.991      2.728      9.582
REMARK INTER + INTRA:         -13.652
REMARK INTER:                 -10.546
REMARK INTRA:                  -3.106
REMARK UNBOUND:                -2.243
REMARK SMILES CCCCCCCCCCCCCCCCCCCCCCCC(=O)[O-]
REMARK SMILES IDX 13 1 14 2 15 3 16 4 17 5 18 6 19 7 20 8 21 9 22 10 23 11
REMARK SMILES IDX 24 12 25 13 26 14 12 15 11 16 10 17 9 18 8 19 7 20 6 21 5 22
REMARK SMILES IDX 4 23 3 24 2 25 1 26
REMARK H PARENT
REMARK Flexibility Score: inf
ROOT
ATOM      1  C   UNL     1      -8.898  34.580   6.392  1.00  0.00     0.000 C 
ENDROOT
BRANCH   1   2
ATOM      2  C   UNL     1     -10.126  35.230   5.743  1.00  0.00     0.000 C 
BRANCH   2   3
ATOM      3  C   UNL     1      -9.736  36.519   5.003  1.00  0.00     0.000 C 
BRANCH   3   4
ATOM      4  C   UNL     1      -8.639  37.314   5.729  1.00  0.00     0.000 C 
BRANCH   4   5
ATOM      5  C   UNL     1      -9.170  38.613   6.358  1.00  0.00     0.000 C 
BRANCH   5   6
ATOM      6  C   UNL     1     -10.476  39.096   5.706  1.00  0.00     0.000 C 
BRANCH   6   7
ATOM      7  C   UNL     1     -11.606  39.305   6.730  1.00  0.00     0.000 C 
BRANCH   7   8
ATOM      8  C   UNL     1     -11.261  38.730   8.114  1.00  0.00     0.000 C 
BRANCH   8   9
ATOM      9  C   UNL     1     -11.876  37.343   8.348  1.00  0.00     0.000 C 
BRANCH   9  10
ATOM     10  C   UNL     1     -10.847  36.380   8.962  1.00  0.00     0.006 C 
BRANCH  10  11
ATOM     11  C   UNL     1     -11.510  35.271   9.789  1.00  0.00     0.053 C 
BRANCH  11  12
ATOM     12  C   UNL     1     -11.489  33.955   9.076  1.00  0.00     0.041 C 
ATOM     13  O   UNL     1     -12.243  33.759   8.086  1.00  0.00    -0.550 OA
ATOM     14  O   UNL     1     -10.595  32.965   9.465  1.00  0.00    -0.550 OA
ENDBRANCH  11  12
ENDBRANCH  10  11
ENDBRANCH   9  10
ENDBRANCH   8   9
ENDBRANCH   7   8
ENDBRANCH   6   7
ENDBRANCH   5   6
ENDBRANCH   4   5
ENDBRANCH   3   4
ENDBRANCH   2   3
ENDBRANCH   1   2
BRANCH   1  15
ATOM     15  C   UNL     1      -8.954  33.052   6.268  1.00  0.00     0.000 C 
BRANCH  15  16
ATOM     16  C   UNL     1      -7.790  32.526   5.419  1.00  0.00     0.000 C 
BRANCH  16  17
ATOM     17  C   UNL     1      -6.439  32.911   6.040  1.00  0.00     0.000 C 
BRANCH  17  18
ATOM     18  C   UNL     1      -5.837  31.795   6.913  1.00  0.00    -0.000 C 
BRANCH  18  19
ATOM     19  C   UNL     1      -4.582  31.116   6.334  1.00  0.00    -0.000 C 
BRANCH  19  20
ATOM     20  C   UNL     1      -3.695  30.474   7.411  1.00  0.00    -0.000 C 
BRANCH  20  21
ATOM     21  C   UNL     1      -3.413  29.001   7.080  1.00  0.00    -0.000 C 
BRANCH  21  22
ATOM     22  C   UNL     1      -3.778  28.633   5.630  1.00  0.00    -0.000 C 
BRANCH  22  23
ATOM     23  C   UNL     1      -4.990  27.691   5.476  1.00  0.00    -0.000 C 
BRANCH  23  24
ATOM     24  C   UNL     1      -5.871  27.958   4.242  1.00  0.00    -0.000 C 
BRANCH  24  25
ATOM     25  C   UNL     1      -7.040  28.907   4.539  1.00  0.00    -0.003 C 
ATOM     26  C   UNL     1      -7.566  28.702   5.957  1.00  0.00     0.004 C 
ENDBRANCH  24  25
ENDBRANCH  23  24
ENDBRANCH  22  23
ENDBRANCH  21  22
ENDBRANCH  20  21
ENDBRANCH  19  20
ENDBRANCH  18  19
ENDBRANCH  17  18
ENDBRANCH  16  17
ENDBRANCH  15  16
ENDBRANCH   1  15
TORSDOF 22
ENDMDL
MODEL 5
REMARK VINA RESULT:    -4.978      1.266      2.011
REMARK INTER + INTRA:         -13.622
REMARK INTER:                 -11.472
REMARK INTRA:                  -2.150
REMARK UNBOUND:                -2.243
REMARK SMILES CCCCCCCCCCCCCCCCCCCCCCCC(=O)[O-]
REMARK SMILES IDX 13 1 14 2 15 3 16 4 17 5 18 6 19 7 20 8 21 9 22 10 23 11
REMARK SMILES IDX 24 12 25 13 26 14 12 15 11 16 10 17 9 18 8 19 7 20 6 21 5 22
REMARK SMILES IDX 4 23 3 24 2 25 1 26
REMARK H PARENT
REMARK Flexibility Score: inf
ROOT
ATOM      1  C   UNL     1      -8.506  37.261   6.294  1.00  0.00     0.000 C 
ENDROOT
BRANCH   1   2
ATOM      2  C   UNL     1      -9.333  36.127   5.677  1.00  0.00     0.000 C 
BRANCH   2   3
ATOM      3  C   UNL     1      -8.700  34.760   5.979  1.00  0.00     0.000 C 
BRANCH   3   4
ATOM      4  C   UNL     1      -7.535  34.422   5.034  1.00  0.00     0.000 C 
BRANCH   4   5
ATOM      5  C   UNL     1      -6.391  33.682   5.749  1.00  0.00     0.000 C 
BRANCH   5   6
ATOM      6  C   UNL     1      -6.768  32.241   6.133  1.00  0.00     0.000 C 
BRANCH   6   7
ATOM      7  C   UNL     1      -5.648  31.526   6.910  1.00  0.00     0.000 C 
BRANCH   7   8
ATOM      8  C   UNL     1      -5.060  30.335   6.133  1.00  0.00     0.000 C 
BRANCH   8   9
ATOM      9  C   UNL     1      -3.767  29.799   6.764  1.00  0.00     0.000 C 
BRANCH   9  10
ATOM     10  C   UNL     1      -3.613  28.291   6.505  1.00  0.00     0.006 C 
BRANCH  10  11
ATOM     11  C   UNL     1      -3.961  27.451   7.740  1.00  0.00     0.053 C 
BRANCH  11  12
ATOM     12  C   UNL     1      -2.830  27.407   8.722  1.00  0.00     0.041 C 
ATOM     13  O   UNL     1      -2.993  26.876   9.852  1.00  0.00    -0.550 OA
ATOM     14  O   UNL     1      -1.580  27.899   8.367  1.00  0.00    -0.550 OA
ENDBRANCH  11  12
ENDBRANCH  10  11
ENDBRANCH   9  10
ENDBRANCH   8   9
ENDBRANCH   7   8
ENDBRANCH   6   7
ENDBRANCH   5   6
ENDBRANCH   4   5
ENDBRANCH   3   4
ENDBRANCH   2   3
ENDBRANCH   1   2
BRANCH   1  15
ATOM     15  C   UNL     1      -9.216  38.611   6.131  1.00  0.00     0.000 C 
BRANCH  15  16
ATOM     16  C   UNL     1     -10.670  38.417   5.683  1.00  0.00     0.000 C 
BRANCH  16  17
ATOM     17  C   UNL     1     -11.507  39.672   5.975  1.00  0.00     0.000 C 
BRANCH  17  18
ATOM     18  C   UNL     1     -12.410  39.519   7.212  1.00  0.00    -0.000 C 
BRANCH  18  19
ATOM     19  C   UNL     1     -11.997  40.366   8.431  1.00  0.00    -0.000 C 
BRANCH  19  20
ATOM     20  C   UNL     1     -12.561  39.828   9.755  1.00  0.00    -0.000 C 
BRANCH  20  21
ATOM     21  C   UNL     1     -12.790  38.312   9.676  1.00  0.00    -0.000 C 
BRANCH  21  22
ATOM     22  C   UNL     1     -11.605  37.498  10.228  1.00  0.00    -0.000 C 
BRANCH  22  23
ATOM     23  C   UNL     1     -10.775  36.743   9.170  1.00  0.00    -0.000 C 
BRANCH  23  24
ATOM     24  C   UNL     1     -10.932  35.212   9.186  1.00  0.00    -0.000 C 
BRANCH  24  25
ATOM     25  C   UNL     1     -11.858  34.696   8.077  1.00  0.00    -0.003 C 
ATOM     26  C   UNL     1     -12.177  33.216   8.273  1.00  0.00     0.004 C 
ENDBRANCH  24  25
ENDBRANCH  23  24
ENDBRANCH  22  23
ENDBRANCH  21  22
ENDBRANCH  20  21
ENDBRANCH  19  20
ENDBRANCH  18  19
ENDBRANCH  17  18
ENDBRANCH  16  17
ENDBRANCH  15  16
ENDBRANCH   1  15
TORSDOF 22
ENDMDL
MODEL 6
REMARK VINA RESULT:    -4.962      1.827      2.569
REMARK INTER + INTRA:         -13.586
REMARK INTER:                 -11.112
REMARK INTRA:                  -2.474
REMARK UNBOUND:                -2.243
REMARK SMILES CCCCCCCCCCCCCCCCCCCCCCCC(=O)[O-]
REMARK SMILES IDX 13 1 14 2 15 3 16 4 17 5 18 6 19 7 20 8 21 9 22 10 23 11
REMARK SMILES IDX 24 12 25 13 26 14 12 15 11 16 10 17 9 18 8 19 7 20 6 21 5 22
REMARK SMILES IDX 4 23 3 24 2 25 1 26
REMARK H PARENT
REMARK Flexibility Score: inf
ROOT
ATOM      1  C   UNL     1      -9.190  36.386   5.717  1.00  0.00     0.000 C 
ENDROOT
BRANCH   1   2
ATOM      2  C   UNL     1      -9.228  35.358   6.854  1.00  0.00     0.000 C 
BRANCH   2   3
ATOM      3  C   UNL     1      -9.316  33.928   6.297  1.00  0.00     0.000 C 
BRANCH   3   4
ATOM      4  C   UNL     1      -8.289  33.659   5.186  1.00  0.00     0.000 C 
BRANCH   4   5
ATOM      5  C   UNL     1      -6.882  33.373   5.738  1.00  0.00     0.000 C 
BRANCH   5   6
ATOM      6  C   UNL     1      -6.811  32.049   6.518  1.00  0.00     0.000 C 
BRANCH   6   7
ATOM      7  C   UNL     1      -5.467  31.864   7.245  1.00  0.00     0.000 C 
BRANCH   7   8
ATOM      8  C   UNL     1      -4.469  31.020   6.433  1.00  0.00     0.000 C 
BRANCH   8   9
ATOM      9  C   UNL     1      -3.653  30.061   7.312  1.00  0.00     0.000 C 
BRANCH   9  10
ATOM     10  C   UNL     1      -3.249  28.803   6.526  1.00  0.00     0.006 C 
BRANCH  10  11
ATOM     11  C   UNL     1      -4.346  27.731   6.542  1.00  0.00     0.053 C 
BRANCH  11  12
ATOM     12  C   UNL     1      -5.165  27.753   5.288  1.00  0.00     0.041 C 
ATOM     13  O   UNL     1      -6.413  27.590   5.344  1.00  0.00    -0.550 OA
ATOM     14  O   UNL     1      -4.560  28.012   4.065  1.00  0.00    -0.550 OA
ENDBRANCH  11  12
ENDBRANCH  10  11
ENDBRANCH   9  10
ENDBRANCH   8   9
ENDBRANCH   7   8
ENDBRANCH   6   7
ENDBRANCH   5   6
ENDBRANCH   4   5
ENDBRANCH   3   4
ENDBRANCH   2   3
ENDBRANCH   1   2
BRANCH   1  15
ATOM     15  C   UNL     1      -8.302  37.581   6.085  1.00  0.00     0.000 C 
BRANCH  15  16
ATOM     16  C   UNL     1      -9.117  38.880   6.128  1.00  0.00     0.000 C 
BRANCH  16  17
ATOM     17  C   UNL     1     -10.512  38.673   5.520  1.00  0.00     0.000 C 
BRANCH  17  18
ATOM     18  C   UNL     1     -11.566  39.645   6.083  1.00  0.00    -0.000 C 
BRANCH  18  19
ATOM     19  C   UNL     1     -12.171  39.238   7.439  1.00  0.00    -0.000 C 
BRANCH  19  20
ATOM     20  C   UNL     1     -12.060  37.732   7.720  1.00  0.00    -0.000 C 
BRANCH  20  21
ATOM     21  C   UNL     1     -11.290  37.475   9.023  1.00  0.00    -0.000 C 
BRANCH  21  22
ATOM     22  C   UNL     1     -11.673  36.141   9.691  1.00  0.00    -0.000 C 
BRANCH  22  23
ATOM     23  C   UNL     1     -12.375  35.122   8.770  1.00  0.00    -0.000 C 
BRANCH  23  24
ATOM     24  C   UNL     1     -12.308  33.659   9.245  1.00  0.00    -0.000 C 
BRANCH  24  25
ATOM     25  C   UNL     1     -10.880  33.203   9.568  1.00  0.00    -0.003 C 
ATOM     26  C   UNL     1     -10.747  32.815  11.039  1.00  0.00     0.004 C 
ENDBRANCH  24  25
ENDBRANCH  23  24
ENDBRANCH  22  23
ENDBRANCH  21  22
ENDBRANCH  20  21
ENDBRANCH  19  20
ENDBRANCH  18  19
ENDBRANCH  17  18
ENDBRANCH  16  17
ENDBRANCH  15  16
ENDBRANCH   1  15
TORSDOF 22
ENDMDL
MODEL 7
REMARK VINA RESULT:    -4.956      1.297      2.956
REMARK INTER + INTRA:         -13.572
REMARK INTER:                 -10.854
REMARK INTRA:                  -2.718
REMARK UNBOUND:                -2.243
REMARK SMILES CCCCCCCCCCCCCCCCCCCCCCCC(=O)[O-]
REMARK SMILES IDX 13 1 14 2 15 3 16 4 17 5 18 6 19 7 20 8 21 9 22 10 23 11
REMARK SMILES IDX 24 12 25 13 26 14 12 15 11 16 10 17 9 18 8 19 7 20 6 21 5 22
REMARK SMILES IDX 4 23 3 24 2 25 1 26
REMARK H PARENT
REMARK Flexibility Score: inf
ROOT
ATOM      1  C   UNL     1      -8.540  33.052   6.422  1.00  0.00     0.000 C 
ENDROOT
BRANCH   1   2
ATOM      2  C   UNL     1      -7.134  32.509   6.139  1.00  0.00     0.000 C 
BRANCH   2   3
ATOM      3  C   UNL     1      -7.089  30.984   6.320  1.00  0.00     0.000 C 
BRANCH   3   4
ATOM      4  C   UNL     1      -8.428  30.306   5.989  1.00  0.00     0.000 C 
BRANCH   4   5
ATOM      5  C   UNL     1      -8.521  28.876   6.548  1.00  0.00     0.000 C 
BRANCH   5   6
ATOM      6  C   UNL     1      -8.760  27.825   5.451  1.00  0.00     0.000 C 
BRANCH   6   7
ATOM      7  C   UNL     1      -8.114  28.215   4.109  1.00  0.00     0.000 C 
BRANCH   7   8
ATOM      8  C   UNL     1      -6.793  27.470   3.853  1.00  0.00     0.000 C 
BRANCH   8   9
ATOM      9  C   UNL     1      -5.560  28.321   4.189  1.00  0.00     0.000 C 
BRANCH   9  10
ATOM     10  C   UNL     1      -4.829  27.767   5.424  1.00  0.00     0.006 C 
BRANCH  10  11
ATOM     11  C   UNL     1      -4.081  28.861   6.195  1.00  0.00     0.053 C 
BRANCH  11  12
ATOM     12  C   UNL     1      -3.332  28.305   7.367  1.00  0.00     0.041 C 
ATOM     13  O   UNL     1      -3.359  27.069   7.606  1.00  0.00    -0.550 OA
ATOM     14  O   UNL     1      -2.557  29.142   8.159  1.00  0.00    -0.550 OA
ENDBRANCH  11  12
ENDBRANCH  10  11
ENDBRANCH   9  10
ENDBRANCH   8   9
ENDBRANCH   7   8
ENDBRANCH   6   7
ENDBRANCH   5   6
ENDBRANCH   4   5
ENDBRANCH   3   4
ENDBRANCH   2   3
ENDBRANCH   1   2
BRANCH   1  15
ATOM     15  C   UNL     1      -8.905  34.171   5.439  1.00  0.00     0.000 C 
BRANCH  15  16
ATOM     16  C   UNL     1      -8.089  35.439   5.720  1.00  0.00     0.000 C 
BRANCH  16  17
ATOM     17  C   UNL     1      -8.865  36.696   5.301  1.00  0.00     0.000 C 
BRANCH  17  18
ATOM     18  C   UNL     1      -8.308  37.986   5.930  1.00  0.00    -0.000 C 
BRANCH  18  19
ATOM     19  C   UNL     1      -9.361  39.060   6.260  1.00  0.00    -0.000 C 
BRANCH  19  20
ATOM     20  C   UNL     1     -10.732  38.772   5.630  1.00  0.00    -0.000 C 
BRANCH  20  21
ATOM     21  C   UNL     1     -11.762  39.828   6.055  1.00  0.00    -0.000 C 
BRANCH  21  22
ATOM     22  C   UNL     1     -12.389  39.533   7.430  1.00  0.00    -0.000 C 
BRANCH  22  23
ATOM     23  C   UNL     1     -12.281  38.068   7.902  1.00  0.00    -0.000 C 
BRANCH  23  24
ATOM     24  C   UNL     1     -11.390  37.844   9.137  1.00  0.00    -0.000 C 
BRANCH  24  25
ATOM     25  C   UNL     1     -10.430  36.659   8.971  1.00  0.00    -0.003 C 
ATOM     26  C   UNL     1     -11.040  35.578   8.082  1.00  0.00     0.004 C 
ENDBRANCH  24  25
ENDBRANCH  23  24
ENDBRANCH  22  23
ENDBRANCH  21  22
ENDBRANCH  20  21
ENDBRANCH  19  20
ENDBRANCH  18  19
ENDBRANCH  17  18
ENDBRANCH  16  17
ENDBRANCH  15  16
ENDBRANCH   1  15
TORSDOF 22
ENDMDL
MODEL 8
REMARK VINA RESULT:    -4.921      2.944      8.915
REMARK INTER + INTRA:         -13.494
REMARK INTER:                 -10.809
REMARK INTRA:                  -2.685
REMARK UNBOUND:                -2.243
REMARK SMILES CCCCCCCCCCCCCCCCCCCCCCCC(=O)[O-]
REMARK SMILES IDX 13 1 14 2 15 3 16 4 17 5 18 6 19 7 20 8 21 9 22 10 23 11
REMARK SMILES IDX 24 12 25 13 26 14 12 15 11 16 10 17 9 18 8 19 7 20 6 21 5 22
REMARK SMILES IDX 4 23 3 24 2 25 1 26
REMARK H PARENT
REMARK Flexibility Score: inf
ROOT
ATOM      1  C   UNL     1      -8.782  37.015   6.145  1.00  0.00     0.000 C 
ENDROOT
BRANCH   1   2
ATOM      2  C   UNL     1      -9.189  38.494   6.128  1.00  0.00     0.000 C 
BRANCH   2   3
ATOM      3  C   UNL     1     -10.532  38.684   5.406  1.00  0.00     0.000 C 
BRANCH   3   4
ATOM      4  C   UNL     1     -11.474  39.646   6.147  1.00  0.00     0.000 C 
BRANCH   4   5
ATOM      5  C   UNL     1     -11.672  39.257   7.623  1.00  0.00     0.000 C 
BRANCH   5   6
ATOM      6  C   UNL     1     -12.923  38.391   7.844  1.00  0.00     0.000 C 
BRANCH   6   7
ATOM      7  C   UNL     1     -12.757  37.401   9.011  1.00  0.00     0.000 C 
BRANCH   7   8
ATOM      8  C   UNL     1     -11.328  37.395   9.580  1.00  0.00     0.000 C 
BRANCH   8   9
ATOM      9  C   UNL     1     -10.561  36.110   9.238  1.00  0.00     0.000 C 
BRANCH   9  10
ATOM     10  C   UNL     1     -11.527  34.978   8.853  1.00  0.00     0.006 C 
BRANCH  10  11
ATOM     11  C   UNL     1     -10.967  33.593   9.199  1.00  0.00     0.053 C 
BRANCH  11  12
ATOM     12  C   UNL     1     -11.290  33.197  10.606  1.00  0.00     0.041 C 
ATOM     13  O   UNL     1     -10.370  32.847  11.393  1.00  0.00    -0.550 OA
ATOM     14  O   UNL     1     -12.598  33.269  11.068  1.00  0.00    -0.550 OA
ENDBRANCH  11  12
ENDBRANCH  10  11
ENDBRANCH   9  10
ENDBRANCH   8   9
ENDBRANCH   7   8
ENDBRANCH   6   7
ENDBRANCH   5   6
ENDBRANCH   4   5
ENDBRANCH   3   4
ENDBRANCH   2   3
ENDBRANCH   1   2
BRANCH   1  15
ATOM     15  C   UNL     1      -9.934  36.122   5.669  1.00  0.00     0.000 C 
BRANCH  15  16
ATOM     16  C   UNL     1      -9.506  34.650   5.624  1.00  0.00     0.000 C 
BRANCH  16  17
ATOM     17  C   UNL     1      -7.985  34.525   5.458  1.00  0.00     0.000 C 
BRANCH  17  18
ATOM     18  C   UNL     1      -7.461  33.105   5.745  1.00  0.00    -0.000 C 
BRANCH  18  19
ATOM     19  C   UNL     1      -5.951  33.011   6.031  1.00  0.00    -0.000 C 
BRANCH  19  20
ATOM     20  C   UNL     1      -5.538  31.664   6.642  1.00  0.00    -0.000 C 
BRANCH  20  21
ATOM     21  C   UNL     1      -6.306  30.508   5.985  1.00  0.00    -0.000 C 
BRANCH  21  22
ATOM     22  C   UNL     1      -5.377  29.456   5.350  1.00  0.00    -0.000 C 
BRANCH  22  23
ATOM     23  C   UNL     1      -6.091  28.329   4.576  1.00  0.00    -0.000 C 
BRANCH  23  24
ATOM     24  C   UNL     1      -7.050  28.804   3.469  1.00  0.00    -0.000 C 
BRANCH  24  25
ATOM     25  C   UNL     1      -8.435  28.150   3.561  1.00  0.00    -0.003 C 
ATOM     26  C   UNL     1      -9.194  28.643   4.791  1.00  0.00     0.004 C 
ENDBRANCH  24  25
ENDBRANCH  23  24
ENDBRANCH  22  23
ENDBRANCH  21  22
ENDBRANCH  20  21
ENDBRANCH  19  20
ENDBRANCH  18  19
ENDBRANCH  17  18
ENDBRANCH  16  17
ENDBRANCH  15  16
ENDBRANCH   1  15
TORSDOF 22
ENDMDL
MODEL 9
REMARK VINA RESULT:    -4.907     13.846     17.525
REMARK INTER + INTRA:         -13.461
REMARK INTER:                  -9.135
REMARK INTRA:                  -4.326
REMARK UNBOUND:                -2.243
REMARK SMILES CCCCCCCCCCCCCCCCCCCCCCCC(=O)[O-]
REMARK SMILES IDX 13 1 14 2 15 3 16 4 17 5 18 6 19 7 20 8 21 9 22 10 23 11
REMARK SMILES IDX 24 12 25 13 26 14 12 15 11 16 10 17 9 18 8 19 7 20 6 21 5 22
REMARK SMILES IDX 4 23 3 24 2 25 1 26
REMARK H PARENT
REMARK Flexibility Score: inf
ROOT
ATOM      1  C   UNL     1      -0.161  41.813   0.539  1.00  0.00     0.000 C 
ENDROOT
BRANCH   1   2
ATOM      2  C   UNL     1      -0.349  42.380  -0.873  1.00  0.00     0.000 C 
BRANCH   2   3
ATOM      3  C   UNL     1       0.992  42.442  -1.622  1.00  0.00     0.000 C 
BRANCH   3   4
ATOM      4  C   UNL     1       1.453  43.883  -1.897  1.00  0.00     0.000 C 
BRANCH   4   5
ATOM      5  C   UNL     1       0.312  44.905  -1.756  1.00  0.00     0.000 C 
BRANCH   5   6
ATOM      6  C   UNL     1       0.602  45.972  -0.688  1.00  0.00     0.000 C 
BRANCH   6   7
ATOM      7  C   UNL     1       1.980  45.788  -0.027  1.00  0.00     0.000 C 
BRANCH   7   8
ATOM      8  C   UNL     1       2.177  46.706   1.190  1.00  0.00     0.000 C 
BRANCH   8   9
ATOM      9  C   UNL     1       2.675  45.948   2.429  1.00  0.00     0.000 C 
BRANCH   9  10
ATOM     10  C   UNL     1       1.881  46.354   3.680  1.00  0.00     0.006 C 
BRANCH  10  11
ATOM     11  C   UNL     1       0.385  46.045   3.545  1.00  0.00     0.053 C 
BRANCH  11  12
ATOM     12  C   UNL     1      -0.185  45.483   4.810  1.00  0.00     0.041 C 
ATOM     13  O   UNL     1       0.540  44.805   5.585  1.00  0.00    -0.550 OA
ATOM     14  O   UNL     1      -1.501  45.755   5.164  1.00  0.00    -0.550 OA
ENDBRANCH  11  12
ENDBRANCH  10  11
ENDBRANCH   9  10
ENDBRANCH   8   9
ENDBRANCH   7   8
ENDBRANCH   6   7
ENDBRANCH   5   6
ENDBRANCH   4   5
ENDBRANCH   3   4
ENDBRANCH   2   3
ENDBRANCH   1   2
BRANCH   1  15
ATOM     15  C   UNL     1      -0.007  42.941   1.568  1.00  0.00     0.000 C 
BRANCH  15  16
ATOM     16  C   UNL     1       1.094  42.612   2.584  1.00  0.00     0.000 C 
BRANCH  16  17
ATOM     17  C   UNL     1       2.431  42.341   1.877  1.00  0.00     0.000 C 
BRANCH  17  18
ATOM     18  C   UNL     1       3.119  41.051   2.360  1.00  0.00    -0.000 C 
BRANCH  18  19
ATOM     19  C   UNL     1       4.656  41.113   2.418  1.00  0.00    -0.000 C 
BRANCH  19  20
ATOM     20  C   UNL     1       5.334  39.987   1.624  1.00  0.00    -0.000 C 
BRANCH  20  21
ATOM     21  C   UNL     1       6.750  40.396   1.194  1.00  0.00    -0.000 C 
BRANCH  21  22
ATOM     22  C   UNL     1       6.769  41.675   0.337  1.00  0.00    -0.000 C 
BRANCH  22  23
ATOM     23  C   UNL     1       5.875  41.637  -0.920  1.00  0.00    -0.000 C 
BRANCH  23  24
ATOM     24  C   UNL     1       4.778  42.716  -0.974  1.00  0.00    -0.000 C 
BRANCH  24  25
ATOM     25  C   UNL     1       5.096  43.934  -0.097  1.00  0.00    -0.003 C 
ATOM     26  C   UNL     1       5.496  45.135  -0.952  1.00  0.00     0.004 C 
ENDBRANCH  24  25
ENDBRANCH  23  24
ENDBRANCH  22  23
ENDBRANCH  21  22
ENDBRANCH  20  21
ENDBRANCH  19  20
ENDBRANCH  18  19
ENDBRANCH  17  18
ENDBRANCH  16  17
ENDBRANCH  15  16
ENDBRANCH   1  15
TORSDOF 22
ENDMDL
