MODEL 1
REMARK VINA RESULT:    -5.820      0.000      0.000
REMARK INTER + INTRA:          -7.114
REMARK INTER:                  -6.840
REMARK INTRA:                  -0.273
REMARK UNBOUND:                -0.273
REMARK SMILES O=c1cc(-c2ccc(O)c(O)c2)oc2cc(O)cc(O)c12
REMARK SMILES IDX 4 1 3 2 2 3 1 4 21 5 19 6 18 7 16 8 15 9 14 10 13 11 5 12
REMARK SMILES IDX 6 13 7 14 8 15 12 16 10 17 9 18 11 20 20 22 17 24
REMARK H PARENT 9 19 11 21 20 23 17 25
REMARK Flexibility Score: inf
ROOT
ATOM      1  C   UNL     1       5.038  -3.412  26.567  1.00  0.00     0.138 A 
ATOM      2  C   UNL     1       5.158  -3.622  25.187  1.00  0.00     0.100 A 
ATOM      3  C   UNL     1       6.187  -4.425  24.697  1.00  0.00     0.197 A 
ATOM      4  O   UNL     1       6.234  -4.639  23.458  1.00  0.00    -0.289 OA
ATOM      5  C   UNL     1       7.125  -4.992  25.593  1.00  0.00     0.107 A 
ATOM      6  C   UNL     1       8.237  -5.800  25.206  1.00  0.00     0.134 A 
ATOM      7  C   UNL     1       9.039  -6.387  26.191  1.00  0.00     0.093 A 
ATOM      8  C   UNL     1       8.808  -6.151  27.545  1.00  0.00     0.123 A 
ATOM      9  C   UNL     1       7.755  -5.323  27.934  1.00  0.00     0.094 A 
ATOM     10  C   UNL     1       6.915  -4.750  26.977  1.00  0.00     0.146 A 
ATOM     11  O   UNL     1       5.912  -3.982  27.390  1.00  0.00    -0.456 OA
ENDROOT
BRANCH   1  12
ATOM     12  C   UNL     1       3.964  -2.564  27.144  1.00  0.00     0.021 A 
ATOM     13  C   UNL     1       2.606  -2.929  27.058  1.00  0.00     0.016 A 
ATOM     14  C   UNL     1       1.617  -2.117  27.619  1.00  0.00     0.051 A 
ATOM     15  C   UNL     1       1.966  -0.933  28.280  1.00  0.00     0.157 A 
ATOM     16  C   UNL     1       4.305  -1.381  27.821  1.00  0.00     0.062 A 
ATOM     17  C   UNL     1       3.312  -0.565  28.383  1.00  0.00     0.158 A 
BRANCH  15  18
ATOM     18  O   UNL     1       0.982  -0.120  28.839  1.00  0.00    -0.504 OA
ATOM     19  H   UNL     1       0.697   0.747  28.398  1.00  0.00     0.293 HD
ENDBRANCH  15  18
BRANCH  17  20
ATOM     20  O   UNL     1       3.657   0.611  29.045  1.00  0.00    -0.504 OA
ATOM     21  H   UNL     1       2.956   1.289  29.324  1.00  0.00     0.293 HD
ENDBRANCH  17  20
ENDBRANCH   1  12
BRANCH   6  22
ATOM     22  O   UNL     1       8.608  -6.037  23.878  1.00  0.00    -0.507 OA
ATOM     23  H   UNL     1       9.555  -6.039  23.532  1.00  0.00     0.293 HD
ENDBRANCH   6  22
BRANCH   8  24
ATOM     24  O   UNL     1       9.638  -6.740  28.497  1.00  0.00    -0.508 OA
ATOM     25  H   UNL     1       9.323  -7.515  29.068  1.00  0.00     0.293 HD
ENDBRANCH   8  24
TORSDOF 5
ENDMDL
MODEL 2
REMARK VINA RESULT:    -5.522      0.692      1.528
REMARK INTER + INTRA:          -6.763
REMARK INTER:                  -6.495
REMARK INTRA:                  -0.268
REMARK UNBOUND:                -0.273
REMARK SMILES O=c1cc(-c2ccc(O)c(O)c2)oc2cc(O)cc(O)c12
REMARK SMILES IDX 4 1 3 2 2 3 1 4 21 5 19 6 18 7 16 8 15 9 14 10 13 11 5 12
REMARK SMILES IDX 6 13 7 14 8 15 12 16 10 17 9 18 11 20 20 22 17 24
REMARK H PARENT 9 19 11 21 20 23 17 25
REMARK Flexibility Score: inf
ROOT
ATOM      1  C   UNL     1       5.032  -3.499  26.501  1.00  0.00     0.138 A 
ATOM      2  C   UNL     1       5.142  -3.716  25.121  1.00  0.00     0.100 A 
ATOM      3  C   UNL     1       6.178  -4.508  24.627  1.00  0.00     0.197 A 
ATOM      4  O   UNL     1       6.217  -4.729  23.389  1.00  0.00    -0.289 OA
ATOM      5  C   UNL     1       7.132  -5.057  25.518  1.00  0.00     0.107 A 
ATOM      6  C   UNL     1       8.250  -5.852  25.126  1.00  0.00     0.134 A 
ATOM      7  C   UNL     1       9.070  -6.422  26.107  1.00  0.00     0.093 A 
ATOM      8  C   UNL     1       8.848  -6.180  27.462  1.00  0.00     0.123 A 
ATOM      9  C   UNL     1       7.787  -5.364  27.855  1.00  0.00     0.094 A 
ATOM     10  C   UNL     1       6.931  -4.808  26.902  1.00  0.00     0.146 A 
ATOM     11  O   UNL     1       5.922  -4.052  27.320  1.00  0.00    -0.456 OA
ENDROOT
BRANCH   1  12
ATOM     12  C   UNL     1       3.952  -2.662  27.082  1.00  0.00     0.021 A 
ATOM     13  C   UNL     1       4.234  -1.560  27.913  1.00  0.00     0.016 A 
ATOM     14  C   UNL     1       3.198  -0.784  28.439  1.00  0.00     0.051 A 
ATOM     15  C   UNL     1       1.865  -1.088  28.137  1.00  0.00     0.157 A 
ATOM     16  C   UNL     1       2.611  -2.951  26.775  1.00  0.00     0.062 A 
ATOM     17  C   UNL     1       1.571  -2.172  27.302  1.00  0.00     0.158 A 
BRANCH  15  18
ATOM     18  O   UNL     1       0.829  -0.317  28.659  1.00  0.00    -0.504 OA
ATOM     19  H   UNL     1       0.530  -0.413  29.623  1.00  0.00     0.293 HD
ENDBRANCH  15  18
BRANCH  17  20
ATOM     20  O   UNL     1       0.244  -2.471  27.001  1.00  0.00    -0.504 OA
ATOM     21  H   UNL     1      -0.064  -2.618  26.046  1.00  0.00     0.293 HD
ENDBRANCH  17  20
ENDBRANCH   1  12
BRANCH   6  22
ATOM     22  O   UNL     1       8.613  -6.093  23.796  1.00  0.00    -0.507 OA
ATOM     23  H   UNL     1       8.259  -6.846  23.226  1.00  0.00     0.293 HD
ENDBRANCH   6  22
BRANCH   8  24
ATOM     24  O   UNL     1       9.693  -6.751  28.410  1.00  0.00    -0.508 OA
ATOM     25  H   UNL     1      10.370  -7.462  28.158  1.00  0.00     0.293 HD
ENDBRANCH   8  24
TORSDOF 5
ENDMDL
MODEL 3
REMARK VINA RESULT:    -5.459      3.275      8.774
REMARK INTER + INTRA:          -6.689
REMARK INTER:                  -6.418
REMARK INTRA:                  -0.271
REMARK UNBOUND:                -0.273
REMARK SMILES O=c1cc(-c2ccc(O)c(O)c2)oc2cc(O)cc(O)c12
REMARK SMILES IDX 4 1 3 2 2 3 1 4 21 5 19 6 18 7 16 8 15 9 14 10 13 11 5 12
REMARK SMILES IDX 6 13 7 14 8 15 12 16 10 17 9 18 11 20 20 22 17 24
REMARK H PARENT 9 19 11 21 20 23 17 25
REMARK Flexibility Score: inf
ROOT
ATOM      1  C   UNL     1       9.427  -7.259  24.812  1.00  0.00     0.138 A 
ATOM      2  C   UNL     1       9.884  -7.387  26.130  1.00  0.00     0.100 A 
ATOM      3  C   UNL     1       9.279  -6.645  27.146  1.00  0.00     0.197 A 
ATOM      4  O   UNL     1       9.676  -6.824  28.326  1.00  0.00    -0.289 OA
ATOM      5  C   UNL     1       8.234  -5.743  26.832  1.00  0.00     0.107 A 
ATOM      6  C   UNL     1       7.566  -4.910  27.779  1.00  0.00     0.134 A 
ATOM      7  C   UNL     1       6.479  -4.131  27.366  1.00  0.00     0.093 A 
ATOM      8  C   UNL     1       6.073  -4.108  26.032  1.00  0.00     0.123 A 
ATOM      9  C   UNL     1       6.750  -4.881  25.089  1.00  0.00     0.094 A 
ATOM     10  C   UNL     1       7.817  -5.695  25.476  1.00  0.00     0.146 A 
ATOM     11  O   UNL     1       8.423  -6.430  24.548  1.00  0.00    -0.456 OA
ENDROOT
BRANCH   1  12
ATOM     12  C   UNL     1      10.036  -8.021  23.692  1.00  0.00     0.021 A 
ATOM     13  C   UNL     1       9.250  -8.753  22.780  1.00  0.00     0.016 A 
ATOM     14  C   UNL     1       9.849  -9.453  21.730  1.00  0.00     0.051 A 
ATOM     15  C   UNL     1      11.239  -9.428  21.566  1.00  0.00     0.157 A 
ATOM     16  C   UNL     1      11.430  -7.992  23.511  1.00  0.00     0.062 A 
ATOM     17  C   UNL     1      12.031  -8.694  22.457  1.00  0.00     0.158 A 
BRANCH  15  18
ATOM     18  O   UNL     1      11.840 -10.124  20.520  1.00  0.00    -0.504 OA
ATOM     19  H   UNL     1      12.476  -9.668  19.876  1.00  0.00     0.293 HD
ENDBRANCH  15  18
BRANCH  17  20
ATOM     20  O   UNL     1      13.414  -8.668  22.290  1.00  0.00    -0.504 OA
ATOM     21  H   UNL     1      13.848  -8.930  21.412  1.00  0.00     0.293 HD
ENDBRANCH  17  20
ENDBRANCH   1  12
BRANCH   6  22
ATOM     22  O   UNL     1       7.939  -4.794  29.122  1.00  0.00    -0.507 OA
ATOM     23  H   UNL     1       8.110  -3.924  29.603  1.00  0.00     0.293 HD
ENDBRANCH   6  22
BRANCH   8  24
ATOM     24  O   UNL     1       4.997  -3.308  25.655  1.00  0.00    -0.508 OA
ATOM     25  H   UNL     1       5.020  -2.301  25.766  1.00  0.00     0.293 HD
ENDBRANCH   8  24
TORSDOF 5
ENDMDL
MODEL 4
REMARK VINA RESULT:    -5.436      1.489      6.959
REMARK INTER + INTRA:          -6.663
REMARK INTER:                  -6.386
REMARK INTRA:                  -0.277
REMARK UNBOUND:                -0.273
REMARK SMILES O=c1cc(-c2ccc(O)c(O)c2)oc2cc(O)cc(O)c12
REMARK SMILES IDX 4 1 3 2 2 3 1 4 21 5 19 6 18 7 16 8 15 9 14 10 13 11 5 12
REMARK SMILES IDX 6 13 7 14 8 15 12 16 10 17 9 18 11 20 20 22 17 24
REMARK H PARENT 9 19 11 21 20 23 17 25
REMARK Flexibility Score: inf
ROOT
ATOM      1  C   UNL     1       5.101  -4.167  26.154  1.00  0.00     0.138 A 
ATOM      2  C   UNL     1       3.842  -4.752  25.965  1.00  0.00     0.100 A 
ATOM      3  C   UNL     1       2.703  -4.119  26.465  1.00  0.00     0.197 A 
ATOM      4  O   UNL     1       1.583  -4.641  26.231  1.00  0.00    -0.289 OA
ATOM      5  C   UNL     1       2.833  -2.910  27.191  1.00  0.00     0.107 A 
ATOM      6  C   UNL     1       1.747  -2.193  27.778  1.00  0.00     0.134 A 
ATOM      7  C   UNL     1       1.987  -0.956  28.388  1.00  0.00     0.093 A 
ATOM      8  C   UNL     1       3.277  -0.438  28.486  1.00  0.00     0.123 A 
ATOM      9  C   UNL     1       4.353  -1.154  27.960  1.00  0.00     0.094 A 
ATOM     10  C   UNL     1       4.142  -2.374  27.314  1.00  0.00     0.146 A 
ATOM     11  O   UNL     1       5.192  -3.016  26.811  1.00  0.00    -0.456 OA
ENDROOT
BRANCH   1  12
ATOM     12  C   UNL     1       6.346  -4.799  25.646  1.00  0.00     0.021 A 
ATOM     13  C   UNL     1       6.563  -5.005  24.270  1.00  0.00     0.016 A 
ATOM     14  C   UNL     1       7.748  -5.593  23.819  1.00  0.00     0.051 A 
ATOM     15  C   UNL     1       8.737  -5.976  24.732  1.00  0.00     0.157 A 
ATOM     16  C   UNL     1       7.351  -5.175  26.554  1.00  0.00     0.062 A 
ATOM     17  C   UNL     1       8.540  -5.765  26.102  1.00  0.00     0.158 A 
BRANCH  15  18
ATOM     18  O   UNL     1       9.920  -6.563  24.287  1.00  0.00    -0.504 OA
ATOM     19  H   UNL     1      10.214  -6.496  23.319  1.00  0.00     0.293 HD
ENDBRANCH  15  18
BRANCH  17  20
ATOM     20  O   UNL     1       9.528  -6.143  27.008  1.00  0.00    -0.504 OA
ATOM     21  H   UNL     1      10.338  -6.679  26.717  1.00  0.00     0.293 HD
ENDBRANCH  17  20
ENDBRANCH   1  12
BRANCH   6  22
ATOM     22  O   UNL     1       0.427  -2.656  27.809  1.00  0.00    -0.507 OA
ATOM     23  H   UNL     1       0.022  -3.297  27.145  1.00  0.00     0.293 HD
ENDBRANCH   6  22
BRANCH   8  24
ATOM     24  O   UNL     1       3.480   0.789  29.114  1.00  0.00    -0.508 OA
ATOM     25  H   UNL     1       3.228   0.936  30.084  1.00  0.00     0.293 HD
ENDBRANCH   8  24
TORSDOF 5
ENDMDL
MODEL 5
REMARK VINA RESULT:    -5.394      2.038      4.335
REMARK INTER + INTRA:          -6.613
REMARK INTER:                  -6.295
REMARK INTRA:                  -0.318
REMARK UNBOUND:                -0.273
REMARK SMILES O=c1cc(-c2ccc(O)c(O)c2)oc2cc(O)cc(O)c12
REMARK SMILES IDX 4 1 3 2 2 3 1 4 21 5 19 6 18 7 16 8 15 9 14 10 13 11 5 12
REMARK SMILES IDX 6 13 7 14 8 15 12 16 10 17 9 18 11 20 20 22 17 24
REMARK H PARENT 9 19 11 21 20 23 17 25
REMARK Flexibility Score: inf
ROOT
ATOM      1  C   UNL     1       7.712  -5.436  27.014  1.00  0.00     0.138 A 
ATOM      2  C   UNL     1       8.233  -6.042  28.165  1.00  0.00     0.100 A 
ATOM      3  C   UNL     1       9.250  -6.989  28.047  1.00  0.00     0.197 A 
ATOM      4  O   UNL     1       9.735  -7.473  29.102  1.00  0.00    -0.289 OA
ATOM      5  C   UNL     1       9.722  -7.359  26.765  1.00  0.00     0.107 A 
ATOM      6  C   UNL     1      10.732  -8.338  26.519  1.00  0.00     0.134 A 
ATOM      7  C   UNL     1      11.187  -8.548  25.212  1.00  0.00     0.093 A 
ATOM      8  C   UNL     1      10.631  -7.858  24.136  1.00  0.00     0.123 A 
ATOM      9  C   UNL     1       9.609  -6.935  24.358  1.00  0.00     0.094 A 
ATOM     10  C   UNL     1       9.157  -6.678  25.654  1.00  0.00     0.146 A 
ATOM     11  O   UNL     1       8.195  -5.777  25.824  1.00  0.00    -0.456 OA
ENDROOT
BRANCH   1  12
ATOM     12  C   UNL     1       6.627  -4.424  27.081  1.00  0.00     0.021 A 
ATOM     13  C   UNL     1       6.111  -3.971  28.310  1.00  0.00     0.016 A 
ATOM     14  C   UNL     1       5.096  -3.011  28.343  1.00  0.00     0.051 A 
ATOM     15  C   UNL     1       4.586  -2.482  27.152  1.00  0.00     0.157 A 
ATOM     16  C   UNL     1       6.117  -3.877  25.890  1.00  0.00     0.062 A 
ATOM     17  C   UNL     1       5.098  -2.914  25.923  1.00  0.00     0.158 A 
BRANCH  15  18
ATOM     18  O   UNL     1       3.574  -1.524  27.180  1.00  0.00    -0.504 OA
ATOM     19  H   UNL     1       3.780  -0.533  27.125  1.00  0.00     0.293 HD
ENDBRANCH  15  18
BRANCH  17  20
ATOM     20  O   UNL     1       4.592  -2.383  24.739  1.00  0.00    -0.504 OA
ATOM     21  H   UNL     1       3.712  -1.880  24.716  1.00  0.00     0.293 HD
ENDBRANCH  17  20
ENDBRANCH   1  12
BRANCH   6  22
ATOM     22  O   UNL     1      11.301  -9.143  27.512  1.00  0.00    -0.507 OA
ATOM     23  H   UNL     1      12.218  -9.011  27.910  1.00  0.00     0.293 HD
ENDBRANCH   6  22
BRANCH   8  24
ATOM     24  O   UNL     1      11.098  -8.105  22.847  1.00  0.00    -0.508 OA
ATOM     25  H   UNL     1      12.059  -7.919  22.586  1.00  0.00     0.293 HD
ENDBRANCH   8  24
TORSDOF 5
ENDMDL
MODEL 6
REMARK VINA RESULT:    -5.370      1.721      7.077
REMARK INTER + INTRA:          -6.585
REMARK INTER:                  -6.293
REMARK INTRA:                  -0.292
REMARK UNBOUND:                -0.273
REMARK SMILES O=c1cc(-c2ccc(O)c(O)c2)oc2cc(O)cc(O)c12
REMARK SMILES IDX 4 1 3 2 2 3 1 4 21 5 19 6 18 7 16 8 15 9 14 10 13 11 5 12
REMARK SMILES IDX 6 13 7 14 8 15 12 16 10 17 9 18 11 20 20 22 17 24
REMARK H PARENT 9 19 11 21 20 23 17 25
REMARK Flexibility Score: inf
ROOT
ATOM      1  C   UNL     1       5.525  -4.584  25.851  1.00  0.00     0.138 A 
ATOM      2  C   UNL     1       4.358  -5.022  25.211  1.00  0.00     0.100 A 
ATOM      3  C   UNL     1       3.143  -4.394  25.483  1.00  0.00     0.197 A 
ATOM      4  O   UNL     1       2.124  -4.775  24.851  1.00  0.00    -0.289 OA
ATOM      5  C   UNL     1       3.091  -3.344  26.432  1.00  0.00     0.107 A 
ATOM      6  C   UNL     1       1.902  -2.653  26.816  1.00  0.00     0.134 A 
ATOM      7  C   UNL     1       1.990  -1.564  27.692  1.00  0.00     0.093 A 
ATOM      8  C   UNL     1       3.212  -1.178  28.242  1.00  0.00     0.123 A 
ATOM      9  C   UNL     1       4.372  -1.877  27.912  1.00  0.00     0.094 A 
ATOM     10  C   UNL     1       4.323  -2.947  27.014  1.00  0.00     0.146 A 
ATOM     11  O   UNL     1       5.454  -3.575  26.713  1.00  0.00    -0.456 OA
ENDROOT
BRANCH   1  12
ATOM     12  C   UNL     1       6.845  -5.218  25.601  1.00  0.00     0.021 A 
ATOM     13  C   UNL     1       7.936  -5.025  26.471  1.00  0.00     0.016 A 
ATOM     14  C   UNL     1       9.163  -5.641  26.216  1.00  0.00     0.051 A 
ATOM     15  C   UNL     1       9.321  -6.465  25.096  1.00  0.00     0.157 A 
ATOM     16  C   UNL     1       7.009  -6.058  24.486  1.00  0.00     0.062 A 
ATOM     17  C   UNL     1       8.241  -6.676  24.230  1.00  0.00     0.158 A 
BRANCH  15  18
ATOM     18  O   UNL     1      10.544  -7.082  24.838  1.00  0.00    -0.504 OA
ATOM     19  H   UNL     1      10.708  -8.053  25.076  1.00  0.00     0.293 HD
ENDBRANCH  15  18
BRANCH  17  20
ATOM     20  O   UNL     1       8.399  -7.500  23.118  1.00  0.00    -0.504 OA
ATOM     21  H   UNL     1       8.537  -7.119  22.189  1.00  0.00     0.293 HD
ENDBRANCH  17  20
ENDBRANCH   1  12
BRANCH   6  22
ATOM     22  O   UNL     1       0.618  -3.004  26.390  1.00  0.00    -0.507 OA
ATOM     23  H   UNL     1       0.341  -3.923  26.079  1.00  0.00     0.293 HD
ENDBRANCH   6  22
BRANCH   8  24
ATOM     24  O   UNL     1       3.259  -0.099  29.122  1.00  0.00    -0.508 OA
ATOM     25  H   UNL     1       2.436   0.456  29.326  1.00  0.00     0.293 HD
ENDBRANCH   8  24
TORSDOF 5
ENDMDL
MODEL 7
REMARK VINA RESULT:    -5.296      1.983      7.368
REMARK INTER + INTRA:          -6.499
REMARK INTER:                  -6.182
REMARK INTRA:                  -0.317
REMARK UNBOUND:                -0.273
REMARK SMILES O=c1cc(-c2ccc(O)c(O)c2)oc2cc(O)cc(O)c12
REMARK SMILES IDX 4 1 3 2 2 3 1 4 21 5 19 6 18 7 16 8 15 9 14 10 13 11 5 12
REMARK SMILES IDX 6 13 7 14 8 15 12 16 10 17 9 18 11 20 20 22 17 24
REMARK H PARENT 9 19 11 21 20 23 17 25
REMARK Flexibility Score: inf
ROOT
ATOM      1  C   UNL     1       5.704  -4.216  26.260  1.00  0.00     0.138 A 
ATOM      2  C   UNL     1       5.673  -3.341  27.354  1.00  0.00     0.100 A 
ATOM      3  C   UNL     1       4.483  -2.691  27.685  1.00  0.00     0.197 A 
ATOM      4  O   UNL     1       4.474  -1.955  28.705  1.00  0.00    -0.289 OA
ATOM      5  C   UNL     1       3.328  -2.891  26.891  1.00  0.00     0.107 A 
ATOM      6  C   UNL     1       2.069  -2.256  27.112  1.00  0.00     0.134 A 
ATOM      7  C   UNL     1       0.970  -2.609  26.320  1.00  0.00     0.093 A 
ATOM      8  C   UNL     1       1.096  -3.528  25.280  1.00  0.00     0.123 A 
ATOM      9  C   UNL     1       2.333  -4.118  25.023  1.00  0.00     0.094 A 
ATOM     10  C   UNL     1       3.441  -3.813  25.817  1.00  0.00     0.146 A 
ATOM     11  O   UNL     1       4.597  -4.411  25.550  1.00  0.00    -0.456 OA
ENDROOT
BRANCH   1  12
ATOM     12  C   UNL     1       6.943  -4.932  25.861  1.00  0.00     0.021 A 
ATOM     13  C   UNL     1       8.103  -4.907  26.659  1.00  0.00     0.016 A 
ATOM     14  C   UNL     1       9.251  -5.598  26.263  1.00  0.00     0.051 A 
ATOM     15  C   UNL     1       9.259  -6.330  25.071  1.00  0.00     0.157 A 
ATOM     16  C   UNL     1       6.956  -5.681  24.671  1.00  0.00     0.062 A 
ATOM     17  C   UNL     1       8.109  -6.374  24.274  1.00  0.00     0.158 A 
BRANCH  15  18
ATOM     18  O   UNL     1      10.402  -7.020  24.672  1.00  0.00    -0.504 OA
ATOM     19  H   UNL     1      11.292  -6.884  25.138  1.00  0.00     0.293 HD
ENDBRANCH  15  18
BRANCH  17  20
ATOM     20  O   UNL     1       8.118  -7.107  23.089  1.00  0.00    -0.504 OA
ATOM     21  H   UNL     1       7.645  -8.000  23.013  1.00  0.00     0.293 HD
ENDBRANCH  17  20
ENDBRANCH   1  12
BRANCH   6  22
ATOM     22  O   UNL     1       1.849  -1.263  28.072  1.00  0.00    -0.507 OA
ATOM     23  H   UNL     1       2.501  -0.531  28.310  1.00  0.00     0.293 HD
ENDBRANCH   6  22
BRANCH   8  24
ATOM     24  O   UNL     1      -0.016  -3.843  24.502  1.00  0.00    -0.508 OA
ATOM     25  H   UNL     1      -0.775  -3.185  24.370  1.00  0.00     0.293 HD
ENDBRANCH   8  24
TORSDOF 5
ENDMDL
MODEL 8
REMARK VINA RESULT:    -5.109      2.218      7.425
REMARK INTER + INTRA:          -6.278
REMARK INTER:                  -5.994
REMARK INTRA:                  -0.284
REMARK UNBOUND:                -0.273
REMARK SMILES O=c1cc(-c2ccc(O)c(O)c2)oc2cc(O)cc(O)c12
REMARK SMILES IDX 4 1 3 2 2 3 1 4 21 5 19 6 18 7 16 8 15 9 14 10 13 11 5 12
REMARK SMILES IDX 6 13 7 14 8 15 12 16 10 17 9 18 11 20 20 22 17 24
REMARK H PARENT 9 19 11 21 20 23 17 25
REMARK Flexibility Score: inf
ROOT
ATOM      1  C   UNL     1       6.388  -5.749  25.159  1.00  0.00     0.138 A 
ATOM      2  C   UNL     1       5.188  -6.306  24.698  1.00  0.00     0.100 A 
ATOM      3  C   UNL     1       3.983  -5.644  24.932  1.00  0.00     0.197 A 
ATOM      4  O   UNL     1       2.930  -6.143  24.457  1.00  0.00    -0.289 OA
ATOM      5  C   UNL     1       3.977  -4.434  25.666  1.00  0.00     0.107 A 
ATOM      6  C   UNL     1       2.805  -3.688  25.996  1.00  0.00     0.134 A 
ATOM      7  C   UNL     1       2.933  -2.452  26.642  1.00  0.00     0.093 A 
ATOM      8  C   UNL     1       4.182  -1.962  27.021  1.00  0.00     0.123 A 
ATOM      9  C   UNL     1       5.330  -2.706  26.748  1.00  0.00     0.094 A 
ATOM     10  C   UNL     1       5.238  -3.926  26.075  1.00  0.00     0.146 A 
ATOM     11  O   UNL     1       6.358  -4.595  25.818  1.00  0.00    -0.456 OA
ENDROOT
BRANCH   1  12
ATOM     12  C   UNL     1       7.699  -6.411  24.941  1.00  0.00     0.021 A 
ATOM     13  C   UNL     1       8.744  -6.313  25.880  1.00  0.00     0.016 A 
ATOM     14  C   UNL     1       9.964  -6.955  25.652  1.00  0.00     0.051 A 
ATOM     15  C   UNL     1      10.159  -7.712  24.491  1.00  0.00     0.157 A 
ATOM     16  C   UNL     1       7.899  -7.184  23.784  1.00  0.00     0.062 A 
ATOM     17  C   UNL     1       9.124  -7.828  23.556  1.00  0.00     0.158 A 
BRANCH  15  18
ATOM     18  O   UNL     1      11.374  -8.353  24.260  1.00  0.00    -0.504 OA
ATOM     19  H   UNL     1      11.583  -9.257  24.670  1.00  0.00     0.293 HD
ENDBRANCH  15  18
BRANCH  17  20
ATOM     20  O   UNL     1       9.319  -8.586  22.402  1.00  0.00    -0.504 OA
ATOM     21  H   UNL     1      10.207  -8.591  21.914  1.00  0.00     0.293 HD
ENDBRANCH  17  20
ENDBRANCH   1  12
BRANCH   6  22
ATOM     22  O   UNL     1       1.501  -4.121  25.736  1.00  0.00    -0.507 OA
ATOM     23  H   UNL     1       0.681  -3.833  26.248  1.00  0.00     0.293 HD
ENDBRANCH   6  22
BRANCH   8  24
ATOM     24  O   UNL     1       4.269  -0.736  27.676  1.00  0.00    -0.508 OA
ATOM     25  H   UNL     1       5.082  -0.140  27.579  1.00  0.00     0.293 HD
ENDBRANCH   8  24
TORSDOF 5
ENDMDL
MODEL 9
REMARK VINA RESULT:    -5.035      2.100      7.680
REMARK INTER + INTRA:          -6.191
REMARK INTER:                  -5.874
REMARK INTRA:                  -0.317
REMARK UNBOUND:                -0.273
REMARK SMILES O=c1cc(-c2ccc(O)c(O)c2)oc2cc(O)cc(O)c12
REMARK SMILES IDX 4 1 3 2 2 3 1 4 21 5 19 6 18 7 16 8 15 9 14 10 13 11 5 12
REMARK SMILES IDX 6 13 7 14 8 15 12 16 10 17 9 18 11 20 20 22 17 24
REMARK H PARENT 9 19 11 21 20 23 17 25
REMARK Flexibility Score: inf
ROOT
ATOM      1  C   UNL     1       7.273  -5.503  26.091  1.00  0.00     0.138 A 
ATOM      2  C   UNL     1       7.469  -4.989  27.380  1.00  0.00     0.100 A 
ATOM      3  C   UNL     1       6.502  -4.157  27.946  1.00  0.00     0.197 A 
ATOM      4  O   UNL     1       6.681  -3.757  29.125  1.00  0.00    -0.289 OA
ATOM      5  C   UNL     1       5.349  -3.809  27.201  1.00  0.00     0.107 A 
ATOM      6  C   UNL     1       4.313  -2.942  27.662  1.00  0.00     0.134 A 
ATOM      7  C   UNL     1       3.172  -2.750  26.874  1.00  0.00     0.093 A 
ATOM      8  C   UNL     1       3.054  -3.346  25.619  1.00  0.00     0.123 A 
ATOM      9  C   UNL     1       4.083  -4.156  25.137  1.00  0.00     0.094 A 
ATOM     10  C   UNL     1       5.219  -4.394  25.914  1.00  0.00     0.146 A 
ATOM     11  O   UNL     1       6.167  -5.187  25.426  1.00  0.00    -0.456 OA
ENDROOT
BRANCH   1  12
ATOM     12  C   UNL     1       8.270  -6.390  25.439  1.00  0.00     0.021 A 
ATOM     13  C   UNL     1       9.521  -6.657  26.028  1.00  0.00     0.016 A 
ATOM     14  C   UNL     1      10.436  -7.503  25.395  1.00  0.00     0.051 A 
ATOM     15  C   UNL     1      10.115  -8.102  24.172  1.00  0.00     0.157 A 
ATOM     16  C   UNL     1       7.951  -7.007  24.216  1.00  0.00     0.062 A 
ATOM     17  C   UNL     1       8.870  -7.856  23.582  1.00  0.00     0.158 A 
BRANCH  15  18
ATOM     18  O   UNL     1      11.025  -8.947  23.538  1.00  0.00    -0.504 OA
ATOM     19  H   UNL     1      11.721  -9.465  24.063  1.00  0.00     0.293 HD
ENDBRANCH  15  18
BRANCH  17  20
ATOM     20  O   UNL     1       8.551  -8.457  22.366  1.00  0.00    -0.504 OA
ATOM     21  H   UNL     1       7.876  -9.211  22.307  1.00  0.00     0.293 HD
ENDBRANCH  17  20
ENDBRANCH   1  12
BRANCH   6  22
ATOM     22  O   UNL     1       4.363  -2.231  28.865  1.00  0.00    -0.507 OA
ATOM     23  H   UNL     1       4.135  -1.254  28.972  1.00  0.00     0.293 HD
ENDBRANCH   6  22
BRANCH   8  24
ATOM     24  O   UNL     1       1.911  -3.121  24.855  1.00  0.00    -0.508 OA
ATOM     25  H   UNL     1       1.797  -3.532  23.936  1.00  0.00     0.293 HD
ENDBRANCH   8  24
TORSDOF 5
ENDMDL
