MODEL 1
REMARK VINA RESULT:    -3.524      0.000      0.000
REMARK INTER + INTRA:         -11.914
REMARK INTER:                  -8.055
REMARK INTRA:                  -3.859
REMARK UNBOUND:                -3.859
REMARK SMILES CCCCCCCCCCCCCCCCCCCCCCCC(=O)[O-]
REMARK SMILES IDX 13 1 14 2 15 3 16 4 17 5 18 6 19 7 20 8 21 9 22 10 23 11
REMARK SMILES IDX 24 12 25 13 26 14 12 15 11 16 10 17 9 18 8 19 7 20 6 21 5 22
REMARK SMILES IDX 4 23 3 24 2 25 1 26
REMARK H PARENT
REMARK Flexibility Score: inf
ROOT
ATOM      1  C   UNL     1     -96.843 149.412 236.654  1.00  0.00     0.000 C 
ENDROOT
BRANCH   1   2
ATOM      2  C   UNL     1     -95.307 149.461 236.579  1.00  0.00     0.000 C 
BRANCH   2   3
ATOM      3  C   UNL     1     -94.722 148.251 235.819  1.00  0.00     0.000 C 
BRANCH   3   4
ATOM      4  C   UNL     1     -93.821 147.355 236.686  1.00  0.00     0.000 C 
BRANCH   4   5
ATOM      5  C   UNL     1     -93.651 147.884 238.117  1.00  0.00     0.000 C 
BRANCH   5   6
ATOM      6  C   UNL     1     -94.446 147.030 239.115  1.00  0.00     0.000 C 
BRANCH   6   7
ATOM      7  C   UNL     1     -95.301 147.875 240.079  1.00  0.00     0.000 C 
BRANCH   7   8
ATOM      8  C   UNL     1     -94.948 149.377 240.119  1.00  0.00     0.000 C 
BRANCH   8   9
ATOM      9  C   UNL     1     -96.153 150.329 240.230  1.00  0.00     0.000 C 
BRANCH   9  10
ATOM     10  C   UNL     1     -97.494 149.585 240.351  1.00  0.00     0.006 C 
BRANCH  10  11
ATOM     11  C   UNL     1     -98.512 150.364 241.193  1.00  0.00     0.053 C 
BRANCH  11  12
ATOM     12  C   UNL     1     -98.426 149.997 242.644  1.00  0.00     0.041 C 
ATOM     13  O   UNL     1     -98.080 148.835 242.983  1.00  0.00    -0.550 OA
ATOM     14  O   UNL     1     -98.775 150.925 243.618  1.00  0.00    -0.550 OA
ENDBRANCH  11  12
ENDBRANCH  10  11
ENDBRANCH   9  10
ENDBRANCH   8   9
ENDBRANCH   7   8
ENDBRANCH   6   7
ENDBRANCH   5   6
ENDBRANCH   4   5
ENDBRANCH   3   4
ENDBRANCH   2   3
ENDBRANCH   1   2
BRANCH   1  15
ATOM     15  C   UNL     1     -97.427 148.128 236.044  1.00  0.00     0.000 C 
BRANCH  15  16
ATOM     16  C   UNL     1     -98.709 148.388 235.232  1.00  0.00     0.000 C 
BRANCH  16  17
ATOM     17  C   UNL     1     -98.470 149.348 234.055  1.00  0.00     0.000 C 
BRANCH  17  18
ATOM     18  C   UNL     1     -97.264 148.936 233.194  1.00  0.00    -0.000 C 
BRANCH  18  19
ATOM     19  C   UNL     1     -96.638 150.126 232.448  1.00  0.00    -0.000 C 
BRANCH  19  20
ATOM     20  C   UNL     1     -95.513 150.827 233.244  1.00  0.00    -0.000 C 
BRANCH  20  21
ATOM     21  C   UNL     1     -95.998 152.124 233.913  1.00  0.00    -0.000 C 
BRANCH  21  22
ATOM     22  C   UNL     1     -97.240 152.714 233.209  1.00  0.00    -0.000 C 
BRANCH  22  23
ATOM     23  C   UNL     1     -97.661 154.090 233.754  1.00  0.00    -0.000 C 
BRANCH  23  24
ATOM     24  C   UNL     1     -98.535 153.989 235.015  1.00  0.00    -0.000 C 
BRANCH  24  25
ATOM     25  C   UNL     1     -99.468 152.768 234.986  1.00  0.00    -0.003 C 
ATOM     26  C   UNL     1     -99.535 152.046 236.332  1.00  0.00     0.004 C 
ENDBRANCH  24  25
ENDBRANCH  23  24
ENDBRANCH  22  23
ENDBRANCH  21  22
ENDBRANCH  20  21
ENDBRANCH  19  20
ENDBRANCH  18  19
ENDBRANCH  17  18
ENDBRANCH  16  17
ENDBRANCH  15  16
ENDBRANCH   1  15
TORSDOF 22
ENDMDL
MODEL 2
REMARK VINA RESULT:    -3.436      1.431      3.147
REMARK INTER + INTRA:         -11.714
REMARK INTER:                  -8.084
REMARK INTRA:                  -3.630
REMARK UNBOUND:                -3.859
REMARK SMILES CCCCCCCCCCCCCCCCCCCCCCCC(=O)[O-]
REMARK SMILES IDX 13 1 14 2 15 3 16 4 17 5 18 6 19 7 20 8 21 9 22 10 23 11
REMARK SMILES IDX 24 12 25 13 26 14 12 15 11 16 10 17 9 18 8 19 7 20 6 21 5 22
REMARK SMILES IDX 4 23 3 24 2 25 1 26
REMARK H PARENT
REMARK Flexibility Score: inf
ROOT
ATOM      1  C   UNL     1     -98.577 149.885 234.842  1.00  0.00     0.000 C 
ENDROOT
BRANCH   1   2
ATOM      2  C   UNL     1     -97.761 149.941 236.146  1.00  0.00     0.000 C 
BRANCH   2   3
ATOM      3  C   UNL     1     -97.679 148.564 236.841  1.00  0.00     0.000 C 
BRANCH   3   4
ATOM      4  C   UNL     1     -96.329 147.854 236.643  1.00  0.00     0.000 C 
BRANCH   4   5
ATOM      5  C   UNL     1     -95.143 148.827 236.585  1.00  0.00     0.000 C 
BRANCH   5   6
ATOM      6  C   UNL     1     -94.079 148.457 237.628  1.00  0.00     0.000 C 
BRANCH   6   7
ATOM      7  C   UNL     1     -94.344 149.095 239.004  1.00  0.00     0.000 C 
BRANCH   7   8
ATOM      8  C   UNL     1     -95.071 148.186 240.018  1.00  0.00     0.000 C 
BRANCH   8   9
ATOM      9  C   UNL     1     -96.383 148.756 240.586  1.00  0.00     0.000 C 
BRANCH   9  10
ATOM     10  C   UNL     1     -96.508 150.276 240.390  1.00  0.00     0.006 C 
BRANCH  10  11
ATOM     11  C   UNL     1     -97.949 150.702 240.082  1.00  0.00     0.053 C 
BRANCH  11  12
ATOM     12  C   UNL     1     -98.887 150.321 241.186  1.00  0.00     0.041 C 
ATOM     13  O   UNL     1     -98.635 150.655 242.374  1.00  0.00    -0.550 OA
ATOM     14  O   UNL     1    -100.015 149.557 240.910  1.00  0.00    -0.550 OA
ENDBRANCH  11  12
ENDBRANCH  10  11
ENDBRANCH   9  10
ENDBRANCH   8   9
ENDBRANCH   7   8
ENDBRANCH   6   7
ENDBRANCH   5   6
ENDBRANCH   4   5
ENDBRANCH   3   4
ENDBRANCH   2   3
ENDBRANCH   1   2
BRANCH   1  15
ATOM     15  C   UNL     1     -98.026 150.823 233.756  1.00  0.00     0.000 C 
BRANCH  15  16
ATOM     16  C   UNL     1     -96.501 151.006 233.850  1.00  0.00     0.000 C 
BRANCH  16  17
ATOM     17  C   UNL     1     -96.096 152.487 233.953  1.00  0.00     0.000 C 
BRANCH  17  18
ATOM     18  C   UNL     1     -97.266 153.439 233.654  1.00  0.00    -0.000 C 
BRANCH  18  19
ATOM     19  C   UNL     1     -97.397 154.559 234.699  1.00  0.00    -0.000 C 
BRANCH  19  20
ATOM     20  C   UNL     1     -98.194 155.782 234.192  1.00  0.00    -0.000 C 
BRANCH  20  21
ATOM     21  C   UNL     1     -99.624 155.817 234.758  1.00  0.00    -0.000 C 
BRANCH  21  22
ATOM     22  C   UNL     1    -100.590 154.914 233.960  1.00  0.00    -0.000 C 
BRANCH  22  23
ATOM     23  C   UNL     1    -100.899 153.577 234.656  1.00  0.00    -0.000 C 
BRANCH  23  24
ATOM     24  C   UNL     1    -100.906 153.693 236.189  1.00  0.00    -0.000 C 
BRANCH  24  25
ATOM     25  C   UNL     1     -99.924 152.716 236.855  1.00  0.00    -0.003 C 
ATOM     26  C   UNL     1    -100.618 151.742 237.808  1.00  0.00     0.004 C 
ENDBRANCH  24  25
ENDBRANCH  23  24
ENDBRANCH  22  23
ENDBRANCH  21  22
ENDBRANCH  20  21
ENDBRANCH  19  20
ENDBRANCH  18  19
ENDBRANCH  17  18
ENDBRANCH  16  17
ENDBRANCH  15  16
ENDBRANCH   1  15
TORSDOF 22
ENDMDL
MODEL 3
REMARK VINA RESULT:    -3.402      3.658      7.264
REMARK INTER + INTRA:         -11.637
REMARK INTER:                  -7.416
REMARK INTRA:                  -4.221
REMARK UNBOUND:                -3.859
REMARK SMILES CCCCCCCCCCCCCCCCCCCCCCCC(=O)[O-]
REMARK SMILES IDX 13 1 14 2 15 3 16 4 17 5 18 6 19 7 20 8 21 9 22 10 23 11
REMARK SMILES IDX 24 12 25 13 26 14 12 15 11 16 10 17 9 18 8 19 7 20 6 21 5 22
REMARK SMILES IDX 4 23 3 24 2 25 1 26
REMARK H PARENT
REMARK Flexibility Score: inf
ROOT
ATOM      1  C   UNL     1     -99.672 150.772 234.915  1.00  0.00     0.000 C 
ENDROOT
BRANCH   1   2
ATOM      2  C   UNL     1     -99.481 151.869 235.977  1.00  0.00     0.000 C 
BRANCH   2   3
ATOM      3  C   UNL     1     -99.491 153.285 235.361  1.00  0.00     0.000 C 
BRANCH   3   4
ATOM      4  C   UNL     1     -98.670 153.399 234.066  1.00  0.00     0.000 C 
BRANCH   4   5
ATOM      5  C   UNL     1     -97.278 154.005 234.291  1.00  0.00     0.000 C 
BRANCH   5   6
ATOM      6  C   UNL     1     -96.206 152.907 234.357  1.00  0.00     0.000 C 
BRANCH   6   7
ATOM      7  C   UNL     1     -96.447 151.774 233.342  1.00  0.00     0.000 C 
BRANCH   7   8
ATOM      8  C   UNL     1     -95.640 150.483 233.598  1.00  0.00     0.000 C 
BRANCH   8   9
ATOM      9  C   UNL     1     -96.164 149.230 232.876  1.00  0.00     0.000 C 
BRANCH   9  10
ATOM     10  C   UNL     1     -95.620 147.922 233.475  1.00  0.00     0.006 C 
BRANCH  10  11
ATOM     11  C   UNL     1     -94.146 148.045 233.885  1.00  0.00     0.053 C 
BRANCH  11  12
ATOM     12  C   UNL     1     -93.227 147.737 232.743  1.00  0.00     0.041 C 
ATOM     13  O   UNL     1     -92.068 148.228 232.713  1.00  0.00    -0.550 OA
ATOM     14  O   UNL     1     -93.668 146.946 231.688  1.00  0.00    -0.550 OA
ENDBRANCH  11  12
ENDBRANCH  10  11
ENDBRANCH   9  10
ENDBRANCH   8   9
ENDBRANCH   7   8
ENDBRANCH   6   7
ENDBRANCH   5   6
ENDBRANCH   4   5
ENDBRANCH   3   4
ENDBRANCH   2   3
ENDBRANCH   1   2
BRANCH   1  15
ATOM     15  C   UNL     1     -99.185 149.394 235.389  1.00  0.00     0.000 C 
BRANCH  15  16
ATOM     16  C   UNL     1     -97.923 149.482 236.266  1.00  0.00     0.000 C 
BRANCH  16  17
ATOM     17  C   UNL     1     -97.613 148.154 236.978  1.00  0.00     0.000 C 
BRANCH  17  18
ATOM     18  C   UNL     1     -96.102 147.890 237.102  1.00  0.00    -0.000 C 
BRANCH  18  19
ATOM     19  C   UNL     1     -95.280 149.188 237.150  1.00  0.00    -0.000 C 
BRANCH  19  20
ATOM     20  C   UNL     1     -94.261 149.226 238.311  1.00  0.00    -0.000 C 
BRANCH  20  21
ATOM     21  C   UNL     1     -94.930 148.998 239.678  1.00  0.00    -0.000 C 
BRANCH  21  22
ATOM     22  C   UNL     1     -95.949 150.108 240.020  1.00  0.00    -0.000 C 
BRANCH  22  23
ATOM     23  C   UNL     1     -97.086 149.637 240.943  1.00  0.00    -0.000 C 
BRANCH  23  24
ATOM     24  C   UNL     1     -98.286 150.599 240.948  1.00  0.00    -0.000 C 
BRANCH  24  25
ATOM     25  C   UNL     1     -98.805 150.897 239.532  1.00  0.00    -0.003 C 
ATOM     26  C   UNL     1    -100.065 150.101 239.189  1.00  0.00     0.004 C 
ENDBRANCH  24  25
ENDBRANCH  23  24
ENDBRANCH  22  23
ENDBRANCH  21  22
ENDBRANCH  20  21
ENDBRANCH  19  20
ENDBRANCH  18  19
ENDBRANCH  17  18
ENDBRANCH  16  17
ENDBRANCH  15  16
ENDBRANCH   1  15
TORSDOF 22
ENDMDL
MODEL 4
REMARK VINA RESULT:    -3.398      3.296      7.423
REMARK INTER + INTRA:         -11.627
REMARK INTER:                  -7.962
REMARK INTRA:                  -3.665
REMARK UNBOUND:                -3.859
REMARK SMILES CCCCCCCCCCCCCCCCCCCCCCCC(=O)[O-]
REMARK SMILES IDX 13 1 14 2 15 3 16 4 17 5 18 6 19 7 20 8 21 9 22 10 23 11
REMARK SMILES IDX 24 12 25 13 26 14 12 15 11 16 10 17 9 18 8 19 7 20 6 21 5 22
REMARK SMILES IDX 4 23 3 24 2 25 1 26
REMARK H PARENT
REMARK Flexibility Score: inf
ROOT
ATOM      1  C   UNL     1     -95.183 149.637 236.788  1.00  0.00     0.000 C 
ENDROOT
BRANCH   1   2
ATOM      2  C   UNL     1     -96.679 149.611 236.426  1.00  0.00     0.000 C 
BRANCH   2   3
ATOM      3  C   UNL     1     -97.373 148.319 236.911  1.00  0.00     0.000 C 
BRANCH   3   4
ATOM      4  C   UNL     1     -98.796 148.548 237.446  1.00  0.00     0.000 C 
BRANCH   4   5
ATOM      5  C   UNL     1     -99.652 149.423 236.519  1.00  0.00     0.000 C 
BRANCH   5   6
ATOM      6  C   UNL     1    -100.299 150.577 237.298  1.00  0.00     0.000 C 
BRANCH   6   7
ATOM      7  C   UNL     1     -99.506 151.893 237.186  1.00  0.00     0.000 C 
BRANCH   7   8
ATOM      8  C   UNL     1    -100.227 153.029 236.431  1.00  0.00     0.000 C 
BRANCH   8   9
ATOM      9  C   UNL     1     -99.436 153.643 235.262  1.00  0.00     0.000 C 
BRANCH   9  10
ATOM     10  C   UNL     1     -98.450 152.652 234.621  1.00  0.00     0.006 C 
BRANCH  10  11
ATOM     11  C   UNL     1     -97.117 153.318 234.256  1.00  0.00     0.053 C 
BRANCH  11  12
ATOM     12  C   UNL     1     -96.364 152.525 233.232  1.00  0.00     0.041 C 
ATOM     13  O   UNL     1     -96.605 152.683 232.006  1.00  0.00    -0.550 OA
ATOM     14  O   UNL     1     -95.430 151.577 233.634  1.00  0.00    -0.550 OA
ENDBRANCH  11  12
ENDBRANCH  10  11
ENDBRANCH   9  10
ENDBRANCH   8   9
ENDBRANCH   7   8
ENDBRANCH   6   7
ENDBRANCH   5   6
ENDBRANCH   4   5
ENDBRANCH   3   4
ENDBRANCH   2   3
ENDBRANCH   1   2
BRANCH   1  15
ATOM     15  C   UNL     1     -94.558 148.234 236.831  1.00  0.00     0.000 C 
BRANCH  15  16
ATOM     16  C   UNL     1     -93.849 147.942 238.166  1.00  0.00     0.000 C 
BRANCH  16  17
ATOM     17  C   UNL     1     -94.443 148.750 239.332  1.00  0.00     0.000 C 
BRANCH  17  18
ATOM     18  C   UNL     1     -95.396 147.913 240.203  1.00  0.00    -0.000 C 
BRANCH  18  19
ATOM     19  C   UNL     1     -96.602 148.724 240.704  1.00  0.00    -0.000 C 
BRANCH  19  20
ATOM     20  C   UNL     1     -96.567 150.207 240.271  1.00  0.00    -0.000 C 
BRANCH  20  21
ATOM     21  C   UNL     1     -97.947 150.877 240.388  1.00  0.00    -0.000 C 
BRANCH  21  22
ATOM     22  C   UNL     1     -99.057 149.867 240.756  1.00  0.00    -0.000 C 
BRANCH  22  23
ATOM     23  C   UNL     1     -99.740 150.168 242.102  1.00  0.00    -0.000 C 
BRANCH  23  24
ATOM     24  C   UNL     1     -98.746 150.609 243.189  1.00  0.00    -0.000 C 
BRANCH  24  25
ATOM     25  C   UNL     1     -99.445 150.981 244.506  1.00  0.00    -0.003 C 
ATOM     26  C   UNL     1    -100.932 150.624 244.505  1.00  0.00     0.004 C 
ENDBRANCH  24  25
ENDBRANCH  23  24
ENDBRANCH  22  23
ENDBRANCH  21  22
ENDBRANCH  20  21
ENDBRANCH  19  20
ENDBRANCH  18  19
ENDBRANCH  17  18
ENDBRANCH  16  17
ENDBRANCH  15  16
ENDBRANCH   1  15
TORSDOF 22
ENDMDL
MODEL 5
REMARK VINA RESULT:    -3.394      1.304      3.188
REMARK INTER + INTRA:         -11.619
REMARK INTER:                  -7.745
REMARK INTRA:                  -3.873
REMARK UNBOUND:                -3.859
REMARK SMILES CCCCCCCCCCCCCCCCCCCCCCCC(=O)[O-]
REMARK SMILES IDX 13 1 14 2 15 3 16 4 17 5 18 6 19 7 20 8 21 9 22 10 23 11
REMARK SMILES IDX 24 12 25 13 26 14 12 15 11 16 10 17 9 18 8 19 7 20 6 21 5 22
REMARK SMILES IDX 4 23 3 24 2 25 1 26
REMARK H PARENT
REMARK Flexibility Score: inf
ROOT
ATOM      1  C   UNL     1     -94.629 148.512 237.136  1.00  0.00     0.000 C 
ENDROOT
BRANCH   1   2
ATOM      2  C   UNL     1     -93.885 148.821 238.447  1.00  0.00     0.000 C 
BRANCH   2   3
ATOM      3  C   UNL     1     -94.853 149.020 239.633  1.00  0.00     0.000 C 
BRANCH   3   4
ATOM      4  C   UNL     1     -95.203 147.715 240.368  1.00  0.00     0.000 C 
BRANCH   4   5
ATOM      5  C   UNL     1     -96.716 147.494 240.509  1.00  0.00     0.000 C 
BRANCH   5   6
ATOM      6  C   UNL     1     -97.419 147.638 239.152  1.00  0.00     0.000 C 
BRANCH   6   7
ATOM      7  C   UNL     1     -98.604 148.621 239.193  1.00  0.00     0.000 C 
BRANCH   7   8
ATOM      8  C   UNL     1     -98.220 150.113 239.102  1.00  0.00     0.000 C 
BRANCH   8   9
ATOM      9  C   UNL     1     -98.114 150.845 240.451  1.00  0.00     0.000 C 
BRANCH   9  10
ATOM     10  C   UNL     1     -99.082 150.290 241.510  1.00  0.00     0.006 C 
BRANCH  10  11
ATOM     11  C   UNL     1     -98.361 149.910 242.809  1.00  0.00     0.053 C 
BRANCH  11  12
ATOM     12  C   UNL     1     -99.067 150.452 244.014  1.00  0.00     0.041 C 
ATOM     13  O   UNL     1    -100.010 149.803 244.539  1.00  0.00    -0.550 OA
ATOM     14  O   UNL     1     -98.716 151.695 244.526  1.00  0.00    -0.550 OA
ENDBRANCH  11  12
ENDBRANCH  10  11
ENDBRANCH   9  10
ENDBRANCH   8   9
ENDBRANCH   7   8
ENDBRANCH   6   7
ENDBRANCH   5   6
ENDBRANCH   4   5
ENDBRANCH   3   4
ENDBRANCH   2   3
ENDBRANCH   1   2
BRANCH   1  15
ATOM     15  C   UNL     1     -95.389 149.728 236.583  1.00  0.00     0.000 C 
BRANCH  15  16
ATOM     16  C   UNL     1     -96.176 149.402 235.301  1.00  0.00     0.000 C 
BRANCH  16  17
ATOM     17  C   UNL     1     -97.625 148.980 235.595  1.00  0.00     0.000 C 
BRANCH  17  18
ATOM     18  C   UNL     1     -98.656 149.924 234.952  1.00  0.00    -0.000 C 
BRANCH  18  19
ATOM     19  C   UNL     1     -98.739 151.282 235.668  1.00  0.00    -0.000 C 
BRANCH  19  20
ATOM     20  C   UNL     1     -99.329 152.405 234.786  1.00  0.00    -0.000 C 
BRANCH  20  21
ATOM     21  C   UNL     1     -98.357 152.843 233.677  1.00  0.00    -0.000 C 
BRANCH  21  22
ATOM     22  C   UNL     1     -96.929 153.084 234.216  1.00  0.00    -0.000 C 
BRANCH  22  23
ATOM     23  C   UNL     1     -95.834 152.385 233.391  1.00  0.00    -0.000 C 
BRANCH  23  24
ATOM     24  C   UNL     1     -96.296 152.032 231.967  1.00  0.00    -0.000 C 
BRANCH  24  25
ATOM     25  C   UNL     1     -96.154 150.533 231.660  1.00  0.00    -0.003 C 
ATOM     26  C   UNL     1     -97.505 149.828 231.533  1.00  0.00     0.004 C 
ENDBRANCH  24  25
ENDBRANCH  23  24
ENDBRANCH  22  23
ENDBRANCH  21  22
ENDBRANCH  20  21
ENDBRANCH  19  20
ENDBRANCH  18  19
ENDBRANCH  17  18
ENDBRANCH  16  17
ENDBRANCH  15  16
ENDBRANCH   1  15
TORSDOF 22
ENDMDL
MODEL 6
REMARK VINA RESULT:    -3.376      3.217      6.642
REMARK INTER + INTRA:         -11.576
REMARK INTER:                  -7.537
REMARK INTRA:                  -4.039
REMARK UNBOUND:                -3.859
REMARK SMILES CCCCCCCCCCCCCCCCCCCCCCCC(=O)[O-]
REMARK SMILES IDX 13 1 14 2 15 3 16 4 17 5 18 6 19 7 20 8 21 9 22 10 23 11
REMARK SMILES IDX 24 12 25 13 26 14 12 15 11 16 10 17 9 18 8 19 7 20 6 21 5 22
REMARK SMILES IDX 4 23 3 24 2 25 1 26
REMARK H PARENT
REMARK Flexibility Score: inf
ROOT
ATOM      1  C   UNL     1     -94.632 148.088 239.000  1.00  0.00     0.000 C 
ENDROOT
BRANCH   1   2
ATOM      2  C   UNL     1     -94.466 149.131 237.880  1.00  0.00     0.000 C 
BRANCH   2   3
ATOM      3  C   UNL     1     -95.208 148.722 236.589  1.00  0.00     0.000 C 
BRANCH   3   4
ATOM      4  C   UNL     1     -95.708 149.918 235.761  1.00  0.00     0.000 C 
BRANCH   4   5
ATOM      5  C   UNL     1     -95.758 149.623 234.255  1.00  0.00     0.000 C 
BRANCH   5   6
ATOM      6  C   UNL     1     -96.294 150.834 233.477  1.00  0.00     0.000 C 
BRANCH   6   7
ATOM      7  C   UNL     1     -95.835 152.178 234.073  1.00  0.00     0.000 C 
BRANCH   7   8
ATOM      8  C   UNL     1     -96.837 153.341 233.911  1.00  0.00     0.000 C 
BRANCH   8   9
ATOM      9  C   UNL     1     -97.660 153.319 232.611  1.00  0.00     0.000 C 
BRANCH   9  10
ATOM     10  C   UNL     1     -99.034 153.994 232.762  1.00  0.00     0.006 C 
BRANCH  10  11
ATOM     11  C   UNL     1     -99.056 155.006 233.914  1.00  0.00     0.053 C 
BRANCH  11  12
ATOM     12  C   UNL     1    -100.445 155.224 234.433  1.00  0.00     0.041 C 
ATOM     13  O   UNL     1    -100.698 156.215 235.168  1.00  0.00    -0.550 OA
ATOM     14  O   UNL     1    -101.448 154.305 234.145  1.00  0.00    -0.550 OA
ENDBRANCH  11  12
ENDBRANCH  10  11
ENDBRANCH   9  10
ENDBRANCH   8   9
ENDBRANCH   7   8
ENDBRANCH   6   7
ENDBRANCH   5   6
ENDBRANCH   4   5
ENDBRANCH   3   4
ENDBRANCH   2   3
ENDBRANCH   1   2
BRANCH   1  15
ATOM     15  C   UNL     1     -95.504 148.595 240.159  1.00  0.00     0.000 C 
BRANCH  15  16
ATOM     16  C   UNL     1     -95.895 150.075 240.003  1.00  0.00     0.000 C 
BRANCH  16  17
ATOM     17  C   UNL     1     -97.194 150.418 240.752  1.00  0.00     0.000 C 
BRANCH  17  18
ATOM     18  C   UNL     1     -98.325 150.851 239.803  1.00  0.00    -0.000 C 
BRANCH  18  19
ATOM     19  C   UNL     1     -99.638 150.097 240.067  1.00  0.00    -0.000 C 
BRANCH  19  20
ATOM     20  C   UNL     1    -100.094 149.222 238.878  1.00  0.00    -0.000 C 
BRANCH  20  21
ATOM     21  C   UNL     1     -98.905 148.604 238.123  1.00  0.00    -0.000 C 
BRANCH  21  22
ATOM     22  C   UNL     1     -98.952 148.909 236.609  1.00  0.00    -0.000 C 
BRANCH  22  23
ATOM     23  C   UNL     1     -99.978 149.992 236.232  1.00  0.00    -0.000 C 
BRANCH  23  24
ATOM     24  C   UNL     1     -99.323 151.251 235.639  1.00  0.00    -0.000 C 
BRANCH  24  25
ATOM     25  C   UNL     1     -99.433 152.465 236.576  1.00  0.00    -0.003 C 
ATOM     26  C   UNL     1    -100.783 152.537 237.290  1.00  0.00     0.004 C 
ENDBRANCH  24  25
ENDBRANCH  23  24
ENDBRANCH  22  23
ENDBRANCH  21  22
ENDBRANCH  20  21
ENDBRANCH  19  20
ENDBRANCH  18  19
ENDBRANCH  17  18
ENDBRANCH  16  17
ENDBRANCH  15  16
ENDBRANCH   1  15
TORSDOF 22
ENDMDL
MODEL 7
REMARK VINA RESULT:    -3.350      2.210      6.096
REMARK INTER + INTRA:         -11.516
REMARK INTER:                  -7.180
REMARK INTRA:                  -4.336
REMARK UNBOUND:                -3.859
REMARK SMILES CCCCCCCCCCCCCCCCCCCCCCCC(=O)[O-]
REMARK SMILES IDX 13 1 14 2 15 3 16 4 17 5 18 6 19 7 20 8 21 9 22 10 23 11
REMARK SMILES IDX 24 12 25 13 26 14 12 15 11 16 10 17 9 18 8 19 7 20 6 21 5 22
REMARK SMILES IDX 4 23 3 24 2 25 1 26
REMARK H PARENT
REMARK Flexibility Score: inf
ROOT
ATOM      1  C   UNL     1     -98.548 148.478 234.950  1.00  0.00     0.000 C 
ENDROOT
BRANCH   1   2
ATOM      2  C   UNL     1     -97.986 148.926 233.589  1.00  0.00     0.000 C 
BRANCH   2   3
ATOM      3  C   UNL     1     -96.654 148.222 233.249  1.00  0.00     0.000 C 
BRANCH   3   4
ATOM      4  C   UNL     1     -95.504 149.195 232.940  1.00  0.00     0.000 C 
BRANCH   4   5
ATOM      5  C   UNL     1     -95.992 150.613 232.610  1.00  0.00     0.000 C 
BRANCH   5   6
ATOM      6  C   UNL     1     -95.367 151.643 233.561  1.00  0.00     0.000 C 
BRANCH   6   7
ATOM      7  C   UNL     1     -96.396 152.649 234.112  1.00  0.00     0.000 C 
BRANCH   7   8
ATOM      8  C   UNL     1     -97.547 153.003 233.146  1.00  0.00     0.000 C 
BRANCH   8   9
ATOM      9  C   UNL     1     -98.955 152.972 233.767  1.00  0.00     0.000 C 
BRANCH   9  10
ATOM     10  C   UNL     1     -99.029 152.109 235.038  1.00  0.00     0.006 C 
BRANCH  10  11
ATOM     11  C   UNL     1    -100.465 151.970 235.559  1.00  0.00     0.053 C 
BRANCH  11  12
ATOM     12  C   UNL     1    -100.712 152.854 236.743  1.00  0.00     0.041 C 
ATOM     13  O   UNL     1    -100.652 152.382 237.909  1.00  0.00    -0.550 OA
ATOM     14  O   UNL     1    -101.054 154.189 236.557  1.00  0.00    -0.550 OA
ENDBRANCH  11  12
ENDBRANCH  10  11
ENDBRANCH   9  10
ENDBRANCH   8   9
ENDBRANCH   7   8
ENDBRANCH   6   7
ENDBRANCH   5   6
ENDBRANCH   4   5
ENDBRANCH   3   4
ENDBRANCH   2   3
ENDBRANCH   1   2
BRANCH   1  15
ATOM     15  C   UNL     1     -97.451 148.272 236.007  1.00  0.00     0.000 C 
BRANCH  15  16
ATOM     16  C   UNL     1     -97.023 149.589 236.681  1.00  0.00     0.000 C 
BRANCH  16  17
ATOM     17  C   UNL     1     -95.495 149.764 236.702  1.00  0.00     0.000 C 
BRANCH  17  18
ATOM     18  C   UNL     1     -94.748 148.420 236.639  1.00  0.00    -0.000 C 
BRANCH  18  19
ATOM     19  C   UNL     1     -93.860 148.181 237.871  1.00  0.00    -0.000 C 
BRANCH  19  20
ATOM     20  C   UNL     1     -94.355 148.919 239.136  1.00  0.00    -0.000 C 
BRANCH  20  21
ATOM     21  C   UNL     1     -95.262 148.033 240.007  1.00  0.00    -0.000 C 
BRANCH  21  22
ATOM     22  C   UNL     1     -96.560 148.760 240.424  1.00  0.00    -0.000 C 
BRANCH  22  23
ATOM     23  C   UNL     1     -96.468 150.292 240.321  1.00  0.00    -0.000 C 
BRANCH  23  24
ATOM     24  C   UNL     1     -97.846 150.966 240.217  1.00  0.00    -0.000 C 
BRANCH  24  25
ATOM     25  C   UNL     1     -98.959 149.971 239.852  1.00  0.00    -0.003 C 
ATOM     26  C   UNL     1    -100.039 149.874 240.930  1.00  0.00     0.004 C 
ENDBRANCH  24  25
ENDBRANCH  23  24
ENDBRANCH  22  23
ENDBRANCH  21  22
ENDBRANCH  20  21
ENDBRANCH  19  20
ENDBRANCH  18  19
ENDBRANCH  17  18
ENDBRANCH  16  17
ENDBRANCH  15  16
ENDBRANCH   1  15
TORSDOF 22
ENDMDL
MODEL 8
REMARK VINA RESULT:    -3.331      2.938      6.715
REMARK INTER + INTRA:         -11.474
REMARK INTER:                  -6.983
REMARK INTRA:                  -4.491
REMARK UNBOUND:                -3.859
REMARK SMILES CCCCCCCCCCCCCCCCCCCCCCCC(=O)[O-]
REMARK SMILES IDX 13 1 14 2 15 3 16 4 17 5 18 6 19 7 20 8 21 9 22 10 23 11
REMARK SMILES IDX 24 12 25 13 26 14 12 15 11 16 10 17 9 18 8 19 7 20 6 21 5 22
REMARK SMILES IDX 4 23 3 24 2 25 1 26
REMARK H PARENT
REMARK Flexibility Score: inf
ROOT
ATOM      1  C   UNL     1     -99.382 150.525 235.813  1.00  0.00     0.000 C 
ENDROOT
BRANCH   1   2
ATOM      2  C   UNL     1    -100.131 149.234 235.438  1.00  0.00     0.000 C 
BRANCH   2   3
ATOM      3  C   UNL     1    -100.300 149.082 233.910  1.00  0.00     0.000 C 
BRANCH   3   4
ATOM      4  C   UNL     1     -99.462 150.082 233.096  1.00  0.00     0.000 C 
BRANCH   4   5
ATOM      5  C   UNL     1     -98.374 149.404 232.252  1.00  0.00     0.000 C 
BRANCH   5   6
ATOM      6  C   UNL     1     -97.128 150.294 232.146  1.00  0.00     0.000 C 
BRANCH   6   7
ATOM      7  C   UNL     1     -96.225 150.212 233.391  1.00  0.00     0.000 C 
BRANCH   7   8
ATOM      8  C   UNL     1     -95.742 151.570 233.941  1.00  0.00     0.000 C 
BRANCH   8   9
ATOM      9  C   UNL     1     -96.479 152.801 233.383  1.00  0.00     0.000 C 
BRANCH   9  10
ATOM     10  C   UNL     1     -97.340 153.513 234.439  1.00  0.00     0.006 C 
BRANCH  10  11
ATOM     11  C   UNL     1     -98.799 153.664 233.989  1.00  0.00     0.053 C 
BRANCH  11  12
ATOM     12  C   UNL     1     -99.526 154.691 234.802  1.00  0.00     0.041 C 
ATOM     13  O   UNL     1    -100.405 154.335 235.630  1.00  0.00    -0.550 OA
ATOM     14  O   UNL     1     -99.265 156.043 234.611  1.00  0.00    -0.550 OA
ENDBRANCH  11  12
ENDBRANCH  10  11
ENDBRANCH   9  10
ENDBRANCH   8   9
ENDBRANCH   7   8
ENDBRANCH   6   7
ENDBRANCH   5   6
ENDBRANCH   4   5
ENDBRANCH   3   4
ENDBRANCH   2   3
ENDBRANCH   1   2
BRANCH   1  15
ATOM     15  C   UNL     1     -98.048 150.252 236.525  1.00  0.00     0.000 C 
BRANCH  15  16
ATOM     16  C   UNL     1     -97.798 148.751 236.761  1.00  0.00     0.000 C 
BRANCH  16  17
ATOM     17  C   UNL     1     -96.332 148.358 236.516  1.00  0.00     0.000 C 
BRANCH  17  18
ATOM     18  C   UNL     1     -95.346 149.443 236.983  1.00  0.00    -0.000 C 
BRANCH  18  19
ATOM     19  C   UNL     1     -94.244 148.884 237.897  1.00  0.00    -0.000 C 
BRANCH  19  20
ATOM     20  C   UNL     1     -94.419 149.277 239.381  1.00  0.00    -0.000 C 
BRANCH  20  21
ATOM     21  C   UNL     1     -95.284 148.264 240.151  1.00  0.00    -0.000 C 
BRANCH  21  22
ATOM     22  C   UNL     1     -96.675 148.835 240.506  1.00  0.00    -0.000 C 
BRANCH  22  23
ATOM     23  C   UNL     1     -96.723 150.372 240.524  1.00  0.00    -0.000 C 
BRANCH  23  24
ATOM     24  C   UNL     1     -98.081 150.930 240.068  1.00  0.00    -0.000 C 
BRANCH  24  25
ATOM     25  C   UNL     1     -99.171 149.848 240.011  1.00  0.00    -0.003 C 
ATOM     26  C   UNL     1    -100.537 150.408 239.615  1.00  0.00     0.004 C 
ENDBRANCH  24  25
ENDBRANCH  23  24
ENDBRANCH  22  23
ENDBRANCH  21  22
ENDBRANCH  20  21
ENDBRANCH  19  20
ENDBRANCH  18  19
ENDBRANCH  17  18
ENDBRANCH  16  17
ENDBRANCH  15  16
ENDBRANCH   1  15
TORSDOF 22
ENDMDL
MODEL 9
REMARK VINA RESULT:    -3.323      3.406      7.429
REMARK INTER + INTRA:         -11.456
REMARK INTER:                  -7.581
REMARK INTRA:                  -3.875
REMARK UNBOUND:                -3.859
REMARK SMILES CCCCCCCCCCCCCCCCCCCCCCCC(=O)[O-]
REMARK SMILES IDX 13 1 14 2 15 3 16 4 17 5 18 6 19 7 20 8 21 9 22 10 23 11
REMARK SMILES IDX 24 12 25 13 26 14 12 15 11 16 10 17 9 18 8 19 7 20 6 21 5 22
REMARK SMILES IDX 4 23 3 24 2 25 1 26
REMARK H PARENT
REMARK Flexibility Score: inf
ROOT
ATOM      1  C   UNL     1     -98.675 149.841 240.708  1.00  0.00     0.000 C 
ENDROOT
BRANCH   1   2
ATOM      2  C   UNL     1     -98.754 150.954 239.648  1.00  0.00     0.000 C 
BRANCH   2   3
ATOM      3  C   UNL     1     -99.985 150.796 238.729  1.00  0.00     0.000 C 
BRANCH   3   4
ATOM      4  C   UNL     1     -99.850 151.534 237.386  1.00  0.00     0.000 C 
BRANCH   4   5
ATOM      5  C   UNL     1    -100.385 150.721 236.199  1.00  0.00     0.000 C 
BRANCH   5   6
ATOM      6  C   UNL     1     -99.650 151.093 234.904  1.00  0.00     0.000 C 
BRANCH   6   7
ATOM      7  C   UNL     1     -98.650 152.249 235.094  1.00  0.00     0.000 C 
BRANCH   7   8
ATOM      8  C   UNL     1     -97.938 152.716 233.807  1.00  0.00     0.000 C 
BRANCH   8   9
ATOM      9  C   UNL     1     -98.650 153.844 233.038  1.00  0.00     0.000 C 
BRANCH   9  10
ATOM     10  C   UNL     1     -98.177 155.245 233.459  1.00  0.00     0.006 C 
BRANCH  10  11
ATOM     11  C   UNL     1     -98.998 155.804 234.628  1.00  0.00     0.053 C 
BRANCH  11  12
ATOM     12  C   UNL     1    -100.352 156.264 234.183  1.00  0.00     0.041 C 
ATOM     13  O   UNL     1    -101.340 156.167 234.958  1.00  0.00    -0.550 OA
ATOM     14  O   UNL     1    -100.533 156.757 232.896  1.00  0.00    -0.550 OA
ENDBRANCH  11  12
ENDBRANCH  10  11
ENDBRANCH   9  10
ENDBRANCH   8   9
ENDBRANCH   7   8
ENDBRANCH   6   7
ENDBRANCH   5   6
ENDBRANCH   4   5
ENDBRANCH   3   4
ENDBRANCH   2   3
ENDBRANCH   1   2
BRANCH   1  15
ATOM     15  C   UNL     1     -97.229 149.465 241.067  1.00  0.00     0.000 C 
BRANCH  15  16
ATOM     16  C   UNL     1     -96.191 150.283 240.279  1.00  0.00     0.000 C 
BRANCH  16  17
ATOM     17  C   UNL     1     -94.935 149.462 239.940  1.00  0.00     0.000 C 
BRANCH  17  18
ATOM     18  C   UNL     1     -95.125 147.959 240.208  1.00  0.00    -0.000 C 
BRANCH  18  19
ATOM     19  C   UNL     1     -94.387 147.080 239.185  1.00  0.00    -0.000 C 
BRANCH  19  20
ATOM     20  C   UNL     1     -93.680 147.890 238.076  1.00  0.00    -0.000 C 
BRANCH  20  21
ATOM     21  C   UNL     1     -93.885 147.268 236.684  1.00  0.00    -0.000 C 
BRANCH  21  22
ATOM     22  C   UNL     1     -94.835 148.110 235.803  1.00  0.00    -0.000 C 
BRANCH  22  23
ATOM     23  C   UNL     1     -95.266 149.436 236.454  1.00  0.00    -0.000 C 
BRANCH  23  24
ATOM     24  C   UNL     1     -96.780 149.507 236.712  1.00  0.00    -0.000 C 
BRANCH  24  25
ATOM     25  C   UNL     1     -97.467 148.141 236.555  1.00  0.00    -0.003 C 
ATOM     26  C   UNL     1     -97.962 147.576 237.887  1.00  0.00     0.004 C 
ENDBRANCH  24  25
ENDBRANCH  23  24
ENDBRANCH  22  23
ENDBRANCH  21  22
ENDBRANCH  20  21
ENDBRANCH  19  20
ENDBRANCH  18  19
ENDBRANCH  17  18
ENDBRANCH  16  17
ENDBRANCH  15  16
ENDBRANCH   1  15
TORSDOF 22
ENDMDL
