MODEL 1
REMARK VINA RESULT:    -3.355      0.000      0.000
REMARK INTER + INTRA:          -6.197
REMARK INTER:                  -5.317
REMARK INTRA:                  -0.880
REMARK UNBOUND:                -0.880
REMARK SMILES CCCCCCCCCCCC(=O)[O-]
REMARK SMILES IDX 7 1 8 2 9 3 10 4 11 5 12 6 13 7 14 8 6 9 5 10 4 11 3 12 2 13
REMARK SMILES IDX 1 14
REMARK H PARENT
REMARK Flexibility Score: inf
ROOT
ATOM      1  C   UNL     1      43.535  34.460  50.056  1.00  0.00     0.000 C 
ENDROOT
BRANCH   1   2
ATOM      2  C   UNL     1      43.707  33.081  49.395  1.00  0.00     0.000 C 
BRANCH   2   3
ATOM      3  C   UNL     1      45.188  32.654  49.319  1.00  0.00     0.000 C 
BRANCH   3   4
ATOM      4  C   UNL     1      45.387  31.195  48.874  1.00  0.00     0.006 C 
BRANCH   4   5
ATOM      5  C   UNL     1      45.708  30.253  50.039  1.00  0.00     0.053 C 
BRANCH   5   6
ATOM      6  C   UNL     1      45.640  28.827  49.592  1.00  0.00     0.041 C 
ATOM      7  O   UNL     1      46.575  28.031  49.870  1.00  0.00    -0.550 OA
ATOM      8  O   UNL     1      44.521  28.365  48.912  1.00  0.00    -0.550 OA
ENDBRANCH   5   6
ENDBRANCH   4   5
ENDBRANCH   3   4
ENDBRANCH   2   3
ENDBRANCH   1   2
BRANCH   1   9
ATOM      9  C   UNL     1      42.742  35.444  49.180  1.00  0.00     0.000 C 
BRANCH   9  10
ATOM     10  C   UNL     1      41.329  34.938  48.851  1.00  0.00    -0.000 C 
BRANCH  10  11
ATOM     11  C   UNL     1      40.929  35.319  47.421  1.00  0.00    -0.000 C 
BRANCH  11  12
ATOM     12  C   UNL     1      41.225  34.174  46.442  1.00  0.00    -0.000 C 
BRANCH  12  13
ATOM     13  C   UNL     1      42.463  34.445  45.573  1.00  0.00    -0.003 C 
ATOM     14  C   UNL     1      43.578  33.424  45.796  1.00  0.00     0.004 C 
ENDBRANCH  12  13
ENDBRANCH  11  12
ENDBRANCH  10  11
ENDBRANCH   9  10
ENDBRANCH   1   9
TORSDOF 10
ENDMDL
MODEL 2
REMARK VINA RESULT:    -3.351      3.043      6.421
REMARK INTER + INTRA:          -6.190
REMARK INTER:                  -4.695
REMARK INTRA:                  -1.495
REMARK UNBOUND:                -0.880
REMARK SMILES CCCCCCCCCCCC(=O)[O-]
REMARK SMILES IDX 7 1 8 2 9 3 10 4 11 5 12 6 13 7 14 8 6 9 5 10 4 11 3 12 2 13
REMARK SMILES IDX 1 14
REMARK H PARENT
REMARK Flexibility Score: inf
ROOT
ATOM      1  C   UNL     1      45.291  30.640  47.121  1.00  0.00     0.000 C 
ENDROOT
BRANCH   1   2
ATOM      2  C   UNL     1      46.491  31.389  47.728  1.00  0.00     0.000 C 
BRANCH   2   3
ATOM      3  C   UNL     1      46.064  32.355  48.854  1.00  0.00     0.000 C 
BRANCH   3   4
ATOM      4  C   UNL     1      44.622  32.133  49.342  1.00  0.00     0.006 C 
BRANCH   4   5
ATOM      5  C   UNL     1      43.927  33.433  49.761  1.00  0.00     0.053 C 
BRANCH   5   6
ATOM      6  C   UNL     1      42.975  33.884  48.698  1.00  0.00     0.041 C 
ATOM      7  O   UNL     1      41.932  34.514  49.008  1.00  0.00    -0.550 OA
ATOM      8  O   UNL     1      43.267  33.649  47.360  1.00  0.00    -0.550 OA
ENDBRANCH   5   6
ENDBRANCH   4   5
ENDBRANCH   3   4
ENDBRANCH   2   3
ENDBRANCH   1   2
BRANCH   1   9
ATOM      9  C   UNL     1      45.435  29.112  47.217  1.00  0.00     0.000 C 
BRANCH   9  10
ATOM     10  C   UNL     1      44.797  28.535  48.489  1.00  0.00    -0.000 C 
BRANCH  10  11
ATOM     11  C   UNL     1      45.868  27.997  49.445  1.00  0.00    -0.000 C 
BRANCH  11  12
ATOM     12  C   UNL     1      46.024  28.911  50.669  1.00  0.00    -0.000 C 
BRANCH  12  13
ATOM     13  C   UNL     1      47.434  29.508  50.785  1.00  0.00    -0.003 C 
ATOM     14  C   UNL     1      48.426  28.874  49.810  1.00  0.00     0.004 C 
ENDBRANCH  12  13
ENDBRANCH  11  12
ENDBRANCH  10  11
ENDBRANCH   9  10
ENDBRANCH   1   9
TORSDOF 10
ENDMDL
MODEL 3
REMARK VINA RESULT:    -3.322      3.421      6.559
REMARK INTER + INTRA:          -6.145
REMARK INTER:                  -5.112
REMARK INTRA:                  -1.033
REMARK UNBOUND:                -0.880
REMARK SMILES CCCCCCCCCCCC(=O)[O-]
REMARK SMILES IDX 7 1 8 2 9 3 10 4 11 5 12 6 13 7 14 8 6 9 5 10 4 11 3 12 2 13
REMARK SMILES IDX 1 14
REMARK H PARENT
REMARK Flexibility Score: inf
ROOT
ATOM      1  C   UNL     1      47.197  31.258  48.730  1.00  0.00     0.000 C 
ENDROOT
BRANCH   1   2
ATOM      2  C   UNL     1      45.773  31.553  48.225  1.00  0.00     0.000 C 
BRANCH   2   3
ATOM      3  C   UNL     1      44.811  31.912  49.377  1.00  0.00     0.000 C 
BRANCH   3   4
ATOM      4  C   UNL     1      44.450  33.407  49.434  1.00  0.00     0.006 C 
BRANCH   4   5
ATOM      5  C   UNL     1      43.127  33.729  48.729  1.00  0.00     0.053 C 
BRANCH   5   6
ATOM      6  C   UNL     1      42.427  34.855  49.422  1.00  0.00     0.041 C 
ATOM      7  O   UNL     1      42.729  35.155  50.606  1.00  0.00    -0.550 OA
ATOM      8  O   UNL     1      41.475  35.605  48.742  1.00  0.00    -0.550 OA
ENDBRANCH   5   6
ENDBRANCH   4   5
ENDBRANCH   3   4
ENDBRANCH   2   3
ENDBRANCH   1   2
BRANCH   1   9
ATOM      9  C   UNL     1      47.259  31.075  50.255  1.00  0.00     0.000 C 
BRANCH   9  10
ATOM     10  C   UNL     1      47.675  29.654  50.664  1.00  0.00    -0.000 C 
BRANCH  10  11
ATOM     11  C   UNL     1      46.447  28.787  50.965  1.00  0.00    -0.000 C 
BRANCH  11  12
ATOM     12  C   UNL     1      46.131  27.853  49.787  1.00  0.00    -0.000 C 
BRANCH  12  13
ATOM     13  C   UNL     1      44.814  28.216  49.083  1.00  0.00    -0.003 C 
ATOM     14  C   UNL     1      44.753  27.707  47.643  1.00  0.00     0.004 C 
ENDBRANCH  12  13
ENDBRANCH  11  12
ENDBRANCH  10  11
ENDBRANCH   9  10
ENDBRANCH   1   9
TORSDOF 10
ENDMDL
MODEL 4
REMARK VINA RESULT:    -3.274      1.435      3.093
REMARK INTER + INTRA:          -6.068
REMARK INTER:                  -5.359
REMARK INTRA:                  -0.709
REMARK UNBOUND:                -0.880
REMARK SMILES CCCCCCCCCCCC(=O)[O-]
REMARK SMILES IDX 7 1 8 2 9 3 10 4 11 5 12 6 13 7 14 8 6 9 5 10 4 11 3 12 2 13
REMARK SMILES IDX 1 14
REMARK H PARENT
REMARK Flexibility Score: inf
ROOT
ATOM      1  C   UNL     1      46.732  32.808  48.969  1.00  0.00     0.000 C 
ENDROOT
BRANCH   1   2
ATOM      2  C   UNL     1      47.400  31.426  49.078  1.00  0.00     0.000 C 
BRANCH   2   3
ATOM      3  C   UNL     1      47.423  30.906  50.531  1.00  0.00     0.000 C 
BRANCH   3   4
ATOM      4  C   UNL     1      46.926  29.457  50.675  1.00  0.00     0.006 C 
BRANCH   4   5
ATOM      5  C   UNL     1      45.473  29.277  50.224  1.00  0.00     0.053 C 
BRANCH   5   6
ATOM      6  C   UNL     1      45.392  28.286  49.105  1.00  0.00     0.041 C 
ATOM      7  O   UNL     1      44.294  27.740  48.822  1.00  0.00    -0.550 OA
ATOM      8  O   UNL     1      46.519  28.003  48.344  1.00  0.00    -0.550 OA
ENDBRANCH   5   6
ENDBRANCH   4   5
ENDBRANCH   3   4
ENDBRANCH   2   3
ENDBRANCH   1   2
BRANCH   1   9
ATOM      9  C   UNL     1      45.257  32.722  48.543  1.00  0.00     0.000 C 
BRANCH   9  10
ATOM     10  C   UNL     1      44.294  32.737  49.739  1.00  0.00    -0.000 C 
BRANCH  10  11
ATOM     11  C   UNL     1      43.420  33.997  49.725  1.00  0.00    -0.000 C 
BRANCH  11  12
ATOM     12  C   UNL     1      42.530  34.036  48.474  1.00  0.00    -0.000 C 
BRANCH  12  13
ATOM     13  C   UNL     1      41.371  35.036  48.605  1.00  0.00    -0.003 C 
ATOM     14  C   UNL     1      40.625  35.253  47.289  1.00  0.00     0.004 C 
ENDBRANCH  12  13
ENDBRANCH  11  12
ENDBRANCH  10  11
ENDBRANCH   9  10
ENDBRANCH   1   9
TORSDOF 10
ENDMDL
MODEL 5
REMARK VINA RESULT:    -3.262      3.194      6.315
REMARK INTER + INTRA:          -6.049
REMARK INTER:                  -5.182
REMARK INTRA:                  -0.867
REMARK UNBOUND:                -0.880
REMARK SMILES CCCCCCCCCCCC(=O)[O-]
REMARK SMILES IDX 7 1 8 2 9 3 10 4 11 5 12 6 13 7 14 8 6 9 5 10 4 11 3 12 2 13
REMARK SMILES IDX 1 14
REMARK H PARENT
REMARK Flexibility Score: inf
ROOT
ATOM      1  C   UNL     1      44.258  33.362  48.372  1.00  0.00     0.000 C 
ENDROOT
BRANCH   1   2
ATOM      2  C   UNL     1      43.876  33.552  49.851  1.00  0.00     0.000 C 
BRANCH   2   3
ATOM      3  C   UNL     1      42.938  34.761  50.058  1.00  0.00     0.000 C 
BRANCH   3   4
ATOM      4  C   UNL     1      42.553  35.473  48.749  1.00  0.00     0.006 C 
BRANCH   4   5
ATOM      5  C   UNL     1      41.050  35.413  48.457  1.00  0.00     0.053 C 
BRANCH   5   6
ATOM      6  C   UNL     1      40.810  35.108  47.012  1.00  0.00     0.041 C 
ATOM      7  O   UNL     1      40.299  35.977  46.258  1.00  0.00    -0.550 OA
ATOM      8  O   UNL     1      41.197  33.882  46.486  1.00  0.00    -0.550 OA
ENDBRANCH   5   6
ENDBRANCH   4   5
ENDBRANCH   3   4
ENDBRANCH   2   3
ENDBRANCH   1   2
BRANCH   1   9
ATOM      9  C   UNL     1      45.779  33.317  48.154  1.00  0.00     0.000 C 
BRANCH   9  10
ATOM     10  C   UNL     1      46.349  31.894  48.245  1.00  0.00    -0.000 C 
BRANCH  10  11
ATOM     11  C   UNL     1      45.333  30.862  47.740  1.00  0.00    -0.000 C 
BRANCH  11  12
ATOM     12  C   UNL     1      45.164  29.716  48.749  1.00  0.00    -0.000 C 
BRANCH  12  13
ATOM     13  C   UNL     1      45.723  30.065  50.137  1.00  0.00    -0.003 C 
ATOM     14  C   UNL     1      46.580  28.946  50.728  1.00  0.00     0.004 C 
ENDBRANCH  12  13
ENDBRANCH  11  12
ENDBRANCH  10  11
ENDBRANCH   9  10
ENDBRANCH   1   9
TORSDOF 10
ENDMDL
MODEL 6
REMARK VINA RESULT:    -3.231      1.292      3.083
REMARK INTER + INTRA:          -6.000
REMARK INTER:                  -4.590
REMARK INTRA:                  -1.410
REMARK UNBOUND:                -0.880
REMARK SMILES CCCCCCCCCCCC(=O)[O-]
REMARK SMILES IDX 7 1 8 2 9 3 10 4 11 5 12 6 13 7 14 8 6 9 5 10 4 11 3 12 2 13
REMARK SMILES IDX 1 14
REMARK H PARENT
REMARK Flexibility Score: inf
ROOT
ATOM      1  C   UNL     1      43.252  33.833  45.485  1.00  0.00     0.000 C 
ENDROOT
BRANCH   1   2
ATOM      2  C   UNL     1      44.050  33.011  46.513  1.00  0.00     0.000 C 
BRANCH   2   3
ATOM      3  C   UNL     1      45.111  33.863  47.242  1.00  0.00     0.000 C 
BRANCH   3   4
ATOM      4  C   UNL     1      45.600  33.242  48.561  1.00  0.00     0.006 C 
BRANCH   4   5
ATOM      5  C   UNL     1      44.648  32.171  49.106  1.00  0.00     0.053 C 
BRANCH   5   6
ATOM      6  C   UNL     1      45.386  30.893  49.354  1.00  0.00     0.041 C 
ATOM      7  O   UNL     1      46.418  30.888  50.074  1.00  0.00    -0.550 OA
ATOM      8  O   UNL     1      44.906  29.701  48.828  1.00  0.00    -0.550 OA
ENDBRANCH   5   6
ENDBRANCH   4   5
ENDBRANCH   3   4
ENDBRANCH   2   3
ENDBRANCH   1   2
BRANCH   1   9
ATOM      9  C   UNL     1      42.453  34.976  46.131  1.00  0.00     0.000 C 
BRANCH   9  10
ATOM     10  C   UNL     1      41.102  34.509  46.694  1.00  0.00    -0.000 C 
BRANCH  10  11
ATOM     11  C   UNL     1      41.008  34.786  48.199  1.00  0.00    -0.000 C 
BRANCH  11  12
ATOM     12  C   UNL     1      42.216  35.602  48.684  1.00  0.00    -0.000 C 
BRANCH  12  13
ATOM     13  C   UNL     1      42.737  35.128  50.050  1.00  0.00    -0.003 C 
ATOM     14  C   UNL     1      43.940  35.935  50.536  1.00  0.00     0.004 C 
ENDBRANCH  12  13
ENDBRANCH  11  12
ENDBRANCH  10  11
ENDBRANCH   9  10
ENDBRANCH   1   9
TORSDOF 10
ENDMDL
MODEL 7
REMARK VINA RESULT:    -3.222      1.494      2.991
REMARK INTER + INTRA:          -5.986
REMARK INTER:                  -4.742
REMARK INTRA:                  -1.244
REMARK UNBOUND:                -0.880
REMARK SMILES CCCCCCCCCCCC(=O)[O-]
REMARK SMILES IDX 7 1 8 2 9 3 10 4 11 5 12 6 13 7 14 8 6 9 5 10 4 11 3 12 2 13
REMARK SMILES IDX 1 14
REMARK H PARENT
REMARK Flexibility Score: inf
ROOT
ATOM      1  C   UNL     1      45.412  33.807  47.565  1.00  0.00     0.000 C 
ENDROOT
BRANCH   1   2
ATOM      2  C   UNL     1      45.851  33.129  48.875  1.00  0.00     0.000 C 
BRANCH   2   3
ATOM      3  C   UNL     1      44.795  32.131  49.395  1.00  0.00     0.000 C 
BRANCH   3   4
ATOM      4  C   UNL     1      45.357  30.724  49.665  1.00  0.00     0.006 C 
BRANCH   4   5
ATOM      5  C   UNL     1      46.889  30.682  49.658  1.00  0.00     0.053 C 
BRANCH   5   6
ATOM      6  C   UNL     1      47.384  29.554  50.507  1.00  0.00     0.041 C 
ATOM      7  O   UNL     1      46.572  28.850  51.162  1.00  0.00    -0.550 OA
ATOM      8  O   UNL     1      48.739  29.249  50.536  1.00  0.00    -0.550 OA
ENDBRANCH   5   6
ENDBRANCH   4   5
ENDBRANCH   3   4
ENDBRANCH   2   3
ENDBRANCH   1   2
BRANCH   1   9
ATOM      9  C   UNL     1      44.117  33.209  46.993  1.00  0.00     0.000 C 
BRANCH   9  10
ATOM     10  C   UNL     1      42.990  34.245  46.867  1.00  0.00    -0.000 C 
BRANCH  10  11
ATOM     11  C   UNL     1      41.967  34.084  47.998  1.00  0.00    -0.000 C 
BRANCH  11  12
ATOM     12  C   UNL     1      41.976  35.308  48.926  1.00  0.00    -0.000 C 
BRANCH  12  13
ATOM     13  C   UNL     1      42.788  35.071  50.208  1.00  0.00    -0.003 C 
ATOM     14  C   UNL     1      43.985  36.014  50.332  1.00  0.00     0.004 C 
ENDBRANCH  12  13
ENDBRANCH  11  12
ENDBRANCH  10  11
ENDBRANCH   9  10
ENDBRANCH   1   9
TORSDOF 10
ENDMDL
MODEL 8
REMARK VINA RESULT:    -3.145      1.456      2.091
REMARK INTER + INTRA:          -5.864
REMARK INTER:                  -5.285
REMARK INTRA:                  -0.580
REMARK UNBOUND:                -0.880
REMARK SMILES CCCCCCCCCCCC(=O)[O-]
REMARK SMILES IDX 7 1 8 2 9 3 10 4 11 5 12 6 13 7 14 8 6 9 5 10 4 11 3 12 2 13
REMARK SMILES IDX 1 14
REMARK H PARENT
REMARK Flexibility Score: inf
ROOT
ATOM      1  C   UNL     1      44.169  33.107  48.940  1.00  0.00     0.000 C 
ENDROOT
BRANCH   1   2
ATOM      2  C   UNL     1      44.857  31.779  49.303  1.00  0.00     0.000 C 
BRANCH   2   3
ATOM      3  C   UNL     1      46.367  31.961  49.570  1.00  0.00     0.000 C 
BRANCH   3   4
ATOM      4  C   UNL     1      47.261  31.097  48.665  1.00  0.00     0.006 C 
BRANCH   4   5
ATOM      5  C   UNL     1      47.030  29.594  48.855  1.00  0.00     0.053 C 
BRANCH   5   6
ATOM      6  C   UNL     1      47.472  29.166  50.218  1.00  0.00     0.041 C 
ATOM      7  O   UNL     1      48.681  29.269  50.553  1.00  0.00    -0.550 OA
ATOM      8  O   UNL     1      46.541  28.698  51.136  1.00  0.00    -0.550 OA
ENDBRANCH   5   6
ENDBRANCH   4   5
ENDBRANCH   3   4
ENDBRANCH   2   3
ENDBRANCH   1   2
BRANCH   1   9
ATOM      9  C   UNL     1      43.771  33.926  50.179  1.00  0.00     0.000 C 
BRANCH   9  10
ATOM     10  C   UNL     1      42.647  34.932  49.888  1.00  0.00    -0.000 C 
BRANCH  10  11
ATOM     11  C   UNL     1      41.809  34.485  48.684  1.00  0.00    -0.000 C 
BRANCH  11  12
ATOM     12  C   UNL     1      41.207  35.694  47.953  1.00  0.00    -0.000 C 
BRANCH  12  13
ATOM     13  C   UNL     1      40.539  35.308  46.625  1.00  0.00    -0.003 C 
ATOM     14  C   UNL     1      41.300  34.215  45.876  1.00  0.00     0.004 C 
ENDBRANCH  12  13
ENDBRANCH  11  12
ENDBRANCH  10  11
ENDBRANCH   9  10
ENDBRANCH   1   9
TORSDOF 10
ENDMDL
MODEL 9
REMARK VINA RESULT:    -3.141      3.300      6.525
REMARK INTER + INTRA:          -5.858
REMARK INTER:                  -4.739
REMARK INTRA:                  -1.119
REMARK UNBOUND:                -0.880
REMARK SMILES CCCCCCCCCCCC(=O)[O-]
REMARK SMILES IDX 7 1 8 2 9 3 10 4 11 5 12 6 13 7 14 8 6 9 5 10 4 11 3 12 2 13
REMARK SMILES IDX 1 14
REMARK H PARENT
REMARK Flexibility Score: inf
ROOT
ATOM      1  C   UNL     1      45.064  31.247  48.173  1.00  0.00     0.000 C 
ENDROOT
BRANCH   1   2
ATOM      2  C   UNL     1      44.760  32.279  49.273  1.00  0.00     0.000 C 
BRANCH   2   3
ATOM      3  C   UNL     1      44.792  33.726  48.738  1.00  0.00     0.000 C 
BRANCH   3   4
ATOM      4  C   UNL     1      44.492  34.787  49.810  1.00  0.00     0.006 C 
BRANCH   4   5
ATOM      5  C   UNL     1      42.996  34.916  50.120  1.00  0.00     0.053 C 
BRANCH   5   6
ATOM      6  C   UNL     1      42.227  35.206  48.870  1.00  0.00     0.041 C 
ATOM      7  O   UNL     1      42.386  36.300  48.268  1.00  0.00    -0.550 OA
ATOM      8  O   UNL     1      41.371  34.248  48.342  1.00  0.00    -0.550 OA
ENDBRANCH   5   6
ENDBRANCH   4   5
ENDBRANCH   3   4
ENDBRANCH   2   3
ENDBRANCH   1   2
BRANCH   1   9
ATOM      9  C   UNL     1      45.248  29.825  48.727  1.00  0.00     0.000 C 
BRANCH   9  10
ATOM     10  C   UNL     1      45.642  29.814  50.211  1.00  0.00    -0.000 C 
BRANCH  10  11
ATOM     11  C   UNL     1      47.134  29.503  50.381  1.00  0.00    -0.000 C 
BRANCH  11  12
ATOM     12  C   UNL     1      47.892  30.724  50.924  1.00  0.00    -0.000 C 
BRANCH  12  13
ATOM     13  C   UNL     1      48.667  31.472  49.830  1.00  0.00    -0.003 C 
ATOM     14  C   UNL     1      48.334  32.963  49.782  1.00  0.00     0.004 C 
ENDBRANCH  12  13
ENDBRANCH  11  12
ENDBRANCH  10  11
ENDBRANCH   9  10
ENDBRANCH   1   9
TORSDOF 10
ENDMDL
