MODEL 1
REMARK VINA RESULT:     0.147      0.000      0.000
REMARK INTER + INTRA:          -0.185
REMARK INTER:                   0.335
REMARK INTRA:                  -0.520
REMARK UNBOUND:                -0.520
REMARK SMILES CCCCCCCCCCCCCCCCCCCCCCCC(=O)[O-]
REMARK SMILES IDX 13 1 14 2 15 3 16 4 17 5 18 6 19 7 20 8 21 9 22 10 23 11
REMARK SMILES IDX 24 12 25 13 26 14 12 15 11 16 10 17 9 18 8 19 7 20 6 21 5 22
REMARK SMILES IDX 4 23 3 24 2 25 1 26
REMARK H PARENT
REMARK Flexibility Score: inf
ROOT
ATOM      1  C   UNL     1       9.551  79.712   2.811  1.00  0.00     0.000 C 
ENDROOT
BRANCH   1   2
ATOM      2  C   UNL     1       9.537  79.029   4.187  1.00  0.00     0.000 C 
BRANCH   2   3
ATOM      3  C   UNL     1       8.114  78.678   4.657  1.00  0.00     0.000 C 
BRANCH   3   4
ATOM      4  C   UNL     1       7.465  79.812   5.471  1.00  0.00     0.000 C 
BRANCH   4   5
ATOM      5  C   UNL     1       6.694  79.350   6.724  1.00  0.00     0.000 C 
BRANCH   5   6
ATOM      6  C   UNL     1       6.276  77.866   6.725  1.00  0.00     0.000 C 
BRANCH   6   7
ATOM      7  C   UNL     1       4.759  77.615   6.809  1.00  0.00     0.000 C 
BRANCH   7   8
ATOM      8  C   UNL     1       4.228  77.654   8.251  1.00  0.00     0.000 C 
BRANCH   8   9
ATOM      9  C   UNL     1       3.117  78.700   8.458  1.00  0.00     0.000 C 
BRANCH   9  10
ATOM     10  C   UNL     1       2.995  79.253   9.890  1.00  0.00     0.006 C 
BRANCH  10  11
ATOM     11  C   UNL     1       4.349  79.386  10.597  1.00  0.00     0.053 C 
BRANCH  11  12
ATOM     12  C   UNL     1       4.634  78.172  11.421  1.00  0.00     0.041 C 
ATOM     13  O   UNL     1       3.696  77.407  11.767  1.00  0.00    -0.550 OA
ATOM     14  O   UNL     1       5.931  77.901  11.835  1.00  0.00    -0.550 OA
ENDBRANCH  11  12
ENDBRANCH  10  11
ENDBRANCH   9  10
ENDBRANCH   8   9
ENDBRANCH   7   8
ENDBRANCH   6   7
ENDBRANCH   5   6
ENDBRANCH   4   5
ENDBRANCH   3   4
ENDBRANCH   2   3
ENDBRANCH   1   2
BRANCH   1  15
ATOM     15  C   UNL     1      10.966  80.125   2.372  1.00  0.00     0.000 C 
BRANCH  15  16
ATOM     16  C   UNL     1      11.741  78.976   1.702  1.00  0.00     0.000 C 
BRANCH  16  17
ATOM     17  C   UNL     1      13.122  78.706   2.338  1.00  0.00     0.000 C 
BRANCH  17  18
ATOM     18  C   UNL     1      14.078  79.910   2.268  1.00  0.00    -0.000 C 
BRANCH  18  19
ATOM     19  C   UNL     1      14.753  80.045   0.895  1.00  0.00    -0.000 C 
BRANCH  19  20
ATOM     20  C   UNL     1      14.189  79.018  -0.095  1.00  0.00    -0.000 C 
BRANCH  20  21
ATOM     21  C   UNL     1      15.125  78.835  -1.300  1.00  0.00    -0.000 C 
BRANCH  21  22
ATOM     22  C   UNL     1      14.942  79.944  -2.349  1.00  0.00    -0.000 C 
BRANCH  22  23
ATOM     23  C   UNL     1      14.317  79.416  -3.653  1.00  0.00    -0.000 C 
BRANCH  23  24
ATOM     24  C   UNL     1      14.983  79.997  -4.912  1.00  0.00    -0.000 C 
BRANCH  24  25
ATOM     25  C   UNL     1      14.431  79.458  -6.245  1.00  0.00    -0.003 C 
ATOM     26  C   UNL     1      14.223  77.944  -6.234  1.00  0.00     0.004 C 
ENDBRANCH  24  25
ENDBRANCH  23  24
ENDBRANCH  22  23
ENDBRANCH  21  22
ENDBRANCH  20  21
ENDBRANCH  19  20
ENDBRANCH  18  19
ENDBRANCH  17  18
ENDBRANCH  16  17
ENDBRANCH  15  16
ENDBRANCH   1  15
TORSDOF 22
ENDMDL
MODEL 2
REMARK VINA RESULT:     0.242      4.467     13.257
REMARK INTER + INTRA:           0.032
REMARK INTER:                   0.978
REMARK INTRA:                  -0.945
REMARK UNBOUND:                -0.520
REMARK SMILES CCCCCCCCCCCCCCCCCCCCCCCC(=O)[O-]
REMARK SMILES IDX 13 1 14 2 15 3 16 4 17 5 18 6 19 7 20 8 21 9 22 10 23 11
REMARK SMILES IDX 24 12 25 13 26 14 12 15 11 16 10 17 9 18 8 19 7 20 6 21 5 22
REMARK SMILES IDX 4 23 3 24 2 25 1 26
REMARK H PARENT
REMARK Flexibility Score: inf
ROOT
ATOM      1  C   UNL     1       8.392  78.202   4.954  1.00  0.00     0.000 C 
ENDROOT
BRANCH   1   2
ATOM      2  C   UNL     1       8.049  79.186   3.825  1.00  0.00     0.000 C 
BRANCH   2   3
ATOM      3  C   UNL     1       9.228  80.108   3.468  1.00  0.00     0.000 C 
BRANCH   3   4
ATOM      4  C   UNL     1      10.281  79.410   2.589  1.00  0.00     0.000 C 
BRANCH   4   5
ATOM      5  C   UNL     1      11.647  80.122   2.527  1.00  0.00     0.000 C 
BRANCH   5   6
ATOM      6  C   UNL     1      12.873  79.187   2.503  1.00  0.00     0.000 C 
BRANCH   6   7
ATOM      7  C   UNL     1      14.238  79.897   2.561  1.00  0.00     0.000 C 
BRANCH   7   8
ATOM      8  C   UNL     1      14.849  80.124   1.169  1.00  0.00     0.000 C 
BRANCH   8   9
ATOM      9  C   UNL     1      13.862  79.838   0.021  1.00  0.00     0.000 C 
BRANCH   9  10
ATOM     10  C   UNL     1      14.326  78.772  -0.990  1.00  0.00     0.006 C 
BRANCH  10  11
ATOM     11  C   UNL     1      13.401  77.550  -1.037  1.00  0.00     0.053 C 
BRANCH  11  12
ATOM     12  C   UNL     1      13.780  76.565   0.021  1.00  0.00     0.041 C 
ATOM     13  O   UNL     1      13.076  75.538   0.213  1.00  0.00    -0.550 OA
ATOM     14  O   UNL     1      14.892  76.795   0.818  1.00  0.00    -0.550 OA
ENDBRANCH  11  12
ENDBRANCH  10  11
ENDBRANCH   9  10
ENDBRANCH   8   9
ENDBRANCH   7   8
ENDBRANCH   6   7
ENDBRANCH   5   6
ENDBRANCH   4   5
ENDBRANCH   3   4
ENDBRANCH   2   3
ENDBRANCH   1   2
BRANCH   1  15
ATOM     15  C   UNL     1       7.641  78.517   6.259  1.00  0.00     0.000 C 
BRANCH  15  16
ATOM     16  C   UNL     1       6.260  77.843   6.329  1.00  0.00     0.000 C 
BRANCH  16  17
ATOM     17  C   UNL     1       5.464  78.191   7.606  1.00  0.00     0.000 C 
BRANCH  17  18
ATOM     18  C   UNL     1       4.293  77.230   7.882  1.00  0.00    -0.000 C 
BRANCH  18  19
ATOM     19  C   UNL     1       2.965  77.971   8.100  1.00  0.00    -0.000 C 
BRANCH  19  20
ATOM     20  C   UNL     1       3.191  79.486   8.185  1.00  0.00    -0.000 C 
BRANCH  20  21
ATOM     21  C   UNL     1       3.622  79.905   9.599  1.00  0.00    -0.000 C 
BRANCH  21  22
ATOM     22  C   UNL     1       2.779  79.221  10.688  1.00  0.00    -0.000 C 
BRANCH  22  23
ATOM     23  C   UNL     1       3.334  79.476  12.101  1.00  0.00    -0.000 C 
BRANCH  23  24
ATOM     24  C   UNL     1       4.865  79.619  12.125  1.00  0.00    -0.000 C 
BRANCH  24  25
ATOM     25  C   UNL     1       5.641  78.312  11.877  1.00  0.00    -0.003 C 
ATOM     26  C   UNL     1       4.769  77.065  12.021  1.00  0.00     0.004 C 
ENDBRANCH  24  25
ENDBRANCH  23  24
ENDBRANCH  22  23
ENDBRANCH  21  22
ENDBRANCH  20  21
ENDBRANCH  19  20
ENDBRANCH  18  19
ENDBRANCH  17  18
ENDBRANCH  16  17
ENDBRANCH  15  16
ENDBRANCH   1  15
TORSDOF 22
ENDMDL
MODEL 3
REMARK VINA RESULT:     1.403      1.114      2.660
REMARK INTER + INTRA:           2.687
REMARK INTER:                   3.941
REMARK INTRA:                  -1.255
REMARK UNBOUND:                -0.520
REMARK SMILES CCCCCCCCCCCCCCCCCCCCCCCC(=O)[O-]
REMARK SMILES IDX 13 1 14 2 15 3 16 4 17 5 18 6 19 7 20 8 21 9 22 10 23 11
REMARK SMILES IDX 24 12 25 13 26 14 12 15 11 16 10 17 9 18 8 19 7 20 6 21 5 22
REMARK SMILES IDX 4 23 3 24 2 25 1 26
REMARK H PARENT
REMARK Flexibility Score: inf
ROOT
ATOM      1  C   UNL     1       8.040  79.081   5.203  1.00  0.00     0.000 C 
ENDROOT
BRANCH   1   2
ATOM      2  C   UNL     1       7.424  77.743   5.639  1.00  0.00     0.000 C 
BRANCH   2   3
ATOM      3  C   UNL     1       6.220  77.926   6.580  1.00  0.00     0.000 C 
BRANCH   3   4
ATOM      4  C   UNL     1       4.924  77.326   6.004  1.00  0.00     0.000 C 
BRANCH   4   5
ATOM      5  C   UNL     1       3.677  77.509   6.892  1.00  0.00     0.000 C 
BRANCH   5   6
ATOM      6  C   UNL     1       3.746  76.821   8.270  1.00  0.00     0.000 C 
BRANCH   6   7
ATOM      7  C   UNL     1       3.156  77.634   9.436  1.00  0.00     0.000 C 
BRANCH   7   8
ATOM      8  C   UNL     1       2.752  79.059   9.024  1.00  0.00     0.000 C 
BRANCH   8   9
ATOM      9  C   UNL     1       3.099  80.117  10.089  1.00  0.00     0.000 C 
BRANCH   9  10
ATOM     10  C   UNL     1       4.559  80.096  10.582  1.00  0.00     0.006 C 
BRANCH  10  11
ATOM     11  C   UNL     1       4.713  79.459  11.968  1.00  0.00     0.053 C 
BRANCH  11  12
ATOM     12  C   UNL     1       5.936  78.601  12.019  1.00  0.00     0.041 C 
ATOM     13  O   UNL     1       5.831  77.346  11.996  1.00  0.00    -0.550 OA
ATOM     14  O   UNL     1       7.190  79.185  12.125  1.00  0.00    -0.550 OA
ENDBRANCH  11  12
ENDBRANCH  10  11
ENDBRANCH   9  10
ENDBRANCH   8   9
ENDBRANCH   7   8
ENDBRANCH   6   7
ENDBRANCH   5   6
ENDBRANCH   4   5
ENDBRANCH   3   4
ENDBRANCH   2   3
ENDBRANCH   1   2
BRANCH   1  15
ATOM     15  C   UNL     1       8.068  79.247   3.674  1.00  0.00     0.000 C 
BRANCH  15  16
ATOM     16  C   UNL     1       9.236  80.125   3.192  1.00  0.00     0.000 C 
BRANCH  16  17
ATOM     17  C   UNL     1      10.106  79.457   2.105  1.00  0.00     0.000 C 
BRANCH  17  18
ATOM     18  C   UNL     1      11.458  78.938   2.631  1.00  0.00    -0.000 C 
BRANCH  18  19
ATOM     19  C   UNL     1      12.441  80.075   2.944  1.00  0.00    -0.000 C 
BRANCH  19  20
ATOM     20  C   UNL     1      13.825  79.779   2.353  1.00  0.00    -0.000 C 
BRANCH  20  21
ATOM     21  C   UNL     1      13.723  78.835   1.144  1.00  0.00    -0.000 C 
BRANCH  21  22
ATOM     22  C   UNL     1      14.052  79.550  -0.178  1.00  0.00    -0.000 C 
BRANCH  22  23
ATOM     23  C   UNL     1      13.701  78.693  -1.407  1.00  0.00    -0.000 C 
BRANCH  23  24
ATOM     24  C   UNL     1      14.467  79.119  -2.671  1.00  0.00    -0.000 C 
BRANCH  24  25
ATOM     25  C   UNL     1      14.251  78.212  -3.896  1.00  0.00    -0.003 C 
ATOM     26  C   UNL     1      14.686  78.868  -5.207  1.00  0.00     0.004 C 
ENDBRANCH  24  25
ENDBRANCH  23  24
ENDBRANCH  22  23
ENDBRANCH  21  22
ENDBRANCH  20  21
ENDBRANCH  19  20
ENDBRANCH  18  19
ENDBRANCH  17  18
ENDBRANCH  16  17
ENDBRANCH  15  16
ENDBRANCH   1  15
TORSDOF 22
ENDMDL
MODEL 4
REMARK VINA RESULT:     2.537      2.162      3.591
REMARK INTER + INTRA:           5.281
REMARK INTER:                   4.488
REMARK INTRA:                   0.793
REMARK UNBOUND:                -0.520
REMARK SMILES CCCCCCCCCCCCCCCCCCCCCCCC(=O)[O-]
REMARK SMILES IDX 13 1 14 2 15 3 16 4 17 5 18 6 19 7 20 8 21 9 22 10 23 11
REMARK SMILES IDX 24 12 25 13 26 14 12 15 11 16 10 17 9 18 8 19 7 20 6 21 5 22
REMARK SMILES IDX 4 23 3 24 2 25 1 26
REMARK H PARENT
REMARK Flexibility Score: inf
ROOT
ATOM      1  C   UNL     1       7.667  78.432   5.220  1.00  0.00     0.000 C 
ENDROOT
BRANCH   1   2
ATOM      2  C   UNL     1       6.307  77.958   4.685  1.00  0.00     0.000 C 
BRANCH   2   3
ATOM      3  C   UNL     1       5.265  77.771   5.801  1.00  0.00     0.000 C 
BRANCH   3   4
ATOM      4  C   UNL     1       3.881  77.372   5.258  1.00  0.00     0.000 C 
BRANCH   4   5
ATOM      5  C   UNL     1       2.733  77.463   6.283  1.00  0.00     0.000 C 
BRANCH   5   6
ATOM      6  C   UNL     1       2.834  76.483   7.469  1.00  0.00     0.000 C 
BRANCH   6   7
ATOM      7  C   UNL     1       2.856  77.142   8.860  1.00  0.00     0.000 C 
BRANCH   7   8
ATOM      8  C   UNL     1       3.206  78.638   8.805  1.00  0.00     0.000 C 
BRANCH   8   9
ATOM      9  C   UNL     1       3.026  79.351  10.158  1.00  0.00     0.000 C 
BRANCH   9  10
ATOM     10  C   UNL     1       4.261  80.123  10.661  1.00  0.00     0.006 C 
BRANCH  10  11
ATOM     11  C   UNL     1       4.860  79.525  11.939  1.00  0.00     0.053 C 
BRANCH  11  12
ATOM     12  C   UNL     1       4.873  78.032  11.865  1.00  0.00     0.041 C 
ATOM     13  O   UNL     1       5.925  77.422  11.539  1.00  0.00    -0.550 OA
ATOM     14  O   UNL     1       3.714  77.314  12.123  1.00  0.00    -0.550 OA
ENDBRANCH  11  12
ENDBRANCH  10  11
ENDBRANCH   9  10
ENDBRANCH   8   9
ENDBRANCH   7   8
ENDBRANCH   6   7
ENDBRANCH   5   6
ENDBRANCH   4   5
ENDBRANCH   3   4
ENDBRANCH   2   3
ENDBRANCH   1   2
BRANCH   1  15
ATOM     15  C   UNL     1       8.162  79.711   4.524  1.00  0.00     0.000 C 
BRANCH  15  16
ATOM     16  C   UNL     1       9.292  79.440   3.515  1.00  0.00     0.000 C 
BRANCH  16  17
ATOM     17  C   UNL     1      10.685  79.890   4.010  1.00  0.00     0.000 C 
BRANCH  17  18
ATOM     18  C   UNL     1      11.718  80.047   2.879  1.00  0.00    -0.000 C 
BRANCH  18  19
ATOM     19  C   UNL     1      11.858  78.775   2.030  1.00  0.00    -0.000 C 
BRANCH  19  20
ATOM     20  C   UNL     1      12.595  79.071   0.718  1.00  0.00    -0.000 C 
BRANCH  20  21
ATOM     21  C   UNL     1      13.965  79.714   0.984  1.00  0.00    -0.000 C 
BRANCH  21  22
ATOM     22  C   UNL     1      15.125  78.744   0.703  1.00  0.00    -0.000 C 
BRANCH  22  23
ATOM     23  C   UNL     1      15.063  78.156  -0.718  1.00  0.00    -0.000 C 
BRANCH  23  24
ATOM     24  C   UNL     1      13.947  77.111  -0.884  1.00  0.00    -0.000 C 
BRANCH  24  25
ATOM     25  C   UNL     1      14.003  75.939   0.113  1.00  0.00    -0.003 C 
ATOM     26  C   UNL     1      14.972  76.187   1.269  1.00  0.00     0.004 C 
ENDBRANCH  24  25
ENDBRANCH  23  24
ENDBRANCH  22  23
ENDBRANCH  21  22
ENDBRANCH  20  21
ENDBRANCH  19  20
ENDBRANCH  18  19
ENDBRANCH  17  18
ENDBRANCH  16  17
ENDBRANCH  15  16
ENDBRANCH   1  15
TORSDOF 22
ENDMDL
