MODEL 1
REMARK VINA RESULT:    -7.336      0.000      0.000
REMARK INTER + INTRA:         -12.287
REMARK INTER:                 -10.766
REMARK INTRA:                  -1.521
REMARK UNBOUND:                -1.521
REMARK SMILES O=c1c(O[C@@H]2O[C@@H](CO)[C@H](O)[C@H](O)[C@H]2O)c(-c2ccc(O)c(O)c2)oc2cc(O)cc(O)c12
REMARK SMILES IDX 4 1 3 2 16 3 25 4 2 5 26 6 1 7 33 8 27 9 31 10 28 11 30 12
REMARK SMILES IDX 17 13 18 14 19 15 20 16 24 17 22 18 21 19 23 21 32 23 29 25
REMARK SMILES IDX 5 27 14 28 6 29 12 30 7 31 10 32 15 33 13 35 8 37 9 38 11 40
REMARK H PARENT 21 20 23 22 32 24 29 26 15 34 13 36 9 39 11 41
REMARK Flexibility Score: inf
ROOT
ATOM      1  O   UNL     1     -37.833   5.538  81.763  1.00  0.00    -0.454 OA
ENDROOT
BRANCH   1   2
ATOM      2  C   UNL     1     -38.624   5.008  80.726  1.00  0.00     0.214 A 
ATOM      3  C   UNL     1     -38.062   4.915  79.438  1.00  0.00     0.180 A 
ATOM      4  O   UNL     1     -38.761   4.377  78.444  1.00  0.00    -0.452 OA
ATOM      5  C   UNL     1     -39.963   4.600  80.910  1.00  0.00     0.239 A 
ATOM      6  C   UNL     1     -40.019   3.963  78.573  1.00  0.00     0.146 A 
ATOM      7  O   UNL     1     -40.520   4.735  82.029  1.00  0.00    -0.285 OA
ATOM      8  C   UNL     1     -40.686   4.063  79.817  1.00  0.00     0.111 A 
ATOM      9  C   UNL     1     -40.676   3.419  77.466  1.00  0.00     0.094 A 
ATOM     10  C   UNL     1     -42.034   3.634  79.912  1.00  0.00     0.134 A 
ATOM     11  C   UNL     1     -42.005   2.999  77.565  1.00  0.00     0.123 A 
ATOM     12  C   UNL     1     -42.678   3.121  78.784  1.00  0.00     0.093 A 
BRANCH   3  13
ATOM     13  C   UNL     1     -36.683   5.366  79.150  1.00  0.00     0.025 A 
ATOM     14  C   UNL     1     -35.577   4.532  79.385  1.00  0.00     0.016 A 
ATOM     15  C   UNL     1     -34.286   4.984  79.116  1.00  0.00     0.051 A 
ATOM     16  C   UNL     1     -34.071   6.281  78.635  1.00  0.00     0.157 A 
ATOM     17  C   UNL     1     -36.469   6.675  78.688  1.00  0.00     0.062 A 
ATOM     18  C   UNL     1     -35.175   7.143  78.437  1.00  0.00     0.158 A 
BRANCH  16  19
ATOM     19  O   UNL     1     -32.758   6.672  78.391  1.00  0.00    -0.504 OA
ATOM     20  H   UNL     1     -32.049   6.069  78.001  1.00  0.00     0.293 HD
ENDBRANCH  16  19
BRANCH  18  21
ATOM     21  O   UNL     1     -35.038   8.464  78.012  1.00  0.00    -0.504 OA
ATOM     22  H   UNL     1     -34.400   8.749  77.282  1.00  0.00     0.293 HD
ENDBRANCH  18  21
ENDBRANCH   3  13
BRANCH  10  23
ATOM     23  O   UNL     1     -42.732   3.727  81.119  1.00  0.00    -0.507 OA
ATOM     24  H   UNL     1     -42.250   3.755  82.017  1.00  0.00     0.293 HD
ENDBRANCH  10  23
BRANCH  11  25
ATOM     25  O   UNL     1     -42.669   2.469  76.467  1.00  0.00    -0.508 OA
ATOM     26  H   UNL     1     -43.636   2.700  76.255  1.00  0.00     0.293 HD
ENDBRANCH  11  25
ENDBRANCH   1   2
BRANCH   1  27
ATOM     27  C   UNL     1     -37.446   4.890  82.981  1.00  0.00     0.339 C 
ATOM     28  C   UNL     1     -35.913   4.604  83.052  1.00  0.00     0.214 C 
ATOM     29  O   UNL     1     -37.890   5.659  84.094  1.00  0.00    -0.332 OA
ATOM     30  C   UNL     1     -35.061   5.850  83.400  1.00  0.00     0.180 C 
ATOM     31  C   UNL     1     -37.252   6.929  84.129  1.00  0.00     0.179 C 
ATOM     32  C   UNL     1     -35.750   6.746  84.475  1.00  0.00     0.177 C 
BRANCH  28  33
ATOM     33  O   UNL     1     -35.636   3.559  83.962  1.00  0.00    -0.384 OA
ATOM     34  H   UNL     1     -36.278   2.800  83.829  1.00  0.00     0.211 HD
ENDBRANCH  28  33
BRANCH  30  35
ATOM     35  O   UNL     1     -34.750   6.575  82.226  1.00  0.00    -0.387 OA
ATOM     36  H   UNL     1     -35.595   6.894  81.814  1.00  0.00     0.211 HD
ENDBRANCH  30  35
BRANCH  31  37
ATOM     37  C   UNL     1     -37.996   7.837  85.125  1.00  0.00     0.191 C 
BRANCH  37  38
ATOM     38  O   UNL     1     -37.810   9.187  84.776  1.00  0.00    -0.394 OA
ATOM     39  H   UNL     1     -38.617   9.677  85.083  1.00  0.00     0.210 HD
ENDBRANCH  37  38
ENDBRANCH  31  37
BRANCH  32  40
ATOM     40  O   UNL     1     -35.064   7.979  84.567  1.00  0.00    -0.387 OA
ATOM     41  H   UNL     1     -34.471   7.937  85.361  1.00  0.00     0.211 HD
ENDBRANCH  32  40
ENDBRANCH   1  27
TORSDOF 12
ENDMDL
MODEL 2
REMARK VINA RESULT:    -7.251      0.969      1.979
REMARK INTER + INTRA:         -12.164
REMARK INTER:                 -10.415
REMARK INTRA:                  -1.749
REMARK UNBOUND:                -1.521
REMARK SMILES O=c1c(O[C@@H]2O[C@@H](CO)[C@H](O)[C@H](O)[C@H]2O)c(-c2ccc(O)c(O)c2)oc2cc(O)cc(O)c12
REMARK SMILES IDX 4 1 3 2 16 3 25 4 2 5 26 6 1 7 33 8 27 9 31 10 28 11 30 12
REMARK SMILES IDX 17 13 18 14 19 15 20 16 24 17 22 18 21 19 23 21 32 23 29 25
REMARK SMILES IDX 5 27 14 28 6 29 12 30 7 31 10 32 15 33 13 35 8 37 9 38 11 40
REMARK H PARENT 21 20 23 22 32 24 29 26 15 34 13 36 9 39 11 41
REMARK Flexibility Score: inf
ROOT
ATOM      1  O   UNL     1     -37.758   5.526  81.821  1.00  0.00    -0.454 OA
ENDROOT
BRANCH   1   2
ATOM      2  C   UNL     1     -38.559   5.025  80.779  1.00  0.00     0.214 A 
ATOM      3  C   UNL     1     -38.010   4.965  79.483  1.00  0.00     0.180 A 
ATOM      4  O   UNL     1     -38.719   4.454  78.482  1.00  0.00    -0.452 OA
ATOM      5  C   UNL     1     -39.898   4.614  80.964  1.00  0.00     0.239 A 
ATOM      6  C   UNL     1     -39.977   4.038  78.612  1.00  0.00     0.146 A 
ATOM      7  O   UNL     1     -40.444   4.720  82.092  1.00  0.00    -0.285 OA
ATOM      8  C   UNL     1     -40.631   4.106  79.864  1.00  0.00     0.111 A 
ATOM      9  C   UNL     1     -40.645   3.525  77.497  1.00  0.00     0.094 A 
ATOM     10  C   UNL     1     -41.979   3.676  79.961  1.00  0.00     0.134 A 
ATOM     11  C   UNL     1     -41.973   3.104  77.598  1.00  0.00     0.123 A 
ATOM     12  C   UNL     1     -42.634   3.195  78.826  1.00  0.00     0.093 A 
BRANCH   3  13
ATOM     13  C   UNL     1     -36.633   5.422  79.194  1.00  0.00     0.025 A 
ATOM     14  C   UNL     1     -35.518   4.622  79.498  1.00  0.00     0.016 A 
ATOM     15  C   UNL     1     -34.230   5.080  79.226  1.00  0.00     0.051 A 
ATOM     16  C   UNL     1     -34.027   6.349  78.673  1.00  0.00     0.157 A 
ATOM     17  C   UNL     1     -36.431   6.705  78.660  1.00  0.00     0.062 A 
ATOM     18  C   UNL     1     -35.141   7.179  78.405  1.00  0.00     0.158 A 
BRANCH  16  19
ATOM     19  O   UNL     1     -32.715   6.747  78.431  1.00  0.00    -0.504 OA
ATOM     20  H   UNL     1     -32.391   7.132  77.556  1.00  0.00     0.293 HD
ENDBRANCH  16  19
BRANCH  18  21
ATOM     21  O   UNL     1     -35.016   8.475  77.905  1.00  0.00    -0.504 OA
ATOM     22  H   UNL     1     -35.124   9.303  78.475  1.00  0.00     0.293 HD
ENDBRANCH  18  21
ENDBRANCH   3  13
BRANCH  10  23
ATOM     23  O   UNL     1     -42.665   3.738  81.177  1.00  0.00    -0.507 OA
ATOM     24  H   UNL     1     -42.571   4.534  81.807  1.00  0.00     0.293 HD
ENDBRANCH  10  23
BRANCH  11  25
ATOM     25  O   UNL     1     -42.649   2.604  76.493  1.00  0.00    -0.508 OA
ATOM     26  H   UNL     1     -42.247   1.893  75.888  1.00  0.00     0.293 HD
ENDBRANCH  11  25
ENDBRANCH   1   2
BRANCH   1  27
ATOM     27  C   UNL     1     -37.904   6.774  82.509  1.00  0.00     0.339 C 
ATOM     28  C   UNL     1     -38.040   6.600  84.054  1.00  0.00     0.214 C 
ATOM     29  O   UNL     1     -36.825   7.637  82.170  1.00  0.00    -0.332 OA
ATOM     30  C   UNL     1     -36.695   6.320  84.771  1.00  0.00     0.180 C 
ATOM     31  C   UNL     1     -35.583   7.110  82.618  1.00  0.00     0.179 C 
ATOM     32  C   UNL     1     -35.527   7.160  84.168  1.00  0.00     0.177 C 
BRANCH  28  33
ATOM     33  O   UNL     1     -38.673   7.722  84.635  1.00  0.00    -0.384 OA
ATOM     34  H   UNL     1     -38.025   8.235  85.202  1.00  0.00     0.211 HD
ENDBRANCH  28  33
BRANCH  30  35
ATOM     35  O   UNL     1     -36.412   4.935  84.760  1.00  0.00    -0.387 OA
ATOM     36  H   UNL     1     -35.503   4.797  84.386  1.00  0.00     0.211 HD
ENDBRANCH  30  35
BRANCH  31  37
ATOM     37  C   UNL     1     -34.436   7.884  81.945  1.00  0.00     0.191 C 
BRANCH  37  38
ATOM     38  O   UNL     1     -33.245   7.138  82.017  1.00  0.00    -0.394 OA
ATOM     39  H   UNL     1     -32.981   7.110  82.973  1.00  0.00     0.210 HD
ENDBRANCH  37  38
ENDBRANCH  31  37
BRANCH  32  40
ATOM     40  O   UNL     1     -34.296   6.686  84.679  1.00  0.00    -0.387 OA
ATOM     41  H   UNL     1     -34.094   7.196  85.504  1.00  0.00     0.211 HD
ENDBRANCH  32  40
ENDBRANCH   1  27
TORSDOF 12
ENDMDL
MODEL 3
REMARK VINA RESULT:    -6.939     10.230     13.361
REMARK INTER + INTRA:         -11.705
REMARK INTER:                 -10.300
REMARK INTRA:                  -1.405
REMARK UNBOUND:                -1.521
REMARK SMILES O=c1c(O[C@@H]2O[C@@H](CO)[C@H](O)[C@H](O)[C@H]2O)c(-c2ccc(O)c(O)c2)oc2cc(O)cc(O)c12
REMARK SMILES IDX 4 1 3 2 16 3 25 4 2 5 26 6 1 7 33 8 27 9 31 10 28 11 30 12
REMARK SMILES IDX 17 13 18 14 19 15 20 16 24 17 22 18 21 19 23 21 32 23 29 25
REMARK SMILES IDX 5 27 14 28 6 29 12 30 7 31 10 32 15 33 13 35 8 37 9 38 11 40
REMARK H PARENT 21 20 23 22 32 24 29 26 15 34 13 36 9 39 11 41
REMARK Flexibility Score: inf
ROOT
ATOM      1  O   UNL     1     -39.546  -6.679  81.464  1.00  0.00    -0.454 OA
ENDROOT
BRANCH   1   2
ATOM      2  C   UNL     1     -39.753  -5.369  81.934  1.00  0.00     0.214 A 
ATOM      3  C   UNL     1     -41.034  -4.801  81.792  1.00  0.00     0.180 A 
ATOM      4  O   UNL     1     -41.279  -3.584  82.266  1.00  0.00    -0.452 OA
ATOM      5  C   UNL     1     -38.727  -4.586  82.509  1.00  0.00     0.239 A 
ATOM      6  C   UNL     1     -40.351  -2.816  82.831  1.00  0.00     0.146 A 
ATOM      7  O   UNL     1     -37.555  -5.033  82.587  1.00  0.00    -0.285 OA
ATOM      8  C   UNL     1     -39.022  -3.280  82.972  1.00  0.00     0.111 A 
ATOM      9  C   UNL     1     -40.703  -1.545  83.291  1.00  0.00     0.094 A 
ATOM     10  C   UNL     1     -38.053  -2.426  83.556  1.00  0.00     0.134 A 
ATOM     11  C   UNL     1     -39.745  -0.706  83.864  1.00  0.00     0.123 A 
ATOM     12  C   UNL     1     -38.423  -1.148  83.981  1.00  0.00     0.093 A 
BRANCH   3  13
ATOM     13  C   UNL     1     -42.150  -5.536  81.157  1.00  0.00     0.025 A 
ATOM     14  C   UNL     1     -43.069  -6.274  81.923  1.00  0.00     0.016 A 
ATOM     15  C   UNL     1     -44.106  -6.967  81.300  1.00  0.00     0.051 A 
ATOM     16  C   UNL     1     -44.231  -6.960  79.906  1.00  0.00     0.157 A 
ATOM     17  C   UNL     1     -42.260  -5.545  79.757  1.00  0.00     0.062 A 
ATOM     18  C   UNL     1     -43.284  -6.256  79.125  1.00  0.00     0.158 A 
BRANCH  16  19
ATOM     19  O   UNL     1     -45.286  -7.676  79.347  1.00  0.00    -0.504 OA
ATOM     20  H   UNL     1     -45.310  -7.999  78.392  1.00  0.00     0.293 HD
ENDBRANCH  16  19
BRANCH  18  21
ATOM     21  O   UNL     1     -43.311  -6.247  77.730  1.00  0.00    -0.504 OA
ATOM     22  H   UNL     1     -42.849  -6.944  77.162  1.00  0.00     0.293 HD
ENDBRANCH  18  21
ENDBRANCH   3  13
BRANCH  10  23
ATOM     23  O   UNL     1     -36.727  -2.841  83.703  1.00  0.00    -0.507 OA
ATOM     24  H   UNL     1     -36.263  -2.850  84.611  1.00  0.00     0.293 HD
ENDBRANCH  10  23
BRANCH  11  25
ATOM     25  O   UNL     1     -40.083   0.563  84.313  1.00  0.00    -0.508 OA
ATOM     26  H   UNL     1     -40.196   1.350  83.679  1.00  0.00     0.293 HD
ENDBRANCH  11  25
ENDBRANCH   1   2
BRANCH   1  27
ATOM     27  C   UNL     1     -39.519  -7.887  82.234  1.00  0.00     0.339 C 
ATOM     28  C   UNL     1     -40.082  -9.115  81.452  1.00  0.00     0.214 C 
ATOM     29  O   UNL     1     -38.197  -8.124  82.706  1.00  0.00    -0.332 OA
ATOM     30  C   UNL     1     -39.089  -9.706  80.421  1.00  0.00     0.180 C 
ATOM     31  C   UNL     1     -37.298  -8.351  81.627  1.00  0.00     0.179 C 
ATOM     32  C   UNL     1     -37.625  -9.713  80.958  1.00  0.00     0.177 C 
BRANCH  28  33
ATOM     33  O   UNL     1     -40.514 -10.125  82.341  1.00  0.00    -0.384 OA
ATOM     34  H   UNL     1     -40.229 -11.027  82.011  1.00  0.00     0.211 HD
ENDBRANCH  28  33
BRANCH  30  35
ATOM     35  O   UNL     1     -39.197  -9.023  79.187  1.00  0.00    -0.387 OA
ATOM     36  H   UNL     1     -39.949  -9.415  78.670  1.00  0.00     0.211 HD
ENDBRANCH  30  35
BRANCH  31  37
ATOM     37  C   UNL     1     -35.854  -8.263  82.150  1.00  0.00     0.191 C 
BRANCH  37  38
ATOM     38  O   UNL     1     -35.035  -7.632  81.196  1.00  0.00    -0.394 OA
ATOM     39  H   UNL     1     -35.602  -7.461  80.399  1.00  0.00     0.210 HD
ENDBRANCH  37  38
ENDBRANCH  31  37
BRANCH  32  40
ATOM     40  O   UNL     1     -36.738 -10.020  79.900  1.00  0.00    -0.387 OA
ATOM     41  H   UNL     1     -36.557  -9.181  79.404  1.00  0.00     0.211 HD
ENDBRANCH  32  40
ENDBRANCH   1  27
TORSDOF 12
ENDMDL
MODEL 4
REMARK VINA RESULT:    -6.885      1.290      2.647
REMARK INTER + INTRA:         -11.626
REMARK INTER:                 -11.103
REMARK INTRA:                  -0.523
REMARK UNBOUND:                -1.521
REMARK SMILES O=c1c(O[C@@H]2O[C@@H](CO)[C@H](O)[C@H](O)[C@H]2O)c(-c2ccc(O)c(O)c2)oc2cc(O)cc(O)c12
REMARK SMILES IDX 4 1 3 2 16 3 25 4 2 5 26 6 1 7 33 8 27 9 31 10 28 11 30 12
REMARK SMILES IDX 17 13 18 14 19 15 20 16 24 17 22 18 21 19 23 21 32 23 29 25
REMARK SMILES IDX 5 27 14 28 6 29 12 30 7 31 10 32 15 33 13 35 8 37 9 38 11 40
REMARK H PARENT 21 20 23 22 32 24 29 26 15 34 13 36 9 39 11 41
REMARK Flexibility Score: inf
ROOT
ATOM      1  O   UNL     1     -37.930   6.028  81.683  1.00  0.00    -0.454 OA
ENDROOT
BRANCH   1   2
ATOM      2  C   UNL     1     -38.669   5.350  80.696  1.00  0.00     0.214 A 
ATOM      3  C   UNL     1     -38.056   5.107  79.451  1.00  0.00     0.180 A 
ATOM      4  O   UNL     1     -38.706   4.428  78.511  1.00  0.00    -0.452 OA
ATOM      5  C   UNL     1     -40.006   4.935  80.883  1.00  0.00     0.239 A 
ATOM      6  C   UNL     1     -39.959   4.002  78.648  1.00  0.00     0.146 A 
ATOM      7  O   UNL     1     -40.608   5.198  81.955  1.00  0.00    -0.285 OA
ATOM      8  C   UNL     1     -40.674   4.244  79.844  1.00  0.00     0.111 A 
ATOM      9  C   UNL     1     -40.562   3.304  77.598  1.00  0.00     0.094 A 
ATOM     10  C   UNL     1     -42.016   3.797  79.946  1.00  0.00     0.134 A 
ATOM     11  C   UNL     1     -41.884   2.867  77.703  1.00  0.00     0.123 A 
ATOM     12  C   UNL     1     -42.606   3.128  78.872  1.00  0.00     0.093 A 
BRANCH   3  13
ATOM     13  C   UNL     1     -36.677   5.552  79.156  1.00  0.00     0.025 A 
ATOM     14  C   UNL     1     -35.572   4.721  79.405  1.00  0.00     0.016 A 
ATOM     15  C   UNL     1     -34.280   5.167  79.129  1.00  0.00     0.051 A 
ATOM     16  C   UNL     1     -34.064   6.456  78.627  1.00  0.00     0.157 A 
ATOM     17  C   UNL     1     -36.462   6.853  78.674  1.00  0.00     0.062 A 
ATOM     18  C   UNL     1     -35.167   7.315  78.415  1.00  0.00     0.158 A 
BRANCH  16  19
ATOM     19  O   UNL     1     -32.750   6.842  78.377  1.00  0.00    -0.504 OA
ATOM     20  H   UNL     1     -32.480   7.522  77.683  1.00  0.00     0.293 HD
ENDBRANCH  16  19
BRANCH  18  21
ATOM     21  O   UNL     1     -35.029   8.630  77.969  1.00  0.00    -0.504 OA
ATOM     22  H   UNL     1     -35.207   9.436  78.553  1.00  0.00     0.293 HD
ENDBRANCH  18  21
ENDBRANCH   3  13
BRANCH  10  23
ATOM     23  O   UNL     1     -42.761   4.026  81.106  1.00  0.00    -0.507 OA
ATOM     24  H   UNL     1     -42.996   4.968  81.416  1.00  0.00     0.293 HD
ENDBRANCH  10  23
BRANCH  11  25
ATOM     25  O   UNL     1     -42.495   2.185  76.660  1.00  0.00    -0.508 OA
ATOM     26  H   UNL     1     -42.588   1.173  76.655  1.00  0.00     0.293 HD
ENDBRANCH  11  25
ENDBRANCH   1   2
BRANCH   1  27
ATOM     27  C   UNL     1     -36.974   5.469  82.593  1.00  0.00     0.339 C 
ATOM     28  C   UNL     1     -37.112   6.041  84.039  1.00  0.00     0.214 C 
ATOM     29  O   UNL     1     -37.072   4.050  82.577  1.00  0.00    -0.332 OA
ATOM     30  C   UNL     1     -38.288   5.432  84.841  1.00  0.00     0.180 C 
ATOM     31  C   UNL     1     -38.338   3.614  83.055  1.00  0.00     0.179 C 
ATOM     32  C   UNL     1     -38.445   3.903  84.576  1.00  0.00     0.177 C 
BRANCH  28  33
ATOM     33  O   UNL     1     -35.905   5.890  84.759  1.00  0.00    -0.384 OA
ATOM     34  H   UNL     1     -35.947   6.398  85.622  1.00  0.00     0.211 HD
ENDBRANCH  28  33
BRANCH  30  35
ATOM     35  O   UNL     1     -39.483   6.141  84.577  1.00  0.00    -0.387 OA
ATOM     36  H   UNL     1     -39.417   6.553  83.675  1.00  0.00     0.211 HD
ENDBRANCH  30  35
BRANCH  31  37
ATOM     37  C   UNL     1     -38.523   2.127  82.707  1.00  0.00     0.191 C 
BRANCH  37  38
ATOM     38  O   UNL     1     -38.362   1.339  83.861  1.00  0.00    -0.394 OA
ATOM     39  H   UNL     1     -37.414   1.045  83.877  1.00  0.00     0.210 HD
ENDBRANCH  37  38
ENDBRANCH  31  37
BRANCH  32  40
ATOM     40  O   UNL     1     -39.670   3.455  85.125  1.00  0.00    -0.387 OA
ATOM     41  H   UNL     1     -40.402   3.802  84.554  1.00  0.00     0.211 HD
ENDBRANCH  32  40
ENDBRANCH   1  27
TORSDOF 12
ENDMDL
MODEL 5
REMARK VINA RESULT:    -6.782      2.171      6.298
REMARK INTER + INTRA:         -11.476
REMARK INTER:                  -9.916
REMARK INTRA:                  -1.560
REMARK UNBOUND:                -1.521
REMARK SMILES O=c1c(O[C@@H]2O[C@@H](CO)[C@H](O)[C@H](O)[C@H]2O)c(-c2ccc(O)c(O)c2)oc2cc(O)cc(O)c12
REMARK SMILES IDX 4 1 3 2 16 3 25 4 2 5 26 6 1 7 33 8 27 9 31 10 28 11 30 12
REMARK SMILES IDX 17 13 18 14 19 15 20 16 24 17 22 18 21 19 23 21 32 23 29 25
REMARK SMILES IDX 5 27 14 28 6 29 12 30 7 31 10 32 15 33 13 35 8 37 9 38 11 40
REMARK H PARENT 21 20 23 22 32 24 29 26 15 34 13 36 9 39 11 41
REMARK Flexibility Score: inf
ROOT
ATOM      1  O   UNL     1     -37.407   5.514  81.797  1.00  0.00    -0.454 OA
ENDROOT
BRANCH   1   2
ATOM      2  C   UNL     1     -36.755   6.267  80.803  1.00  0.00     0.214 A 
ATOM      3  C   UNL     1     -37.128   6.065  79.459  1.00  0.00     0.180 A 
ATOM      4  O   UNL     1     -36.568   6.791  78.497  1.00  0.00    -0.452 OA
ATOM      5  C   UNL     1     -35.721   7.187  81.086  1.00  0.00     0.239 A 
ATOM      6  C   UNL     1     -35.604   7.682  78.717  1.00  0.00     0.146 A 
ATOM      7  O   UNL     1     -35.314   7.340  82.265  1.00  0.00    -0.285 OA
ATOM      8  C   UNL     1     -35.127   7.917  80.028  1.00  0.00     0.111 A 
ATOM      9  C   UNL     1     -35.069   8.391  77.638  1.00  0.00     0.094 A 
ATOM     10  C   UNL     1     -34.082   8.855  80.222  1.00  0.00     0.134 A 
ATOM     11  C   UNL     1     -34.039   9.313  77.835  1.00  0.00     0.123 A 
ATOM     12  C   UNL     1     -33.544   9.529  79.125  1.00  0.00     0.093 A 
BRANCH   3  13
ATOM     13  C   UNL     1     -38.166   5.085  79.072  1.00  0.00     0.025 A 
ATOM     14  C   UNL     1     -39.533   5.398  79.156  1.00  0.00     0.016 A 
ATOM     15  C   UNL     1     -40.494   4.453  78.796  1.00  0.00     0.051 A 
ATOM     16  C   UNL     1     -40.112   3.175  78.375  1.00  0.00     0.157 A 
ATOM     17  C   UNL     1     -37.780   3.796  78.671  1.00  0.00     0.062 A 
ATOM     18  C   UNL     1     -38.739   2.837  78.330  1.00  0.00     0.158 A 
BRANCH  16  19
ATOM     19  O   UNL     1     -41.120   2.277  78.034  1.00  0.00    -0.504 OA
ATOM     20  H   UNL     1     -42.103   2.504  78.024  1.00  0.00     0.293 HD
ENDBRANCH  16  19
BRANCH  18  21
ATOM     21  O   UNL     1     -38.282   1.568  77.973  1.00  0.00    -0.504 OA
ATOM     22  H   UNL     1     -38.019   1.318  77.030  1.00  0.00     0.293 HD
ENDBRANCH  18  21
ENDBRANCH   3  13
BRANCH  10  23
ATOM     23  O   UNL     1     -33.574   9.108  81.500  1.00  0.00    -0.507 OA
ATOM     24  H   UNL     1     -34.030   9.756  82.141  1.00  0.00     0.293 HD
ENDBRANCH  10  23
BRANCH  11  25
ATOM     25  O   UNL     1     -33.494  10.013  76.767  1.00  0.00    -0.508 OA
ATOM     26  H   UNL     1     -32.793   9.606  76.154  1.00  0.00     0.293 HD
ENDBRANCH  11  25
ENDBRANCH   1   2
BRANCH   1  27
ATOM     27  C   UNL     1     -37.080   4.193  82.244  1.00  0.00     0.339 C 
ATOM     28  C   UNL     1     -36.611   4.157  83.732  1.00  0.00     0.214 C 
ATOM     29  O   UNL     1     -38.185   3.324  82.019  1.00  0.00    -0.332 OA
ATOM     30  C   UNL     1     -37.771   4.256  84.754  1.00  0.00     0.180 C 
ATOM     31  C   UNL     1     -39.310   3.711  82.796  1.00  0.00     0.179 C 
ATOM     32  C   UNL     1     -39.021   3.442  84.297  1.00  0.00     0.177 C 
BRANCH  28  33
ATOM     33  O   UNL     1     -35.836   3.004  83.990  1.00  0.00    -0.384 OA
ATOM     34  H   UNL     1     -35.595   2.955  84.962  1.00  0.00     0.211 HD
ENDBRANCH  28  33
BRANCH  30  35
ATOM     35  O   UNL     1     -38.086   5.610  85.011  1.00  0.00    -0.387 OA
ATOM     36  H   UNL     1     -38.964   5.652  85.473  1.00  0.00     0.211 HD
ENDBRANCH  30  35
BRANCH  31  37
ATOM     37  C   UNL     1     -40.557   2.972  82.278  1.00  0.00     0.191 C 
BRANCH  37  38
ATOM     38  O   UNL     1     -40.646   1.702  82.876  1.00  0.00    -0.394 OA
ATOM     39  H   UNL     1     -41.169   1.814  83.712  1.00  0.00     0.210 HD
ENDBRANCH  37  38
ENDBRANCH  31  37
BRANCH  32  40
ATOM     40  O   UNL     1     -40.121   3.767  85.125  1.00  0.00    -0.387 OA
ATOM     41  H   UNL     1     -39.849   4.523  85.706  1.00  0.00     0.211 HD
ENDBRANCH  32  40
ENDBRANCH   1  27
TORSDOF 12
ENDMDL
MODEL 6
REMARK VINA RESULT:    -6.568      2.460      6.873
REMARK INTER + INTRA:         -11.161
REMARK INTER:                  -9.791
REMARK INTRA:                  -1.370
REMARK UNBOUND:                -1.521
REMARK SMILES O=c1c(O[C@@H]2O[C@@H](CO)[C@H](O)[C@H](O)[C@H]2O)c(-c2ccc(O)c(O)c2)oc2cc(O)cc(O)c12
REMARK SMILES IDX 4 1 3 2 16 3 25 4 2 5 26 6 1 7 33 8 27 9 31 10 28 11 30 12
REMARK SMILES IDX 17 13 18 14 19 15 20 16 24 17 22 18 21 19 23 21 32 23 29 25
REMARK SMILES IDX 5 27 14 28 6 29 12 30 7 31 10 32 15 33 13 35 8 37 9 38 11 40
REMARK H PARENT 21 20 23 22 32 24 29 26 15 34 13 36 9 39 11 41
REMARK Flexibility Score: inf
ROOT
ATOM      1  O   UNL     1     -37.622   4.028  82.461  1.00  0.00    -0.454 OA
ENDROOT
BRANCH   1   2
ATOM      2  C   UNL     1     -36.666   4.924  81.951  1.00  0.00     0.214 A 
ATOM      3  C   UNL     1     -36.741   5.278  80.589  1.00  0.00     0.180 A 
ATOM      4  O   UNL     1     -35.884   6.159  80.083  1.00  0.00    -0.452 OA
ATOM      5  C   UNL     1     -35.615   5.456  82.730  1.00  0.00     0.239 A 
ATOM      6  C   UNL     1     -34.889   6.700  80.782  1.00  0.00     0.146 A 
ATOM      7  O   UNL     1     -35.475   5.107  83.930  1.00  0.00    -0.285 OA
ATOM      8  C   UNL     1     -34.702   6.366  82.144  1.00  0.00     0.111 A 
ATOM      9  C   UNL     1     -34.032   7.610  80.158  1.00  0.00     0.094 A 
ATOM     10  C   UNL     1     -33.618   6.944  82.851  1.00  0.00     0.134 A 
ATOM     11  C   UNL     1     -32.964   8.175  80.859  1.00  0.00     0.123 A 
ATOM     12  C   UNL     1     -32.757   7.828  82.198  1.00  0.00     0.093 A 
BRANCH   3  13
ATOM     13  C   UNL     1     -37.780   4.728  79.692  1.00  0.00     0.025 A 
ATOM     14  C   UNL     1     -38.953   5.446  79.405  1.00  0.00     0.016 A 
ATOM     15  C   UNL     1     -39.923   4.901  78.565  1.00  0.00     0.051 A 
ATOM     16  C   UNL     1     -39.756   3.623  78.020  1.00  0.00     0.157 A 
ATOM     17  C   UNL     1     -37.619   3.437  79.164  1.00  0.00     0.062 A 
ATOM     18  C   UNL     1     -38.598   2.875  78.339  1.00  0.00     0.158 A 
BRANCH  16  19
ATOM     19  O   UNL     1     -40.764   3.135  77.193  1.00  0.00    -0.504 OA
ATOM     20  H   UNL     1     -41.666   3.571  77.078  1.00  0.00     0.293 HD
ENDBRANCH  16  19
BRANCH  18  21
ATOM     21  O   UNL     1     -38.386   1.575  77.879  1.00  0.00    -0.504 OA
ATOM     22  H   UNL     1     -39.108   1.013  77.449  1.00  0.00     0.293 HD
ENDBRANCH  18  21
ENDBRANCH   3  13
BRANCH  10  23
ATOM     23  O   UNL     1     -33.391   6.631  84.194  1.00  0.00    -0.507 OA
ATOM     24  H   UNL     1     -33.620   7.283  84.944  1.00  0.00     0.293 HD
ENDBRANCH  10  23
BRANCH  11  25
ATOM     25  O   UNL     1     -32.100   9.070  80.244  1.00  0.00    -0.508 OA
ATOM     26  H   UNL     1     -32.272  10.072  80.235  1.00  0.00     0.293 HD
ENDBRANCH  11  25
ENDBRANCH   1   2
BRANCH   1  27
ATOM     27  C   UNL     1     -38.500   4.231  83.576  1.00  0.00     0.339 C 
ATOM     28  C   UNL     1     -39.966   4.544  83.142  1.00  0.00     0.214 C 
ATOM     29  O   UNL     1     -38.438   3.105  84.445  1.00  0.00    -0.332 OA
ATOM     30  C   UNL     1     -40.764   3.295  82.693  1.00  0.00     0.180 C 
ATOM     31  C   UNL     1     -38.919   1.931  83.802  1.00  0.00     0.179 C 
ATOM     32  C   UNL     1     -40.450   2.052  83.581  1.00  0.00     0.177 C 
BRANCH  28  33
ATOM     33  O   UNL     1     -40.663   5.221  84.168  1.00  0.00    -0.384 OA
ATOM     34  H   UNL     1     -41.444   5.722  83.788  1.00  0.00     0.211 HD
ENDBRANCH  28  33
BRANCH  30  35
ATOM     35  O   UNL     1     -40.541   3.036  81.321  1.00  0.00    -0.387 OA
ATOM     36  H   UNL     1     -40.227   3.872  80.884  1.00  0.00     0.211 HD
ENDBRANCH  30  35
BRANCH  31  37
ATOM     37  C   UNL     1     -38.523   0.702  84.639  1.00  0.00     0.191 C 
BRANCH  37  38
ATOM     38  O   UNL     1     -38.414  -0.429  83.810  1.00  0.00    -0.394 OA
ATOM     39  H   UNL     1     -38.506  -1.225  84.397  1.00  0.00     0.210 HD
ENDBRANCH  37  38
ENDBRANCH  31  37
BRANCH  32  40
ATOM     40  O   UNL     1     -41.001   0.896  82.981  1.00  0.00    -0.387 OA
ATOM     41  H   UNL     1     -41.851   1.158  82.543  1.00  0.00     0.211 HD
ENDBRANCH  32  40
ENDBRANCH   1  27
TORSDOF 12
ENDMDL
MODEL 7
REMARK VINA RESULT:    -6.409      1.456      2.339
REMARK INTER + INTRA:         -10.928
REMARK INTER:                  -9.782
REMARK INTRA:                  -1.146
REMARK UNBOUND:                -1.521
REMARK SMILES O=c1c(O[C@@H]2O[C@@H](CO)[C@H](O)[C@H](O)[C@H]2O)c(-c2ccc(O)c(O)c2)oc2cc(O)cc(O)c12
REMARK SMILES IDX 4 1 3 2 16 3 25 4 2 5 26 6 1 7 33 8 27 9 31 10 28 11 30 12
REMARK SMILES IDX 17 13 18 14 19 15 20 16 24 17 22 18 21 19 23 21 32 23 29 25
REMARK SMILES IDX 5 27 14 28 6 29 12 30 7 31 10 32 15 33 13 35 8 37 9 38 11 40
REMARK H PARENT 21 20 23 22 32 24 29 26 15 34 13 36 9 39 11 41
REMARK Flexibility Score: inf
ROOT
ATOM      1  O   UNL     1     -37.875   5.639  81.815  1.00  0.00    -0.454 OA
ENDROOT
BRANCH   1   2
ATOM      2  C   UNL     1     -38.652   5.097  80.774  1.00  0.00     0.214 A 
ATOM      3  C   UNL     1     -38.081   5.007  79.490  1.00  0.00     0.180 A 
ATOM      4  O   UNL     1     -38.768   4.458  78.493  1.00  0.00    -0.452 OA
ATOM      5  C   UNL     1     -39.989   4.674  80.950  1.00  0.00     0.239 A 
ATOM      6  C   UNL     1     -40.022   4.030  78.615  1.00  0.00     0.146 A 
ATOM      7  O   UNL     1     -40.555   4.806  82.065  1.00  0.00    -0.285 OA
ATOM      8  C   UNL     1     -40.697   4.126  79.854  1.00  0.00     0.111 A 
ATOM      9  C   UNL     1     -40.665   3.475  77.505  1.00  0.00     0.094 A 
ATOM     10  C   UNL     1     -42.041   3.681  79.941  1.00  0.00     0.134 A 
ATOM     11  C   UNL     1     -41.989   3.040  77.596  1.00  0.00     0.123 A 
ATOM     12  C   UNL     1     -42.671   3.158  78.810  1.00  0.00     0.093 A 
BRANCH   3  13
ATOM     13  C   UNL     1     -36.705   5.473  79.210  1.00  0.00     0.025 A 
ATOM     14  C   UNL     1     -36.449   6.446  78.228  1.00  0.00     0.016 A 
ATOM     15  C   UNL     1     -35.142   6.861  77.975  1.00  0.00     0.051 A 
ATOM     16  C   UNL     1     -34.068   6.297  78.672  1.00  0.00     0.157 A 
ATOM     17  C   UNL     1     -35.628   4.889  79.895  1.00  0.00     0.062 A 
ATOM     18  C   UNL     1     -34.313   5.285  79.631  1.00  0.00     0.158 A 
BRANCH  16  19
ATOM     19  O   UNL     1     -32.788   6.751  78.368  1.00  0.00    -0.504 OA
ATOM     20  H   UNL     1     -32.417   6.820  77.433  1.00  0.00     0.293 HD
ENDBRANCH  16  19
BRANCH  18  21
ATOM     21  O   UNL     1     -33.292   4.638  80.327  1.00  0.00    -0.504 OA
ATOM     22  H   UNL     1     -33.457   3.884  80.980  1.00  0.00     0.293 HD
ENDBRANCH  18  21
ENDBRANCH   3  13
BRANCH  10  23
ATOM     23  O   UNL     1     -42.748   3.769  81.143  1.00  0.00    -0.507 OA
ATOM     24  H   UNL     1     -42.379   3.386  82.013  1.00  0.00     0.293 HD
ENDBRANCH  10  23
BRANCH  11  25
ATOM     25  O   UNL     1     -42.640   2.500  76.495  1.00  0.00    -0.508 OA
ATOM     26  H   UNL     1     -42.766   3.019  75.631  1.00  0.00     0.293 HD
ENDBRANCH  11  25
ENDBRANCH   1   2
BRANCH   1  27
ATOM     27  C   UNL     1     -38.240   6.690  82.718  1.00  0.00     0.339 C 
ATOM     28  C   UNL     1     -37.146   6.964  83.798  1.00  0.00     0.214 C 
ATOM     29  O   UNL     1     -38.558   7.865  81.981  1.00  0.00    -0.332 OA
ATOM     30  C   UNL     1     -35.942   7.784  83.271  1.00  0.00     0.180 C 
ATOM     31  C   UNL     1     -37.424   8.356  81.278  1.00  0.00     0.179 C 
ATOM     32  C   UNL     1     -36.387   8.912  82.291  1.00  0.00     0.177 C 
BRANCH  28  33
ATOM     33  O   UNL     1     -37.704   7.598  84.931  1.00  0.00    -0.384 OA
ATOM     34  H   UNL     1     -38.665   7.333  85.042  1.00  0.00     0.211 HD
ENDBRANCH  28  33
BRANCH  30  35
ATOM     35  O   UNL     1     -34.980   6.925  82.689  1.00  0.00    -0.387 OA
ATOM     36  H   UNL     1     -34.191   6.876  83.289  1.00  0.00     0.211 HD
ENDBRANCH  30  35
BRANCH  31  37
ATOM     37  C   UNL     1     -37.885   9.402  80.248  1.00  0.00     0.191 C 
BRANCH  37  38
ATOM     38  O   UNL     1     -36.818   9.740  79.396  1.00  0.00    -0.394 OA
ATOM     39  H   UNL     1     -36.539  10.662  79.637  1.00  0.00     0.210 HD
ENDBRANCH  37  38
ENDBRANCH  31  37
BRANCH  32  40
ATOM     40  O   UNL     1     -35.248   9.455  81.652  1.00  0.00    -0.387 OA
ATOM     41  H   UNL     1     -34.758   8.710  81.221  1.00  0.00     0.211 HD
ENDBRANCH  32  40
ENDBRANCH   1  27
TORSDOF 12
ENDMDL
MODEL 8
REMARK VINA RESULT:    -6.354      2.964      5.356
REMARK INTER + INTRA:         -10.847
REMARK INTER:                  -9.666
REMARK INTRA:                  -1.181
REMARK UNBOUND:                -1.521
REMARK SMILES O=c1c(O[C@@H]2O[C@@H](CO)[C@H](O)[C@H](O)[C@H]2O)c(-c2ccc(O)c(O)c2)oc2cc(O)cc(O)c12
REMARK SMILES IDX 4 1 3 2 16 3 25 4 2 5 26 6 1 7 33 8 27 9 31 10 28 11 30 12
REMARK SMILES IDX 17 13 18 14 19 15 20 16 24 17 22 18 21 19 23 21 32 23 29 25
REMARK SMILES IDX 5 27 14 28 6 29 12 30 7 31 10 32 15 33 13 35 8 37 9 38 11 40
REMARK H PARENT 21 20 23 22 32 24 29 26 15 34 13 36 9 39 11 41
REMARK Flexibility Score: inf
ROOT
ATOM      1  O   UNL     1     -38.577   6.547  78.490  1.00  0.00    -0.454 OA
ENDROOT
BRANCH   1   2
ATOM      2  C   UNL     1     -38.702   5.678  79.589  1.00  0.00     0.214 A 
ATOM      3  C   UNL     1     -37.531   5.274  80.259  1.00  0.00     0.180 A 
ATOM      4  O   UNL     1     -37.613   4.492  81.331  1.00  0.00    -0.452 OA
ATOM      5  C   UNL     1     -39.943   5.165  80.029  1.00  0.00     0.239 A 
ATOM      6  C   UNL     1     -38.760   3.999  81.792  1.00  0.00     0.146 A 
ATOM      7  O   UNL     1     -41.001   5.447  79.411  1.00  0.00    -0.285 OA
ATOM      8  C   UNL     1     -39.984   4.307  81.155  1.00  0.00     0.111 A 
ATOM      9  C   UNL     1     -38.743   3.176  82.922  1.00  0.00     0.094 A 
ATOM     10  C   UNL     1     -41.183   3.745  81.660  1.00  0.00     0.134 A 
ATOM     11  C   UNL     1     -39.928   2.623  83.414  1.00  0.00     0.123 A 
ATOM     12  C   UNL     1     -41.138   2.901  82.771  1.00  0.00     0.093 A 
BRANCH   3  13
ATOM     13  C   UNL     1     -36.188   5.726  79.833  1.00  0.00     0.025 A 
ATOM     14  C   UNL     1     -35.522   5.120  78.754  1.00  0.00     0.016 A 
ATOM     15  C   UNL     1     -34.252   5.557  78.378  1.00  0.00     0.051 A 
ATOM     16  C   UNL     1     -33.614   6.582  79.085  1.00  0.00     0.157 A 
ATOM     17  C   UNL     1     -35.541   6.740  80.557  1.00  0.00     0.062 A 
ATOM     18  C   UNL     1     -34.259   7.167  80.199  1.00  0.00     0.158 A 
BRANCH  16  19
ATOM     19  O   UNL     1     -32.345   6.967  78.661  1.00  0.00    -0.504 OA
ATOM     20  H   UNL     1     -31.559   6.340  78.577  1.00  0.00     0.293 HD
ENDBRANCH  16  19
BRANCH  18  21
ATOM     21  O   UNL     1     -33.665   8.155  80.985  1.00  0.00    -0.504 OA
ATOM     22  H   UNL     1     -33.165   7.958  81.840  1.00  0.00     0.293 HD
ENDBRANCH  18  21
ENDBRANCH   3  13
BRANCH  10  23
ATOM     23  O   UNL     1     -42.413   4.014  81.051  1.00  0.00    -0.507 OA
ATOM     24  H   UNL     1     -42.629   3.689  80.109  1.00  0.00     0.293 HD
ENDBRANCH  10  23
BRANCH  11  25
ATOM     25  O   UNL     1     -39.920   1.794  84.528  1.00  0.00    -0.508 OA
ATOM     26  H   UNL     1     -39.070   1.593  85.048  1.00  0.00     0.293 HD
ENDBRANCH  11  25
ENDBRANCH   1   2
BRANCH   1  27
ATOM     27  C   UNL     1     -38.126   7.907  78.501  1.00  0.00     0.339 C 
ATOM     28  C   UNL     1     -37.596   8.379  77.110  1.00  0.00     0.214 C 
ATOM     29  O   UNL     1     -39.165   8.752  78.983  1.00  0.00    -0.332 OA
ATOM     30  C   UNL     1     -38.719   8.720  76.099  1.00  0.00     0.180 C 
ATOM     31  C   UNL     1     -40.286   8.740  78.109  1.00  0.00     0.179 C 
ATOM     32  C   UNL     1     -39.916   9.452  76.780  1.00  0.00     0.177 C 
BRANCH  28  33
ATOM     33  O   UNL     1     -36.720   9.479  77.251  1.00  0.00    -0.384 OA
ATOM     34  H   UNL     1     -36.868  10.140  76.511  1.00  0.00     0.211 HD
ENDBRANCH  28  33
BRANCH  30  35
ATOM     35  O   UNL     1     -39.132   7.555  75.412  1.00  0.00    -0.387 OA
ATOM     36  H   UNL     1     -38.632   6.777  75.773  1.00  0.00     0.211 HD
ENDBRANCH  30  35
BRANCH  31  37
ATOM     37  C   UNL     1     -41.488   9.380  78.825  1.00  0.00     0.191 C 
BRANCH  37  38
ATOM     38  O   UNL     1     -42.687   8.963  78.218  1.00  0.00    -0.394 OA
ATOM     39  H   UNL     1     -42.540   9.001  77.237  1.00  0.00     0.210 HD
ENDBRANCH  37  38
ENDBRANCH  31  37
BRANCH  32  40
ATOM     40  O   UNL     1     -41.004   9.511  75.879  1.00  0.00    -0.387 OA
ATOM     41  H   UNL     1     -40.720  10.048  75.096  1.00  0.00     0.211 HD
ENDBRANCH  32  40
ENDBRANCH   1  27
TORSDOF 12
ENDMDL
MODEL 9
REMARK VINA RESULT:    -6.312      1.961      6.386
REMARK INTER + INTRA:         -10.786
REMARK INTER:                 -10.397
REMARK INTRA:                  -0.389
REMARK UNBOUND:                -1.521
REMARK SMILES O=c1c(O[C@@H]2O[C@@H](CO)[C@H](O)[C@H](O)[C@H]2O)c(-c2ccc(O)c(O)c2)oc2cc(O)cc(O)c12
REMARK SMILES IDX 4 1 3 2 16 3 25 4 2 5 26 6 1 7 33 8 27 9 31 10 28 11 30 12
REMARK SMILES IDX 17 13 18 14 19 15 20 16 24 17 22 18 21 19 23 21 32 23 29 25
REMARK SMILES IDX 5 27 14 28 6 29 12 30 7 31 10 32 15 33 13 35 8 37 9 38 11 40
REMARK H PARENT 21 20 23 22 32 24 29 26 15 34 13 36 9 39 11 41
REMARK Flexibility Score: inf
ROOT
ATOM      1  O   UNL     1     -37.477   3.494  81.396  1.00  0.00    -0.454 OA
ENDROOT
BRANCH   1   2
ATOM      2  C   UNL     1     -36.991   4.432  80.466  1.00  0.00     0.214 A 
ATOM      3  C   UNL     1     -37.856   4.868  79.443  1.00  0.00     0.180 A 
ATOM      4  O   UNL     1     -37.449   5.788  78.574  1.00  0.00    -0.452 OA
ATOM      5  C   UNL     1     -35.669   4.928  80.490  1.00  0.00     0.239 A 
ATOM      6  C   UNL     1     -36.219   6.297  78.568  1.00  0.00     0.146 A 
ATOM      7  O   UNL     1     -34.849   4.507  81.344  1.00  0.00    -0.285 OA
ATOM      8  C   UNL     1     -35.264   5.882  79.525  1.00  0.00     0.111 A 
ATOM      9  C   UNL     1     -35.881   7.254  77.607  1.00  0.00     0.094 A 
ATOM     10  C   UNL     1     -33.956   6.428  79.474  1.00  0.00     0.134 A 
ATOM     11  C   UNL     1     -34.591   7.787  77.560  1.00  0.00     0.123 A 
ATOM     12  C   UNL     1     -33.634   7.361  78.486  1.00  0.00     0.093 A 
BRANCH   3  13
ATOM     13  C   UNL     1     -39.240   4.362  79.317  1.00  0.00     0.025 A 
ATOM     14  C   UNL     1     -39.734   3.881  78.093  1.00  0.00     0.016 A 
ATOM     15  C   UNL     1     -41.046   3.419  77.997  1.00  0.00     0.051 A 
ATOM     16  C   UNL     1     -41.896   3.453  79.109  1.00  0.00     0.157 A 
ATOM     17  C   UNL     1     -40.096   4.418  80.429  1.00  0.00     0.062 A 
ATOM     18  C   UNL     1     -41.420   3.976  80.334  1.00  0.00     0.158 A 
BRANCH  16  19
ATOM     19  O   UNL     1     -43.195   2.981  78.945  1.00  0.00    -0.504 OA
ATOM     20  H   UNL     1     -44.003   3.573  78.823  1.00  0.00     0.293 HD
ENDBRANCH  16  19
BRANCH  18  21
ATOM     21  O   UNL     1     -42.222   4.093  81.470  1.00  0.00    -0.504 OA
ATOM     22  H   UNL     1     -42.695   3.310  81.898  1.00  0.00     0.293 HD
ENDBRANCH  18  21
ENDBRANCH   3  13
BRANCH  10  23
ATOM     23  O   UNL     1     -32.980   6.036  80.393  1.00  0.00    -0.507 OA
ATOM     24  H   UNL     1     -33.012   5.130  80.858  1.00  0.00     0.293 HD
ENDBRANCH  10  23
BRANCH  11  25
ATOM     25  O   UNL     1     -34.242   8.729  76.601  1.00  0.00    -0.508 OA
ATOM     26  H   UNL     1     -34.511   8.634  75.625  1.00  0.00     0.293 HD
ENDBRANCH  11  25
ENDBRANCH   1   2
BRANCH   1  27
ATOM     27  C   UNL     1     -37.148   3.397  82.787  1.00  0.00     0.339 C 
ATOM     28  C   UNL     1     -37.459   4.708  83.575  1.00  0.00     0.214 C 
ATOM     29  O   UNL     1     -37.807   2.272  83.357  1.00  0.00    -0.332 OA
ATOM     30  C   UNL     1     -38.961   4.896  83.905  1.00  0.00     0.180 C 
ATOM     31  C   UNL     1     -39.220   2.428  83.319  1.00  0.00     0.179 C 
ATOM     32  C   UNL     1     -39.643   3.551  84.304  1.00  0.00     0.177 C 
BRANCH  28  33
ATOM     33  O   UNL     1     -36.691   4.780  84.759  1.00  0.00    -0.384 OA
ATOM     34  H   UNL     1     -36.546   3.864  85.138  1.00  0.00     0.211 HD
ENDBRANCH  28  33
BRANCH  30  35
ATOM     35  O   UNL     1     -39.625   5.527  82.828  1.00  0.00    -0.387 OA
ATOM     36  H   UNL     1     -38.946   5.929  82.225  1.00  0.00     0.211 HD
ENDBRANCH  30  35
BRANCH  31  37
ATOM     37  C   UNL     1     -39.884   1.074  83.623  1.00  0.00     0.191 C 
BRANCH  37  38
ATOM     38  O   UNL     1     -39.018   0.024  83.269  1.00  0.00    -0.394 OA
ATOM     39  H   UNL     1     -38.093   0.375  83.350  1.00  0.00     0.210 HD
ENDBRANCH  37  38
ENDBRANCH  31  37
BRANCH  32  40
ATOM     40  O   UNL     1     -41.045   3.730  84.346  1.00  0.00    -0.387 OA
ATOM     41  H   UNL     1     -41.438   3.232  83.584  1.00  0.00     0.211 HD
ENDBRANCH  32  40
ENDBRANCH   1  27
TORSDOF 12
ENDMDL
