MODEL 1
REMARK VINA RESULT:    -4.005      0.000      0.000
REMARK INTER + INTRA:         -10.527
REMARK INTER:                  -7.751
REMARK INTRA:                  -2.776
REMARK UNBOUND:                -2.776
REMARK SMILES CCCCCCCCCCCCCCCCCC(=O)[O-]
REMARK SMILES IDX 10 1 11 2 12 3 13 4 14 5 15 6 16 7 17 8 18 9 19 10 20 11
REMARK SMILES IDX 9 12 8 13 7 14 6 15 5 16 4 17 3 18 2 19 1 20
REMARK H PARENT
REMARK Flexibility Score: inf
ROOT
ATOM      1  C   UNL     1      -2.226  37.747  19.882  1.00  0.00     0.000 C 
ENDROOT
BRANCH   1   2
ATOM      2  C   UNL     1      -3.731  37.427  19.898  1.00  0.00     0.000 C 
BRANCH   2   3
ATOM      3  C   UNL     1      -4.640  38.526  19.311  1.00  0.00     0.000 C 
BRANCH   3   4
ATOM      4  C   UNL     1      -5.953  38.020  18.688  1.00  0.00     0.000 C 
BRANCH   4   5
ATOM      5  C   UNL     1      -7.124  38.021  19.686  1.00  0.00     0.000 C 
BRANCH   5   6
ATOM      6  C   UNL     1      -7.217  39.331  20.483  1.00  0.00     0.000 C 
BRANCH   6   7
ATOM      7  C   UNL     1      -7.551  39.098  21.965  1.00  0.00     0.006 C 
BRANCH   7   8
ATOM      8  C   UNL     1      -6.578  38.097  22.595  1.00  0.00     0.053 C 
BRANCH   8   9
ATOM      9  C   UNL     1      -5.447  38.814  23.262  1.00  0.00     0.041 C 
ATOM     10  O   UNL     1      -5.670  39.839  23.960  1.00  0.00    -0.550 OA
ATOM     11  O   UNL     1      -4.152  38.324  23.154  1.00  0.00    -0.550 OA
ENDBRANCH   8   9
ENDBRANCH   7   8
ENDBRANCH   6   7
ENDBRANCH   5   6
ENDBRANCH   4   5
ENDBRANCH   3   4
ENDBRANCH   2   3
ENDBRANCH   1   2
BRANCH   1  12
ATOM     12  C   UNL     1      -1.936  39.253  19.812  1.00  0.00     0.000 C 
BRANCH  12  13
ATOM     13  C   UNL     1      -1.261  39.621  18.486  1.00  0.00    -0.000 C 
BRANCH  13  14
ATOM     14  C   UNL     1      -2.013  40.762  17.783  1.00  0.00    -0.000 C 
BRANCH  14  15
ATOM     15  C   UNL     1      -2.748  40.294  16.517  1.00  0.00    -0.000 C 
BRANCH  15  16
ATOM     16  C   UNL     1      -2.348  38.874  16.088  1.00  0.00    -0.000 C 
BRANCH  16  17
ATOM     17  C   UNL     1      -3.589  37.994  15.877  1.00  0.00    -0.000 C 
BRANCH  17  18
ATOM     18  C   UNL     1      -3.260  36.489  15.970  1.00  0.00    -0.000 C 
BRANCH  18  19
ATOM     19  C   UNL     1      -1.876  36.198  16.575  1.00  0.00    -0.003 C 
ATOM     20  C   UNL     1      -1.807  34.852  17.291  1.00  0.00     0.004 C 
ENDBRANCH  18  19
ENDBRANCH  17  18
ENDBRANCH  16  17
ENDBRANCH  15  16
ENDBRANCH  14  15
ENDBRANCH  13  14
ENDBRANCH  12  13
ENDBRANCH   1  12
TORSDOF 16
ENDMDL
MODEL 2
REMARK VINA RESULT:    -3.912      3.201      6.438
REMARK INTER + INTRA:         -10.348
REMARK INTER:                  -7.363
REMARK INTRA:                  -2.985
REMARK UNBOUND:                -2.776
REMARK SMILES CCCCCCCCCCCCCCCCCC(=O)[O-]
REMARK SMILES IDX 10 1 11 2 12 3 13 4 14 5 15 6 16 7 17 8 18 9 19 10 20 11
REMARK SMILES IDX 9 12 8 13 7 14 6 15 5 16 4 17 3 18 2 19 1 20
REMARK H PARENT
REMARK Flexibility Score: inf
ROOT
ATOM      1  C   UNL     1      -3.004  38.525  22.322  1.00  0.00     0.000 C 
ENDROOT
BRANCH   1   2
ATOM      2  C   UNL     1      -2.517  38.703  20.873  1.00  0.00     0.000 C 
BRANCH   2   3
ATOM      3  C   UNL     1      -3.096  39.928  20.135  1.00  0.00     0.000 C 
BRANCH   3   4
ATOM      4  C   UNL     1      -3.342  39.724  18.630  1.00  0.00     0.000 C 
BRANCH   4   5
ATOM      5  C   UNL     1      -2.776  38.391  18.110  1.00  0.00     0.000 C 
BRANCH   5   6
ATOM      6  C   UNL     1      -3.550  37.856  16.896  1.00  0.00     0.000 C 
BRANCH   6   7
ATOM      7  C   UNL     1      -2.923  36.581  16.311  1.00  0.00     0.006 C 
BRANCH   7   8
ATOM      8  C   UNL     1      -2.213  35.770  17.400  1.00  0.00     0.053 C 
BRANCH   8   9
ATOM      9  C   UNL     1      -0.878  35.300  16.916  1.00  0.00     0.041 C 
ATOM     10  O   UNL     1      -0.381  34.232  17.362  1.00  0.00    -0.550 OA
ATOM     11  O   UNL     1      -0.203  36.016  15.936  1.00  0.00    -0.550 OA
ENDBRANCH   8   9
ENDBRANCH   7   8
ENDBRANCH   6   7
ENDBRANCH   5   6
ENDBRANCH   4   5
ENDBRANCH   3   4
ENDBRANCH   2   3
ENDBRANCH   1   2
BRANCH   1  12
ATOM     12  C   UNL     1      -3.745  37.198  22.545  1.00  0.00     0.000 C 
BRANCH  12  13
ATOM     13  C   UNL     1      -4.319  36.662  21.230  1.00  0.00    -0.000 C 
BRANCH  13  14
ATOM     14  C   UNL     1      -5.785  37.088  21.055  1.00  0.00    -0.000 C 
BRANCH  14  15
ATOM     15  C   UNL     1      -6.112  37.510  19.613  1.00  0.00    -0.000 C 
BRANCH  15  16
ATOM     16  C   UNL     1      -7.065  38.712  19.549  1.00  0.00    -0.000 C 
BRANCH  16  17
ATOM     17  C   UNL     1      -7.319  39.290  20.950  1.00  0.00    -0.000 C 
BRANCH  17  18
ATOM     18  C   UNL     1      -6.713  40.699  21.119  1.00  0.00    -0.000 C 
BRANCH  18  19
ATOM     19  C   UNL     1      -5.818  40.838  22.361  1.00  0.00    -0.003 C 
ATOM     20  C   UNL     1      -6.182  39.860  23.475  1.00  0.00     0.004 C 
ENDBRANCH  18  19
ENDBRANCH  17  18
ENDBRANCH  16  17
ENDBRANCH  15  16
ENDBRANCH  14  15
ENDBRANCH  13  14
ENDBRANCH  12  13
ENDBRANCH   1  12
TORSDOF 16
ENDMDL
MODEL 3
REMARK VINA RESULT:    -3.889      3.624      7.361
REMARK INTER + INTRA:         -10.303
REMARK INTER:                  -8.750
REMARK INTRA:                  -1.554
REMARK UNBOUND:                -2.776
REMARK SMILES CCCCCCCCCCCCCCCCCC(=O)[O-]
REMARK SMILES IDX 10 1 11 2 12 3 13 4 14 5 15 6 16 7 17 8 18 9 19 10 20 11
REMARK SMILES IDX 9 12 8 13 7 14 6 15 5 16 4 17 3 18 2 19 1 20
REMARK H PARENT
REMARK Flexibility Score: inf
ROOT
ATOM      1  C   UNL     1      -2.219  38.147  19.774  1.00  0.00     0.000 C 
ENDROOT
BRANCH   1   2
ATOM      2  C   UNL     1      -1.474  38.976  18.712  1.00  0.00     0.000 C 
BRANCH   2   3
ATOM      3  C   UNL     1      -1.241  38.257  17.368  1.00  0.00     0.000 C 
BRANCH   3   4
ATOM      4  C   UNL     1      -0.379  36.985  17.450  1.00  0.00     0.000 C 
BRANCH   4   5
ATOM      5  C   UNL     1      -1.154  35.715  17.060  1.00  0.00     0.000 C 
BRANCH   5   6
ATOM      6  C   UNL     1      -0.253  34.472  16.991  1.00  0.00     0.000 C 
BRANCH   6   7
ATOM      7  C   UNL     1      -1.005  33.178  17.337  1.00  0.00     0.006 C 
BRANCH   7   8
ATOM      8  C   UNL     1      -0.219  31.947  16.874  1.00  0.00     0.053 C 
BRANCH   8   9
ATOM      9  C   UNL     1      -0.612  30.744  17.672  1.00  0.00     0.041 C 
ATOM     10  O   UNL     1      -0.282  29.591  17.286  1.00  0.00    -0.550 OA
ATOM     11  O   UNL     1      -1.300  30.898  18.869  1.00  0.00    -0.550 OA
ENDBRANCH   8   9
ENDBRANCH   7   8
ENDBRANCH   6   7
ENDBRANCH   5   6
ENDBRANCH   4   5
ENDBRANCH   3   4
ENDBRANCH   2   3
ENDBRANCH   1   2
BRANCH   1  12
ATOM     12  C   UNL     1      -3.481  37.467  19.225  1.00  0.00     0.000 C 
BRANCH  12  13
ATOM     13  C   UNL     1      -4.614  38.481  19.034  1.00  0.00    -0.000 C 
BRANCH  13  14
ATOM     14  C   UNL     1      -5.933  37.775  18.687  1.00  0.00    -0.000 C 
BRANCH  14  15
ATOM     15  C   UNL     1      -7.115  38.281  19.529  1.00  0.00    -0.000 C 
BRANCH  15  16
ATOM     16  C   UNL     1      -6.694  39.318  20.581  1.00  0.00    -0.000 C 
BRANCH  16  17
ATOM     17  C   UNL     1      -7.187  38.915  21.979  1.00  0.00    -0.000 C 
BRANCH  17  18
ATOM     18  C   UNL     1      -6.608  37.559  22.434  1.00  0.00    -0.000 C 
BRANCH  18  19
ATOM     19  C   UNL     1      -5.083  37.576  22.635  1.00  0.00    -0.003 C 
ATOM     20  C   UNL     1      -4.420  36.243  22.300  1.00  0.00     0.004 C 
ENDBRANCH  18  19
ENDBRANCH  17  18
ENDBRANCH  16  17
ENDBRANCH  15  16
ENDBRANCH  14  15
ENDBRANCH  13  14
ENDBRANCH  12  13
ENDBRANCH   1  12
TORSDOF 16
ENDMDL
MODEL 4
REMARK VINA RESULT:    -3.822      2.928      6.024
REMARK INTER + INTRA:         -10.174
REMARK INTER:                  -7.259
REMARK INTRA:                  -2.915
REMARK UNBOUND:                -2.776
REMARK SMILES CCCCCCCCCCCCCCCCCC(=O)[O-]
REMARK SMILES IDX 10 1 11 2 12 3 13 4 14 5 15 6 16 7 17 8 18 9 19 10 20 11
REMARK SMILES IDX 9 12 8 13 7 14 6 15 5 16 4 17 3 18 2 19 1 20
REMARK H PARENT
REMARK Flexibility Score: inf
ROOT
ATOM      1  C   UNL     1      -2.247  39.220  22.858  1.00  0.00     0.000 C 
ENDROOT
BRANCH   1   2
ATOM      2  C   UNL     1      -2.157  39.492  21.345  1.00  0.00     0.000 C 
BRANCH   2   3
ATOM      3  C   UNL     1      -3.212  40.473  20.794  1.00  0.00     0.000 C 
BRANCH   3   4
ATOM      4  C   UNL     1      -3.402  40.434  19.267  1.00  0.00     0.000 C 
BRANCH   4   5
ATOM      5  C   UNL     1      -2.137  39.972  18.522  1.00  0.00     0.000 C 
BRANCH   5   6
ATOM      6  C   UNL     1      -2.460  39.135  17.275  1.00  0.00     0.000 C 
BRANCH   6   7
ATOM      7  C   UNL     1      -3.105  37.784  17.620  1.00  0.00     0.006 C 
BRANCH   7   8
ATOM      8  C   UNL     1      -2.091  36.847  18.285  1.00  0.00     0.053 C 
BRANCH   8   9
ATOM      9  C   UNL     1      -1.620  35.812  17.313  1.00  0.00     0.041 C 
ATOM     10  O   UNL     1      -1.904  34.598  17.492  1.00  0.00    -0.550 OA
ATOM     11  O   UNL     1      -0.909  36.192  16.183  1.00  0.00    -0.550 OA
ENDBRANCH   8   9
ENDBRANCH   7   8
ENDBRANCH   6   7
ENDBRANCH   5   6
ENDBRANCH   4   5
ENDBRANCH   3   4
ENDBRANCH   2   3
ENDBRANCH   1   2
BRANCH   1  12
ATOM     12  C   UNL     1      -3.257  40.131  23.570  1.00  0.00     0.000 C 
BRANCH  12  13
ATOM     13  C   UNL     1      -4.513  39.350  23.972  1.00  0.00    -0.000 C 
BRANCH  13  14
ATOM     14  C   UNL     1      -5.786  40.099  23.551  1.00  0.00    -0.000 C 
BRANCH  14  15
ATOM     15  C   UNL     1      -6.804  39.188  22.848  1.00  0.00    -0.000 C 
BRANCH  15  16
ATOM     16  C   UNL     1      -7.142  39.662  21.426  1.00  0.00    -0.000 C 
BRANCH  16  17
ATOM     17  C   UNL     1      -6.469  38.768  20.373  1.00  0.00    -0.000 C 
BRANCH  17  18
ATOM     18  C   UNL     1      -6.202  37.343  20.902  1.00  0.00    -0.000 C 
BRANCH  18  19
ATOM     19  C   UNL     1      -4.724  36.927  20.833  1.00  0.00    -0.003 C 
ATOM     20  C   UNL     1      -4.252  36.183  22.079  1.00  0.00     0.004 C 
ENDBRANCH  18  19
ENDBRANCH  17  18
ENDBRANCH  16  17
ENDBRANCH  15  16
ENDBRANCH  14  15
ENDBRANCH  13  14
ENDBRANCH  12  13
ENDBRANCH   1  12
TORSDOF 16
ENDMDL
MODEL 5
REMARK VINA RESULT:    -3.815      3.114      6.243
REMARK INTER + INTRA:         -10.159
REMARK INTER:                  -7.505
REMARK INTRA:                  -2.654
REMARK UNBOUND:                -2.776
REMARK SMILES CCCCCCCCCCCCCCCCCC(=O)[O-]
REMARK SMILES IDX 10 1 11 2 12 3 13 4 14 5 15 6 16 7 17 8 18 9 19 10 20 11
REMARK SMILES IDX 9 12 8 13 7 14 6 15 5 16 4 17 3 18 2 19 1 20
REMARK H PARENT
REMARK Flexibility Score: inf
ROOT
ATOM      1  C   UNL     1      -1.887  39.526  22.414  1.00  0.00     0.000 C 
ENDROOT
BRANCH   1   2
ATOM      2  C   UNL     1      -1.716  40.315  21.104  1.00  0.00     0.000 C 
BRANCH   2   3
ATOM      3  C   UNL     1      -3.030  40.776  20.442  1.00  0.00     0.000 C 
BRANCH   3   4
ATOM      4  C   UNL     1      -2.999  40.832  18.904  1.00  0.00     0.000 C 
BRANCH   4   5
ATOM      5  C   UNL     1      -3.128  39.443  18.255  1.00  0.00     0.000 C 
BRANCH   5   6
ATOM      6  C   UNL     1      -1.765  38.826  17.907  1.00  0.00     0.000 C 
BRANCH   6   7
ATOM      7  C   UNL     1      -1.581  37.424  18.507  1.00  0.00     0.006 C 
BRANCH   7   8
ATOM      8  C   UNL     1      -2.261  36.362  17.638  1.00  0.00     0.053 C 
BRANCH   8   9
ATOM      9  C   UNL     1      -1.317  35.238  17.349  1.00  0.00     0.041 C 
ATOM     10  O   UNL     1      -1.727  34.047  17.358  1.00  0.00    -0.550 OA
ATOM     11  O   UNL     1       0.005  35.507  17.022  1.00  0.00    -0.550 OA
ENDBRANCH   8   9
ENDBRANCH   7   8
ENDBRANCH   6   7
ENDBRANCH   5   6
ENDBRANCH   4   5
ENDBRANCH   3   4
ENDBRANCH   2   3
ENDBRANCH   1   2
BRANCH   1  12
ATOM     12  C   UNL     1      -3.107  39.979  23.230  1.00  0.00     0.000 C 
BRANCH  12  13
ATOM     13  C   UNL     1      -4.139  38.851  23.346  1.00  0.00    -0.000 C 
BRANCH  13  14
ATOM     14  C   UNL     1      -3.562  37.522  22.834  1.00  0.00    -0.000 C 
BRANCH  14  15
ATOM     15  C   UNL     1      -4.596  36.685  22.065  1.00  0.00    -0.000 C 
BRANCH  15  16
ATOM     16  C   UNL     1      -4.768  37.145  20.610  1.00  0.00    -0.000 C 
BRANCH  16  17
ATOM     17  C   UNL     1      -6.203  37.630  20.352  1.00  0.00    -0.000 C 
BRANCH  17  18
ATOM     18  C   UNL     1      -6.258  39.131  20.001  1.00  0.00    -0.000 C 
BRANCH  18  19
ATOM     19  C   UNL     1      -7.068  39.969  21.004  1.00  0.00    -0.003 C 
ATOM     20  C   UNL     1      -7.564  39.158  22.199  1.00  0.00     0.004 C 
ENDBRANCH  18  19
ENDBRANCH  17  18
ENDBRANCH  16  17
ENDBRANCH  15  16
ENDBRANCH  14  15
ENDBRANCH  13  14
ENDBRANCH  12  13
ENDBRANCH   1  12
TORSDOF 16
ENDMDL
MODEL 6
REMARK VINA RESULT:    -3.802      1.808      3.562
REMARK INTER + INTRA:         -10.134
REMARK INTER:                  -7.142
REMARK INTRA:                  -2.992
REMARK UNBOUND:                -2.776
REMARK SMILES CCCCCCCCCCCCCCCCCC(=O)[O-]
REMARK SMILES IDX 10 1 11 2 12 3 13 4 14 5 15 6 16 7 17 8 18 9 19 10 20 11
REMARK SMILES IDX 9 12 8 13 7 14 6 15 5 16 4 17 3 18 2 19 1 20
REMARK H PARENT
REMARK Flexibility Score: inf
ROOT
ATOM      1  C   UNL     1      -4.154  40.374  23.424  1.00  0.00     0.000 C 
ENDROOT
BRANCH   1   2
ATOM      2  C   UNL     1      -5.638  40.005  23.600  1.00  0.00     0.000 C 
BRANCH   2   3
ATOM      3  C   UNL     1      -6.497  40.125  22.325  1.00  0.00     0.000 C 
BRANCH   3   4
ATOM      4  C   UNL     1      -5.779  40.746  21.113  1.00  0.00     0.000 C 
BRANCH   4   5
ATOM      5  C   UNL     1      -5.429  39.707  20.033  1.00  0.00     0.000 C 
BRANCH   5   6
ATOM      6  C   UNL     1      -6.624  38.816  19.662  1.00  0.00     0.000 C 
BRANCH   6   7
ATOM      7  C   UNL     1      -6.394  37.340  20.022  1.00  0.00     0.006 C 
BRANCH   7   8
ATOM      8  C   UNL     1      -4.997  37.131  20.613  1.00  0.00     0.053 C 
BRANCH   8   9
ATOM      9  C   UNL     1      -5.093  36.582  22.002  1.00  0.00     0.041 C 
ATOM     10  O   UNL     1      -4.066  36.139  22.581  1.00  0.00    -0.550 OA
ATOM     11  O   UNL     1      -6.306  36.605  22.676  1.00  0.00    -0.550 OA
ENDBRANCH   8   9
ENDBRANCH   7   8
ENDBRANCH   6   7
ENDBRANCH   5   6
ENDBRANCH   4   5
ENDBRANCH   3   4
ENDBRANCH   2   3
ENDBRANCH   1   2
BRANCH   1  12
ATOM     12  C   UNL     1      -3.203  39.235  23.818  1.00  0.00     0.000 C 
BRANCH  12  13
ATOM     13  C   UNL     1      -1.942  39.247  22.947  1.00  0.00    -0.000 C 
BRANCH  13  14
ATOM     14  C   UNL     1      -2.140  40.127  21.703  1.00  0.00    -0.000 C 
BRANCH  14  15
ATOM     15  C   UNL     1      -1.737  39.413  20.403  1.00  0.00    -0.000 C 
BRANCH  15  16
ATOM     16  C   UNL     1      -1.712  40.357  19.191  1.00  0.00    -0.000 C 
BRANCH  16  17
ATOM     17  C   UNL     1      -1.587  39.567  17.880  1.00  0.00    -0.000 C 
BRANCH  17  18
ATOM     18  C   UNL     1      -2.963  39.216  17.276  1.00  0.00    -0.000 C 
BRANCH  18  19
ATOM     19  C   UNL     1      -3.322  37.726  17.388  1.00  0.00    -0.003 C 
ATOM     20  C   UNL     1      -4.664  37.383  16.746  1.00  0.00     0.004 C 
ENDBRANCH  18  19
ENDBRANCH  17  18
ENDBRANCH  16  17
ENDBRANCH  15  16
ENDBRANCH  14  15
ENDBRANCH  13  14
ENDBRANCH  12  13
ENDBRANCH   1  12
TORSDOF 16
ENDMDL
MODEL 7
REMARK VINA RESULT:    -3.731      2.936      6.711
REMARK INTER + INTRA:          -9.998
REMARK INTER:                  -7.550
REMARK INTRA:                  -2.447
REMARK UNBOUND:                -2.776
REMARK SMILES CCCCCCCCCCCCCCCCCC(=O)[O-]
REMARK SMILES IDX 10 1 11 2 12 3 13 4 14 5 15 6 16 7 17 8 18 9 19 10 20 11
REMARK SMILES IDX 9 12 8 13 7 14 6 15 5 16 4 17 3 18 2 19 1 20
REMARK H PARENT
REMARK Flexibility Score: inf
ROOT
ATOM      1  C   UNL     1      -2.783  38.825  19.666  1.00  0.00     0.000 C 
ENDROOT
BRANCH   1   2
ATOM      2  C   UNL     1      -3.423  40.103  19.096  1.00  0.00     0.000 C 
BRANCH   2   3
ATOM      3  C   UNL     1      -2.626  40.785  17.965  1.00  0.00     0.000 C 
BRANCH   3   4
ATOM      4  C   UNL     1      -2.437  39.934  16.697  1.00  0.00     0.000 C 
BRANCH   4   5
ATOM      5  C   UNL     1      -0.968  39.851  16.249  1.00  0.00     0.000 C 
BRANCH   5   6
ATOM      6  C   UNL     1      -0.509  38.408  15.994  1.00  0.00     0.000 C 
BRANCH   6   7
ATOM      7  C   UNL     1      -1.572  37.372  16.388  1.00  0.00     0.006 C 
BRANCH   7   8
ATOM      8  C   UNL     1      -1.020  36.384  17.420  1.00  0.00     0.053 C 
BRANCH   8   9
ATOM      9  C   UNL     1      -0.981  35.000  16.853  1.00  0.00     0.041 C 
ATOM     10  O   UNL     1      -0.176  34.717  15.927  1.00  0.00    -0.550 OA
ATOM     11  O   UNL     1      -1.799  34.010  17.380  1.00  0.00    -0.550 OA
ENDBRANCH   8   9
ENDBRANCH   7   8
ENDBRANCH   6   7
ENDBRANCH   5   6
ENDBRANCH   4   5
ENDBRANCH   3   4
ENDBRANCH   2   3
ENDBRANCH   1   2
BRANCH   1  12
ATOM     12  C   UNL     1      -3.697  37.596  19.555  1.00  0.00     0.000 C 
BRANCH  12  13
ATOM     13  C   UNL     1      -4.999  37.945  18.824  1.00  0.00    -0.000 C 
BRANCH  13  14
ATOM     14  C   UNL     1      -6.223  37.601  19.687  1.00  0.00    -0.000 C 
BRANCH  14  15
ATOM     15  C   UNL     1      -7.108  38.825  19.973  1.00  0.00    -0.000 C 
BRANCH  15  16
ATOM     16  C   UNL     1      -7.475  38.957  21.459  1.00  0.00    -0.000 C 
BRANCH  16  17
ATOM     17  C   UNL     1      -6.497  38.165  22.340  1.00  0.00    -0.000 C 
BRANCH  17  18
ATOM     18  C   UNL     1      -5.318  39.033  22.829  1.00  0.00    -0.000 C 
BRANCH  18  19
ATOM     19  C   UNL     1      -4.023  38.237  23.060  1.00  0.00    -0.003 C 
ATOM     20  C   UNL     1      -2.813  39.127  23.333  1.00  0.00     0.004 C 
ENDBRANCH  18  19
ENDBRANCH  17  18
ENDBRANCH  16  17
ENDBRANCH  15  16
ENDBRANCH  14  15
ENDBRANCH  13  14
ENDBRANCH  12  13
ENDBRANCH   1  12
TORSDOF 16
ENDMDL
MODEL 8
REMARK VINA RESULT:    -3.697      1.343      2.396
REMARK INTER + INTRA:          -9.931
REMARK INTER:                  -7.191
REMARK INTRA:                  -2.740
REMARK UNBOUND:                -2.776
REMARK SMILES CCCCCCCCCCCCCCCCCC(=O)[O-]
REMARK SMILES IDX 10 1 11 2 12 3 13 4 14 5 15 6 16 7 17 8 18 9 19 10 20 11
REMARK SMILES IDX 9 12 8 13 7 14 6 15 5 16 4 17 3 18 2 19 1 20
REMARK H PARENT
REMARK Flexibility Score: inf
ROOT
ATOM      1  C   UNL     1      -1.354  39.509  19.374  1.00  0.00     0.000 C 
ENDROOT
BRANCH   1   2
ATOM      2  C   UNL     1      -2.827  39.162  19.651  1.00  0.00     0.000 C 
BRANCH   2   3
ATOM      3  C   UNL     1      -3.054  37.860  20.446  1.00  0.00     0.000 C 
BRANCH   3   4
ATOM      4  C   UNL     1      -4.187  36.963  19.917  1.00  0.00     0.000 C 
BRANCH   4   5
ATOM      5  C   UNL     1      -5.214  37.738  19.074  1.00  0.00     0.000 C 
BRANCH   5   6
ATOM      6  C   UNL     1      -6.646  37.597  19.612  1.00  0.00     0.000 C 
BRANCH   6   7
ATOM      7  C   UNL     1      -7.252  38.943  20.039  1.00  0.00     0.006 C 
BRANCH   7   8
ATOM      8  C   UNL     1      -6.308  39.695  20.982  1.00  0.00     0.053 C 
BRANCH   8   9
ATOM      9  C   UNL     1      -6.424  39.161  22.375  1.00  0.00     0.041 C 
ATOM     10  O   UNL     1      -7.525  39.212  22.984  1.00  0.00    -0.550 OA
ATOM     11  O   UNL     1      -5.329  38.561  22.983  1.00  0.00    -0.550 OA
ENDBRANCH   8   9
ENDBRANCH   7   8
ENDBRANCH   6   7
ENDBRANCH   5   6
ENDBRANCH   4   5
ENDBRANCH   3   4
ENDBRANCH   2   3
ENDBRANCH   1   2
BRANCH   1  12
ATOM     12  C   UNL     1      -1.012  39.516  17.877  1.00  0.00     0.000 C 
BRANCH  12  13
ATOM     13  C   UNL     1      -2.267  39.749  17.028  1.00  0.00    -0.000 C 
BRANCH  13  14
ATOM     14  C   UNL     1      -2.349  38.737  15.875  1.00  0.00    -0.000 C 
BRANCH  14  15
ATOM     15  C   UNL     1      -3.320  37.583  16.168  1.00  0.00    -0.000 C 
BRANCH  15  16
ATOM     16  C   UNL     1      -2.654  36.204  16.055  1.00  0.00    -0.000 C 
BRANCH  16  17
ATOM     17  C   UNL     1      -1.843  35.879  17.318  1.00  0.00    -0.000 C 
BRANCH  17  18
ATOM     18  C   UNL     1      -0.466  35.266  16.987  1.00  0.00    -0.000 C 
BRANCH  18  19
ATOM     19  C   UNL     1       0.507  36.258  16.329  1.00  0.00    -0.003 C 
ATOM     20  C   UNL     1       1.530  36.831  17.306  1.00  0.00     0.004 C 
ENDBRANCH  18  19
ENDBRANCH  17  18
ENDBRANCH  16  17
ENDBRANCH  15  16
ENDBRANCH  14  15
ENDBRANCH  13  14
ENDBRANCH  12  13
ENDBRANCH   1  12
TORSDOF 16
ENDMDL
MODEL 9
REMARK VINA RESULT:    -3.675      1.441      3.094
REMARK INTER + INTRA:          -9.889
REMARK INTER:                  -7.229
REMARK INTRA:                  -2.660
REMARK UNBOUND:                -2.776
REMARK SMILES CCCCCCCCCCCCCCCCCC(=O)[O-]
REMARK SMILES IDX 10 1 11 2 12 3 13 4 14 5 15 6 16 7 17 8 18 9 19 10 20 11
REMARK SMILES IDX 9 12 8 13 7 14 6 15 5 16 4 17 3 18 2 19 1 20
REMARK H PARENT
REMARK Flexibility Score: inf
ROOT
ATOM      1  C   UNL     1      -3.103  37.225  18.428  1.00  0.00     0.000 C 
ENDROOT
BRANCH   1   2
ATOM      2  C   UNL     1      -4.150  37.687  17.398  1.00  0.00     0.000 C 
BRANCH   2   3
ATOM      3  C   UNL     1      -5.604  37.717  17.912  1.00  0.00     0.000 C 
BRANCH   3   4
ATOM      4  C   UNL     1      -5.817  38.509  19.215  1.00  0.00     0.000 C 
BRANCH   4   5
ATOM      5  C   UNL     1      -7.149  38.170  19.906  1.00  0.00     0.000 C 
BRANCH   5   6
ATOM      6  C   UNL     1      -7.332  38.920  21.234  1.00  0.00     0.000 C 
BRANCH   6   7
ATOM      7  C   UNL     1      -6.704  38.177  22.423  1.00  0.00     0.006 C 
BRANCH   7   8
ATOM      8  C   UNL     1      -5.369  38.813  22.824  1.00  0.00     0.053 C 
BRANCH   8   9
ATOM      9  C   UNL     1      -4.262  37.810  22.731  1.00  0.00     0.041 C 
ATOM     10  O   UNL     1      -4.356  36.834  21.941  1.00  0.00    -0.550 OA
ATOM     11  O   UNL     1      -3.106  37.980  23.481  1.00  0.00    -0.550 OA
ENDBRANCH   8   9
ENDBRANCH   7   8
ENDBRANCH   6   7
ENDBRANCH   5   6
ENDBRANCH   4   5
ENDBRANCH   3   4
ENDBRANCH   2   3
ENDBRANCH   1   2
BRANCH   1  12
ATOM     12  C   UNL     1      -1.872  36.576  17.780  1.00  0.00     0.000 C 
BRANCH  12  13
ATOM     13  C   UNL     1      -0.645  37.487  17.898  1.00  0.00    -0.000 C 
BRANCH  13  14
ATOM     14  C   UNL     1      -0.353  38.192  16.564  1.00  0.00    -0.000 C 
BRANCH  14  15
ATOM     15  C   UNL     1      -0.273  39.721  16.707  1.00  0.00    -0.000 C 
BRANCH  15  16
ATOM     16  C   UNL     1      -1.649  40.370  16.917  1.00  0.00    -0.000 C 
BRANCH  16  17
ATOM     17  C   UNL     1      -1.708  41.110  18.262  1.00  0.00    -0.000 C 
BRANCH  17  18
ATOM     18  C   UNL     1      -3.067  40.927  18.969  1.00  0.00    -0.000 C 
BRANCH  18  19
ATOM     19  C   UNL     1      -2.945  40.426  20.418  1.00  0.00    -0.003 C 
ATOM     20  C   UNL     1      -1.616  39.730  20.700  1.00  0.00     0.004 C 
ENDBRANCH  18  19
ENDBRANCH  17  18
ENDBRANCH  16  17
ENDBRANCH  15  16
ENDBRANCH  14  15
ENDBRANCH  13  14
ENDBRANCH  12  13
ENDBRANCH   1  12
TORSDOF 16
ENDMDL
