MODEL 1
REMARK VINA RESULT:    -7.730      0.000      0.000
REMARK INTER + INTRA:          -9.399
REMARK INTER:                  -9.086
REMARK INTRA:                  -0.313
REMARK UNBOUND:                -0.313
REMARK SMILES O=c1cc(-c2ccc(O)c(O)c2)oc2cc(O)cc(O)c12
REMARK SMILES IDX 4 1 3 2 2 3 1 4 21 5 19 6 18 7 16 8 15 9 14 10 13 11 5 12
REMARK SMILES IDX 6 13 7 14 8 15 12 16 10 17 9 18 11 20 20 22 17 24
REMARK H PARENT 9 19 11 21 20 23 17 25
REMARK Flexibility Score: inf
ROOT
ATOM      1  C   UNL     1     -23.216  60.998  32.350  1.00  0.00     0.138 A 
ATOM      2  C   UNL     1     -21.975  61.048  32.999  1.00  0.00     0.100 A 
ATOM      3  C   UNL     1     -20.813  61.248  32.252  1.00  0.00     0.197 A 
ATOM      4  O   UNL     1     -19.721  61.344  32.869  1.00  0.00    -0.289 OA
ATOM      5  C   UNL     1     -20.892  61.360  30.843  1.00  0.00     0.107 A 
ATOM      6  C   UNL     1     -19.772  61.531  29.976  1.00  0.00     0.134 A 
ATOM      7  C   UNL     1     -19.983  61.729  28.606  1.00  0.00     0.093 A 
ATOM      8  C   UNL     1     -21.270  61.706  28.064  1.00  0.00     0.123 A 
ATOM      9  C   UNL     1     -22.368  61.490  28.895  1.00  0.00     0.094 A 
ATOM     10  C   UNL     1     -22.192  61.324  30.271  1.00  0.00     0.146 A 
ATOM     11  O   UNL     1     -23.267  61.139  31.030  1.00  0.00    -0.456 OA
ENDROOT
BRANCH   1  12
ATOM     12  C   UNL     1     -24.483  60.785  33.095  1.00  0.00     0.021 A 
ATOM     13  C   UNL     1     -24.584  61.045  34.474  1.00  0.00     0.016 A 
ATOM     14  C   UNL     1     -25.793  60.845  35.147  1.00  0.00     0.051 A 
ATOM     15  C   UNL     1     -26.922  60.392  34.453  1.00  0.00     0.157 A 
ATOM     16  C   UNL     1     -25.625  60.343  32.403  1.00  0.00     0.062 A 
ATOM     17  C   UNL     1     -26.836  60.141  33.075  1.00  0.00     0.158 A 
BRANCH  15  18
ATOM     18  O   UNL     1     -28.125  60.192  35.128  1.00  0.00    -0.504 OA
ATOM     19  H   UNL     1     -28.416  60.798  35.886  1.00  0.00     0.293 HD
ENDBRANCH  15  18
BRANCH  17  20
ATOM     20  O   UNL     1     -27.944  59.692  32.354  1.00  0.00    -0.504 OA
ATOM     21  H   UNL     1     -28.887  59.769  32.714  1.00  0.00     0.293 HD
ENDBRANCH  17  20
ENDBRANCH   1  12
BRANCH   6  22
ATOM     22  O   UNL     1     -18.439  61.491  30.399  1.00  0.00    -0.507 OA
ATOM     23  H   UNL     1     -18.030  62.105  31.087  1.00  0.00     0.293 HD
ENDBRANCH   6  22
BRANCH   8  24
ATOM     24  O   UNL     1     -21.471  61.889  26.697  1.00  0.00    -0.508 OA
ATOM     25  H   UNL     1     -22.170  62.533  26.346  1.00  0.00     0.293 HD
ENDBRANCH   8  24
TORSDOF 5
ENDMDL
MODEL 2
REMARK VINA RESULT:    -7.093      1.274      3.117
REMARK INTER + INTRA:          -8.650
REMARK INTER:                  -8.332
REMARK INTRA:                  -0.318
REMARK UNBOUND:                -0.313
REMARK SMILES O=c1cc(-c2ccc(O)c(O)c2)oc2cc(O)cc(O)c12
REMARK SMILES IDX 4 1 3 2 2 3 1 4 21 5 19 6 18 7 16 8 15 9 14 10 13 11 5 12
REMARK SMILES IDX 6 13 7 14 8 15 12 16 10 17 9 18 11 20 20 22 17 24
REMARK H PARENT 9 19 11 21 20 23 17 25
REMARK Flexibility Score: inf
ROOT
ATOM      1  C   UNL     1     -24.293  61.309  31.249  1.00  0.00     0.138 A 
ATOM      2  C   UNL     1     -24.658  61.446  29.902  1.00  0.00     0.100 A 
ATOM      3  C   UNL     1     -23.667  61.564  28.927  1.00  0.00     0.197 A 
ATOM      4  O   UNL     1     -24.025  61.629  27.723  1.00  0.00    -0.289 OA
ATOM      5  C   UNL     1     -22.303  61.583  29.307  1.00  0.00     0.107 A 
ATOM      6  C   UNL     1     -21.208  61.733  28.404  1.00  0.00     0.134 A 
ATOM      7  C   UNL     1     -19.897  61.638  28.887  1.00  0.00     0.093 A 
ATOM      8  C   UNL     1     -19.641  61.454  30.248  1.00  0.00     0.123 A 
ATOM      9  C   UNL     1     -20.703  61.356  31.145  1.00  0.00     0.094 A 
ATOM     10  C   UNL     1     -22.023  61.413  30.689  1.00  0.00     0.146 A 
ATOM     11  O   UNL     1     -23.005  61.296  31.576  1.00  0.00    -0.456 OA
ENDROOT
BRANCH   1  12
ATOM     12  C   UNL     1     -25.305  61.182  32.328  1.00  0.00     0.021 A 
ATOM     13  C   UNL     1     -26.682  61.106  32.046  1.00  0.00     0.016 A 
ATOM     14  C   UNL     1     -27.612  60.976  33.082  1.00  0.00     0.051 A 
ATOM     15  C   UNL     1     -27.183  60.912  34.413  1.00  0.00     0.157 A 
ATOM     16  C   UNL     1     -24.882  61.103  33.666  1.00  0.00     0.062 A 
ATOM     17  C   UNL     1     -25.811  60.974  34.705  1.00  0.00     0.158 A 
BRANCH  15  18
ATOM     18  O   UNL     1     -28.113  60.785  35.443  1.00  0.00    -0.504 OA
ATOM     19  H   UNL     1     -27.855  60.408  36.348  1.00  0.00     0.293 HD
ENDBRANCH  15  18
BRANCH  17  20
ATOM     20  O   UNL     1     -25.351  60.909  36.021  1.00  0.00    -0.504 OA
ATOM     21  H   UNL     1     -25.984  60.852  36.810  1.00  0.00     0.293 HD
ENDBRANCH  17  20
ENDBRANCH   1  12
BRANCH   6  22
ATOM     22  O   UNL     1     -21.349  62.000  27.038  1.00  0.00    -0.507 OA
ATOM     23  H   UNL     1     -21.915  62.737  26.646  1.00  0.00     0.293 HD
ENDBRANCH   6  22
BRANCH   8  24
ATOM     24  O   UNL     1     -18.334  61.375  30.722  1.00  0.00    -0.508 OA
ATOM     25  H   UNL     1     -17.988  62.011  31.432  1.00  0.00     0.293 HD
ENDBRANCH   8  24
TORSDOF 5
ENDMDL
MODEL 3
REMARK VINA RESULT:    -6.925      3.290      7.262
REMARK INTER + INTRA:          -8.452
REMARK INTER:                  -8.188
REMARK INTRA:                  -0.264
REMARK UNBOUND:                -0.313
REMARK SMILES O=c1cc(-c2ccc(O)c(O)c2)oc2cc(O)cc(O)c12
REMARK SMILES IDX 4 1 3 2 2 3 1 4 21 5 19 6 18 7 16 8 15 9 14 10 13 11 5 12
REMARK SMILES IDX 6 13 7 14 8 15 12 16 10 17 9 18 11 20 20 22 17 24
REMARK H PARENT 9 19 11 21 20 23 17 25
REMARK Flexibility Score: inf
ROOT
ATOM      1  C   UNL     1     -23.077  60.048  34.146  1.00  0.00     0.138 A 
ATOM      2  C   UNL     1     -23.557  59.422  32.986  1.00  0.00     0.100 A 
ATOM      3  C   UNL     1     -24.908  59.527  32.654  1.00  0.00     0.197 A 
ATOM      4  O   UNL     1     -25.296  59.001  31.579  1.00  0.00    -0.289 OA
ATOM      5  C   UNL     1     -25.791  60.230  33.508  1.00  0.00     0.107 A 
ATOM      6  C   UNL     1     -27.194  60.373  33.289  1.00  0.00     0.134 A 
ATOM      7  C   UNL     1     -27.949  61.177  34.153  1.00  0.00     0.093 A 
ATOM      8  C   UNL     1     -27.362  61.796  35.259  1.00  0.00     0.123 A 
ATOM      9  C   UNL     1     -26.003  61.623  35.510  1.00  0.00     0.094 A 
ATOM     10  C   UNL     1     -25.216  60.855  34.647  1.00  0.00     0.146 A 
ATOM     11  O   UNL     1     -23.920  60.730  34.913  1.00  0.00    -0.456 OA
ENDROOT
BRANCH   1  12
ATOM     12  C   UNL     1     -21.650  59.968  34.548  1.00  0.00     0.021 A 
ATOM     13  C   UNL     1     -21.148  58.877  35.283  1.00  0.00     0.016 A 
ATOM     14  C   UNL     1     -19.798  58.823  35.639  1.00  0.00     0.051 A 
ATOM     15  C   UNL     1     -18.925  59.851  35.260  1.00  0.00     0.157 A 
ATOM     16  C   UNL     1     -20.764  60.989  34.161  1.00  0.00     0.062 A 
ATOM     17  C   UNL     1     -19.412  60.937  34.517  1.00  0.00     0.158 A 
BRANCH  15  18
ATOM     18  O   UNL     1     -17.579  59.794  35.619  1.00  0.00    -0.504 OA
ATOM     19  H   UNL     1     -17.166  58.950  35.998  1.00  0.00     0.293 HD
ENDBRANCH  15  18
BRANCH  17  20
ATOM     20  O   UNL     1     -18.567  61.975  34.121  1.00  0.00    -0.504 OA
ATOM     21  H   UNL     1     -18.485  62.833  34.652  1.00  0.00     0.293 HD
ENDBRANCH  17  20
ENDBRANCH   1  12
BRANCH   6  22
ATOM     22  O   UNL     1     -27.896  59.735  32.262  1.00  0.00    -0.507 OA
ATOM     23  H   UNL     1     -28.776  60.046  31.880  1.00  0.00     0.293 HD
ENDBRANCH   6  22
BRANCH   8  24
ATOM     24  O   UNL     1     -28.124  62.582  36.122  1.00  0.00    -0.508 OA
ATOM     25  H   UNL     1     -27.812  62.790  37.064  1.00  0.00     0.293 HD
ENDBRANCH   8  24
TORSDOF 5
ENDMDL
MODEL 4
REMARK VINA RESULT:    -6.868     16.892     19.241
REMARK INTER + INTRA:          -8.385
REMARK INTER:                  -8.079
REMARK INTRA:                  -0.306
REMARK UNBOUND:                -0.313
REMARK SMILES O=c1cc(-c2ccc(O)c(O)c2)oc2cc(O)cc(O)c12
REMARK SMILES IDX 4 1 3 2 2 3 1 4 21 5 19 6 18 7 16 8 15 9 14 10 13 11 5 12
REMARK SMILES IDX 6 13 7 14 8 15 12 16 10 17 9 18 11 20 20 22 17 24
REMARK H PARENT 9 19 11 21 20 23 17 25
REMARK Flexibility Score: inf
ROOT
ATOM      1  C   UNL     1     -14.663  45.810  25.043  1.00  0.00     0.138 A 
ATOM      2  C   UNL     1     -15.441  45.100  25.969  1.00  0.00     0.100 A 
ATOM      3  C   UNL     1     -15.999  45.770  27.058  1.00  0.00     0.197 A 
ATOM      4  O   UNL     1     -16.738  45.118  27.840  1.00  0.00    -0.289 OA
ATOM      5  C   UNL     1     -15.744  47.151  27.242  1.00  0.00     0.107 A 
ATOM      6  C   UNL     1     -16.232  47.930  28.333  1.00  0.00     0.134 A 
ATOM      7  C   UNL     1     -15.996  49.311  28.355  1.00  0.00     0.093 A 
ATOM      8  C   UNL     1     -15.243  49.930  27.355  1.00  0.00     0.123 A 
ATOM      9  C   UNL     1     -14.720  49.169  26.311  1.00  0.00     0.094 A 
ATOM     10  C   UNL     1     -14.967  47.796  26.243  1.00  0.00     0.146 A 
ATOM     11  O   UNL     1     -14.466  47.111  25.220  1.00  0.00    -0.456 OA
ENDROOT
BRANCH   1  12
ATOM     12  C   UNL     1     -14.042  45.146  23.868  1.00  0.00     0.021 A 
ATOM     13  C   UNL     1     -14.643  44.039  23.240  1.00  0.00     0.016 A 
ATOM     14  C   UNL     1     -14.041  43.442  22.129  1.00  0.00     0.051 A 
ATOM     15  C   UNL     1     -12.837  43.945  21.621  1.00  0.00     0.157 A 
ATOM     16  C   UNL     1     -12.840  45.654  23.343  1.00  0.00     0.062 A 
ATOM     17  C   UNL     1     -12.236  45.057  22.231  1.00  0.00     0.158 A 
BRANCH  15  18
ATOM     18  O   UNL     1     -12.239  43.346  20.513  1.00  0.00    -0.504 OA
ATOM     19  H   UNL     1     -11.804  43.895  19.782  1.00  0.00     0.293 HD
ENDBRANCH  15  18
BRANCH  17  20
ATOM     20  O   UNL     1     -11.038  45.584  21.747  1.00  0.00    -0.504 OA
ATOM     21  H   UNL     1     -10.693  46.491  22.038  1.00  0.00     0.293 HD
ENDBRANCH  17  20
ENDBRANCH   1  12
BRANCH   6  22
ATOM     22  O   UNL     1     -16.927  47.401  29.426  1.00  0.00    -0.507 OA
ATOM     23  H   UNL     1     -17.084  46.420  29.594  1.00  0.00     0.293 HD
ENDBRANCH   6  22
BRANCH   8  24
ATOM     24  O   UNL     1     -15.000  51.301  27.393  1.00  0.00    -0.508 OA
ATOM     25  H   UNL     1     -14.069  51.670  27.547  1.00  0.00     0.293 HD
ENDBRANCH   8  24
TORSDOF 5
ENDMDL
MODEL 5
REMARK VINA RESULT:    -6.698     18.302     19.509
REMARK INTER + INTRA:          -8.186
REMARK INTER:                  -7.904
REMARK INTRA:                  -0.282
REMARK UNBOUND:                -0.313
REMARK SMILES O=c1cc(-c2ccc(O)c(O)c2)oc2cc(O)cc(O)c12
REMARK SMILES IDX 4 1 3 2 2 3 1 4 21 5 19 6 18 7 16 8 15 9 14 10 13 11 5 12
REMARK SMILES IDX 6 13 7 14 8 15 12 16 10 17 9 18 11 20 20 22 17 24
REMARK H PARENT 9 19 11 21 20 23 17 25
REMARK Flexibility Score: inf
ROOT
ATOM      1  C   UNL     1     -14.977  44.954  25.367  1.00  0.00     0.138 A 
ATOM      2  C   UNL     1     -13.854  45.793  25.408  1.00  0.00     0.100 A 
ATOM      3  C   UNL     1     -13.027  45.893  24.288  1.00  0.00     0.197 A 
ATOM      4  O   UNL     1     -12.059  46.696  24.336  1.00  0.00    -0.289 OA
ATOM      5  C   UNL     1     -13.306  45.120  23.135  1.00  0.00     0.107 A 
ATOM      6  C   UNL     1     -12.514  45.114  21.948  1.00  0.00     0.134 A 
ATOM      7  C   UNL     1     -12.945  44.383  20.834  1.00  0.00     0.093 A 
ATOM      8  C   UNL     1     -14.108  43.612  20.884  1.00  0.00     0.123 A 
ATOM      9  C   UNL     1     -14.862  43.571  22.055  1.00  0.00     0.094 A 
ATOM     10  C   UNL     1     -14.477  44.317  23.171  1.00  0.00     0.146 A 
ATOM     11  O   UNL     1     -15.235  44.264  24.262  1.00  0.00    -0.456 OA
ENDROOT
BRANCH   1  12
ATOM     12  C   UNL     1     -15.889  44.807  26.530  1.00  0.00     0.021 A 
ATOM     13  C   UNL     1     -16.502  43.579  26.840  1.00  0.00     0.016 A 
ATOM     14  C   UNL     1     -17.347  43.468  27.948  1.00  0.00     0.051 A 
ATOM     15  C   UNL     1     -17.588  44.577  28.768  1.00  0.00     0.157 A 
ATOM     16  C   UNL     1     -16.125  45.913  27.367  1.00  0.00     0.062 A 
ATOM     17  C   UNL     1     -16.972  45.804  28.475  1.00  0.00     0.158 A 
BRANCH  15  18
ATOM     18  O   UNL     1     -18.433  44.463  29.870  1.00  0.00    -0.504 OA
ATOM     19  H   UNL     1     -18.229  43.828  30.632  1.00  0.00     0.293 HD
ENDBRANCH  15  18
BRANCH  17  20
ATOM     20  O   UNL     1     -17.188  46.927  29.275  1.00  0.00    -0.504 OA
ATOM     21  H   UNL     1     -16.901  47.855  28.988  1.00  0.00     0.293 HD
ENDBRANCH  17  20
ENDBRANCH   1  12
BRANCH   6  22
ATOM     22  O   UNL     1     -11.293  45.785  21.816  1.00  0.00    -0.507 OA
ATOM     23  H   UNL     1     -10.527  45.728  22.469  1.00  0.00     0.293 HD
ENDBRANCH   6  22
BRANCH   8  24
ATOM     24  O   UNL     1     -14.522  42.875  19.776  1.00  0.00    -0.508 OA
ATOM     25  H   UNL     1     -13.881  42.643  19.025  1.00  0.00     0.293 HD
ENDBRANCH   8  24
TORSDOF 5
ENDMDL
MODEL 6
REMARK VINA RESULT:    -6.581      2.272      6.484
REMARK INTER + INTRA:          -8.048
REMARK INTER:                  -7.754
REMARK INTRA:                  -0.294
REMARK UNBOUND:                -0.313
REMARK SMILES O=c1cc(-c2ccc(O)c(O)c2)oc2cc(O)cc(O)c12
REMARK SMILES IDX 4 1 3 2 2 3 1 4 21 5 19 6 18 7 16 8 15 9 14 10 13 11 5 12
REMARK SMILES IDX 6 13 7 14 8 15 12 16 10 17 9 18 11 20 20 22 17 24
REMARK H PARENT 9 19 11 21 20 23 17 25
REMARK Flexibility Score: inf
ROOT
ATOM      1  C   UNL     1     -23.002  60.090  31.174  1.00  0.00     0.138 A 
ATOM      2  C   UNL     1     -24.174  59.740  31.858  1.00  0.00     0.100 A 
ATOM      3  C   UNL     1     -24.292  60.026  33.218  1.00  0.00     0.197 A 
ATOM      4  O   UNL     1     -25.378  59.750  33.791  1.00  0.00    -0.289 OA
ATOM      5  C   UNL     1     -23.213  60.632  33.907  1.00  0.00     0.107 A 
ATOM      6  C   UNL     1     -23.205  60.939  35.300  1.00  0.00     0.134 A 
ATOM      7  C   UNL     1     -22.117  61.629  35.849  1.00  0.00     0.093 A 
ATOM      8  C   UNL     1     -21.012  61.973  35.067  1.00  0.00     0.123 A 
ATOM      9  C   UNL     1     -20.988  61.634  33.716  1.00  0.00     0.094 A 
ATOM     10  C   UNL     1     -22.073  60.976  33.131  1.00  0.00     0.146 A 
ATOM     11  O   UNL     1     -22.016  60.688  31.835  1.00  0.00    -0.456 OA
ENDROOT
BRANCH   1  12
ATOM     12  C   UNL     1     -22.822  59.807  29.727  1.00  0.00     0.021 A 
ATOM     13  C   UNL     1     -23.200  58.575  29.161  1.00  0.00     0.016 A 
ATOM     14  C   UNL     1     -23.028  58.341  27.794  1.00  0.00     0.051 A 
ATOM     15  C   UNL     1     -22.487  59.334  26.969  1.00  0.00     0.157 A 
ATOM     16  C   UNL     1     -22.292  60.804  28.889  1.00  0.00     0.062 A 
ATOM     17  C   UNL     1     -22.119  60.571  27.520  1.00  0.00     0.158 A 
BRANCH  15  18
ATOM     18  O   UNL     1     -22.316  59.096  25.606  1.00  0.00    -0.504 OA
ATOM     19  H   UNL     1     -22.523  59.805  24.913  1.00  0.00     0.293 HD
ENDBRANCH  15  18
BRANCH  17  20
ATOM     20  O   UNL     1     -21.580  61.583  26.724  1.00  0.00    -0.504 OA
ATOM     21  H   UNL     1     -21.959  62.522  26.718  1.00  0.00     0.293 HD
ENDBRANCH  17  20
ENDBRANCH   1  12
BRANCH   6  22
ATOM     22  O   UNL     1     -24.221  60.572  36.189  1.00  0.00    -0.507 OA
ATOM     23  H   UNL     1     -25.041  60.039  35.945  1.00  0.00     0.293 HD
ENDBRANCH   6  22
BRANCH   8  24
ATOM     24  O   UNL     1     -19.928  62.647  35.625  1.00  0.00    -0.508 OA
ATOM     25  H   UNL     1     -19.801  63.645  35.496  1.00  0.00     0.293 HD
ENDBRANCH   8  24
TORSDOF 5
ENDMDL
MODEL 7
REMARK VINA RESULT:    -6.568      2.309      6.637
REMARK INTER + INTRA:          -8.033
REMARK INTER:                  -7.759
REMARK INTRA:                  -0.273
REMARK UNBOUND:                -0.313
REMARK SMILES O=c1cc(-c2ccc(O)c(O)c2)oc2cc(O)cc(O)c12
REMARK SMILES IDX 4 1 3 2 2 3 1 4 21 5 19 6 18 7 16 8 15 9 14 10 13 11 5 12
REMARK SMILES IDX 6 13 7 14 8 15 12 16 10 17 9 18 11 20 20 22 17 24
REMARK H PARENT 9 19 11 21 20 23 17 25
REMARK Flexibility Score: inf
ROOT
ATOM      1  C   UNL     1     -22.217  60.761  33.244  1.00  0.00     0.138 A 
ATOM      2  C   UNL     1     -22.283  61.155  31.901  1.00  0.00     0.100 A 
ATOM      3  C   UNL     1     -23.525  61.267  31.275  1.00  0.00     0.197 A 
ATOM      4  O   UNL     1     -23.556  61.677  30.086  1.00  0.00    -0.289 OA
ATOM      5  C   UNL     1     -24.705  60.943  31.988  1.00  0.00     0.107 A 
ATOM      6  C   UNL     1     -26.023  60.986  31.443  1.00  0.00     0.134 A 
ATOM      7  C   UNL     1     -27.123  60.739  32.275  1.00  0.00     0.093 A 
ATOM      8  C   UNL     1     -26.948  60.396  33.618  1.00  0.00     0.123 A 
ATOM      9  C   UNL     1     -25.663  60.303  34.147  1.00  0.00     0.094 A 
ATOM     10  C   UNL     1     -24.547  60.577  33.351  1.00  0.00     0.146 A 
ATOM     11  O   UNL     1     -23.340  60.494  33.901  1.00  0.00    -0.456 OA
ENDROOT
BRANCH   1  12
ATOM     12  C   UNL     1     -20.922  60.623  33.959  1.00  0.00     0.021 A 
ATOM     13  C   UNL     1     -20.719  61.179  35.236  1.00  0.00     0.016 A 
ATOM     14  C   UNL     1     -19.492  61.024  35.889  1.00  0.00     0.051 A 
ATOM     15  C   UNL     1     -18.454  60.307  35.283  1.00  0.00     0.157 A 
ATOM     16  C   UNL     1     -19.878  59.893  33.363  1.00  0.00     0.062 A 
ATOM     17  C   UNL     1     -18.650  59.738  34.015  1.00  0.00     0.158 A 
BRANCH  15  18
ATOM     18  O   UNL     1     -17.232  60.157  35.936  1.00  0.00    -0.504 OA
ATOM     19  H   UNL     1     -16.901  60.840  36.607  1.00  0.00     0.293 HD
ENDBRANCH  15  18
BRANCH  17  20
ATOM     20  O   UNL     1     -17.636  59.014  33.385  1.00  0.00    -0.504 OA
ATOM     21  H   UNL     1     -17.771  58.061  33.071  1.00  0.00     0.293 HD
ENDBRANCH  17  20
ENDBRANCH   1  12
BRANCH   6  22
ATOM     22  O   UNL     1     -26.308  61.240  30.097  1.00  0.00    -0.507 OA
ATOM     23  H   UNL     1     -25.820  60.833  29.314  1.00  0.00     0.293 HD
ENDBRANCH   6  22
BRANCH   8  24
ATOM     24  O   UNL     1     -28.047  60.137  34.434  1.00  0.00    -0.508 OA
ATOM     25  H   UNL     1     -28.973  59.993  34.047  1.00  0.00     0.293 HD
ENDBRANCH   8  24
TORSDOF 5
ENDMDL
MODEL 8
REMARK VINA RESULT:    -6.555     17.038     19.085
REMARK INTER + INTRA:          -8.018
REMARK INTER:                  -7.707
REMARK INTRA:                  -0.311
REMARK UNBOUND:                -0.313
REMARK SMILES O=c1cc(-c2ccc(O)c(O)c2)oc2cc(O)cc(O)c12
REMARK SMILES IDX 4 1 3 2 2 3 1 4 21 5 19 6 18 7 16 8 15 9 14 10 13 11 5 12
REMARK SMILES IDX 6 13 7 14 8 15 12 16 10 17 9 18 11 20 20 22 17 24
REMARK H PARENT 9 19 11 21 20 23 17 25
REMARK Flexibility Score: inf
ROOT
ATOM      1  C   UNL     1     -15.855  45.040  26.604  1.00  0.00     0.138 A 
ATOM      2  C   UNL     1     -16.695  43.994  27.011  1.00  0.00     0.100 A 
ATOM      3  C   UNL     1     -17.407  44.105  28.205  1.00  0.00     0.197 A 
ATOM      4  O   UNL     1     -18.195  43.174  28.515  1.00  0.00    -0.289 OA
ATOM      5  C   UNL     1     -17.247  45.255  29.016  1.00  0.00     0.107 A 
ATOM      6  C   UNL     1     -17.895  45.463  30.270  1.00  0.00     0.134 A 
ATOM      7  C   UNL     1     -17.735  46.686  30.935  1.00  0.00     0.093 A 
ATOM      8  C   UNL     1     -16.906  47.685  30.419  1.00  0.00     0.123 A 
ATOM      9  C   UNL     1     -16.230  47.472  29.219  1.00  0.00     0.094 A 
ATOM     10  C   UNL     1     -16.396  46.276  28.515  1.00  0.00     0.146 A 
ATOM     11  O   UNL     1     -15.747  46.122  27.366  1.00  0.00    -0.456 OA
ENDROOT
BRANCH   1  12
ATOM     12  C   UNL     1     -15.072  44.972  25.343  1.00  0.00     0.021 A 
ATOM     13  C   UNL     1     -15.462  44.147  24.272  1.00  0.00     0.016 A 
ATOM     14  C   UNL     1     -14.710  44.112  23.094  1.00  0.00     0.051 A 
ATOM     15  C   UNL     1     -13.565  44.907  22.962  1.00  0.00     0.157 A 
ATOM     16  C   UNL     1     -13.927  45.777  25.197  1.00  0.00     0.062 A 
ATOM     17  C   UNL     1     -13.174  45.743  24.019  1.00  0.00     0.158 A 
BRANCH  15  18
ATOM     18  O   UNL     1     -12.818  44.868  21.786  1.00  0.00    -0.504 OA
ATOM     19  H   UNL     1     -11.848  44.575  21.782  1.00  0.00     0.293 HD
ENDBRANCH  15  18
BRANCH  17  20
ATOM     20  O   UNL     1     -12.039  46.550  23.917  1.00  0.00    -0.504 OA
ATOM     21  H   UNL     1     -11.105  46.183  24.054  1.00  0.00     0.293 HD
ENDBRANCH  17  20
ENDBRANCH   1  12
BRANCH   6  22
ATOM     22  O   UNL     1     -18.681  44.503  30.916  1.00  0.00    -0.507 OA
ATOM     23  H   UNL     1     -19.669  44.588  31.096  1.00  0.00     0.293 HD
ENDBRANCH   6  22
BRANCH   8  24
ATOM     24  O   UNL     1     -16.742  48.892  31.094  1.00  0.00    -0.508 OA
ATOM     25  H   UNL     1     -15.876  49.417  31.036  1.00  0.00     0.293 HD
ENDBRANCH   8  24
TORSDOF 5
ENDMDL
