MODEL 1
REMARK VINA RESULT:    -3.253      0.000      0.000
REMARK INTER + INTRA:          -8.945
REMARK INTER:                  -6.296
REMARK INTRA:                  -2.649
REMARK UNBOUND:                -2.649
REMARK SMILES CCCCCCCCCCCCCCCCCC(=O)[O-]
REMARK SMILES IDX 10 1 11 2 12 3 13 4 14 5 15 6 16 7 17 8 18 9 19 10 20 11
REMARK SMILES IDX 9 12 8 13 7 14 6 15 5 16 4 17 3 18 2 19 1 20
REMARK H PARENT
REMARK Flexibility Score: inf
ROOT
ATOM      1  C   UNL     1      16.511 -11.346 185.661  1.00  0.00     0.000 C 
ENDROOT
BRANCH   1   2
ATOM      2  C   UNL     1      15.743 -10.148 186.239  1.00  0.00     0.000 C 
BRANCH   2   3
ATOM      3  C   UNL     1      16.242  -8.801 185.694  1.00  0.00     0.000 C 
BRANCH   3   4
ATOM      4  C   UNL     1      17.675  -8.878 185.140  1.00  0.00     0.000 C 
BRANCH   4   5
ATOM      5  C   UNL     1      18.723  -8.387 186.153  1.00  0.00     0.000 C 
BRANCH   5   6
ATOM      6  C   UNL     1      19.771  -9.465 186.486  1.00  0.00     0.000 C 
BRANCH   6   7
ATOM      7  C   UNL     1      19.688  -9.939 187.945  1.00  0.00     0.006 C 
BRANCH   7   8
ATOM      8  C   UNL     1      18.574  -9.240 188.734  1.00  0.00     0.053 C 
BRANCH   8   9
ATOM      9  C   UNL     1      19.159  -8.301 189.742  1.00  0.00     0.041 C 
ATOM     10  O   UNL     1      19.788  -8.750 190.736  1.00  0.00    -0.550 OA
ATOM     11  O   UNL     1      18.963  -6.932 189.612  1.00  0.00    -0.550 OA
ENDBRANCH   8   9
ENDBRANCH   7   8
ENDBRANCH   6   7
ENDBRANCH   5   6
ENDBRANCH   4   5
ENDBRANCH   3   4
ENDBRANCH   2   3
ENDBRANCH   1   2
BRANCH   1  12
ATOM     12  C   UNL     1      16.918 -12.325 186.769  1.00  0.00     0.000 C 
BRANCH  12  13
ATOM     13  C   UNL     1      18.287 -12.955 186.474  1.00  0.00    -0.000 C 
BRANCH  13  14
ATOM     14  C   UNL     1      18.388 -14.405 186.969  1.00  0.00    -0.000 C 
BRANCH  14  15
ATOM     15  C   UNL     1      17.010 -15.062 187.164  1.00  0.00    -0.000 C 
BRANCH  15  16
ATOM     16  C   UNL     1      16.655 -16.050 186.038  1.00  0.00    -0.000 C 
BRANCH  16  17
ATOM     17  C   UNL     1      15.228 -15.908 185.476  1.00  0.00    -0.000 C 
BRANCH  17  18
ATOM     18  C   UNL     1      14.409 -14.820 186.188  1.00  0.00    -0.000 C 
BRANCH  18  19
ATOM     19  C   UNL     1      13.767 -13.863 185.176  1.00  0.00    -0.003 C 
ATOM     20  C   UNL     1      14.566 -13.819 183.876  1.00  0.00     0.004 C 
ENDBRANCH  18  19
ENDBRANCH  17  18
ENDBRANCH  16  17
ENDBRANCH  15  16
ENDBRANCH  14  15
ENDBRANCH  13  14
ENDBRANCH  12  13
ENDBRANCH   1  12
TORSDOF 16
ENDMDL
MODEL 2
REMARK VINA RESULT:    -3.232     18.312     20.398
REMARK INTER + INTRA:          -8.905
REMARK INTER:                  -6.208
REMARK INTRA:                  -2.697
REMARK UNBOUND:                -2.649
REMARK SMILES CCCCCCCCCCCCCCCCCC(=O)[O-]
REMARK SMILES IDX 10 1 11 2 12 3 13 4 14 5 15 6 16 7 17 8 18 9 19 10 20 11
REMARK SMILES IDX 9 12 8 13 7 14 6 15 5 16 4 17 3 18 2 19 1 20
REMARK H PARENT
REMARK Flexibility Score: inf
ROOT
ATOM      1  C   UNL     1      11.704  -1.393 200.881  1.00  0.00     0.000 C 
ENDROOT
BRANCH   1   2
ATOM      2  C   UNL     1      11.069  -2.209 202.018  1.00  0.00     0.000 C 
BRANCH   2   3
ATOM      3  C   UNL     1      11.352  -1.615 203.407  1.00  0.00     0.000 C 
BRANCH   3   4
ATOM      4  C   UNL     1      12.690  -2.096 203.997  1.00  0.00     0.000 C 
BRANCH   4   5
ATOM      5  C   UNL     1      13.780  -1.013 203.938  1.00  0.00     0.000 C 
BRANCH   5   6
ATOM      6  C   UNL     1      14.906  -1.365 202.948  1.00  0.00     0.000 C 
BRANCH   6   7
ATOM      7  C   UNL     1      15.716  -0.134 202.513  1.00  0.00     0.006 C 
BRANCH   7   8
ATOM      8  C   UNL     1      16.557   0.457 203.652  1.00  0.00     0.053 C 
BRANCH   8   9
ATOM      9  C   UNL     1      18.014   0.229 203.397  1.00  0.00     0.041 C 
ATOM     10  O   UNL     1      18.768   1.198 203.119  1.00  0.00    -0.550 OA
ATOM     11  O   UNL     1      18.529  -1.061 203.413  1.00  0.00    -0.550 OA
ENDBRANCH   8   9
ENDBRANCH   7   8
ENDBRANCH   6   7
ENDBRANCH   5   6
ENDBRANCH   4   5
ENDBRANCH   3   4
ENDBRANCH   2   3
ENDBRANCH   1   2
BRANCH   1  12
ATOM     12  C   UNL     1      10.674  -1.082 199.788  1.00  0.00     0.000 C 
BRANCH  12  13
ATOM     13  C   UNL     1       9.256  -1.450 200.245  1.00  0.00    -0.000 C 
BRANCH  13  14
ATOM     14  C   UNL     1       8.257  -0.299 200.052  1.00  0.00    -0.000 C 
BRANCH  14  15
ATOM     15  C   UNL     1       8.821   1.058 200.509  1.00  0.00    -0.000 C 
BRANCH  15  16
ATOM     16  C   UNL     1       8.823   1.219 202.040  1.00  0.00    -0.000 C 
BRANCH  16  17
ATOM     17  C   UNL     1      10.163   1.683 202.641  1.00  0.00    -0.000 C 
BRANCH  17  18
ATOM     18  C   UNL     1      11.113   2.288 201.596  1.00  0.00    -0.000 C 
BRANCH  18  19
ATOM     19  C   UNL     1      12.571   1.932 201.907  1.00  0.00    -0.003 C 
ATOM     20  C   UNL     1      13.097   2.744 203.087  1.00  0.00     0.004 C 
ENDBRANCH  18  19
ENDBRANCH  17  18
ENDBRANCH  16  17
ENDBRANCH  15  16
ENDBRANCH  14  15
ENDBRANCH  13  14
ENDBRANCH  12  13
ENDBRANCH   1  12
TORSDOF 16
ENDMDL
MODEL 3
REMARK VINA RESULT:    -3.226      1.711      3.318
REMARK INTER + INTRA:          -8.893
REMARK INTER:                  -6.282
REMARK INTRA:                  -2.611
REMARK UNBOUND:                -2.649
REMARK SMILES CCCCCCCCCCCCCCCCCC(=O)[O-]
REMARK SMILES IDX 10 1 11 2 12 3 13 4 14 5 15 6 16 7 17 8 18 9 19 10 20 11
REMARK SMILES IDX 9 12 8 13 7 14 6 15 5 16 4 17 3 18 2 19 1 20
REMARK H PARENT
REMARK Flexibility Score: inf
ROOT
ATOM      1  C   UNL     1      16.647 -10.461 185.225  1.00  0.00     0.000 C 
ENDROOT
BRANCH   1   2
ATOM      2  C   UNL     1      16.163 -10.574 186.679  1.00  0.00     0.000 C 
BRANCH   2   3
ATOM      3  C   UNL     1      17.052 -11.493 187.532  1.00  0.00     0.000 C 
BRANCH   3   4
ATOM      4  C   UNL     1      18.292 -11.993 186.773  1.00  0.00     0.000 C 
BRANCH   4   5
ATOM      5  C   UNL     1      19.606 -11.546 187.435  1.00  0.00     0.000 C 
BRANCH   5   6
ATOM      6  C   UNL     1      19.973 -10.091 187.091  1.00  0.00     0.000 C 
BRANCH   6   7
ATOM      7  C   UNL     1      19.735  -9.128 188.265  1.00  0.00     0.006 C 
BRANCH   7   8
ATOM      8  C   UNL     1      18.543  -8.191 188.031  1.00  0.00     0.053 C 
BRANCH   8   9
ATOM      9  C   UNL     1      18.816  -7.281 186.875  1.00  0.00     0.041 C 
ATOM     10  O   UNL     1      18.045  -7.272 185.879  1.00  0.00    -0.550 OA
ATOM     11  O   UNL     1      19.951  -6.480 186.873  1.00  0.00    -0.550 OA
ENDBRANCH   8   9
ENDBRANCH   7   8
ENDBRANCH   6   7
ENDBRANCH   5   6
ENDBRANCH   4   5
ENDBRANCH   3   4
ENDBRANCH   2   3
ENDBRANCH   1   2
BRANCH   1  12
ATOM     12  C   UNL     1      15.477 -10.606 184.244  1.00  0.00     0.000 C 
BRANCH  12  13
ATOM     13  C   UNL     1      14.692 -11.898 184.510  1.00  0.00    -0.000 C 
BRANCH  13  14
ATOM     14  C   UNL     1      15.495 -13.159 184.156  1.00  0.00    -0.000 C 
BRANCH  14  15
ATOM     15  C   UNL     1      15.031 -14.398 184.942  1.00  0.00    -0.000 C 
BRANCH  15  16
ATOM     16  C   UNL     1      14.848 -14.118 186.445  1.00  0.00    -0.000 C 
BRANCH  16  17
ATOM     17  C   UNL     1      15.249 -15.278 187.374  1.00  0.00    -0.000 C 
BRANCH  17  18
ATOM     18  C   UNL     1      16.695 -15.168 187.883  1.00  0.00    -0.000 C 
BRANCH  18  19
ATOM     19  C   UNL     1      17.621 -16.122 187.120  1.00  0.00    -0.003 C 
ATOM     20  C   UNL     1      19.027 -15.543 186.996  1.00  0.00     0.004 C 
ENDBRANCH  18  19
ENDBRANCH  17  18
ENDBRANCH  16  17
ENDBRANCH  15  16
ENDBRANCH  14  15
ENDBRANCH  13  14
ENDBRANCH  12  13
ENDBRANCH   1  12
TORSDOF 16
ENDMDL
MODEL 4
REMARK VINA RESULT:    -3.169      3.168      5.465
REMARK INTER + INTRA:          -8.783
REMARK INTER:                  -6.133
REMARK INTRA:                  -2.650
REMARK UNBOUND:                -2.649
REMARK SMILES CCCCCCCCCCCCCCCCCC(=O)[O-]
REMARK SMILES IDX 10 1 11 2 12 3 13 4 14 5 15 6 16 7 17 8 18 9 19 10 20 11
REMARK SMILES IDX 9 12 8 13 7 14 6 15 5 16 4 17 3 18 2 19 1 20
REMARK H PARENT
REMARK Flexibility Score: inf
ROOT
ATOM      1  C   UNL     1      17.161  -8.417 188.157  1.00  0.00     0.000 C 
ENDROOT
BRANCH   1   2
ATOM      2  C   UNL     1      18.638  -8.159 188.491  1.00  0.00     0.000 C 
BRANCH   2   3
ATOM      3  C   UNL     1      19.412  -9.451 188.802  1.00  0.00     0.000 C 
BRANCH   3   4
ATOM      4  C   UNL     1      20.012 -10.101 187.544  1.00  0.00     0.000 C 
BRANCH   4   5
ATOM      5  C   UNL     1      19.637 -11.586 187.414  1.00  0.00     0.000 C 
BRANCH   5   6
ATOM      6  C   UNL     1      18.120 -11.799 187.261  1.00  0.00     0.000 C 
BRANCH   6   7
ATOM      7  C   UNL     1      17.779 -13.006 186.374  1.00  0.00     0.006 C 
BRANCH   7   8
ATOM      8  C   UNL     1      18.344 -14.324 186.922  1.00  0.00     0.053 C 
BRANCH   8   9
ATOM      9  C   UNL     1      17.292 -15.388 186.904  1.00  0.00     0.041 C 
ATOM     10  O   UNL     1      16.718 -15.694 185.826  1.00  0.00    -0.550 OA
ATOM     11  O   UNL     1      16.909 -16.005 188.088  1.00  0.00    -0.550 OA
ENDBRANCH   8   9
ENDBRANCH   7   8
ENDBRANCH   6   7
ENDBRANCH   5   6
ENDBRANCH   4   5
ENDBRANCH   3   4
ENDBRANCH   2   3
ENDBRANCH   1   2
BRANCH   1  12
ATOM     12  C   UNL     1      16.736  -7.634 186.908  1.00  0.00     0.000 C 
BRANCH  12  13
ATOM     13  C   UNL     1      17.793  -7.748 185.801  1.00  0.00    -0.000 C 
BRANCH  13  14
ATOM     14  C   UNL     1      17.231  -8.365 184.511  1.00  0.00    -0.000 C 
BRANCH  14  15
ATOM     15  C   UNL     1      16.798  -9.830 184.694  1.00  0.00    -0.000 C 
BRANCH  15  16
ATOM     16  C   UNL     1      15.282 -10.032 184.515  1.00  0.00    -0.000 C 
BRANCH  16  17
ATOM     17  C   UNL     1      14.663 -11.122 185.409  1.00  0.00    -0.000 C 
BRANCH  17  18
ATOM     18  C   UNL     1      14.349 -10.628 186.829  1.00  0.00    -0.000 C 
BRANCH  18  19
ATOM     19  C   UNL     1      14.559 -11.744 187.859  1.00  0.00    -0.003 C 
ATOM     20  C   UNL     1      14.228 -13.111 187.267  1.00  0.00     0.004 C 
ENDBRANCH  18  19
ENDBRANCH  17  18
ENDBRANCH  16  17
ENDBRANCH  15  16
ENDBRANCH  14  15
ENDBRANCH  13  14
ENDBRANCH  12  13
ENDBRANCH   1  12
TORSDOF 16
ENDMDL
MODEL 5
REMARK VINA RESULT:    -3.163     17.936     20.506
REMARK INTER + INTRA:          -8.770
REMARK INTER:                  -6.178
REMARK INTRA:                  -2.593
REMARK UNBOUND:                -2.649
REMARK SMILES CCCCCCCCCCCCCCCCCC(=O)[O-]
REMARK SMILES IDX 10 1 11 2 12 3 13 4 14 5 15 6 16 7 17 8 18 9 19 10 20 11
REMARK SMILES IDX 9 12 8 13 7 14 6 15 5 16 4 17 3 18 2 19 1 20
REMARK H PARENT
REMARK Flexibility Score: inf
ROOT
ATOM      1  C   UNL     1      13.567  -2.678 201.904  1.00  0.00     0.000 C 
ENDROOT
BRANCH   1   2
ATOM      2  C   UNL     1      13.195  -2.201 203.316  1.00  0.00     0.000 C 
BRANCH   2   3
ATOM      3  C   UNL     1      11.752  -1.681 203.409  1.00  0.00     0.000 C 
BRANCH   3   4
ATOM      4  C   UNL     1      10.935  -1.968 202.138  1.00  0.00     0.000 C 
BRANCH   4   5
ATOM      5  C   UNL     1      10.377  -0.686 201.497  1.00  0.00     0.000 C 
BRANCH   5   6
ATOM      6  C   UNL     1      10.208   0.456 202.515  1.00  0.00     0.000 C 
BRANCH   6   7
ATOM      7  C   UNL     1       8.917   1.260 202.294  1.00  0.00     0.006 C 
BRANCH   7   8
ATOM      8  C   UNL     1       8.515   1.342 200.815  1.00  0.00     0.053 C 
BRANCH   8   9
ATOM      9  C   UNL     1       7.030   1.233 200.673  1.00  0.00     0.041 C 
ATOM     10  O   UNL     1       6.525   0.316 199.973  1.00  0.00    -0.550 OA
ATOM     11  O   UNL     1       6.203   2.176 201.271  1.00  0.00    -0.550 OA
ENDBRANCH   8   9
ENDBRANCH   7   8
ENDBRANCH   6   7
ENDBRANCH   5   6
ENDBRANCH   4   5
ENDBRANCH   3   4
ENDBRANCH   2   3
ENDBRANCH   1   2
BRANCH   1  12
ATOM     12  C   UNL     1      15.084  -2.859 201.766  1.00  0.00     0.000 C 
BRANCH  12  13
ATOM     13  C   UNL     1      15.675  -1.833 200.789  1.00  0.00    -0.000 C 
BRANCH  13  14
ATOM     14  C   UNL     1      17.056  -1.326 201.231  1.00  0.00    -0.000 C 
BRANCH  14  15
ATOM     15  C   UNL     1      17.293  -1.494 202.742  1.00  0.00    -0.000 C 
BRANCH  15  16
ATOM     16  C   UNL     1      17.303  -0.153 203.499  1.00  0.00    -0.000 C 
BRANCH  16  17
ATOM     17  C   UNL     1      15.914   0.373 203.905  1.00  0.00    -0.000 C 
BRANCH  17  18
ATOM     18  C   UNL     1      15.399   1.485 202.980  1.00  0.00    -0.000 C 
BRANCH  18  19
ATOM     19  C   UNL     1      13.897   1.328 202.713  1.00  0.00    -0.003 C 
ATOM     20  C   UNL     1      13.614   1.190 201.220  1.00  0.00     0.004 C 
ENDBRANCH  18  19
ENDBRANCH  17  18
ENDBRANCH  16  17
ENDBRANCH  15  16
ENDBRANCH  14  15
ENDBRANCH  13  14
ENDBRANCH  12  13
ENDBRANCH   1  12
TORSDOF 16
ENDMDL
MODEL 6
REMARK VINA RESULT:    -3.152     17.412     19.481
REMARK INTER + INTRA:          -8.750
REMARK INTER:                  -5.963
REMARK INTRA:                  -2.787
REMARK UNBOUND:                -2.649
REMARK SMILES CCCCCCCCCCCCCCCCCC(=O)[O-]
REMARK SMILES IDX 10 1 11 2 12 3 13 4 14 5 15 6 16 7 17 8 18 9 19 10 20 11
REMARK SMILES IDX 9 12 8 13 7 14 6 15 5 16 4 17 3 18 2 19 1 20
REMARK H PARENT
REMARK Flexibility Score: inf
ROOT
ATOM      1  C   UNL     1      14.271  -1.208 200.321  1.00  0.00     0.000 C 
ENDROOT
BRANCH   1   2
ATOM      2  C   UNL     1      14.615   0.289 200.302  1.00  0.00     0.000 C 
BRANCH   2   3
ATOM      3  C   UNL     1      13.997   1.058 201.480  1.00  0.00     0.000 C 
BRANCH   3   4
ATOM      4  C   UNL     1      15.054   1.751 202.357  1.00  0.00     0.000 C 
BRANCH   4   5
ATOM      5  C   UNL     1      15.286   1.017 203.688  1.00  0.00     0.000 C 
BRANCH   5   6
ATOM      6  C   UNL     1      16.686   0.382 203.774  1.00  0.00     0.000 C 
BRANCH   6   7
ATOM      7  C   UNL     1      17.628   0.876 202.665  1.00  0.00     0.006 C 
BRANCH   7   8
ATOM      8  C   UNL     1      19.110   0.704 203.023  1.00  0.00     0.053 C 
BRANCH   8   9
ATOM      9  C   UNL     1      19.453  -0.748 203.136  1.00  0.00     0.041 C 
ATOM     10  O   UNL     1      20.109  -1.170 204.124  1.00  0.00    -0.550 OA
ATOM     11  O   UNL     1      19.094  -1.627 202.122  1.00  0.00    -0.550 OA
ENDBRANCH   8   9
ENDBRANCH   7   8
ENDBRANCH   6   7
ENDBRANCH   5   6
ENDBRANCH   4   5
ENDBRANCH   3   4
ENDBRANCH   2   3
ENDBRANCH   1   2
BRANCH   1  12
ATOM     12  C   UNL     1      15.480  -2.043 200.762  1.00  0.00     0.000 C 
BRANCH  12  13
ATOM     13  C   UNL     1      15.396  -2.388 202.257  1.00  0.00    -0.000 C 
BRANCH  13  14
ATOM     14  C   UNL     1      14.023  -2.951 202.655  1.00  0.00    -0.000 C 
BRANCH  14  15
ATOM     15  C   UNL     1      13.385  -2.184 203.827  1.00  0.00    -0.000 C 
BRANCH  15  16
ATOM     16  C   UNL     1      12.059  -1.503 203.444  1.00  0.00    -0.000 C 
BRANCH  16  17
ATOM     17  C   UNL     1      11.407  -2.032 202.153  1.00  0.00    -0.000 C 
BRANCH  17  18
ATOM     18  C   UNL     1      10.497  -0.998 201.473  1.00  0.00    -0.000 C 
BRANCH  18  19
ATOM     19  C   UNL     1      10.666   0.387 202.109  1.00  0.00    -0.003 C 
ATOM     20  C   UNL     1       9.317   0.982 202.501  1.00  0.00     0.004 C 
ENDBRANCH  18  19
ENDBRANCH  17  18
ENDBRANCH  16  17
ENDBRANCH  15  16
ENDBRANCH  14  15
ENDBRANCH  13  14
ENDBRANCH  12  13
ENDBRANCH   1  12
TORSDOF 16
ENDMDL
MODEL 7
REMARK VINA RESULT:    -3.103     16.803     19.082
REMARK INTER + INTRA:          -8.655
REMARK INTER:                  -5.369
REMARK INTRA:                  -3.285
REMARK UNBOUND:                -2.649
REMARK SMILES CCCCCCCCCCCCCCCCCC(=O)[O-]
REMARK SMILES IDX 10 1 11 2 12 3 13 4 14 5 15 6 16 7 17 8 18 9 19 10 20 11
REMARK SMILES IDX 9 12 8 13 7 14 6 15 5 16 4 17 3 18 2 19 1 20
REMARK H PARENT
REMARK Flexibility Score: inf
ROOT
ATOM      1  C   UNL     1      11.447  -0.152 202.399  1.00  0.00     0.000 C 
ENDROOT
BRANCH   1   2
ATOM      2  C   UNL     1      12.621   0.779 202.738  1.00  0.00     0.000 C 
BRANCH   2   3
ATOM      3  C   UNL     1      13.132   1.562 201.518  1.00  0.00     0.000 C 
BRANCH   3   4
ATOM      4  C   UNL     1      14.559   2.102 201.715  1.00  0.00     0.000 C 
BRANCH   4   5
ATOM      5  C   UNL     1      15.180   1.650 203.047  1.00  0.00     0.000 C 
BRANCH   5   6
ATOM      6  C   UNL     1      16.685   1.351 202.923  1.00  0.00     0.000 C 
BRANCH   6   7
ATOM      7  C   UNL     1      17.149   0.248 203.887  1.00  0.00     0.006 C 
BRANCH   7   8
ATOM      8  C   UNL     1      18.633  -0.104 203.717  1.00  0.00     0.053 C 
BRANCH   8   9
ATOM      9  C   UNL     1      18.794  -1.221 202.735  1.00  0.00     0.041 C 
ATOM     10  O   UNL     1      18.551  -2.408 203.079  1.00  0.00    -0.550 OA
ATOM     11  O   UNL     1      19.263  -0.958 201.454  1.00  0.00    -0.550 OA
ENDBRANCH   8   9
ENDBRANCH   7   8
ENDBRANCH   6   7
ENDBRANCH   5   6
ENDBRANCH   4   5
ENDBRANCH   3   4
ENDBRANCH   2   3
ENDBRANCH   1   2
BRANCH   1  12
ATOM     12  C   UNL     1      11.508  -1.439 203.232  1.00  0.00     0.000 C 
BRANCH  12  13
ATOM     13  C   UNL     1      12.920  -1.669 203.789  1.00  0.00    -0.000 C 
BRANCH  13  14
ATOM     14  C   UNL     1      13.685  -2.761 203.024  1.00  0.00    -0.000 C 
BRANCH  14  15
ATOM     15  C   UNL     1      15.096  -2.314 202.605  1.00  0.00    -0.000 C 
BRANCH  15  16
ATOM     16  C   UNL     1      15.121  -1.627 201.228  1.00  0.00    -0.000 C 
BRANCH  16  17
ATOM     17  C   UNL     1      14.221  -2.278 200.161  1.00  0.00    -0.000 C 
BRANCH  17  18
ATOM     18  C   UNL     1      13.387  -1.255 199.375  1.00  0.00    -0.000 C 
BRANCH  18  19
ATOM     19  C   UNL     1      11.986  -1.802 199.076  1.00  0.00    -0.003 C 
ATOM     20  C   UNL     1      11.690  -3.046 199.907  1.00  0.00     0.004 C 
ENDBRANCH  18  19
ENDBRANCH  17  18
ENDBRANCH  16  17
ENDBRANCH  15  16
ENDBRANCH  14  15
ENDBRANCH  13  14
ENDBRANCH  12  13
ENDBRANCH   1  12
TORSDOF 16
ENDMDL
MODEL 8
REMARK VINA RESULT:    -3.083      2.048      4.555
REMARK INTER + INTRA:          -8.616
REMARK INTER:                  -6.023
REMARK INTRA:                  -2.593
REMARK UNBOUND:                -2.649
REMARK SMILES CCCCCCCCCCCCCCCCCC(=O)[O-]
REMARK SMILES IDX 10 1 11 2 12 3 13 4 14 5 15 6 16 7 17 8 18 9 19 10 20 11
REMARK SMILES IDX 9 12 8 13 7 14 6 15 5 16 4 17 3 18 2 19 1 20
REMARK H PARENT
REMARK Flexibility Score: inf
ROOT
ATOM      1  C   UNL     1      15.143 -14.631 185.695  1.00  0.00     0.000 C 
ENDROOT
BRANCH   1   2
ATOM      2  C   UNL     1      16.065 -14.324 186.886  1.00  0.00     0.000 C 
BRANCH   2   3
ATOM      3  C   UNL     1      17.343 -15.177 186.885  1.00  0.00     0.000 C 
BRANCH   3   4
ATOM      4  C   UNL     1      18.625 -14.327 186.860  1.00  0.00     0.000 C 
BRANCH   4   5
ATOM      5  C   UNL     1      18.329 -12.819 186.849  1.00  0.00     0.000 C 
BRANCH   5   6
ATOM      6  C   UNL     1      19.420 -11.999 187.562  1.00  0.00     0.000 C 
BRANCH   6   7
ATOM      7  C   UNL     1      19.067 -10.507 187.662  1.00  0.00     0.006 C 
BRANCH   7   8
ATOM      8  C   UNL     1      19.865  -9.641 186.679  1.00  0.00     0.053 C 
BRANCH   8   9
ATOM      9  C   UNL     1      19.034  -8.490 186.205  1.00  0.00     0.041 C 
ATOM     10  O   UNL     1      18.153  -8.666 185.322  1.00  0.00    -0.550 OA
ATOM     11  O   UNL     1      19.268  -7.214 186.699  1.00  0.00    -0.550 OA
ENDBRANCH   8   9
ENDBRANCH   7   8
ENDBRANCH   6   7
ENDBRANCH   5   6
ENDBRANCH   4   5
ENDBRANCH   3   4
ENDBRANCH   2   3
ENDBRANCH   1   2
BRANCH   1  12
ATOM     12  C   UNL     1      14.497 -13.348 185.156  1.00  0.00     0.000 C 
BRANCH  12  13
ATOM     13  C   UNL     1      15.429 -12.637 184.163  1.00  0.00    -0.000 C 
BRANCH  13  14
ATOM     14  C   UNL     1      15.823 -11.228 184.632  1.00  0.00    -0.000 C 
BRANCH  14  15
ATOM     15  C   UNL     1      14.646 -10.460 185.257  1.00  0.00    -0.000 C 
BRANCH  15  16
ATOM     16  C   UNL     1      15.025  -9.752 186.571  1.00  0.00    -0.000 C 
BRANCH  16  17
ATOM     17  C   UNL     1      15.547 -10.681 187.682  1.00  0.00    -0.000 C 
BRANCH  17  18
ATOM     18  C   UNL     1      14.523 -10.908 188.805  1.00  0.00    -0.000 C 
BRANCH  18  19
ATOM     19  C   UNL     1      13.561 -12.048 188.451  1.00  0.00    -0.003 C 
ATOM     20  C   UNL     1      13.635 -13.172 189.479  1.00  0.00     0.004 C 
ENDBRANCH  18  19
ENDBRANCH  17  18
ENDBRANCH  16  17
ENDBRANCH  15  16
ENDBRANCH  14  15
ENDBRANCH  13  14
ENDBRANCH  12  13
ENDBRANCH   1  12
TORSDOF 16
ENDMDL
MODEL 9
REMARK VINA RESULT:    -3.000      1.726      3.476
REMARK INTER + INTRA:          -8.455
REMARK INTER:                  -6.208
REMARK INTRA:                  -2.248
REMARK UNBOUND:                -2.649
REMARK SMILES CCCCCCCCCCCCCCCCCC(=O)[O-]
REMARK SMILES IDX 10 1 11 2 12 3 13 4 14 5 15 6 16 7 17 8 18 9 19 10 20 11
REMARK SMILES IDX 9 12 8 13 7 14 6 15 5 16 4 17 3 18 2 19 1 20
REMARK H PARENT
REMARK Flexibility Score: inf
ROOT
ATOM      1  C   UNL     1      18.220 -12.838 186.509  1.00  0.00     0.000 C 
ENDROOT
BRANCH   1   2
ATOM      2  C   UNL     1      19.378 -12.153 187.250  1.00  0.00     0.000 C 
BRANCH   2   3
ATOM      3  C   UNL     1      18.997 -10.770 187.802  1.00  0.00     0.000 C 
BRANCH   3   4
ATOM      4  C   UNL     1      20.125  -9.736 187.642  1.00  0.00     0.000 C 
BRANCH   4   5
ATOM      5  C   UNL     1      19.859  -8.751 186.492  1.00  0.00     0.000 C 
BRANCH   5   6
ATOM      6  C   UNL     1      18.429  -8.868 185.935  1.00  0.00     0.000 C 
BRANCH   6   7
ATOM      7  C   UNL     1      17.818  -7.502 185.584  1.00  0.00     0.006 C 
BRANCH   7   8
ATOM      8  C   UNL     1      17.316  -6.741 186.818  1.00  0.00     0.053 C 
BRANCH   8   9
ATOM      9  C   UNL     1      18.200  -5.567 187.101  1.00  0.00     0.041 C 
ATOM     10  O   UNL     1      18.027  -4.880 188.142  1.00  0.00    -0.550 OA
ATOM     11  O   UNL     1      19.181  -5.200 186.188  1.00  0.00    -0.550 OA
ENDBRANCH   8   9
ENDBRANCH   7   8
ENDBRANCH   6   7
ENDBRANCH   5   6
ENDBRANCH   4   5
ENDBRANCH   3   4
ENDBRANCH   2   3
ENDBRANCH   1   2
BRANCH   1  12
ATOM     12  C   UNL     1      18.134 -14.324 186.879  1.00  0.00     0.000 C 
BRANCH  12  13
ATOM     13  C   UNL     1      16.672 -14.773 187.023  1.00  0.00    -0.000 C 
BRANCH  13  14
ATOM     14  C   UNL     1      16.077 -15.275 185.699  1.00  0.00    -0.000 C 
BRANCH  14  15
ATOM     15  C   UNL     1      14.804 -14.512 185.293  1.00  0.00    -0.000 C 
BRANCH  15  16
ATOM     16  C   UNL     1      14.996 -13.660 184.025  1.00  0.00    -0.000 C 
BRANCH  16  17
ATOM     17  C   UNL     1      15.262 -12.165 184.281  1.00  0.00    -0.000 C 
BRANCH  17  18
ATOM     18  C   UNL     1      14.461 -11.608 185.468  1.00  0.00    -0.000 C 
BRANCH  18  19
ATOM     19  C   UNL     1      15.362 -10.799 186.408  1.00  0.00    -0.003 C 
ATOM     20  C   UNL     1      15.184 -11.239 187.858  1.00  0.00     0.004 C 
ENDBRANCH  18  19
ENDBRANCH  17  18
ENDBRANCH  16  17
ENDBRANCH  15  16
ENDBRANCH  14  15
ENDBRANCH  13  14
ENDBRANCH  12  13
ENDBRANCH   1  12
TORSDOF 16
ENDMDL
