MODEL 1
REMARK VINA RESULT:    -7.118      0.000      0.000
REMARK INTER + INTRA:         -19.078
REMARK INTER:                 -16.272
REMARK INTRA:                  -2.806
REMARK UNBOUND:                -2.806
REMARK SMILES CCCCCCCCCCCCCCCCCCCCCCCC(=O)[O-]
REMARK SMILES IDX 13 1 14 2 15 3 16 4 17 5 18 6 19 7 20 8 21 9 22 10 23 11
REMARK SMILES IDX 24 12 25 13 26 14 12 15 11 16 10 17 9 18 8 19 7 20 6 21 5 22
REMARK SMILES IDX 4 23 3 24 2 25 1 26
REMARK H PARENT
REMARK Flexibility Score: inf
ROOT
ATOM      1  C   UNL     1      13.857  70.533  74.851  1.00  0.00     0.000 C 
ENDROOT
BRANCH   1   2
ATOM      2  C   UNL     1      14.324  69.962  76.204  1.00  0.00     0.000 C 
BRANCH   2   3
ATOM      3  C   UNL     1      15.460  70.780  76.842  1.00  0.00     0.000 C 
BRANCH   3   4
ATOM      4  C   UNL     1      16.376  71.432  75.794  1.00  0.00     0.000 C 
BRANCH   4   5
ATOM      5  C   UNL     1      17.817  71.618  76.303  1.00  0.00     0.000 C 
BRANCH   5   6
ATOM      6  C   UNL     1      18.867  71.274  75.236  1.00  0.00     0.000 C 
BRANCH   6   7
ATOM      7  C   UNL     1      20.020  70.421  75.793  1.00  0.00     0.000 C 
BRANCH   7   8
ATOM      8  C   UNL     1      19.850  70.120  77.299  1.00  0.00     0.000 C 
BRANCH   8   9
ATOM      9  C   UNL     1      20.790  69.015  77.822  1.00  0.00     0.000 C 
BRANCH   9  10
ATOM     10  C   UNL     1      20.564  68.615  79.290  1.00  0.00     0.006 C 
BRANCH  10  11
ATOM     11  C   UNL     1      19.589  69.552  80.016  1.00  0.00     0.053 C 
BRANCH  11  12
ATOM     12  C   UNL     1      18.316  68.843  80.366  1.00  0.00     0.041 C 
ATOM     13  O   UNL     1      17.339  68.867  79.569  1.00  0.00    -0.550 OA
ATOM     14  O   UNL     1      18.224  68.107  81.542  1.00  0.00    -0.550 OA
ENDBRANCH  11  12
ENDBRANCH  10  11
ENDBRANCH   9  10
ENDBRANCH   8   9
ENDBRANCH   7   8
ENDBRANCH   6   7
ENDBRANCH   5   6
ENDBRANCH   4   5
ENDBRANCH   3   4
ENDBRANCH   2   3
ENDBRANCH   1   2
BRANCH   1  15
ATOM     15  C   UNL     1      14.113  69.623  73.635  1.00  0.00     0.000 C 
BRANCH  15  16
ATOM     16  C   UNL     1      14.434  70.412  72.355  1.00  0.00     0.000 C 
BRANCH  16  17
ATOM     17  C   UNL     1      13.996  71.886  72.433  1.00  0.00     0.000 C 
BRANCH  17  18
ATOM     18  C   UNL     1      15.149  72.907  72.470  1.00  0.00    -0.000 C 
BRANCH  18  19
ATOM     19  C   UNL     1      16.509  72.293  72.097  1.00  0.00    -0.000 C 
BRANCH  19  20
ATOM     20  C   UNL     1      17.665  73.308  72.173  1.00  0.00    -0.000 C 
BRANCH  20  21
ATOM     21  C   UNL     1      19.024  72.788  71.669  1.00  0.00    -0.000 C 
BRANCH  21  22
ATOM     22  C   UNL     1      19.110  71.253  71.653  1.00  0.00    -0.000 C 
BRANCH  22  23
ATOM     23  C   UNL     1      20.418  70.779  71.002  1.00  0.00    -0.000 C 
BRANCH  23  24
ATOM     24  C   UNL     1      21.273  69.925  71.952  1.00  0.00    -0.000 C 
BRANCH  24  25
ATOM     25  C   UNL     1      22.177  70.776  72.857  1.00  0.00    -0.003 C 
ATOM     26  C   UNL     1      22.683  72.014  72.122  1.00  0.00     0.004 C 
ENDBRANCH  24  25
ENDBRANCH  23  24
ENDBRANCH  22  23
ENDBRANCH  21  22
ENDBRANCH  20  21
ENDBRANCH  19  20
ENDBRANCH  18  19
ENDBRANCH  17  18
ENDBRANCH  16  17
ENDBRANCH  15  16
ENDBRANCH   1  15
TORSDOF 22
ENDMDL
MODEL 2
REMARK VINA RESULT:    -7.087      2.981      6.949
REMARK INTER + INTRA:         -19.007
REMARK INTER:                 -15.812
REMARK INTRA:                  -3.195
REMARK UNBOUND:                -2.806
REMARK SMILES CCCCCCCCCCCCCCCCCCCCCCCC(=O)[O-]
REMARK SMILES IDX 13 1 14 2 15 3 16 4 17 5 18 6 19 7 20 8 21 9 22 10 23 11
REMARK SMILES IDX 24 12 25 13 26 14 12 15 11 16 10 17 9 18 8 19 7 20 6 21 5 22
REMARK SMILES IDX 4 23 3 24 2 25 1 26
REMARK H PARENT
REMARK Flexibility Score: inf
ROOT
ATOM      1  C   UNL     1      20.044  69.182  77.273  1.00  0.00     0.000 C 
ENDROOT
BRANCH   1   2
ATOM      2  C   UNL     1      21.527  69.137  77.691  1.00  0.00     0.000 C 
BRANCH   2   3
ATOM      3  C   UNL     1      22.471  69.709  76.619  1.00  0.00     0.000 C 
BRANCH   3   4
ATOM      4  C   UNL     1      21.798  69.824  75.242  1.00  0.00     0.000 C 
BRANCH   4   5
ATOM      5  C   UNL     1      21.923  71.235  74.640  1.00  0.00     0.000 C 
BRANCH   5   6
ATOM      6  C   UNL     1      23.359  71.563  74.204  1.00  0.00     0.000 C 
BRANCH   6   7
ATOM      7  C   UNL     1      23.429  72.127  72.774  1.00  0.00     0.000 C 
BRANCH   7   8
ATOM      8  C   UNL     1      22.050  72.599  72.263  1.00  0.00     0.000 C 
BRANCH   8   9
ATOM      9  C   UNL     1      21.970  72.740  70.729  1.00  0.00     0.000 C 
BRANCH   9  10
ATOM     10  C   UNL     1      21.502  71.476  69.988  1.00  0.00     0.006 C 
BRANCH  10  11
ATOM     11  C   UNL     1      20.398  70.721  70.741  1.00  0.00     0.053 C 
BRANCH  11  12
ATOM     12  C   UNL     1      20.751  69.275  70.912  1.00  0.00     0.041 C 
ATOM     13  O   UNL     1      20.219  68.403  70.173  1.00  0.00    -0.550 OA
ATOM     14  O   UNL     1      21.707  68.893  71.846  1.00  0.00    -0.550 OA
ENDBRANCH  11  12
ENDBRANCH  10  11
ENDBRANCH   9  10
ENDBRANCH   8   9
ENDBRANCH   7   8
ENDBRANCH   6   7
ENDBRANCH   5   6
ENDBRANCH   4   5
ENDBRANCH   3   4
ENDBRANCH   2   3
ENDBRANCH   1   2
BRANCH   1  15
ATOM     15  C   UNL     1      19.165  70.148  78.090  1.00  0.00     0.000 C 
BRANCH  15  16
ATOM     16  C   UNL     1      18.787  71.417  77.309  1.00  0.00     0.000 C 
BRANCH  16  17
ATOM     17  C   UNL     1      17.307  71.443  76.887  1.00  0.00     0.000 C 
BRANCH  17  18
ATOM     18  C   UNL     1      17.050  71.887  75.435  1.00  0.00    -0.000 C 
BRANCH  18  19
ATOM     19  C   UNL     1      18.143  71.416  74.460  1.00  0.00    -0.000 C 
BRANCH  19  20
ATOM     20  C   UNL     1      18.128  72.185  73.125  1.00  0.00    -0.000 C 
BRANCH  20  21
ATOM     21  C   UNL     1      16.726  72.499  72.569  1.00  0.00    -0.000 C 
BRANCH  21  22
ATOM     22  C   UNL     1      15.998  71.252  72.042  1.00  0.00    -0.000 C 
BRANCH  22  23
ATOM     23  C   UNL     1      14.559  71.186  72.574  1.00  0.00    -0.000 C 
BRANCH  23  24
ATOM     24  C   UNL     1      14.353  70.039  73.576  1.00  0.00    -0.000 C 
BRANCH  24  25
ATOM     25  C   UNL     1      13.534  70.467  74.803  1.00  0.00    -0.003 C 
ATOM     26  C   UNL     1      14.068  69.814  76.075  1.00  0.00     0.004 C 
ENDBRANCH  24  25
ENDBRANCH  23  24
ENDBRANCH  22  23
ENDBRANCH  21  22
ENDBRANCH  20  21
ENDBRANCH  19  20
ENDBRANCH  18  19
ENDBRANCH  17  18
ENDBRANCH  16  17
ENDBRANCH  15  16
ENDBRANCH   1  15
TORSDOF 22
ENDMDL
MODEL 3
REMARK VINA RESULT:    -7.069      3.253      6.736
REMARK INTER + INTRA:         -18.966
REMARK INTER:                 -16.205
REMARK INTRA:                  -2.760
REMARK UNBOUND:                -2.806
REMARK SMILES CCCCCCCCCCCCCCCCCCCCCCCC(=O)[O-]
REMARK SMILES IDX 13 1 14 2 15 3 16 4 17 5 18 6 19 7 20 8 21 9 22 10 23 11
REMARK SMILES IDX 24 12 25 13 26 14 12 15 11 16 10 17 9 18 8 19 7 20 6 21 5 22
REMARK SMILES IDX 4 23 3 24 2 25 1 26
REMARK H PARENT
REMARK Flexibility Score: inf
ROOT
ATOM      1  C   UNL     1      17.364  69.771  79.203  1.00  0.00     0.000 C 
ENDROOT
BRANCH   1   2
ATOM      2  C   UNL     1      18.904  69.827  79.219  1.00  0.00     0.000 C 
BRANCH   2   3
ATOM      3  C   UNL     1      19.558  68.547  78.669  1.00  0.00     0.000 C 
BRANCH   3   4
ATOM      4  C   UNL     1      20.948  68.810  78.066  1.00  0.00     0.000 C 
BRANCH   4   5
ATOM      5  C   UNL     1      20.892  69.729  76.832  1.00  0.00     0.000 C 
BRANCH   5   6
ATOM      6  C   UNL     1      22.168  69.646  75.980  1.00  0.00     0.000 C 
BRANCH   6   7
ATOM      7  C   UNL     1      22.191  70.688  74.849  1.00  0.00     0.000 C 
BRANCH   7   8
ATOM      8  C   UNL     1      20.988  70.542  73.891  1.00  0.00     0.000 C 
BRANCH   8   9
ATOM      9  C   UNL     1      21.382  70.147  72.453  1.00  0.00     0.000 C 
BRANCH   9  10
ATOM     10  C   UNL     1      20.281  70.359  71.401  1.00  0.00     0.006 C 
BRANCH  10  11
ATOM     11  C   UNL     1      20.765  70.077  69.971  1.00  0.00     0.053 C 
BRANCH  11  12
ATOM     12  C   UNL     1      20.398  68.689  69.540  1.00  0.00     0.041 C 
ATOM     13  O   UNL     1      19.448  68.083  70.103  1.00  0.00    -0.550 OA
ATOM     14  O   UNL     1      21.066  68.085  68.480  1.00  0.00    -0.550 OA
ENDBRANCH  11  12
ENDBRANCH  10  11
ENDBRANCH   9  10
ENDBRANCH   8   9
ENDBRANCH   7   8
ENDBRANCH   6   7
ENDBRANCH   5   6
ENDBRANCH   4   5
ENDBRANCH   3   4
ENDBRANCH   2   3
ENDBRANCH   1   2
BRANCH   1  15
ATOM     15  C   UNL     1      16.680  70.845  78.337  1.00  0.00     0.000 C 
BRANCH  15  16
ATOM     16  C   UNL     1      17.638  71.499  77.328  1.00  0.00     0.000 C 
BRANCH  16  17
ATOM     17  C   UNL     1      16.971  71.797  75.973  1.00  0.00     0.000 C 
BRANCH  17  18
ATOM     18  C   UNL     1      17.655  71.151  74.753  1.00  0.00    -0.000 C 
BRANCH  18  19
ATOM     19  C   UNL     1      17.740  72.096  73.542  1.00  0.00    -0.000 C 
BRANCH  19  20
ATOM     20  C   UNL     1      16.725  71.746  72.437  1.00  0.00    -0.000 C 
BRANCH  20  21
ATOM     21  C   UNL     1      15.808  72.904  72.003  1.00  0.00    -0.000 C 
BRANCH  21  22
ATOM     22  C   UNL     1      14.339  72.687  72.400  1.00  0.00    -0.000 C 
BRANCH  22  23
ATOM     23  C   UNL     1      13.997  71.190  72.457  1.00  0.00    -0.000 C 
BRANCH  23  24
ATOM     24  C   UNL     1      13.339  70.787  73.787  1.00  0.00    -0.000 C 
BRANCH  24  25
ATOM     25  C   UNL     1      14.120  69.686  74.521  1.00  0.00    -0.003 C 
ATOM     26  C   UNL     1      13.995  69.840  76.034  1.00  0.00     0.004 C 
ENDBRANCH  24  25
ENDBRANCH  23  24
ENDBRANCH  22  23
ENDBRANCH  21  22
ENDBRANCH  20  21
ENDBRANCH  19  20
ENDBRANCH  18  19
ENDBRANCH  17  18
ENDBRANCH  16  17
ENDBRANCH  15  16
ENDBRANCH   1  15
TORSDOF 22
ENDMDL
MODEL 4
REMARK VINA RESULT:    -7.021      2.682      6.309
REMARK INTER + INTRA:         -18.857
REMARK INTER:                 -15.985
REMARK INTRA:                  -2.872
REMARK UNBOUND:                -2.806
REMARK SMILES CCCCCCCCCCCCCCCCCCCCCCCC(=O)[O-]
REMARK SMILES IDX 13 1 14 2 15 3 16 4 17 5 18 6 19 7 20 8 21 9 22 10 23 11
REMARK SMILES IDX 24 12 25 13 26 14 12 15 11 16 10 17 9 18 8 19 7 20 6 21 5 22
REMARK SMILES IDX 4 23 3 24 2 25 1 26
REMARK H PARENT
REMARK Flexibility Score: inf
ROOT
ATOM      1  C   UNL     1      16.178  71.429  72.303  1.00  0.00     0.000 C 
ENDROOT
BRANCH   1   2
ATOM      2  C   UNL     1      16.728  72.867  72.353  1.00  0.00     0.000 C 
BRANCH   2   3
ATOM      3  C   UNL     1      18.206  72.961  71.938  1.00  0.00     0.000 C 
BRANCH   3   4
ATOM      4  C   UNL     1      19.162  72.542  73.067  1.00  0.00     0.000 C 
BRANCH   4   5
ATOM      5  C   UNL     1      19.741  71.131  72.857  1.00  0.00     0.000 C 
BRANCH   5   6
ATOM      6  C   UNL     1      19.771  70.722  71.376  1.00  0.00     0.000 C 
BRANCH   6   7
ATOM      7  C   UNL     1      21.199  70.669  70.807  1.00  0.00     0.000 C 
BRANCH   7   8
ATOM      8  C   UNL     1      21.560  71.940  70.008  1.00  0.00     0.000 C 
BRANCH   8   9
ATOM      9  C   UNL     1      22.157  73.069  70.871  1.00  0.00     0.000 C 
BRANCH   9  10
ATOM     10  C   UNL     1      23.324  72.641  71.776  1.00  0.00     0.006 C 
BRANCH  10  11
ATOM     11  C   UNL     1      22.985  72.744  73.270  1.00  0.00     0.053 C 
BRANCH  11  12
ATOM     12  C   UNL     1      23.496  71.554  74.025  1.00  0.00     0.041 C 
ATOM     13  O   UNL     1      24.068  71.710  75.137  1.00  0.00    -0.550 OA
ATOM     14  O   UNL     1      23.293  70.271  73.530  1.00  0.00    -0.550 OA
ENDBRANCH  11  12
ENDBRANCH  10  11
ENDBRANCH   9  10
ENDBRANCH   8   9
ENDBRANCH   7   8
ENDBRANCH   6   7
ENDBRANCH   5   6
ENDBRANCH   4   5
ENDBRANCH   3   4
ENDBRANCH   2   3
ENDBRANCH   1   2
BRANCH   1  15
ATOM     15  C   UNL     1      14.642  71.316  72.315  1.00  0.00     0.000 C 
BRANCH  15  16
ATOM     16  C   UNL     1      14.138  70.092  73.097  1.00  0.00     0.000 C 
BRANCH  16  17
ATOM     17  C   UNL     1      13.517  70.462  74.456  1.00  0.00     0.000 C 
BRANCH  17  18
ATOM     18  C   UNL     1      14.131  69.744  75.673  1.00  0.00    -0.000 C 
BRANCH  18  19
ATOM     19  C   UNL     1      15.004  70.669  76.539  1.00  0.00    -0.000 C 
BRANCH  19  20
ATOM     20  C   UNL     1      16.300  71.106  75.830  1.00  0.00    -0.000 C 
BRANCH  20  21
ATOM     21  C   UNL     1      17.379  71.702  76.753  1.00  0.00    -0.000 C 
BRANCH  21  22
ATOM     22  C   UNL     1      18.792  71.186  76.435  1.00  0.00    -0.000 C 
BRANCH  22  23
ATOM     23  C   UNL     1      19.488  70.664  77.700  1.00  0.00    -0.000 C 
BRANCH  23  24
ATOM     24  C   UNL     1      18.490  70.172  78.761  1.00  0.00    -0.000 C 
BRANCH  24  25
ATOM     25  C   UNL     1      19.187  69.585  79.999  1.00  0.00    -0.003 C 
ATOM     26  C   UNL     1      20.164  68.481  79.607  1.00  0.00     0.004 C 
ENDBRANCH  24  25
ENDBRANCH  23  24
ENDBRANCH  22  23
ENDBRANCH  21  22
ENDBRANCH  20  21
ENDBRANCH  19  20
ENDBRANCH  18  19
ENDBRANCH  17  18
ENDBRANCH  16  17
ENDBRANCH  15  16
ENDBRANCH   1  15
TORSDOF 22
ENDMDL
MODEL 5
REMARK VINA RESULT:    -7.012      2.261      3.133
REMARK INTER + INTRA:         -18.836
REMARK INTER:                 -16.281
REMARK INTRA:                  -2.555
REMARK UNBOUND:                -2.806
REMARK SMILES CCCCCCCCCCCCCCCCCCCCCCCC(=O)[O-]
REMARK SMILES IDX 13 1 14 2 15 3 16 4 17 5 18 6 19 7 20 8 21 9 22 10 23 11
REMARK SMILES IDX 24 12 25 13 26 14 12 15 11 16 10 17 9 18 8 19 7 20 6 21 5 22
REMARK SMILES IDX 4 23 3 24 2 25 1 26
REMARK H PARENT
REMARK Flexibility Score: inf
ROOT
ATOM      1  C   UNL     1      14.365  70.066  74.213  1.00  0.00     0.000 C 
ENDROOT
BRANCH   1   2
ATOM      2  C   UNL     1      13.951  69.699  75.651  1.00  0.00     0.000 C 
BRANCH   2   3
ATOM      3  C   UNL     1      14.792  70.417  76.721  1.00  0.00     0.000 C 
BRANCH   3   4
ATOM      4  C   UNL     1      16.037  71.099  76.131  1.00  0.00     0.000 C 
BRANCH   4   5
ATOM      5  C   UNL     1      17.176  71.237  77.157  1.00  0.00     0.000 C 
BRANCH   5   6
ATOM      6  C   UNL     1      16.843  70.568  78.499  1.00  0.00     0.000 C 
BRANCH   6   7
ATOM      7  C   UNL     1      17.887  70.873  79.587  1.00  0.00     0.000 C 
BRANCH   7   8
ATOM      8  C   UNL     1      18.885  69.711  79.785  1.00  0.00     0.000 C 
BRANCH   8   9
ATOM      9  C   UNL     1      20.142  69.813  78.898  1.00  0.00     0.000 C 
BRANCH   9  10
ATOM     10  C   UNL     1      20.086  68.988  77.601  1.00  0.00     0.006 C 
BRANCH  10  11
ATOM     11  C   UNL     1      20.577  69.775  76.377  1.00  0.00     0.053 C 
BRANCH  11  12
ATOM     12  C   UNL     1      22.065  69.676  76.232  1.00  0.00     0.041 C 
ATOM     13  O   UNL     1      22.669  70.411  75.405  1.00  0.00    -0.550 OA
ATOM     14  O   UNL     1      22.794  68.817  77.048  1.00  0.00    -0.550 OA
ENDBRANCH  11  12
ENDBRANCH  10  11
ENDBRANCH   9  10
ENDBRANCH   8   9
ENDBRANCH   7   8
ENDBRANCH   6   7
ENDBRANCH   5   6
ENDBRANCH   4   5
ENDBRANCH   3   4
ENDBRANCH   2   3
ENDBRANCH   1   2
BRANCH   1  15
ATOM     15  C   UNL     1      13.415  71.038  73.487  1.00  0.00     0.000 C 
BRANCH  15  16
ATOM     16  C   UNL     1      14.093  71.782  72.326  1.00  0.00     0.000 C 
BRANCH  16  17
ATOM     17  C   UNL     1      15.627  71.654  72.345  1.00  0.00     0.000 C 
BRANCH  17  18
ATOM     18  C   UNL     1      16.396  72.964  72.087  1.00  0.00    -0.000 C 
BRANCH  18  19
ATOM     19  C   UNL     1      17.921  72.797  72.198  1.00  0.00    -0.000 C 
BRANCH  19  20
ATOM     20  C   UNL     1      18.331  71.606  73.085  1.00  0.00    -0.000 C 
BRANCH  20  21
ATOM     21  C   UNL     1      19.815  71.204  72.994  1.00  0.00    -0.000 C 
BRANCH  21  22
ATOM     22  C   UNL     1      20.578  71.973  71.902  1.00  0.00    -0.000 C 
BRANCH  22  23
ATOM     23  C   UNL     1      21.133  71.015  70.838  1.00  0.00    -0.000 C 
BRANCH  23  24
ATOM     24  C   UNL     1      20.836  69.541  71.158  1.00  0.00    -0.000 C 
BRANCH  24  25
ATOM     25  C   UNL     1      19.799  68.927  70.204  1.00  0.00    -0.003 C 
ATOM     26  C   UNL     1      20.458  68.447  68.914  1.00  0.00     0.004 C 
ENDBRANCH  24  25
ENDBRANCH  23  24
ENDBRANCH  22  23
ENDBRANCH  21  22
ENDBRANCH  20  21
ENDBRANCH  19  20
ENDBRANCH  18  19
ENDBRANCH  17  18
ENDBRANCH  16  17
ENDBRANCH  15  16
ENDBRANCH   1  15
TORSDOF 22
ENDMDL
MODEL 6
REMARK VINA RESULT:    -7.006      2.932      6.755
REMARK INTER + INTRA:         -18.823
REMARK INTER:                 -15.891
REMARK INTRA:                  -2.932
REMARK UNBOUND:                -2.806
REMARK SMILES CCCCCCCCCCCCCCCCCCCCCCCC(=O)[O-]
REMARK SMILES IDX 13 1 14 2 15 3 16 4 17 5 18 6 19 7 20 8 21 9 22 10 23 11
REMARK SMILES IDX 24 12 25 13 26 14 12 15 11 16 10 17 9 18 8 19 7 20 6 21 5 22
REMARK SMILES IDX 4 23 3 24 2 25 1 26
REMARK H PARENT
REMARK Flexibility Score: inf
ROOT
ATOM      1  C   UNL     1      15.157  70.619  76.591  1.00  0.00     0.000 C 
ENDROOT
BRANCH   1   2
ATOM      2  C   UNL     1      14.008  69.959  75.805  1.00  0.00     0.000 C 
BRANCH   2   3
ATOM      3  C   UNL     1      13.678  70.690  74.492  1.00  0.00     0.000 C 
BRANCH   3   4
ATOM      4  C   UNL     1      14.063  69.871  73.250  1.00  0.00     0.000 C 
BRANCH   4   5
ATOM      5  C   UNL     1      15.066  70.607  72.344  1.00  0.00     0.000 C 
BRANCH   5   6
ATOM      6  C   UNL     1      14.873  72.131  72.371  1.00  0.00     0.000 C 
BRANCH   6   7
ATOM      7  C   UNL     1      16.201  72.898  72.240  1.00  0.00     0.000 C 
BRANCH   7   8
ATOM      8  C   UNL     1      17.396  71.958  71.966  1.00  0.00     0.000 C 
BRANCH   8   9
ATOM      9  C   UNL     1      18.703  72.394  72.659  1.00  0.00     0.000 C 
BRANCH   9  10
ATOM     10  C   UNL     1      19.581  71.239  73.168  1.00  0.00     0.006 C 
BRANCH  10  11
ATOM     11  C   UNL     1      20.862  71.059  72.341  1.00  0.00     0.053 C 
BRANCH  11  12
ATOM     12  C   UNL     1      20.719  69.933  71.361  1.00  0.00     0.041 C 
ATOM     13  O   UNL     1      19.922  70.038  70.390  1.00  0.00    -0.550 OA
ATOM     14  O   UNL     1      21.504  68.792  71.486  1.00  0.00    -0.550 OA
ENDBRANCH  11  12
ENDBRANCH  10  11
ENDBRANCH   9  10
ENDBRANCH   8   9
ENDBRANCH   7   8
ENDBRANCH   6   7
ENDBRANCH   5   6
ENDBRANCH   4   5
ENDBRANCH   3   4
ENDBRANCH   2   3
ENDBRANCH   1   2
BRANCH   1  15
ATOM     15  C   UNL     1      16.212  71.336  75.726  1.00  0.00     0.000 C 
BRANCH  15  16
ATOM     16  C   UNL     1      17.566  71.487  76.438  1.00  0.00     0.000 C 
BRANCH  16  17
ATOM     17  C   UNL     1      17.501  71.127  77.933  1.00  0.00     0.000 C 
BRANCH  17  18
ATOM     18  C   UNL     1      18.476  71.907  78.835  1.00  0.00    -0.000 C 
BRANCH  18  19
ATOM     19  C   UNL     1      18.319  71.565  80.327  1.00  0.00    -0.000 C 
BRANCH  19  20
ATOM     20  C   UNL     1      19.270  70.444  80.787  1.00  0.00    -0.000 C 
BRANCH  20  21
ATOM     21  C   UNL     1      18.703  69.017  80.668  1.00  0.00    -0.000 C 
BRANCH  21  22
ATOM     22  C   UNL     1      19.318  68.224  79.503  1.00  0.00    -0.000 C 
BRANCH  22  23
ATOM     23  C   UNL     1      20.647  68.845  79.051  1.00  0.00    -0.000 C 
BRANCH  23  24
ATOM     24  C   UNL     1      20.660  69.182  77.551  1.00  0.00    -0.000 C 
BRANCH  24  25
ATOM     25  C   UNL     1      22.080  69.209  76.965  1.00  0.00    -0.003 C 
ATOM     26  C   UNL     1      22.146  70.098  75.727  1.00  0.00     0.004 C 
ENDBRANCH  24  25
ENDBRANCH  23  24
ENDBRANCH  22  23
ENDBRANCH  21  22
ENDBRANCH  20  21
ENDBRANCH  19  20
ENDBRANCH  18  19
ENDBRANCH  17  18
ENDBRANCH  16  17
ENDBRANCH  15  16
ENDBRANCH   1  15
TORSDOF 22
ENDMDL
MODEL 7
REMARK VINA RESULT:    -6.960      2.995      6.699
REMARK INTER + INTRA:         -18.717
REMARK INTER:                 -15.491
REMARK INTRA:                  -3.226
REMARK UNBOUND:                -2.806
REMARK SMILES CCCCCCCCCCCCCCCCCCCCCCCC(=O)[O-]
REMARK SMILES IDX 13 1 14 2 15 3 16 4 17 5 18 6 19 7 20 8 21 9 22 10 23 11
REMARK SMILES IDX 24 12 25 13 26 14 12 15 11 16 10 17 9 18 8 19 7 20 6 21 5 22
REMARK SMILES IDX 4 23 3 24 2 25 1 26
REMARK H PARENT
REMARK Flexibility Score: inf
ROOT
ATOM      1  C   UNL     1      14.019  69.695  75.378  1.00  0.00     0.000 C 
ENDROOT
BRANCH   1   2
ATOM      2  C   UNL     1      13.761  70.544  74.118  1.00  0.00     0.000 C 
BRANCH   2   3
ATOM      3  C   UNL     1      14.487  70.009  72.872  1.00  0.00     0.000 C 
BRANCH   3   4
ATOM      4  C   UNL     1      15.173  71.124  72.066  1.00  0.00     0.000 C 
BRANCH   4   5
ATOM      5  C   UNL     1      15.563  72.330  72.940  1.00  0.00     0.000 C 
BRANCH   5   6
ATOM      6  C   UNL     1      17.085  72.483  73.084  1.00  0.00     0.000 C 
BRANCH   6   7
ATOM      7  C   UNL     1      17.692  73.396  72.005  1.00  0.00     0.000 C 
BRANCH   7   8
ATOM      8  C   UNL     1      19.111  72.949  71.590  1.00  0.00     0.000 C 
BRANCH   8   9
ATOM      9  C   UNL     1      19.341  71.429  71.699  1.00  0.00     0.000 C 
BRANCH   9  10
ATOM     10  C   UNL     1      20.592  71.020  72.495  1.00  0.00     0.006 C 
BRANCH  10  11
ATOM     11  C   UNL     1      21.315  72.221  73.122  1.00  0.00     0.053 C 
BRANCH  11  12
ATOM     12  C   UNL     1      22.637  72.463  72.460  1.00  0.00     0.041 C 
ATOM     13  O   UNL     1      22.695  73.115  71.382  1.00  0.00    -0.550 OA
ATOM     14  O   UNL     1      23.812  72.019  73.058  1.00  0.00    -0.550 OA
ENDBRANCH  11  12
ENDBRANCH  10  11
ENDBRANCH   9  10
ENDBRANCH   8   9
ENDBRANCH   7   8
ENDBRANCH   6   7
ENDBRANCH   5   6
ENDBRANCH   4   5
ENDBRANCH   3   4
ENDBRANCH   2   3
ENDBRANCH   1   2
BRANCH   1  15
ATOM     15  C   UNL     1      14.664  70.452  76.555  1.00  0.00     0.000 C 
BRANCH  15  16
ATOM     16  C   UNL     1      16.075  70.970  76.231  1.00  0.00     0.000 C 
BRANCH  16  17
ATOM     17  C   UNL     1      16.948  71.155  77.486  1.00  0.00     0.000 C 
BRANCH  17  18
ATOM     18  C   UNL     1      18.349  71.742  77.226  1.00  0.00    -0.000 C 
BRANCH  18  19
ATOM     19  C   UNL     1      19.000  71.196  75.943  1.00  0.00    -0.000 C 
BRANCH  19  20
ATOM     20  C   UNL     1      20.333  70.471  76.211  1.00  0.00    -0.000 C 
BRANCH  20  21
ATOM     21  C   UNL     1      20.207  69.126  76.950  1.00  0.00    -0.000 C 
BRANCH  21  22
ATOM     22  C   UNL     1      21.195  68.991  78.120  1.00  0.00    -0.000 C 
BRANCH  22  23
ATOM     23  C   UNL     1      20.461  68.662  79.428  1.00  0.00    -0.000 C 
BRANCH  23  24
ATOM     24  C   UNL     1      19.017  68.192  79.191  1.00  0.00    -0.000 C 
BRANCH  24  25
ATOM     25  C   UNL     1      18.006  68.913  80.097  1.00  0.00    -0.003 C 
ATOM     26  C   UNL     1      18.678  70.029  80.891  1.00  0.00     0.004 C 
ENDBRANCH  24  25
ENDBRANCH  23  24
ENDBRANCH  22  23
ENDBRANCH  21  22
ENDBRANCH  20  21
ENDBRANCH  19  20
ENDBRANCH  18  19
ENDBRANCH  17  18
ENDBRANCH  16  17
ENDBRANCH  15  16
ENDBRANCH   1  15
TORSDOF 22
ENDMDL
MODEL 8
REMARK VINA RESULT:    -6.948      2.188      3.450
REMARK INTER + INTRA:         -18.690
REMARK INTER:                 -15.763
REMARK INTRA:                  -2.927
REMARK UNBOUND:                -2.806
REMARK SMILES CCCCCCCCCCCCCCCCCCCCCCCC(=O)[O-]
REMARK SMILES IDX 13 1 14 2 15 3 16 4 17 5 18 6 19 7 20 8 21 9 22 10 23 11
REMARK SMILES IDX 24 12 25 13 26 14 12 15 11 16 10 17 9 18 8 19 7 20 6 21 5 22
REMARK SMILES IDX 4 23 3 24 2 25 1 26
REMARK H PARENT
REMARK Flexibility Score: inf
ROOT
ATOM      1  C   UNL     1      14.722  70.390  76.563  1.00  0.00     0.000 C 
ENDROOT
BRANCH   1   2
ATOM      2  C   UNL     1      16.027  71.106  76.167  1.00  0.00     0.000 C 
BRANCH   2   3
ATOM      3  C   UNL     1      17.042  71.187  77.321  1.00  0.00     0.000 C 
BRANCH   3   4
ATOM      4  C   UNL     1      16.746  70.173  78.437  1.00  0.00     0.000 C 
BRANCH   4   5
ATOM      5  C   UNL     1      16.818  70.802  79.840  1.00  0.00     0.000 C 
BRANCH   5   6
ATOM      6  C   UNL     1      17.510  69.885  80.861  1.00  0.00     0.000 C 
BRANCH   6   7
ATOM      7  C   UNL     1      18.144  68.645  80.207  1.00  0.00     0.000 C 
BRANCH   7   8
ATOM      8  C   UNL     1      19.686  68.661  80.292  1.00  0.00     0.000 C 
BRANCH   8   9
ATOM      9  C   UNL     1      20.364  69.448  79.153  1.00  0.00     0.000 C 
BRANCH   9  10
ATOM     10  C   UNL     1      20.192  68.836  77.753  1.00  0.00     0.006 C 
BRANCH  10  11
ATOM     11  C   UNL     1      20.602  69.799  76.630  1.00  0.00     0.053 C 
BRANCH  11  12
ATOM     12  C   UNL     1      22.053  69.643  76.287  1.00  0.00     0.041 C 
ATOM     13  O   UNL     1      22.737  68.735  76.831  1.00  0.00    -0.550 OA
ATOM     14  O   UNL     1      22.637  70.461  75.326  1.00  0.00    -0.550 OA
ENDBRANCH  11  12
ENDBRANCH  10  11
ENDBRANCH   9  10
ENDBRANCH   8   9
ENDBRANCH   7   8
ENDBRANCH   6   7
ENDBRANCH   5   6
ENDBRANCH   4   5
ENDBRANCH   3   4
ENDBRANCH   2   3
ENDBRANCH   1   2
BRANCH   1  15
ATOM     15  C   UNL     1      13.931  69.779  75.390  1.00  0.00     0.000 C 
BRANCH  15  16
ATOM     16  C   UNL     1      13.906  70.685  74.149  1.00  0.00     0.000 C 
BRANCH  16  17
ATOM     17  C   UNL     1      14.494  70.006  72.899  1.00  0.00     0.000 C 
BRANCH  17  18
ATOM     18  C   UNL     1      15.377  70.910  72.018  1.00  0.00    -0.000 C 
BRANCH  18  19
ATOM     19  C   UNL     1      15.367  72.382  72.468  1.00  0.00    -0.000 C 
BRANCH  19  20
ATOM     20  C   UNL     1      16.709  72.831  73.076  1.00  0.00    -0.000 C 
BRANCH  20  21
ATOM     21  C   UNL     1      17.957  72.165  72.467  1.00  0.00    -0.000 C 
BRANCH  21  22
ATOM     22  C   UNL     1      18.812  71.428  73.510  1.00  0.00    -0.000 C 
BRANCH  22  23
ATOM     23  C   UNL     1      20.248  71.227  73.005  1.00  0.00    -0.000 C 
BRANCH  23  24
ATOM     24  C   UNL     1      20.455  71.774  71.584  1.00  0.00    -0.000 C 
BRANCH  24  25
ATOM     25  C   UNL     1      21.051  70.727  70.629  1.00  0.00    -0.003 C 
ATOM     26  C   UNL     1      20.098  69.549  70.443  1.00  0.00     0.004 C 
ENDBRANCH  24  25
ENDBRANCH  23  24
ENDBRANCH  22  23
ENDBRANCH  21  22
ENDBRANCH  20  21
ENDBRANCH  19  20
ENDBRANCH  18  19
ENDBRANCH  17  18
ENDBRANCH  16  17
ENDBRANCH  15  16
ENDBRANCH   1  15
TORSDOF 22
ENDMDL
MODEL 9
REMARK VINA RESULT:    -6.943      1.383      4.121
REMARK INTER + INTRA:         -18.679
REMARK INTER:                 -15.545
REMARK INTRA:                  -3.133
REMARK UNBOUND:                -2.806
REMARK SMILES CCCCCCCCCCCCCCCCCCCCCCCC(=O)[O-]
REMARK SMILES IDX 13 1 14 2 15 3 16 4 17 5 18 6 19 7 20 8 21 9 22 10 23 11
REMARK SMILES IDX 24 12 25 13 26 14 12 15 11 16 10 17 9 18 8 19 7 20 6 21 5 22
REMARK SMILES IDX 4 23 3 24 2 25 1 26
REMARK H PARENT
REMARK Flexibility Score: inf
ROOT
ATOM      1  C   UNL     1      16.989  72.117  72.002  1.00  0.00     0.000 C 
ENDROOT
BRANCH   1   2
ATOM      2  C   UNL     1      15.581  72.632  72.361  1.00  0.00     0.000 C 
BRANCH   2   3
ATOM      3  C   UNL     1      14.573  71.499  72.616  1.00  0.00     0.000 C 
BRANCH   3   4
ATOM      4  C   UNL     1      15.084  70.477  73.644  1.00  0.00     0.000 C 
BRANCH   4   5
ATOM      5  C   UNL     1      13.999  70.063  74.654  1.00  0.00     0.000 C 
BRANCH   5   6
ATOM      6  C   UNL     1      14.405  70.356  76.107  1.00  0.00     0.000 C 
BRANCH   6   7
ATOM      7  C   UNL     1      15.857  70.849  76.226  1.00  0.00     0.000 C 
BRANCH   7   8
ATOM      8  C   UNL     1      16.393  70.748  77.672  1.00  0.00     0.000 C 
BRANCH   8   9
ATOM      9  C   UNL     1      17.607  71.658  77.950  1.00  0.00     0.000 C 
BRANCH   9  10
ATOM     10  C   UNL     1      18.719  71.012  78.792  1.00  0.00     0.006 C 
BRANCH  10  11
ATOM     11  C   UNL     1      19.242  69.704  78.181  1.00  0.00     0.053 C 
BRANCH  11  12
ATOM     12  C   UNL     1      19.268  68.603  79.198  1.00  0.00     0.041 C 
ATOM     13  O   UNL     1      20.345  68.309  79.783  1.00  0.00    -0.550 OA
ATOM     14  O   UNL     1      18.095  67.940  79.542  1.00  0.00    -0.550 OA
ENDBRANCH  11  12
ENDBRANCH  10  11
ENDBRANCH   9  10
ENDBRANCH   8   9
ENDBRANCH   7   8
ENDBRANCH   6   7
ENDBRANCH   5   6
ENDBRANCH   4   5
ENDBRANCH   3   4
ENDBRANCH   2   3
ENDBRANCH   1   2
BRANCH   1  15
ATOM     15  C   UNL     1      18.093  72.476  73.015  1.00  0.00     0.000 C 
BRANCH  15  16
ATOM     16  C   UNL     1      18.587  71.261  73.816  1.00  0.00     0.000 C 
BRANCH  16  17
ATOM     17  C   UNL     1      19.748  71.602  74.768  1.00  0.00     0.000 C 
BRANCH  17  18
ATOM     18  C   UNL     1      20.715  70.439  75.062  1.00  0.00    -0.000 C 
BRANCH  18  19
ATOM     19  C   UNL     1      22.063  70.580  74.334  1.00  0.00    -0.000 C 
BRANCH  19  20
ATOM     20  C   UNL     1      22.299  71.999  73.781  1.00  0.00    -0.000 C 
BRANCH  20  21
ATOM     21  C   UNL     1      22.712  72.061  72.299  1.00  0.00    -0.000 C 
BRANCH  21  22
ATOM     22  C   UNL     1      21.578  72.545  71.381  1.00  0.00    -0.000 C 
BRANCH  22  23
ATOM     23  C   UNL     1      21.112  71.425  70.439  1.00  0.00    -0.000 C 
BRANCH  23  24
ATOM     24  C   UNL     1      21.030  70.061  71.142  1.00  0.00    -0.000 C 
BRANCH  24  25
ATOM     25  C   UNL     1      19.972  69.138  70.518  1.00  0.00    -0.003 C 
ATOM     26  C   UNL     1      20.360  68.738  69.098  1.00  0.00     0.004 C 
ENDBRANCH  24  25
ENDBRANCH  23  24
ENDBRANCH  22  23
ENDBRANCH  21  22
ENDBRANCH  20  21
ENDBRANCH  19  20
ENDBRANCH  18  19
ENDBRANCH  17  18
ENDBRANCH  16  17
ENDBRANCH  15  16
ENDBRANCH   1  15
TORSDOF 22
ENDMDL
