MODEL 1
REMARK VINA RESULT:    -4.333      0.000      0.000
REMARK INTER + INTRA:          -4.586
REMARK INTER:                  -4.586
REMARK INTRA:                   0.000
REMARK UNBOUND:                 0.000
REMARK SMILES O=c1ccc2cc(O)c(O)cc2o1
REMARK SMILES IDX 4 1 3 2 2 3 1 4 13 5 12 6 11 7 9 8 7 9 6 10 5 11 8 12 10 14
REMARK H PARENT 8 13 10 15
REMARK Flexibility Score: inf
ROOT
ATOM      1  C   UNL     1       2.033  -5.759  -7.906  1.00  0.00     0.019 A 
ATOM      2  C   UNL     1       3.177  -4.962  -7.888  1.00  0.00     0.094 A 
ATOM      3  C   UNL     1       3.072  -3.617  -8.260  1.00  0.00     0.336 A 
ATOM      4  O   UNL     1       4.094  -2.882  -8.251  1.00  0.00    -0.246 OA
ATOM      5  O   UNL     1       1.898  -3.109  -8.626  1.00  0.00    -0.423 OA
ATOM      6  C   UNL     1       0.782  -3.834  -8.657  1.00  0.00     0.142 A 
ATOM      7  C   UNL     1      -0.423  -3.245  -9.049  1.00  0.00     0.098 A 
ATOM      8  C   UNL     1      -1.602  -4.002  -9.084  1.00  0.00     0.161 A 
ATOM      9  C   UNL     1      -1.575  -5.361  -8.722  1.00  0.00     0.158 A 
ATOM     10  C   UNL     1      -0.367  -5.956  -8.328  1.00  0.00     0.062 A 
ATOM     11  C   UNL     1       0.811  -5.198  -8.294  1.00  0.00     0.022 A 
ENDROOT
BRANCH   9  12
ATOM     12  O   UNL     1      -2.747  -6.115  -8.757  1.00  0.00    -0.504 OA
ATOM     13  H   UNL     1      -2.812  -6.970  -9.296  1.00  0.00     0.293 HD
ENDBRANCH   9  12
BRANCH   8  14
ATOM     14  O   UNL     1      -2.788  -3.385  -9.480  1.00  0.00    -0.504 OA
ATOM     15  H   UNL     1      -3.308  -3.692 -10.293  1.00  0.00     0.293 HD
ENDBRANCH   8  14
TORSDOF 2
ENDMDL
MODEL 2
REMARK VINA RESULT:    -4.173     15.602     16.985
REMARK INTER + INTRA:          -4.417
REMARK INTER:                  -4.417
REMARK INTRA:                   0.000
REMARK UNBOUND:                 0.000
REMARK SMILES O=c1ccc2cc(O)c(O)cc2o1
REMARK SMILES IDX 4 1 3 2 2 3 1 4 13 5 12 6 11 7 9 8 7 9 6 10 5 11 8 12 10 14
REMARK H PARENT 8 13 10 15
REMARK Flexibility Score: inf
ROOT
ATOM      1  C   UNL     1     -12.125   3.458  -4.449  1.00  0.00     0.019 A 
ATOM      2  C   UNL     1     -12.067   2.493  -3.445  1.00  0.00     0.094 A 
ATOM      3  C   UNL     1     -11.891   2.903  -2.118  1.00  0.00     0.336 A 
ATOM      4  O   UNL     1     -11.835   2.047  -1.198  1.00  0.00    -0.246 OA
ATOM      5  O   UNL     1     -11.779   4.196  -1.823  1.00  0.00    -0.423 OA
ATOM      6  C   UNL     1     -11.830   5.150  -2.751  1.00  0.00     0.142 A 
ATOM      7  C   UNL     1     -11.708   6.492  -2.380  1.00  0.00     0.098 A 
ATOM      8  C   UNL     1     -11.760   7.501  -3.350  1.00  0.00     0.161 A 
ATOM      9  C   UNL     1     -11.935   7.165  -4.704  1.00  0.00     0.158 A 
ATOM     10  C   UNL     1     -12.058   5.819  -5.081  1.00  0.00     0.062 A 
ATOM     11  C   UNL     1     -12.006   4.810  -4.110  1.00  0.00     0.022 A 
ENDROOT
BRANCH   9  12
ATOM     12  O   UNL     1     -11.987   8.168  -5.671  1.00  0.00    -0.504 OA
ATOM     13  H   UNL     1     -11.156   8.473  -6.164  1.00  0.00     0.293 HD
ENDBRANCH   9  12
BRANCH   8  14
ATOM     14  O   UNL     1     -11.634   8.830  -2.948  1.00  0.00    -0.504 OA
ATOM     15  H   UNL     1     -12.412   9.351  -2.560  1.00  0.00     0.293 HD
ENDBRANCH   8  14
TORSDOF 2
ENDMDL
MODEL 3
REMARK VINA RESULT:    -4.086      1.038      2.241
REMARK INTER + INTRA:          -4.325
REMARK INTER:                  -4.325
REMARK INTRA:                   0.000
REMARK UNBOUND:                 0.000
REMARK SMILES O=c1ccc2cc(O)c(O)cc2o1
REMARK SMILES IDX 4 1 3 2 2 3 1 4 13 5 12 6 11 7 9 8 7 9 6 10 5 11 8 12 10 14
REMARK H PARENT 8 13 10 15
REMARK Flexibility Score: inf
ROOT
ATOM      1  C   UNL     1       1.781  -2.618  -8.672  1.00  0.00     0.019 A 
ATOM      2  C   UNL     1       2.998  -3.152  -8.250  1.00  0.00     0.094 A 
ATOM      3  C   UNL     1       3.053  -4.498  -7.872  1.00  0.00     0.336 A 
ATOM      4  O   UNL     1       4.142  -4.999  -7.488  1.00  0.00    -0.246 OA
ATOM      5  O   UNL     1       1.959  -5.255  -7.915  1.00  0.00    -0.423 OA
ATOM      6  C   UNL     1       0.778  -4.785  -8.311  1.00  0.00     0.142 A 
ATOM      7  C   UNL     1      -0.336  -5.628  -8.336  1.00  0.00     0.098 A 
ATOM      8  C   UNL     1      -1.582  -5.142  -8.752  1.00  0.00     0.161 A 
ATOM      9  C   UNL     1      -1.715  -3.798  -9.147  1.00  0.00     0.158 A 
ATOM     10  C   UNL     1      -0.599  -2.949  -9.124  1.00  0.00     0.062 A 
ATOM     11  C   UNL     1       0.647  -3.437  -8.708  1.00  0.00     0.022 A 
ENDROOT
BRANCH   9  12
ATOM     12  O   UNL     1      -2.954  -3.312  -9.561  1.00  0.00    -0.504 OA
ATOM     13  H   UNL     1      -3.424  -3.683 -10.378  1.00  0.00     0.293 HD
ENDBRANCH   9  12
BRANCH   8  14
ATOM     14  O   UNL     1      -2.675  -6.007  -8.764  1.00  0.00    -0.504 OA
ATOM     15  H   UNL     1      -3.427  -5.935  -8.089  1.00  0.00     0.293 HD
ENDBRANCH   8  14
TORSDOF 2
ENDMDL
MODEL 4
REMARK VINA RESULT:    -4.005     14.992     15.949
REMARK INTER + INTRA:          -4.239
REMARK INTER:                  -4.239
REMARK INTRA:                   0.000
REMARK UNBOUND:                 0.000
REMARK SMILES O=c1ccc2cc(O)c(O)cc2o1
REMARK SMILES IDX 4 1 3 2 2 3 1 4 13 5 12 6 11 7 9 8 7 9 6 10 5 11 8 12 10 14
REMARK H PARENT 8 13 10 15
REMARK Flexibility Score: inf
ROOT
ATOM      1  C   UNL     1     -11.751   2.405  -5.615  1.00  0.00     0.019 A 
ATOM      2  C   UNL     1     -11.848   3.233  -6.733  1.00  0.00     0.094 A 
ATOM      3  C   UNL     1     -12.029   4.608  -6.544  1.00  0.00     0.336 A 
ATOM      4  O   UNL     1     -12.119   5.372  -7.541  1.00  0.00    -0.246 OA
ATOM      5  O   UNL     1     -12.108   5.115  -5.317  1.00  0.00    -0.423 OA
ATOM      6  C   UNL     1     -12.021   4.360  -4.223  1.00  0.00     0.142 A 
ATOM      7  C   UNL     1     -12.111   4.949  -2.959  1.00  0.00     0.098 A 
ATOM      8  C   UNL     1     -12.020   4.162  -1.804  1.00  0.00     0.161 A 
ATOM      9  C   UNL     1     -11.837   2.772  -1.914  1.00  0.00     0.158 A 
ATOM     10  C   UNL     1     -11.746   2.177  -3.181  1.00  0.00     0.062 A 
ATOM     11  C   UNL     1     -11.837   2.965  -4.336  1.00  0.00     0.022 A 
ENDROOT
BRANCH   9  12
ATOM     12  O   UNL     1     -11.747   1.987  -0.765  1.00  0.00    -0.504 OA
ATOM     13  H   UNL     1     -10.875   1.553  -0.486  1.00  0.00     0.293 HD
ENDBRANCH   9  12
BRANCH   8  14
ATOM     14  O   UNL     1     -12.114   4.780  -0.557  1.00  0.00    -0.504 OA
ATOM     15  H   UNL     1     -12.633   5.638  -0.420  1.00  0.00     0.293 HD
ENDBRANCH   8  14
TORSDOF 2
ENDMDL
MODEL 5
REMARK VINA RESULT:    -3.925      8.409     10.580
REMARK INTER + INTRA:          -4.154
REMARK INTER:                  -4.154
REMARK INTRA:                   0.000
REMARK UNBOUND:                 0.000
REMARK SMILES O=c1ccc2cc(O)c(O)cc2o1
REMARK SMILES IDX 4 1 3 2 2 3 1 4 13 5 12 6 11 7 9 8 7 9 6 10 5 11 8 12 10 14
REMARK H PARENT 8 13 10 15
REMARK Flexibility Score: inf
ROOT
ATOM      1  C   UNL     1       4.134   2.439  -8.957  1.00  0.00     0.019 A 
ATOM      2  C   UNL     1       2.939   2.879  -9.525  1.00  0.00     0.094 A 
ATOM      3  C   UNL     1       2.499   4.180  -9.258  1.00  0.00     0.336 A 
ATOM      4  O   UNL     1       1.423   4.596  -9.761  1.00  0.00    -0.246 OA
ATOM      5  O   UNL     1       3.213   4.983  -8.473  1.00  0.00    -0.423 OA
ATOM      6  C   UNL     1       4.359   4.604  -7.911  1.00  0.00     0.142 A 
ATOM      7  C   UNL     1       5.065   5.492  -7.096  1.00  0.00     0.098 A 
ATOM      8  C   UNL     1       6.271   5.100  -6.501  1.00  0.00     0.161 A 
ATOM      9  C   UNL     1       6.776   3.806  -6.724  1.00  0.00     0.158 A 
ATOM     10  C   UNL     1       6.070   2.912  -7.542  1.00  0.00     0.062 A 
ATOM     11  C   UNL     1       4.863   3.305  -8.137  1.00  0.00     0.022 A 
ENDROOT
BRANCH   9  12
ATOM     12  O   UNL     1       7.976   3.415  -6.133  1.00  0.00    -0.504 OA
ATOM     13  H   UNL     1       8.757   3.082  -6.685  1.00  0.00     0.293 HD
ENDBRANCH   9  12
BRANCH   8  14
ATOM     14  O   UNL     1       6.952   6.009  -5.692  1.00  0.00    -0.504 OA
ATOM     15  H   UNL     1       6.981   5.916  -4.684  1.00  0.00     0.293 HD
ENDBRANCH   8  14
TORSDOF 2
ENDMDL
MODEL 6
REMARK VINA RESULT:    -3.858     14.939     16.780
REMARK INTER + INTRA:          -4.083
REMARK INTER:                  -4.083
REMARK INTRA:                   0.000
REMARK UNBOUND:                 0.000
REMARK SMILES O=c1ccc2cc(O)c(O)cc2o1
REMARK SMILES IDX 4 1 3 2 2 3 1 4 13 5 12 6 11 7 9 8 7 9 6 10 5 11 8 12 10 14
REMARK H PARENT 8 13 10 15
REMARK Flexibility Score: inf
ROOT
ATOM      1  C   UNL     1     -11.968   3.278  -4.082  1.00  0.00     0.019 A 
ATOM      2  C   UNL     1     -12.006   2.762  -5.377  1.00  0.00     0.094 A 
ATOM      3  C   UNL     1     -12.017   3.649  -6.460  1.00  0.00     0.336 A 
ATOM      4  O   UNL     1     -12.051   3.203  -7.637  1.00  0.00    -0.246 OA
ATOM      5  O   UNL     1     -11.992   4.963  -6.254  1.00  0.00    -0.423 OA
ATOM      6  C   UNL     1     -11.954   5.497  -5.035  1.00  0.00     0.142 A 
ATOM      7  C   UNL     1     -11.929   6.886  -4.881  1.00  0.00     0.098 A 
ATOM      8  C   UNL     1     -11.890   7.455  -3.601  1.00  0.00     0.161 A 
ATOM      9  C   UNL     1     -11.877   6.626  -2.464  1.00  0.00     0.158 A 
ATOM     10  C   UNL     1     -11.902   5.232  -2.615  1.00  0.00     0.062 A 
ATOM     11  C   UNL     1     -11.941   4.663  -3.895  1.00  0.00     0.022 A 
ENDROOT
BRANCH   9  12
ATOM     12  O   UNL     1     -11.838   7.191  -1.191  1.00  0.00    -0.504 OA
ATOM     13  H   UNL     1     -10.966   7.472  -0.760  1.00  0.00     0.293 HD
ENDBRANCH   9  12
BRANCH   8  14
ATOM     14  O   UNL     1     -11.865   8.844  -3.481  1.00  0.00    -0.504 OA
ATOM     15  H   UNL     1     -11.410   9.308  -2.704  1.00  0.00     0.293 HD
ENDBRANCH   8  14
TORSDOF 2
ENDMDL
MODEL 7
REMARK VINA RESULT:    -3.798     15.181     16.803
REMARK INTER + INTRA:          -4.020
REMARK INTER:                  -4.020
REMARK INTRA:                   0.000
REMARK UNBOUND:                 0.000
REMARK SMILES O=c1ccc2cc(O)c(O)cc2o1
REMARK SMILES IDX 4 1 3 2 2 3 1 4 13 5 12 6 11 7 9 8 7 9 6 10 5 11 8 12 10 14
REMARK H PARENT 8 13 10 15
REMARK Flexibility Score: inf
ROOT
ATOM      1  C   UNL     1     -11.625   5.484  -4.466  1.00  0.00     0.019 A 
ATOM      2  C   UNL     1     -11.754   6.851  -4.222  1.00  0.00     0.094 A 
ATOM      3  C   UNL     1     -12.000   7.286  -2.916  1.00  0.00     0.336 A 
ATOM      4  O   UNL     1     -12.120   8.516  -2.675  1.00  0.00    -0.246 OA
ATOM      5  O   UNL     1     -12.110   6.408  -1.923  1.00  0.00    -0.423 OA
ATOM      6  C   UNL     1     -11.993   5.095  -2.111  1.00  0.00     0.142 A 
ATOM      7  C   UNL     1     -12.117   4.220  -1.028  1.00  0.00     0.098 A 
ATOM      8  C   UNL     1     -11.996   2.837  -1.219  1.00  0.00     0.161 A 
ATOM      9  C   UNL     1     -11.747   2.325  -2.505  1.00  0.00     0.158 A 
ATOM     10  C   UNL     1     -11.622   3.200  -3.595  1.00  0.00     0.062 A 
ATOM     11  C   UNL     1     -11.744   4.583  -3.403  1.00  0.00     0.022 A 
ENDROOT
BRANCH   9  12
ATOM     12  O   UNL     1     -11.627   0.949  -2.696  1.00  0.00    -0.504 OA
ATOM     13  H   UNL     1     -11.847   0.515  -3.585  1.00  0.00     0.293 HD
ENDBRANCH   9  12
BRANCH   8  14
ATOM     14  O   UNL     1     -12.125   1.990  -0.119  1.00  0.00    -0.504 OA
ATOM     15  H   UNL     1     -11.448   1.264   0.084  1.00  0.00     0.293 HD
ENDBRANCH   8  14
TORSDOF 2
ENDMDL
MODEL 8
REMARK VINA RESULT:    -3.739      4.453      6.520
REMARK INTER + INTRA:          -3.958
REMARK INTER:                  -3.958
REMARK INTRA:                   0.000
REMARK UNBOUND:                 0.000
REMARK SMILES O=c1ccc2cc(O)c(O)cc2o1
REMARK SMILES IDX 4 1 3 2 2 3 1 4 13 5 12 6 11 7 9 8 7 9 6 10 5 11 8 12 10 14
REMARK H PARENT 8 13 10 15
REMARK Flexibility Score: inf
ROOT
ATOM      1  C   UNL     1       5.505  -6.107  -4.409  1.00  0.00     0.019 A 
ATOM      2  C   UNL     1       6.431  -6.114  -3.366  1.00  0.00     0.094 A 
ATOM      3  C   UNL     1       7.054  -4.915  -3.004  1.00  0.00     0.336 A 
ATOM      4  O   UNL     1       7.893  -4.901  -2.066  1.00  0.00    -0.246 OA
ATOM      5  O   UNL     1       6.767  -3.786  -3.648  1.00  0.00    -0.423 OA
ATOM      6  C   UNL     1       5.890  -3.735  -4.648  1.00  0.00     0.142 A 
ATOM      7  C   UNL     1       5.629  -2.519  -5.286  1.00  0.00     0.098 A 
ATOM      8  C   UNL     1       4.707  -2.458  -6.340  1.00  0.00     0.161 A 
ATOM      9  C   UNL     1       4.041  -3.623  -6.759  1.00  0.00     0.158 A 
ATOM     10  C   UNL     1       4.300  -4.845  -6.121  1.00  0.00     0.062 A 
ATOM     11  C   UNL     1       5.222  -4.906  -5.067  1.00  0.00     0.022 A 
ENDROOT
BRANCH   9  12
ATOM     12  O   UNL     1       3.124  -3.563  -7.807  1.00  0.00    -0.504 OA
ATOM     13  H   UNL     1       3.423  -3.441  -8.768  1.00  0.00     0.293 HD
ENDBRANCH   9  12
BRANCH   8  14
ATOM     14  O   UNL     1       4.469  -1.230  -6.957  1.00  0.00    -0.504 OA
ATOM     15  H   UNL     1       4.232  -1.159  -7.939  1.00  0.00     0.293 HD
ENDBRANCH   8  14
TORSDOF 2
ENDMDL
