MODEL 1
REMARK VINA RESULT:    -3.647      0.000      0.000
REMARK INTER + INTRA:          -8.978
REMARK INTER:                  -7.059
REMARK INTRA:                  -1.919
REMARK UNBOUND:                -1.919
REMARK SMILES CCCCCCCCCCCCCCCCCC(=O)[O-]
REMARK SMILES IDX 10 1 11 2 12 3 13 4 14 5 15 6 16 7 17 8 18 9 19 10 20 11
REMARK SMILES IDX 9 12 8 13 7 14 6 15 5 16 4 17 3 18 2 19 1 20
REMARK H PARENT
REMARK Flexibility Score: inf
ROOT
ATOM      1  C   UNL     1      34.531  38.304  26.011  1.00  0.00     0.000 C 
ENDROOT
BRANCH   1   2
ATOM      2  C   UNL     1      35.035  38.959  27.306  1.00  0.00     0.000 C 
BRANCH   2   3
ATOM      3  C   UNL     1      35.834  40.249  27.051  1.00  0.00     0.000 C 
BRANCH   3   4
ATOM      4  C   UNL     1      36.495  40.344  25.660  1.00  0.00     0.000 C 
BRANCH   4   5
ATOM      5  C   UNL     1      37.974  39.920  25.610  1.00  0.00     0.000 C 
BRANCH   5   6
ATOM      6  C   UNL     1      38.905  41.051  25.150  1.00  0.00     0.000 C 
BRANCH   6   7
ATOM      7  C   UNL     1      38.116  42.341  24.895  1.00  0.00     0.006 C 
BRANCH   7   8
ATOM      8  C   UNL     1      38.572  43.018  23.599  1.00  0.00     0.053 C 
BRANCH   8   9
ATOM      9  C   UNL     1      37.501  42.931  22.558  1.00  0.00     0.041 C 
ATOM     10  O   UNL     1      36.291  42.854  22.898  1.00  0.00    -0.550 OA
ATOM     11  O   UNL     1      37.842  42.884  21.212  1.00  0.00    -0.550 OA
ENDBRANCH   8   9
ENDBRANCH   7   8
ENDBRANCH   6   7
ENDBRANCH   5   6
ENDBRANCH   4   5
ENDBRANCH   3   4
ENDBRANCH   2   3
ENDBRANCH   1   2
BRANCH   1  12
ATOM     12  C   UNL     1      33.006  38.128  26.043  1.00  0.00     0.000 C 
BRANCH  12  13
ATOM     13  C   UNL     1      32.308  39.131  26.979  1.00  0.00    -0.000 C 
BRANCH  13  14
ATOM     14  C   UNL     1      31.589  40.295  26.269  1.00  0.00    -0.000 C 
BRANCH  14  15
ATOM     15  C   UNL     1      32.486  41.492  25.903  1.00  0.00    -0.000 C 
BRANCH  15  16
ATOM     16  C   UNL     1      32.951  41.464  24.441  1.00  0.00    -0.000 C 
BRANCH  16  17
ATOM     17  C   UNL     1      31.857  40.897  23.527  1.00  0.00    -0.000 C 
BRANCH  17  18
ATOM     18  C   UNL     1      30.875  41.992  23.096  1.00  0.00    -0.000 C 
BRANCH  18  19
ATOM     19  C   UNL     1      30.884  42.172  21.575  1.00  0.00    -0.003 C 
ATOM     20  C   UNL     1      30.272  40.964  20.873  1.00  0.00     0.004 C 
ENDBRANCH  18  19
ENDBRANCH  17  18
ENDBRANCH  16  17
ENDBRANCH  15  16
ENDBRANCH  14  15
ENDBRANCH  13  14
ENDBRANCH  12  13
ENDBRANCH   1  12
TORSDOF 16
ENDMDL
MODEL 2
REMARK VINA RESULT:    -3.632      1.479      2.074
REMARK INTER + INTRA:          -8.949
REMARK INTER:                  -6.374
REMARK INTRA:                  -2.575
REMARK UNBOUND:                -1.919
REMARK SMILES CCCCCCCCCCCCCCCCCC(=O)[O-]
REMARK SMILES IDX 10 1 11 2 12 3 13 4 14 5 15 6 16 7 17 8 18 9 19 10 20 11
REMARK SMILES IDX 9 12 8 13 7 14 6 15 5 16 4 17 3 18 2 19 1 20
REMARK H PARENT
REMARK Flexibility Score: inf
ROOT
ATOM      1  C   UNL     1      34.725  38.123  26.264  1.00  0.00     0.000 C 
ENDROOT
BRANCH   1   2
ATOM      2  C   UNL     1      35.584  39.389  26.115  1.00  0.00     0.000 C 
BRANCH   2   3
ATOM      3  C   UNL     1      36.002  39.989  27.469  1.00  0.00     0.000 C 
BRANCH   3   4
ATOM      4  C   UNL     1      35.948  41.529  27.547  1.00  0.00     0.000 C 
BRANCH   4   5
ATOM      5  C   UNL     1      34.570  42.148  27.255  1.00  0.00     0.000 C 
BRANCH   5   6
ATOM      6  C   UNL     1      34.590  43.110  26.058  1.00  0.00     0.000 C 
BRANCH   6   7
ATOM      7  C   UNL     1      35.979  43.153  25.411  1.00  0.00     0.006 C 
BRANCH   7   8
ATOM      8  C   UNL     1      35.965  42.491  24.030  1.00  0.00     0.053 C 
BRANCH   8   9
ATOM      9  C   UNL     1      37.358  42.174  23.586  1.00  0.00     0.041 C 
ATOM     10  O   UNL     1      37.906  42.858  22.682  1.00  0.00    -0.550 OA
ATOM     11  O   UNL     1      38.032  41.092  24.137  1.00  0.00    -0.550 OA
ENDBRANCH   8   9
ENDBRANCH   7   8
ENDBRANCH   6   7
ENDBRANCH   5   6
ENDBRANCH   4   5
ENDBRANCH   3   4
ENDBRANCH   2   3
ENDBRANCH   1   2
BRANCH   1  12
ATOM     12  C   UNL     1      33.598  38.343  27.283  1.00  0.00     0.000 C 
BRANCH  12  13
ATOM     13  C   UNL     1      32.244  38.651  26.620  1.00  0.00    -0.000 C 
BRANCH  13  14
ATOM     14  C   UNL     1      31.763  40.109  26.762  1.00  0.00    -0.000 C 
BRANCH  14  15
ATOM     15  C   UNL     1      31.414  40.814  25.438  1.00  0.00    -0.000 C 
BRANCH  15  16
ATOM     16  C   UNL     1      32.482  40.610  24.355  1.00  0.00    -0.000 C 
BRANCH  16  17
ATOM     17  C   UNL     1      32.405  41.714  23.293  1.00  0.00    -0.000 C 
BRANCH  17  18
ATOM     18  C   UNL     1      30.953  41.980  22.877  1.00  0.00    -0.000 C 
BRANCH  18  19
ATOM     19  C   UNL     1      30.815  42.009  21.352  1.00  0.00    -0.003 C 
ATOM     20  C   UNL     1      30.164  40.731  20.832  1.00  0.00     0.004 C 
ENDBRANCH  18  19
ENDBRANCH  17  18
ENDBRANCH  16  17
ENDBRANCH  15  16
ENDBRANCH  14  15
ENDBRANCH  13  14
ENDBRANCH  12  13
ENDBRANCH   1  12
TORSDOF 16
ENDMDL
MODEL 3
REMARK VINA RESULT:    -3.599      2.577      5.974
REMARK INTER + INTRA:          -8.884
REMARK INTER:                  -6.719
REMARK INTRA:                  -2.165
REMARK UNBOUND:                -1.919
REMARK SMILES CCCCCCCCCCCCCCCCCC(=O)[O-]
REMARK SMILES IDX 10 1 11 2 12 3 13 4 14 5 15 6 16 7 17 8 18 9 19 10 20 11
REMARK SMILES IDX 9 12 8 13 7 14 6 15 5 16 4 17 3 18 2 19 1 20
REMARK H PARENT
REMARK Flexibility Score: inf
ROOT
ATOM      1  C   UNL     1      33.302  38.155  25.884  1.00  0.00     0.000 C 
ENDROOT
BRANCH   1   2
ATOM      2  C   UNL     1      32.162  38.847  26.648  1.00  0.00     0.000 C 
BRANCH   2   3
ATOM      3  C   UNL     1      31.823  40.237  26.083  1.00  0.00     0.000 C 
BRANCH   3   4
ATOM      4  C   UNL     1      32.445  40.554  24.707  1.00  0.00     0.000 C 
BRANCH   4   5
ATOM      5  C   UNL     1      32.812  42.032  24.482  1.00  0.00     0.000 C 
BRANCH   5   6
ATOM      6  C   UNL     1      33.401  42.295  23.088  1.00  0.00     0.000 C 
BRANCH   6   7
ATOM      7  C   UNL     1      32.439  43.129  22.234  1.00  0.00     0.006 C 
BRANCH   7   8
ATOM      8  C   UNL     1      31.973  42.344  21.004  1.00  0.00     0.053 C 
BRANCH   8   9
ATOM      9  C   UNL     1      30.774  41.513  21.337  1.00  0.00     0.041 C 
ATOM     10  O   UNL     1      30.501  40.491  20.653  1.00  0.00    -0.550 OA
ATOM     11  O   UNL     1      29.931  41.894  22.373  1.00  0.00    -0.550 OA
ENDBRANCH   8   9
ENDBRANCH   7   8
ENDBRANCH   6   7
ENDBRANCH   5   6
ENDBRANCH   4   5
ENDBRANCH   3   4
ENDBRANCH   2   3
ENDBRANCH   1   2
BRANCH   1  12
ATOM     12  C   UNL     1      34.407  37.696  26.846  1.00  0.00     0.000 C 
BRANCH  12  13
ATOM     13  C   UNL     1      34.615  38.664  28.023  1.00  0.00    -0.000 C 
BRANCH  13  14
ATOM     14  C   UNL     1      35.768  39.672  27.844  1.00  0.00    -0.000 C 
BRANCH  14  15
ATOM     15  C   UNL     1      35.434  40.900  26.978  1.00  0.00    -0.000 C 
BRANCH  15  16
ATOM     16  C   UNL     1      36.345  41.031  25.750  1.00  0.00    -0.000 C 
BRANCH  16  17
ATOM     17  C   UNL     1      37.246  39.798  25.600  1.00  0.00    -0.000 C 
BRANCH  17  18
ATOM     18  C   UNL     1      38.668  40.200  25.192  1.00  0.00    -0.000 C 
BRANCH  18  19
ATOM     19  C   UNL     1      39.031  41.580  25.751  1.00  0.00    -0.003 C 
ATOM     20  C   UNL     1      39.990  42.317  24.821  1.00  0.00     0.004 C 
ENDBRANCH  18  19
ENDBRANCH  17  18
ENDBRANCH  16  17
ENDBRANCH  15  16
ENDBRANCH  14  15
ENDBRANCH  13  14
ENDBRANCH  12  13
ENDBRANCH   1  12
TORSDOF 16
ENDMDL
MODEL 4
REMARK VINA RESULT:    -3.525      1.526      5.127
REMARK INTER + INTRA:          -8.742
REMARK INTER:                  -6.404
REMARK INTRA:                  -2.338
REMARK UNBOUND:                -1.919
REMARK SMILES CCCCCCCCCCCCCCCCCC(=O)[O-]
REMARK SMILES IDX 10 1 11 2 12 3 13 4 14 5 15 6 16 7 17 8 18 9 19 10 20 11
REMARK SMILES IDX 9 12 8 13 7 14 6 15 5 16 4 17 3 18 2 19 1 20
REMARK H PARENT
REMARK Flexibility Score: inf
ROOT
ATOM      1  C   UNL     1      31.750  41.057  23.519  1.00  0.00     0.000 C 
ENDROOT
BRANCH   1   2
ATOM      2  C   UNL     1      30.890  41.520  22.333  1.00  0.00     0.000 C 
BRANCH   2   3
ATOM      3  C   UNL     1      30.933  43.045  22.125  1.00  0.00     0.000 C 
BRANCH   3   4
ATOM      4  C   UNL     1      31.764  43.516  20.913  1.00  0.00     0.000 C 
BRANCH   4   5
ATOM      5  C   UNL     1      33.264  43.176  20.980  1.00  0.00     0.000 C 
BRANCH   5   6
ATOM      6  C   UNL     1      33.974  43.841  22.168  1.00  0.00     0.000 C 
BRANCH   6   7
ATOM      7  C   UNL     1      35.472  44.011  21.887  1.00  0.00     0.006 C 
BRANCH   7   8
ATOM      8  C   UNL     1      36.311  43.152  22.838  1.00  0.00     0.053 C 
BRANCH   8   9
ATOM      9  C   UNL     1      37.713  43.025  22.330  1.00  0.00     0.041 C 
ATOM     10  O   UNL     1      38.683  43.061  23.132  1.00  0.00    -0.550 OA
ATOM     11  O   UNL     1      37.950  42.916  20.966  1.00  0.00    -0.550 OA
ENDBRANCH   8   9
ENDBRANCH   7   8
ENDBRANCH   6   7
ENDBRANCH   5   6
ENDBRANCH   4   5
ENDBRANCH   3   4
ENDBRANCH   2   3
ENDBRANCH   1   2
BRANCH   1  12
ATOM     12  C   UNL     1      31.632  42.035  24.696  1.00  0.00     0.000 C 
BRANCH  12  13
ATOM     13  C   UNL     1      32.969  42.258  25.424  1.00  0.00    -0.000 C 
BRANCH  13  14
ATOM     14  C   UNL     1      34.124  41.344  24.965  1.00  0.00    -0.000 C 
BRANCH  14  15
ATOM     15  C   UNL     1      35.277  41.192  25.974  1.00  0.00    -0.000 C 
BRANCH  15  16
ATOM     16  C   UNL     1      35.748  39.740  26.128  1.00  0.00    -0.000 C 
BRANCH  16  17
ATOM     17  C   UNL     1      34.956  39.018  27.226  1.00  0.00    -0.000 C 
BRANCH  17  18
ATOM     18  C   UNL     1      34.331  37.723  26.694  1.00  0.00    -0.000 C 
BRANCH  18  19
ATOM     19  C   UNL     1      32.950  37.988  26.086  1.00  0.00    -0.003 C 
ATOM     20  C   UNL     1      32.141  38.947  26.954  1.00  0.00     0.004 C 
ENDBRANCH  18  19
ENDBRANCH  17  18
ENDBRANCH  16  17
ENDBRANCH  15  16
ENDBRANCH  14  15
ENDBRANCH  13  14
ENDBRANCH  12  13
ENDBRANCH   1  12
TORSDOF 16
ENDMDL
MODEL 5
REMARK VINA RESULT:    -3.521      2.046      5.993
REMARK INTER + INTRA:          -8.733
REMARK INTER:                  -6.026
REMARK INTRA:                  -2.707
REMARK UNBOUND:                -1.919
REMARK SMILES CCCCCCCCCCCCCCCCCC(=O)[O-]
REMARK SMILES IDX 10 1 11 2 12 3 13 4 14 5 15 6 16 7 17 8 18 9 19 10 20 11
REMARK SMILES IDX 9 12 8 13 7 14 6 15 5 16 4 17 3 18 2 19 1 20
REMARK H PARENT
REMARK Flexibility Score: inf
ROOT
ATOM      1  C   UNL     1      35.093  42.426  24.560  1.00  0.00     0.000 C 
ENDROOT
BRANCH   1   2
ATOM      2  C   UNL     1      34.427  43.206  25.704  1.00  0.00     0.000 C 
BRANCH   2   3
ATOM      3  C   UNL     1      33.681  42.294  26.695  1.00  0.00     0.000 C 
BRANCH   3   4
ATOM      4  C   UNL     1      32.181  42.095  26.397  1.00  0.00     0.000 C 
BRANCH   4   5
ATOM      5  C   UNL     1      31.813  40.732  25.784  1.00  0.00     0.000 C 
BRANCH   5   6
ATOM      6  C   UNL     1      31.974  40.701  24.257  1.00  0.00     0.000 C 
BRANCH   6   7
ATOM      7  C   UNL     1      31.112  41.780  23.592  1.00  0.00     0.006 C 
BRANCH   7   8
ATOM      8  C   UNL     1      31.965  42.702  22.715  1.00  0.00     0.053 C 
BRANCH   8   9
ATOM      9  C   UNL     1      31.971  42.220  21.299  1.00  0.00     0.041 C 
ATOM     10  O   UNL     1      32.845  42.634  20.492  1.00  0.00    -0.550 OA
ATOM     11  O   UNL     1      30.982  41.351  20.857  1.00  0.00    -0.550 OA
ENDBRANCH   8   9
ENDBRANCH   7   8
ENDBRANCH   6   7
ENDBRANCH   5   6
ENDBRANCH   4   5
ENDBRANCH   3   4
ENDBRANCH   2   3
ENDBRANCH   1   2
BRANCH   1  12
ATOM     12  C   UNL     1      36.519  42.936  24.307  1.00  0.00     0.000 C 
BRANCH  12  13
ATOM     13  C   UNL     1      37.498  41.809  23.933  1.00  0.00    -0.000 C 
BRANCH  13  14
ATOM     14  C   UNL     1      38.273  41.197  25.118  1.00  0.00    -0.000 C 
BRANCH  14  15
ATOM     15  C   UNL     1      37.605  39.974  25.772  1.00  0.00    -0.000 C 
BRANCH  15  16
ATOM     16  C   UNL     1      36.865  40.322  27.071  1.00  0.00    -0.000 C 
BRANCH  16  17
ATOM     17  C   UNL     1      35.636  39.424  27.261  1.00  0.00    -0.000 C 
BRANCH  17  18
ATOM     18  C   UNL     1      35.108  38.919  25.913  1.00  0.00    -0.000 C 
BRANCH  18  19
ATOM     19  C   UNL     1      34.091  37.790  26.109  1.00  0.00    -0.003 C 
ATOM     20  C   UNL     1      33.661  37.682  27.569  1.00  0.00     0.004 C 
ENDBRANCH  18  19
ENDBRANCH  17  18
ENDBRANCH  16  17
ENDBRANCH  15  16
ENDBRANCH  14  15
ENDBRANCH  13  14
ENDBRANCH  12  13
ENDBRANCH   1  12
TORSDOF 16
ENDMDL
MODEL 6
REMARK VINA RESULT:    -3.520      2.125      5.259
REMARK INTER + INTRA:          -8.731
REMARK INTER:                  -6.383
REMARK INTRA:                  -2.349
REMARK UNBOUND:                -1.919
REMARK SMILES CCCCCCCCCCCCCCCCCC(=O)[O-]
REMARK SMILES IDX 10 1 11 2 12 3 13 4 14 5 15 6 16 7 17 8 18 9 19 10 20 11
REMARK SMILES IDX 9 12 8 13 7 14 6 15 5 16 4 17 3 18 2 19 1 20
REMARK H PARENT
REMARK Flexibility Score: inf
ROOT
ATOM      1  C   UNL     1      31.524  42.361  21.231  1.00  0.00     0.000 C 
ENDROOT
BRANCH   1   2
ATOM      2  C   UNL     1      32.876  42.804  20.653  1.00  0.00     0.000 C 
BRANCH   2   3
ATOM      3  C   UNL     1      33.531  43.935  21.466  1.00  0.00     0.000 C 
BRANCH   3   4
ATOM      4  C   UNL     1      34.852  43.557  22.167  1.00  0.00     0.000 C 
BRANCH   4   5
ATOM      5  C   UNL     1      34.797  43.557  23.705  1.00  0.00     0.000 C 
BRANCH   5   6
ATOM      6  C   UNL     1      35.338  42.259  24.322  1.00  0.00     0.000 C 
BRANCH   6   7
ATOM      7  C   UNL     1      36.780  41.996  23.870  1.00  0.00     0.006 C 
BRANCH   7   8
ATOM      8  C   UNL     1      37.781  42.442  24.941  1.00  0.00     0.053 C 
BRANCH   8   9
ATOM      9  C   UNL     1      38.658  41.299  25.346  1.00  0.00     0.041 C 
ATOM     10  O   UNL     1      39.603  41.482  26.159  1.00  0.00    -0.550 OA
ATOM     11  O   UNL     1      38.462  40.042  24.789  1.00  0.00    -0.550 OA
ENDBRANCH   8   9
ENDBRANCH   7   8
ENDBRANCH   6   7
ENDBRANCH   5   6
ENDBRANCH   4   5
ENDBRANCH   3   4
ENDBRANCH   2   3
ENDBRANCH   1   2
BRANCH   1  12
ATOM     12  C   UNL     1      31.099  43.273  22.391  1.00  0.00     0.000 C 
BRANCH  12  13
ATOM     13  C   UNL     1      31.087  42.547  23.748  1.00  0.00    -0.000 C 
BRANCH  13  14
ATOM     14  C   UNL     1      31.668  41.119  23.731  1.00  0.00    -0.000 C 
BRANCH  14  15
ATOM     15  C   UNL     1      32.143  40.591  25.097  1.00  0.00    -0.000 C 
BRANCH  15  16
ATOM     16  C   UNL     1      33.053  39.360  24.977  1.00  0.00    -0.000 C 
BRANCH  16  17
ATOM     17  C   UNL     1      32.946  38.474  26.225  1.00  0.00    -0.000 C 
BRANCH  17  18
ATOM     18  C   UNL     1      34.333  38.052  26.722  1.00  0.00    -0.000 C 
BRANCH  18  19
ATOM     19  C   UNL     1      35.408  39.042  26.259  1.00  0.00    -0.003 C 
ATOM     20  C   UNL     1      35.811  39.986  27.388  1.00  0.00     0.004 C 
ENDBRANCH  18  19
ENDBRANCH  17  18
ENDBRANCH  16  17
ENDBRANCH  15  16
ENDBRANCH  14  15
ENDBRANCH  13  14
ENDBRANCH  12  13
ENDBRANCH   1  12
TORSDOF 16
ENDMDL
MODEL 7
REMARK VINA RESULT:    -3.501      2.581      5.831
REMARK INTER + INTRA:          -8.695
REMARK INTER:                  -6.394
REMARK INTRA:                  -2.302
REMARK UNBOUND:                -1.919
REMARK SMILES CCCCCCCCCCCCCCCCCC(=O)[O-]
REMARK SMILES IDX 10 1 11 2 12 3 13 4 14 5 15 6 16 7 17 8 18 9 19 10 20 11
REMARK SMILES IDX 9 12 8 13 7 14 6 15 5 16 4 17 3 18 2 19 1 20
REMARK H PARENT
REMARK Flexibility Score: inf
ROOT
ATOM      1  C   UNL     1      32.568  40.045  24.702  1.00  0.00     0.000 C 
ENDROOT
BRANCH   1   2
ATOM      2  C   UNL     1      32.137  41.391  25.305  1.00  0.00     0.000 C 
BRANCH   2   3
ATOM      3  C   UNL     1      32.880  42.588  24.686  1.00  0.00     0.000 C 
BRANCH   3   4
ATOM      4  C   UNL     1      33.638  42.282  23.378  1.00  0.00     0.000 C 
BRANCH   4   5
ATOM      5  C   UNL     1      34.263  43.505  22.684  1.00  0.00     0.000 C 
BRANCH   5   6
ATOM      6  C   UNL     1      33.533  43.896  21.391  1.00  0.00     0.000 C 
BRANCH   6   7
ATOM      7  C   UNL     1      32.720  42.718  20.842  1.00  0.00     0.006 C 
BRANCH   7   8
ATOM      8  C   UNL     1      31.217  42.999  20.928  1.00  0.00     0.053 C 
BRANCH   8   9
ATOM      9  C   UNL     1      30.489  41.799  21.447  1.00  0.00     0.041 C 
ATOM     10  O   UNL     1      29.946  41.829  22.583  1.00  0.00    -0.550 OA
ATOM     11  O   UNL     1      30.452  40.631  20.697  1.00  0.00    -0.550 OA
ENDBRANCH   8   9
ENDBRANCH   7   8
ENDBRANCH   6   7
ENDBRANCH   5   6
ENDBRANCH   4   5
ENDBRANCH   3   4
ENDBRANCH   2   3
ENDBRANCH   1   2
BRANCH   1  12
ATOM     12  C   UNL     1      32.885  39.026  25.806  1.00  0.00     0.000 C 
BRANCH  12  13
ATOM     13  C   UNL     1      34.394  38.786  25.982  1.00  0.00    -0.000 C 
BRANCH  13  14
ATOM     14  C   UNL     1      34.888  38.773  27.443  1.00  0.00    -0.000 C 
BRANCH  14  15
ATOM     15  C   UNL     1      35.824  39.935  27.826  1.00  0.00    -0.000 C 
BRANCH  15  16
ATOM     16  C   UNL     1      35.462  41.249  27.121  1.00  0.00    -0.000 C 
BRANCH  16  17
ATOM     17  C   UNL     1      36.696  41.873  26.456  1.00  0.00    -0.000 C 
BRANCH  17  18
ATOM     18  C   UNL     1      36.676  41.650  24.939  1.00  0.00    -0.000 C 
BRANCH  18  19
ATOM     19  C   UNL     1      38.033  41.141  24.440  1.00  0.00    -0.003 C 
ATOM     20  C   UNL     1      38.497  39.929  25.243  1.00  0.00     0.004 C 
ENDBRANCH  18  19
ENDBRANCH  17  18
ENDBRANCH  16  17
ENDBRANCH  15  16
ENDBRANCH  14  15
ENDBRANCH  13  14
ENDBRANCH  12  13
ENDBRANCH   1  12
TORSDOF 16
ENDMDL
MODEL 8
REMARK VINA RESULT:    -3.489      2.162      5.440
REMARK INTER + INTRA:          -8.672
REMARK INTER:                  -6.000
REMARK INTRA:                  -2.672
REMARK UNBOUND:                -1.919
REMARK SMILES CCCCCCCCCCCCCCCCCC(=O)[O-]
REMARK SMILES IDX 10 1 11 2 12 3 13 4 14 5 15 6 16 7 17 8 18 9 19 10 20 11
REMARK SMILES IDX 9 12 8 13 7 14 6 15 5 16 4 17 3 18 2 19 1 20
REMARK H PARENT
REMARK Flexibility Score: inf
ROOT
ATOM      1  C   UNL     1      35.420  39.344  26.259  1.00  0.00     0.000 C 
ENDROOT
BRANCH   1   2
ATOM      2  C   UNL     1      34.648  38.042  26.520  1.00  0.00     0.000 C 
BRANCH   2   3
ATOM      3  C   UNL     1      33.204  38.087  25.991  1.00  0.00     0.000 C 
BRANCH   3   4
ATOM      4  C   UNL     1      32.851  39.338  25.160  1.00  0.00     0.000 C 
BRANCH   4   5
ATOM      5  C   UNL     1      31.825  40.284  25.809  1.00  0.00     0.000 C 
BRANCH   5   6
ATOM      6  C   UNL     1      31.370  41.408  24.867  1.00  0.00     0.000 C 
BRANCH   6   7
ATOM      7  C   UNL     1      31.991  41.243  23.475  1.00  0.00     0.006 C 
BRANCH   7   8
ATOM      8  C   UNL     1      32.476  42.588  22.925  1.00  0.00     0.053 C 
BRANCH   8   9
ATOM      9  C   UNL     1      32.090  42.736  21.487  1.00  0.00     0.041 C 
ATOM     10  O   UNL     1      32.944  42.555  20.580  1.00  0.00    -0.550 OA
ATOM     11  O   UNL     1      30.799  43.122  21.151  1.00  0.00    -0.550 OA
ENDBRANCH   8   9
ENDBRANCH   7   8
ENDBRANCH   6   7
ENDBRANCH   5   6
ENDBRANCH   4   5
ENDBRANCH   3   4
ENDBRANCH   2   3
ENDBRANCH   1   2
BRANCH   1  12
ATOM     12  C   UNL     1      35.838  40.007  27.580  1.00  0.00     0.000 C 
BRANCH  12  13
ATOM     13  C   UNL     1      35.491  41.505  27.633  1.00  0.00    -0.000 C 
BRANCH  13  14
ATOM     14  C   UNL     1      34.857  42.075  26.348  1.00  0.00    -0.000 C 
BRANCH  14  15
ATOM     15  C   UNL     1      35.239  43.530  26.022  1.00  0.00    -0.000 C 
BRANCH  15  16
ATOM     16  C   UNL     1      35.989  43.666  24.689  1.00  0.00    -0.000 C 
BRANCH  16  17
ATOM     17  C   UNL     1      36.103  42.310  23.982  1.00  0.00    -0.000 C 
BRANCH  17  18
ATOM     18  C   UNL     1      37.566  41.964  23.683  1.00  0.00    -0.000 C 
BRANCH  18  19
ATOM     19  C   UNL     1      38.330  41.645  24.973  1.00  0.00    -0.003 C 
ATOM     20  C   UNL     1      38.642  40.156  25.076  1.00  0.00     0.004 C 
ENDBRANCH  18  19
ENDBRANCH  17  18
ENDBRANCH  16  17
ENDBRANCH  15  16
ENDBRANCH  14  15
ENDBRANCH  13  14
ENDBRANCH  12  13
ENDBRANCH   1  12
TORSDOF 16
ENDMDL
MODEL 9
REMARK VINA RESULT:    -3.462      1.606      5.248
REMARK INTER + INTRA:          -8.620
REMARK INTER:                  -6.580
REMARK INTRA:                  -2.040
REMARK UNBOUND:                -1.919
REMARK SMILES CCCCCCCCCCCCCCCCCC(=O)[O-]
REMARK SMILES IDX 10 1 11 2 12 3 13 4 14 5 15 6 16 7 17 8 18 9 19 10 20 11
REMARK SMILES IDX 9 12 8 13 7 14 6 15 5 16 4 17 3 18 2 19 1 20
REMARK H PARENT
REMARK Flexibility Score: inf
ROOT
ATOM      1  C   UNL     1      30.816  41.855  21.780  1.00  0.00     0.000 C 
ENDROOT
BRANCH   1   2
ATOM      2  C   UNL     1      30.616  43.165  21.004  1.00  0.00     0.000 C 
BRANCH   2   3
ATOM      3  C   UNL     1      31.945  43.852  20.641  1.00  0.00     0.000 C 
BRANCH   3   4
ATOM      4  C   UNL     1      33.208  43.001  20.881  1.00  0.00     0.000 C 
BRANCH   4   5
ATOM      5  C   UNL     1      34.184  43.563  21.931  1.00  0.00     0.000 C 
BRANCH   5   6
ATOM      6  C   UNL     1      34.297  42.674  23.177  1.00  0.00     0.000 C 
BRANCH   6   7
ATOM      7  C   UNL     1      35.698  42.768  23.794  1.00  0.00     0.006 C 
BRANCH   7   8
ATOM      8  C   UNL     1      36.549  43.814  23.067  1.00  0.00     0.053 C 
BRANCH   8   9
ATOM      9  C   UNL     1      37.816  43.198  22.562  1.00  0.00     0.041 C 
ATOM     10  O   UNL     1      38.735  42.888  23.366  1.00  0.00    -0.550 OA
ATOM     11  O   UNL     1      38.003  43.013  21.198  1.00  0.00    -0.550 OA
ENDBRANCH   8   9
ENDBRANCH   7   8
ENDBRANCH   6   7
ENDBRANCH   5   6
ENDBRANCH   4   5
ENDBRANCH   3   4
ENDBRANCH   2   3
ENDBRANCH   1   2
BRANCH   1  12
ATOM     12  C   UNL     1      30.109  41.911  23.142  1.00  0.00     0.000 C 
BRANCH  12  13
ATOM     13  C   UNL     1      30.742  42.935  24.101  1.00  0.00    -0.000 C 
BRANCH  13  14
ATOM     14  C   UNL     1      31.478  42.328  25.313  1.00  0.00    -0.000 C 
BRANCH  14  15
ATOM     15  C   UNL     1      31.657  40.799  25.269  1.00  0.00    -0.000 C 
BRANCH  15  16
ATOM     16  C   UNL     1      33.060  40.350  25.698  1.00  0.00    -0.000 C 
BRANCH  16  17
ATOM     17  C   UNL     1      33.213  38.829  25.573  1.00  0.00    -0.000 C 
BRANCH  17  18
ATOM     18  C   UNL     1      34.638  38.386  25.925  1.00  0.00    -0.000 C 
BRANCH  18  19
ATOM     19  C   UNL     1      35.414  39.520  26.603  1.00  0.00    -0.003 C 
ATOM     20  C   UNL     1      36.726  39.802  25.878  1.00  0.00     0.004 C 
ENDBRANCH  18  19
ENDBRANCH  17  18
ENDBRANCH  16  17
ENDBRANCH  15  16
ENDBRANCH  14  15
ENDBRANCH  13  14
ENDBRANCH  12  13
ENDBRANCH   1  12
TORSDOF 16
ENDMDL
