MODEL 1
REMARK VINA RESULT:    88.570      0.000      0.000
REMARK INTER + INTRA:          97.843
REMARK INTER:                  96.337
REMARK INTRA:                   1.507
REMARK UNBOUND:                 1.507
REMARK SMILES C[C@H]1[C@H](C)CC[C@@]2(C(=O)[O-])CC[C@@]3(C)C(=CC[C@H]4[C@]5(C)CC[C@H](O)C(C)(C)[C@H]5CC[C@]43C)[C@H]12
REMARK SMILES IDX 7 1 6 2 11 3 33 4 5 5 12 6 15 7 2 8 3 9 13 10 16 11 1 12
REMARK SMILES IDX 4 13 14 14 31 15 17 16 18 17 30 18 32 19 19 20 29 21 28 22
REMARK SMILES IDX 21 23 20 24 25 25 22 26 23 27 26 28 27 29 8 30 9 31 10 32
REMARK SMILES IDX 24 33
REMARK H PARENT 24 34
REMARK Flexibility Score: inf
ROOT
ATOM      1  C   UNL     1     -42.335  41.519  11.893  1.00  0.00     0.017 C 
ATOM      2  C   UNL     1     -41.777  40.056  11.764  1.00  0.00     0.014 C 
ATOM      3  C   UNL     1     -42.569  41.800  13.391  1.00  0.00     0.014 C 
ATOM      4  C   UNL     1     -41.289  42.548  11.305  1.00  0.00     0.030 C 
ATOM      5  C   UNL     1     -40.693  39.875  10.695  1.00  0.00     0.004 C 
ATOM      6  C   UNL     1     -43.123  43.206  13.624  1.00  0.00     0.013 C 
ATOM      7  C   UNL     1     -41.608  44.017  11.728  1.00  0.00    -0.063 C 
ATOM      8  C   UNL     1     -41.120  42.256   9.744  1.00  0.00    -0.003 C 
ATOM      9  C   UNL     1     -40.931  40.721   9.437  1.00  0.00    -0.011 C 
ATOM     10  C   UNL     1     -42.162  44.335  13.135  1.00  0.00    -0.006 C 
ATOM     11  C   UNL     1     -40.881  45.025  11.220  1.00  0.00    -0.027 C 
ATOM     12  C   UNL     1     -39.986  43.030   9.041  1.00  0.00     0.008 C 
ATOM     13  C   UNL     1     -42.068  40.148   8.573  1.00  0.00     0.008 C 
ATOM     14  C   UNL     1     -40.912  44.319  14.090  1.00  0.00     0.017 C 
ATOM     15  C   UNL     1     -42.916  45.769  13.163  1.00  0.00    -0.020 C 
ATOM     16  C   UNL     1     -41.341  46.447  11.262  1.00  0.00     0.032 C 
ATOM     17  C   UNL     1     -41.971  46.925  12.607  1.00  0.00     0.006 C 
ATOM     18  C   UNL     1     -44.197  45.731  12.235  1.00  0.00     0.008 C 
ATOM     19  C   UNL     1     -43.356  46.068  14.649  1.00  0.00     0.012 C 
ATOM     20  C   UNL     1     -42.659  48.398  12.493  1.00  0.00    -0.025 C 
ATOM     21  C   UNL     1     -44.715  47.093  11.703  1.00  0.00     0.005 C 
ATOM     22  C   UNL     1     -44.227  48.272  12.562  1.00  0.00     0.003 C 
ATOM     23  C   UNL     1     -42.186  49.337  13.667  1.00  0.00     0.010 C 
ATOM     24  C   UNL     1     -42.213  49.116  11.172  1.00  0.00     0.012 C 
ATOM     25  C   UNL     1     -45.059  49.618  12.470  1.00  0.00    -0.006 C 
ATOM     26  C   UNL     1     -43.272  50.293  14.220  1.00  0.00     0.033 C 
ATOM     27  C   UNL     1     -44.256  50.800  13.143  1.00  0.00     0.120 C 
ATOM     28  C   UNL     1     -45.423  49.992  11.011  1.00  0.00     0.014 C 
ATOM     29  C   UNL     1     -46.411  49.423  13.224  1.00  0.00     0.014 C 
ENDROOT
BRANCH   1  30
ATOM     30  C   UNL     1     -43.702  41.606  11.199  1.00  0.00     0.048 C 
ATOM     31  O   UNL     1     -43.771  41.787   9.953  1.00  0.00    -0.550 OA
ATOM     32  O   UNL     1     -44.881  41.363  11.892  1.00  0.00    -0.550 OA
ENDBRANCH   1  30
BRANCH  27  33
ATOM     33  O   UNL     1     -45.132  51.741  13.720  1.00  0.00    -0.393 OA
ATOM     34  H   UNL     1     -45.587  52.218  12.977  1.00  0.00     0.210 HD
ENDBRANCH  27  33
TORSDOF 2
ENDMDL
