MODEL 1
REMARK VINA RESULT:    -1.705      0.000      0.000
REMARK INTER + INTRA:          -2.220
REMARK INTER:                  -2.004
REMARK INTRA:                  -0.217
REMARK UNBOUND:                -0.217
REMARK SMILES O=c1c(O)c(-c2ccc(O)cc2)oc2cc(O)cc(O)c12
REMARK SMILES IDX 5 1 3 2 2 3 1 4 21 5 19 6 18 7 16 8 15 9 14 10 13 11 6 12
REMARK SMILES IDX 7 13 8 14 9 15 12 16 11 17 10 18 4 20 20 22 17 24
REMARK H PARENT 10 19 4 21 20 23 17 25
REMARK Flexibility Score: inf
ROOT
ATOM      1  C   UNL     1      13.575 -12.830  29.424  1.00  0.00     0.180 A 
ATOM      2  C   UNL     1      13.967 -13.246  28.139  1.00  0.00     0.208 A 
ATOM      3  C   UNL     1      14.705 -14.433  28.004  1.00  0.00     0.238 A 
ATOM      4  O   UNL     1      15.099 -14.772  26.858  1.00  0.00    -0.285 OA
ATOM      5  C   UNL     1      15.025 -15.199  29.151  1.00  0.00     0.111 A 
ATOM      6  C   UNL     1      15.732 -16.438  29.126  1.00  0.00     0.134 A 
ATOM      7  C   UNL     1      16.109 -17.042  30.332  1.00  0.00     0.093 A 
ATOM      8  C   UNL     1      15.747 -16.488  31.559  1.00  0.00     0.123 A 
ATOM      9  C   UNL     1      15.003 -15.307  31.595  1.00  0.00     0.094 A 
ATOM     10  C   UNL     1      14.645 -14.662  30.408  1.00  0.00     0.146 A 
ATOM     11  O   UNL     1      13.946 -13.535  30.485  1.00  0.00    -0.452 OA
ENDROOT
BRANCH   1  12
ATOM     12  C   UNL     1      12.775 -11.604  29.644  1.00  0.00     0.021 A 
ATOM     13  C   UNL     1      13.360 -10.505  30.295  1.00  0.00     0.016 A 
ATOM     14  C   UNL     1      12.615  -9.345  30.534  1.00  0.00     0.047 A 
ATOM     15  C   UNL     1      11.273  -9.276  30.139  1.00  0.00     0.115 A 
ATOM     16  C   UNL     1      11.421 -11.534  29.268  1.00  0.00     0.016 A 
ATOM     17  C   UNL     1      10.679 -10.373  29.509  1.00  0.00     0.047 A 
BRANCH  15  18
ATOM     18  O   UNL     1      10.523  -8.125  30.370  1.00  0.00    -0.508 OA
ATOM     19  H   UNL     1      10.789  -7.230  29.975  1.00  0.00     0.293 HD
ENDBRANCH  15  18
ENDBRANCH   1  12
BRANCH   2  20
ATOM     20  O   UNL     1      13.659 -12.464  27.022  1.00  0.00    -0.502 OA
ATOM     21  H   UNL     1      12.706 -12.233  26.767  1.00  0.00     0.293 HD
ENDBRANCH   2  20
BRANCH   6  22
ATOM     22  O   UNL     1      16.063 -17.125  27.955  1.00  0.00    -0.507 OA
ATOM     23  H   UNL     1      15.569 -17.931  27.603  1.00  0.00     0.293 HD
ENDBRANCH   6  22
BRANCH   8  24
ATOM     24  O   UNL     1      16.124 -17.125  32.740  1.00  0.00    -0.508 OA
ATOM     25  H   UNL     1      17.099 -17.242  32.991  1.00  0.00     0.293 HD
ENDBRANCH   8  24
TORSDOF 5
ENDMDL
MODEL 2
REMARK VINA RESULT:    -1.415     10.747     13.031
REMARK INTER + INTRA:          -1.879
REMARK INTER:                  -1.657
REMARK INTRA:                  -0.222
REMARK UNBOUND:                -0.217
REMARK SMILES O=c1c(O)c(-c2ccc(O)cc2)oc2cc(O)cc(O)c12
REMARK SMILES IDX 5 1 3 2 2 3 1 4 21 5 19 6 18 7 16 8 15 9 14 10 13 11 6 12
REMARK SMILES IDX 7 13 8 14 9 15 12 16 11 17 10 18 4 20 20 22 17 24
REMARK H PARENT 10 19 4 21 20 23 17 25
REMARK Flexibility Score: inf
ROOT
ATOM      1  C   UNL     1      16.333  -0.691  27.109  1.00  0.00     0.180 A 
ATOM      2  C   UNL     1      17.589  -1.275  26.867  1.00  0.00     0.208 A 
ATOM      3  C   UNL     1      18.094  -2.210  27.785  1.00  0.00     0.238 A 
ATOM      4  O   UNL     1      19.241  -2.689  27.591  1.00  0.00    -0.285 OA
ATOM      5  C   UNL     1      17.329  -2.562  28.924  1.00  0.00     0.111 A 
ATOM      6  C   UNL     1      17.725  -3.527  29.898  1.00  0.00     0.134 A 
ATOM      7  C   UNL     1      16.952  -3.700  31.052  1.00  0.00     0.093 A 
ATOM      8  C   UNL     1      15.765  -2.992  31.237  1.00  0.00     0.123 A 
ATOM      9  C   UNL     1      15.337  -2.089  30.262  1.00  0.00     0.094 A 
ATOM     10  C   UNL     1      16.107  -1.868  29.117  1.00  0.00     0.146 A 
ATOM     11  O   UNL     1      15.671  -0.993  28.219  1.00  0.00    -0.452 OA
ENDROOT
BRANCH   1  12
ATOM     12  C   UNL     1      15.724   0.282  26.175  1.00  0.00     0.021 A 
ATOM     13  C   UNL     1      15.593   1.626  26.565  1.00  0.00     0.016 A 
ATOM     14  C   UNL     1      15.001   2.558  25.707  1.00  0.00     0.047 A 
ATOM     15  C   UNL     1      14.518   2.155  24.455  1.00  0.00     0.115 A 
ATOM     16  C   UNL     1      15.220  -0.118  24.924  1.00  0.00     0.016 A 
ATOM     17  C   UNL     1      14.627   0.817  24.069  1.00  0.00     0.047 A 
BRANCH  15  18
ATOM     18  O   UNL     1      13.927   3.075  23.592  1.00  0.00    -0.508 OA
ATOM     19  H   UNL     1      14.335   3.293  22.689  1.00  0.00     0.293 HD
ENDBRANCH  15  18
ENDBRANCH   1  12
BRANCH   2  20
ATOM     20  O   UNL     1      18.336  -0.897  25.748  1.00  0.00    -0.502 OA
ATOM     21  H   UNL     1      18.876  -1.561  25.204  1.00  0.00     0.293 HD
ENDBRANCH   2  20
BRANCH   6  22
ATOM     22  O   UNL     1      18.845  -4.354  29.768  1.00  0.00    -0.507 OA
ATOM     23  H   UNL     1      19.771  -4.034  29.526  1.00  0.00     0.293 HD
ENDBRANCH   6  22
BRANCH   8  24
ATOM     24  O   UNL     1      15.012  -3.201  32.390  1.00  0.00    -0.508 OA
ATOM     25  H   UNL     1      14.061  -2.858  32.473  1.00  0.00     0.293 HD
ENDBRANCH   8  24
TORSDOF 5
ENDMDL
MODEL 3
REMARK VINA RESULT:    -0.834     11.366     13.398
REMARK INTER + INTRA:          -1.197
REMARK INTER:                  -0.910
REMARK INTRA:                  -0.287
REMARK UNBOUND:                -0.217
REMARK SMILES O=c1c(O)c(-c2ccc(O)cc2)oc2cc(O)cc(O)c12
REMARK SMILES IDX 5 1 3 2 2 3 1 4 21 5 19 6 18 7 16 8 15 9 14 10 13 11 6 12
REMARK SMILES IDX 7 13 8 14 9 15 12 16 11 17 10 18 4 20 20 22 17 24
REMARK H PARENT 10 19 4 21 20 23 17 25
REMARK Flexibility Score: inf
ROOT
ATOM      1  C   UNL     1      16.247  -0.623  26.873  1.00  0.00     0.180 A 
ATOM      2  C   UNL     1      15.539  -1.235  27.923  1.00  0.00     0.208 A 
ATOM      3  C   UNL     1      16.210  -2.139  28.761  1.00  0.00     0.238 A 
ATOM      4  O   UNL     1      15.558  -2.724  29.665  1.00  0.00    -0.285 OA
ATOM      5  C   UNL     1      17.585  -2.406  28.551  1.00  0.00     0.111 A 
ATOM      6  C   UNL     1      18.375  -3.273  29.365  1.00  0.00     0.134 A 
ATOM      7  C   UNL     1      19.691  -3.566  28.986  1.00  0.00     0.093 A 
ATOM      8  C   UNL     1      20.266  -2.973  27.863  1.00  0.00     0.123 A 
ATOM      9  C   UNL     1      19.522  -2.077  27.094  1.00  0.00     0.094 A 
ATOM     10  C   UNL     1      18.194  -1.794  27.426  1.00  0.00     0.146 A 
ATOM     11  O   UNL     1      17.517  -0.944  26.662  1.00  0.00    -0.452 OA
ENDROOT
BRANCH   1  12
ATOM     12  C   UNL     1      15.614   0.359  25.964  1.00  0.00     0.021 A 
ATOM     13  C   UNL     1      15.186  -0.054  24.691  1.00  0.00     0.016 A 
ATOM     14  C   UNL     1      14.605   0.862  23.807  1.00  0.00     0.047 A 
ATOM     15  C   UNL     1      14.461   2.204  24.179  1.00  0.00     0.115 A 
ATOM     16  C   UNL     1      15.484   1.713  26.322  1.00  0.00     0.016 A 
ATOM     17  C   UNL     1      14.904   2.626  25.436  1.00  0.00     0.047 A 
BRANCH  15  18
ATOM     18  O   UNL     1      13.884   3.125  23.307  1.00  0.00    -0.508 OA
ATOM     19  H   UNL     1      13.773   2.923  22.320  1.00  0.00     0.293 HD
ENDBRANCH  15  18
ENDBRANCH   1  12
BRANCH   2  20
ATOM     20  O   UNL     1      14.177  -0.973  28.099  1.00  0.00    -0.502 OA
ATOM     21  H   UNL     1      13.456  -1.484  27.604  1.00  0.00     0.293 HD
ENDBRANCH   2  20
BRANCH   6  22
ATOM     22  O   UNL     1      17.927  -3.846  30.559  1.00  0.00    -0.507 OA
ATOM     23  H   UNL     1      18.137  -4.787  30.859  1.00  0.00     0.293 HD
ENDBRANCH   6  22
BRANCH   8  24
ATOM     24  O   UNL     1      21.584  -3.275  27.525  1.00  0.00    -0.508 OA
ATOM     25  H   UNL     1      21.804  -3.905  26.762  1.00  0.00     0.293 HD
ENDBRANCH   8  24
TORSDOF 5
ENDMDL
MODEL 4
REMARK VINA RESULT:    -0.813     10.069     14.499
REMARK INTER + INTRA:          -1.172
REMARK INTER:                  -0.962
REMARK INTRA:                  -0.210
REMARK UNBOUND:                -0.217
REMARK SMILES O=c1c(O)c(-c2ccc(O)cc2)oc2cc(O)cc(O)c12
REMARK SMILES IDX 5 1 3 2 2 3 1 4 21 5 19 6 18 7 16 8 15 9 14 10 13 11 6 12
REMARK SMILES IDX 7 13 8 14 9 15 12 16 11 17 10 18 4 20 20 22 17 24
REMARK H PARENT 10 19 4 21 20 23 17 25
REMARK Flexibility Score: inf
ROOT
ATOM      1  C   UNL     1      15.598  -1.772  26.843  1.00  0.00     0.180 A 
ATOM      2  C   UNL     1      15.758  -1.191  28.113  1.00  0.00     0.208 A 
ATOM      3  C   UNL     1      15.566   0.193  28.257  1.00  0.00     0.238 A 
ATOM      4  O   UNL     1      15.763   0.716  29.385  1.00  0.00    -0.285 OA
ATOM      5  C   UNL     1      15.200   0.974  27.135  1.00  0.00     0.111 A 
ATOM      6  C   UNL     1      14.942   2.377  27.174  1.00  0.00     0.134 A 
ATOM      7  C   UNL     1      14.716   3.071  25.979  1.00  0.00     0.093 A 
ATOM      8  C   UNL     1      14.675   2.404  24.755  1.00  0.00     0.123 A 
ATOM      9  C   UNL     1      14.868   1.023  24.712  1.00  0.00     0.094 A 
ATOM     10  C   UNL     1      15.132   0.309  25.883  1.00  0.00     0.146 A 
ATOM     11  O   UNL     1      15.320  -1.003  25.798  1.00  0.00    -0.452 OA
ENDROOT
BRANCH   1  12
ATOM     12  C   UNL     1      15.759  -3.227  26.617  1.00  0.00     0.021 A 
ATOM     13  C   UNL     1      17.048  -3.786  26.604  1.00  0.00     0.016 A 
ATOM     14  C   UNL     1      17.224  -5.154  26.370  1.00  0.00     0.047 A 
ATOM     15  C   UNL     1      16.115  -5.975  26.132  1.00  0.00     0.115 A 
ATOM     16  C   UNL     1      14.652  -4.055  26.357  1.00  0.00     0.016 A 
ATOM     17  C   UNL     1      14.832  -5.422  26.123  1.00  0.00     0.047 A 
BRANCH  15  18
ATOM     18  O   UNL     1      16.279  -7.339  25.898  1.00  0.00    -0.508 OA
ATOM     19  H   UNL     1      16.631  -7.687  25.014  1.00  0.00     0.293 HD
ENDBRANCH  15  18
ENDBRANCH   1  12
BRANCH   2  20
ATOM     20  O   UNL     1      16.140  -1.977  29.204  1.00  0.00    -0.502 OA
ATOM     21  H   UNL     1      15.504  -2.205  29.959  1.00  0.00     0.293 HD
ENDBRANCH   2  20
BRANCH   6  22
ATOM     22  O   UNL     1      14.868   3.125  28.353  1.00  0.00    -0.507 OA
ATOM     23  H   UNL     1      14.121   3.060  29.029  1.00  0.00     0.293 HD
ENDBRANCH   6  22
BRANCH   8  24
ATOM     24  O   UNL     1      14.432   3.125  23.587  1.00  0.00    -0.508 OA
ATOM     25  H   UNL     1      13.682   2.872  22.955  1.00  0.00     0.293 HD
ENDBRANCH   8  24
TORSDOF 5
ENDMDL
MODEL 5
REMARK VINA RESULT:    -0.784      2.074      6.520
REMARK INTER + INTRA:          -1.139
REMARK INTER:                  -0.971
REMARK INTRA:                  -0.168
REMARK UNBOUND:                -0.217
REMARK SMILES O=c1c(O)c(-c2ccc(O)cc2)oc2cc(O)cc(O)c12
REMARK SMILES IDX 5 1 3 2 2 3 1 4 21 5 19 6 18 7 16 8 15 9 14 10 13 11 6 12
REMARK SMILES IDX 7 13 8 14 9 15 12 16 11 17 10 18 4 20 20 22 17 24
REMARK H PARENT 10 19 4 21 20 23 17 25
REMARK Flexibility Score: inf
ROOT
ATOM      1  C   UNL     1      13.591 -12.773  28.665  1.00  0.00     0.180 A 
ATOM      2  C   UNL     1      12.322 -12.383  28.204  1.00  0.00     0.208 A 
ATOM      3  C   UNL     1      11.688 -11.282  28.802  1.00  0.00     0.238 A 
ATOM      4  O   UNL     1      10.530 -10.971  28.421  1.00  0.00    -0.285 OA
ATOM      5  C   UNL     1      12.339 -10.574  29.841  1.00  0.00     0.111 A 
ATOM      6  C   UNL     1      11.808  -9.420  30.491  1.00  0.00     0.134 A 
ATOM      7  C   UNL     1      12.478  -8.880  31.596  1.00  0.00     0.093 A 
ATOM      8  C   UNL     1      13.692  -9.410  32.032  1.00  0.00     0.123 A 
ATOM      9  C   UNL     1      14.250 -10.503  31.367  1.00  0.00     0.094 A 
ATOM     10  C   UNL     1      13.586 -11.086  30.285  1.00  0.00     0.146 A 
ATOM     11  O   UNL     1      14.146 -12.131  29.685  1.00  0.00    -0.452 OA
ENDROOT
BRANCH   1  12
ATOM     12  C   UNL     1      14.332 -13.907  28.068  1.00  0.00     0.021 A 
ATOM     13  C   UNL     1      14.640 -15.026  28.860  1.00  0.00     0.016 A 
ATOM     14  C   UNL     1      15.359 -16.099  28.322  1.00  0.00     0.047 A 
ATOM     15  C   UNL     1      15.791 -16.059  26.991  1.00  0.00     0.115 A 
ATOM     16  C   UNL     1      14.787 -13.867  26.737  1.00  0.00     0.016 A 
ATOM     17  C   UNL     1      15.506 -14.941  26.203  1.00  0.00     0.047 A 
BRANCH  15  18
ATOM     18  O   UNL     1      16.507 -17.122  26.444  1.00  0.00    -0.508 OA
ATOM     19  H   UNL     1      16.304 -17.476  25.516  1.00  0.00     0.293 HD
ENDBRANCH  15  18
ENDBRANCH   1  12
BRANCH   2  20
ATOM     20  O   UNL     1      11.689 -13.109  27.190  1.00  0.00    -0.502 OA
ATOM     21  H   UNL     1      11.686 -14.122  27.167  1.00  0.00     0.293 HD
ENDBRANCH   2  20
BRANCH   6  22
ATOM     22  O   UNL     1      10.650  -8.755  30.078  1.00  0.00    -0.507 OA
ATOM     23  H   UNL     1      10.556  -7.753  30.011  1.00  0.00     0.293 HD
ENDBRANCH   6  22
BRANCH   8  24
ATOM     24  O   UNL     1      14.339  -8.837  33.124  1.00  0.00    -0.508 OA
ATOM     25  H   UNL     1      15.326  -8.607  33.095  1.00  0.00     0.293 HD
ENDBRANCH   8  24
TORSDOF 5
ENDMDL
MODEL 6
REMARK VINA RESULT:     0.891      1.211      3.223
REMARK INTER + INTRA:           0.830
REMARK INTER:                   1.104
REMARK INTRA:                  -0.274
REMARK UNBOUND:                -0.217
REMARK SMILES O=c1c(O)c(-c2ccc(O)cc2)oc2cc(O)cc(O)c12
REMARK SMILES IDX 5 1 3 2 2 3 1 4 21 5 19 6 18 7 16 8 15 9 14 10 13 11 6 12
REMARK SMILES IDX 7 13 8 14 9 15 12 16 11 17 10 18 4 20 20 22 17 24
REMARK H PARENT 10 19 4 21 20 23 17 25
REMARK Flexibility Score: inf
ROOT
ATOM      1  C   UNL     1      13.632 -12.830  29.675  1.00  0.00     0.180 A 
ATOM      2  C   UNL     1      13.950 -13.705  30.728  1.00  0.00     0.208 A 
ATOM      3  C   UNL     1      14.702 -14.858  30.452  1.00  0.00     0.238 A 
ATOM      4  O   UNL     1      14.938 -15.664  31.389  1.00  0.00    -0.285 OA
ATOM      5  C   UNL     1      15.141 -15.113  29.130  1.00  0.00     0.111 A 
ATOM      6  C   UNL     1      15.942 -16.229  28.744  1.00  0.00     0.134 A 
ATOM      7  C   UNL     1      16.207 -16.452  27.387  1.00  0.00     0.093 A 
ATOM      8  C   UNL     1      15.757 -15.565  26.410  1.00  0.00     0.123 A 
ATOM      9  C   UNL     1      15.023 -14.438  26.782  1.00  0.00     0.094 A 
ATOM     10  C   UNL     1      14.711 -14.209  28.125  1.00  0.00     0.146 A 
ATOM     11  O   UNL     1      14.002 -13.130  28.436  1.00  0.00    -0.452 OA
ENDROOT
BRANCH   1  12
ATOM     12  C   UNL     1      12.865 -11.582  29.892  1.00  0.00     0.021 A 
ATOM     13  C   UNL     1      11.506 -11.536  29.538  1.00  0.00     0.016 A 
ATOM     14  C   UNL     1      10.767 -10.361  29.714  1.00  0.00     0.047 A 
ATOM     15  C   UNL     1      11.383  -9.214  30.230  1.00  0.00     0.115 A 
ATOM     16  C   UNL     1      13.480 -10.420  30.391  1.00  0.00     0.016 A 
ATOM     17  C   UNL     1      12.740  -9.246  30.564  1.00  0.00     0.047 A 
BRANCH  15  18
ATOM     18  O   UNL     1      10.658  -8.038  30.410  1.00  0.00    -0.508 OA
ATOM     19  H   UNL     1       9.651  -8.013  30.293  1.00  0.00     0.293 HD
ENDBRANCH  15  18
ENDBRANCH   1  12
BRANCH   2  20
ATOM     20  O   UNL     1      13.489 -13.444  32.022  1.00  0.00    -0.502 OA
ATOM     21  H   UNL     1      13.999 -13.730  32.849  1.00  0.00     0.293 HD
ENDBRANCH   2  20
BRANCH   6  22
ATOM     22  O   UNL     1      16.520 -17.125  29.648  1.00  0.00    -0.507 OA
ATOM     23  H   UNL     1      16.721 -18.093  29.448  1.00  0.00     0.293 HD
ENDBRANCH   6  22
BRANCH   8  24
ATOM     24  O   UNL     1      16.053 -15.810  25.071  1.00  0.00    -0.508 OA
ATOM     25  H   UNL     1      16.965 -15.599  24.682  1.00  0.00     0.293 HD
ENDBRANCH   8  24
TORSDOF 5
ENDMDL
