MODEL 1
REMARK VINA RESULT:    -3.087      0.000      0.000
REMARK INTER + INTRA:         -12.474
REMARK INTER:                  -8.141
REMARK INTRA:                  -4.333
REMARK UNBOUND:                -4.333
REMARK SMILES CCCCCCCCCCCCCCCCCCCCCCCCCCCCCC(=O)[O-]
REMARK SMILES IDX 16 1 17 2 18 3 19 4 20 5 21 6 22 7 23 8 24 9 25 10 26 11
REMARK SMILES IDX 27 12 28 13 29 14 30 15 31 16 32 17 15 18 14 19 13 20 12 21
REMARK SMILES IDX 11 22 10 23 9 24 8 25 7 26 6 27 5 28 4 29 3 30 2 31 1 32
REMARK H PARENT
REMARK Flexibility Score: inf
ROOT
ATOM      1  C   UNL     1      28.385  15.479 -19.412  1.00  0.00     0.000 C 
ENDROOT
BRANCH   1   2
ATOM      2  C   UNL     1      28.613  14.064 -19.967  1.00  0.00     0.000 C 
BRANCH   2   3
ATOM      3  C   UNL     1      28.589  13.016 -18.842  1.00  0.00     0.000 C 
BRANCH   3   4
ATOM      4  C   UNL     1      27.796  13.485 -17.611  1.00  0.00     0.000 C 
BRANCH   4   5
ATOM      5  C   UNL     1      28.501  13.154 -16.287  1.00  0.00     0.000 C 
BRANCH   5   6
ATOM      6  C   UNL     1      29.049  14.422 -15.621  1.00  0.00     0.000 C 
BRANCH   6   7
ATOM      7  C   UNL     1      30.582  14.411 -15.597  1.00  0.00     0.000 C 
BRANCH   7   8
ATOM      8  C   UNL     1      31.134  13.078 -16.129  1.00  0.00     0.000 C 
BRANCH   8   9
ATOM      9  C   UNL     1      32.516  13.233 -16.795  1.00  0.00     0.000 C 
BRANCH   9  10
ATOM     10  C   UNL     1      33.539  14.015 -15.949  1.00  0.00     0.000 C 
BRANCH  10  11
ATOM     11  C   UNL     1      34.681  14.647 -16.770  1.00  0.00     0.000 C 
BRANCH  11  12
ATOM     12  C   UNL     1      34.562  14.322 -18.270  1.00  0.00     0.000 C 
BRANCH  12  13
ATOM     13  C   UNL     1      34.378  15.577 -19.138  1.00  0.00     0.006 C 
BRANCH  13  14
ATOM     14  C   UNL     1      33.330  16.543 -18.569  1.00  0.00     0.053 C 
BRANCH  14  15
ATOM     15  C   UNL     1      33.950  17.874 -18.273  1.00  0.00     0.041 C 
ATOM     16  O   UNL     1      33.325  18.936 -18.528  1.00  0.00    -0.550 OA
ATOM     17  O   UNL     1      35.201  17.939 -17.671  1.00  0.00    -0.550 OA
ENDBRANCH  14  15
ENDBRANCH  13  14
ENDBRANCH  12  13
ENDBRANCH  11  12
ENDBRANCH  10  11
ENDBRANCH   9  10
ENDBRANCH   8   9
ENDBRANCH   7   8
ENDBRANCH   6   7
ENDBRANCH   5   6
ENDBRANCH   4   5
ENDBRANCH   3   4
ENDBRANCH   2   3
ENDBRANCH   1   2
BRANCH   1  18
ATOM     18  C   UNL     1      29.696  16.263 -19.232  1.00  0.00     0.000 C 
BRANCH  18  19
ATOM     19  C   UNL     1      29.659  17.223 -18.033  1.00  0.00     0.000 C 
BRANCH  19  20
ATOM     20  C   UNL     1      28.234  17.470 -17.508  1.00  0.00     0.000 C 
BRANCH  20  21
ATOM     21  C   UNL     1      27.911  18.957 -17.248  1.00  0.00     0.000 C 
BRANCH  21  22
ATOM     22  C   UNL     1      26.577  19.385 -17.879  1.00  0.00     0.000 C 
BRANCH  22  23
ATOM     23  C   UNL     1      25.983  18.251 -18.729  1.00  0.00     0.000 C 
BRANCH  23  24
ATOM     24  C   UNL     1      24.604  17.790 -18.229  1.00  0.00    -0.000 C 
BRANCH  24  25
ATOM     25  C   UNL     1      24.151  16.412 -18.750  1.00  0.00    -0.000 C 
BRANCH  25  26
ATOM     26  C   UNL     1      24.829  15.222 -18.038  1.00  0.00    -0.000 C 
BRANCH  26  27
ATOM     27  C   UNL     1      24.186  13.874 -18.410  1.00  0.00    -0.000 C 
BRANCH  27  28
ATOM     28  C   UNL     1      23.995  12.952 -17.194  1.00  0.00    -0.000 C 
BRANCH  28  29
ATOM     29  C   UNL     1      23.197  13.628 -16.065  1.00  0.00    -0.000 C 
BRANCH  29  30
ATOM     30  C   UNL     1      23.787  13.346 -14.675  1.00  0.00    -0.000 C 
BRANCH  30  31
ATOM     31  C   UNL     1      22.809  13.673 -13.537  1.00  0.00    -0.003 C 
ATOM     32  C   UNL     1      23.215  12.970 -12.245  1.00  0.00     0.004 C 
ENDBRANCH  30  31
ENDBRANCH  29  30
ENDBRANCH  28  29
ENDBRANCH  27  28
ENDBRANCH  26  27
ENDBRANCH  25  26
ENDBRANCH  24  25
ENDBRANCH  23  24
ENDBRANCH  22  23
ENDBRANCH  21  22
ENDBRANCH  20  21
ENDBRANCH  19  20
ENDBRANCH  18  19
ENDBRANCH   1  18
TORSDOF 28
ENDMDL
MODEL 2
REMARK VINA RESULT:    -2.755      3.021      9.224
REMARK INTER + INTRA:         -11.598
REMARK INTER:                  -7.539
REMARK INTRA:                  -4.059
REMARK UNBOUND:                -4.333
REMARK SMILES CCCCCCCCCCCCCCCCCCCCCCCCCCCCCC(=O)[O-]
REMARK SMILES IDX 16 1 17 2 18 3 19 4 20 5 21 6 22 7 23 8 24 9 25 10 26 11
REMARK SMILES IDX 27 12 28 13 29 14 30 15 31 16 32 17 15 18 14 19 13 20 12 21
REMARK SMILES IDX 11 22 10 23 9 24 8 25 7 26 6 27 5 28 4 29 3 30 2 31 1 32
REMARK H PARENT
REMARK Flexibility Score: inf
ROOT
ATOM      1  C   UNL     1      28.794  16.380 -16.711  1.00  0.00     0.000 C 
ENDROOT
BRANCH   1   2
ATOM      2  C   UNL     1      29.116  16.883 -18.127  1.00  0.00     0.000 C 
BRANCH   2   3
ATOM      3  C   UNL     1      27.951  17.703 -18.704  1.00  0.00     0.000 C 
BRANCH   3   4
ATOM      4  C   UNL     1      27.087  16.896 -19.687  1.00  0.00     0.000 C 
BRANCH   4   5
ATOM      5  C   UNL     1      25.845  16.283 -19.023  1.00  0.00     0.000 C 
BRANCH   5   6
ATOM      6  C   UNL     1      25.078  17.333 -18.211  1.00  0.00     0.000 C 
BRANCH   6   7
ATOM      7  C   UNL     1      23.811  17.781 -18.951  1.00  0.00     0.000 C 
BRANCH   7   8
ATOM      8  C   UNL     1      22.596  17.792 -18.009  1.00  0.00     0.000 C 
BRANCH   8   9
ATOM      9  C   UNL     1      22.215  16.381 -17.518  1.00  0.00     0.000 C 
BRANCH   9  10
ATOM     10  C   UNL     1      21.879  15.390 -18.649  1.00  0.00     0.000 C 
BRANCH  10  11
ATOM     11  C   UNL     1      22.120  13.912 -18.280  1.00  0.00     0.000 C 
BRANCH  11  12
ATOM     12  C   UNL     1      23.530  13.439 -18.675  1.00  0.00     0.000 C 
BRANCH  12  13
ATOM     13  C   UNL     1      24.432  13.175 -17.460  1.00  0.00     0.006 C 
BRANCH  13  14
ATOM     14  C   UNL     1      23.644  13.076 -16.146  1.00  0.00     0.053 C 
BRANCH  14  15
ATOM     15  C   UNL     1      24.460  13.599 -15.005  1.00  0.00     0.041 C 
ATOM     16  O   UNL     1      23.932  13.772 -13.875  1.00  0.00    -0.550 OA
ATOM     17  O   UNL     1      25.815  13.850 -15.178  1.00  0.00    -0.550 OA
ENDBRANCH  14  15
ENDBRANCH  13  14
ENDBRANCH  12  13
ENDBRANCH  11  12
ENDBRANCH  10  11
ENDBRANCH   9  10
ENDBRANCH   8   9
ENDBRANCH   7   8
ENDBRANCH   6   7
ENDBRANCH   5   6
ENDBRANCH   4   5
ENDBRANCH   3   4
ENDBRANCH   2   3
ENDBRANCH   1   2
BRANCH   1  18
ATOM     18  C   UNL     1      28.859  14.847 -16.598  1.00  0.00     0.000 C 
BRANCH  18  19
ATOM     19  C   UNL     1      29.355  14.370 -15.224  1.00  0.00     0.000 C 
BRANCH  19  20
ATOM     20  C   UNL     1      30.328  13.182 -15.318  1.00  0.00     0.000 C 
BRANCH  20  21
ATOM     21  C   UNL     1      31.306  13.266 -16.509  1.00  0.00     0.000 C 
BRANCH  21  22
ATOM     22  C   UNL     1      32.597  14.020 -16.154  1.00  0.00     0.000 C 
BRANCH  22  23
ATOM     23  C   UNL     1      33.803  13.069 -16.140  1.00  0.00     0.000 C 
BRANCH  23  24
ATOM     24  C   UNL     1      34.428  12.875 -17.531  1.00  0.00    -0.000 C 
BRANCH  24  25
ATOM     25  C   UNL     1      34.713  14.178 -18.303  1.00  0.00    -0.000 C 
BRANCH  25  26
ATOM     26  C   UNL     1      34.268  14.137 -19.782  1.00  0.00    -0.000 C 
BRANCH  26  27
ATOM     27  C   UNL     1      32.788  13.745 -19.936  1.00  0.00    -0.000 C 
BRANCH  27  28
ATOM     28  C   UNL     1      31.837  14.942 -19.771  1.00  0.00    -0.000 C 
BRANCH  28  29
ATOM     29  C   UNL     1      32.548  16.291 -19.987  1.00  0.00    -0.000 C 
BRANCH  29  30
ATOM     30  C   UNL     1      32.514  17.183 -18.736  1.00  0.00    -0.000 C 
BRANCH  30  31
ATOM     31  C   UNL     1      33.681  18.179 -18.685  1.00  0.00    -0.003 C 
ATOM     32  C   UNL     1      34.835  17.630 -17.852  1.00  0.00     0.004 C 
ENDBRANCH  30  31
ENDBRANCH  29  30
ENDBRANCH  28  29
ENDBRANCH  27  28
ENDBRANCH  26  27
ENDBRANCH  25  26
ENDBRANCH  24  25
ENDBRANCH  23  24
ENDBRANCH  22  23
ENDBRANCH  21  22
ENDBRANCH  20  21
ENDBRANCH  19  20
ENDBRANCH  18  19
ENDBRANCH   1  18
TORSDOF 28
ENDMDL
MODEL 3
REMARK VINA RESULT:    -2.620      2.093      7.987
REMARK INTER + INTRA:         -11.242
REMARK INTER:                  -7.645
REMARK INTRA:                  -3.597
REMARK UNBOUND:                -4.333
REMARK SMILES CCCCCCCCCCCCCCCCCCCCCCCCCCCCCC(=O)[O-]
REMARK SMILES IDX 16 1 17 2 18 3 19 4 20 5 21 6 22 7 23 8 24 9 25 10 26 11
REMARK SMILES IDX 27 12 28 13 29 14 30 15 31 16 32 17 15 18 14 19 13 20 12 21
REMARK SMILES IDX 11 22 10 23 9 24 8 25 7 26 6 27 5 28 4 29 3 30 2 31 1 32
REMARK H PARENT
REMARK Flexibility Score: inf
ROOT
ATOM      1  C   UNL     1      28.115  14.906 -17.567  1.00  0.00     0.000 C 
ENDROOT
BRANCH   1   2
ATOM      2  C   UNL     1      27.014  14.944 -16.495  1.00  0.00     0.000 C 
BRANCH   2   3
ATOM      3  C   UNL     1      25.910  13.917 -16.795  1.00  0.00     0.000 C 
BRANCH   3   4
ATOM      4  C   UNL     1      25.639  12.974 -15.611  1.00  0.00     0.000 C 
BRANCH   4   5
ATOM      5  C   UNL     1      24.162  12.956 -15.190  1.00  0.00     0.000 C 
BRANCH   5   6
ATOM      6  C   UNL     1      23.240  12.888 -16.414  1.00  0.00     0.000 C 
BRANCH   6   7
ATOM      7  C   UNL     1      21.963  13.705 -16.185  1.00  0.00     0.000 C 
BRANCH   7   8
ATOM      8  C   UNL     1      21.930  14.945 -17.092  1.00  0.00     0.000 C 
BRANCH   8   9
ATOM      9  C   UNL     1      22.561  14.685 -18.474  1.00  0.00     0.000 C 
BRANCH   9  10
ATOM     10  C   UNL     1      23.151  15.940 -19.144  1.00  0.00     0.000 C 
BRANCH  10  11
ATOM     11  C   UNL     1      22.584  17.267 -18.600  1.00  0.00     0.000 C 
BRANCH  11  12
ATOM     12  C   UNL     1      23.675  18.141 -17.954  1.00  0.00     0.000 C 
BRANCH  12  13
ATOM     13  C   UNL     1      25.095  17.653 -18.276  1.00  0.00     0.006 C 
BRANCH  13  14
ATOM     14  C   UNL     1      26.028  18.790 -18.714  1.00  0.00     0.053 C 
BRANCH  14  15
ATOM     15  C   UNL     1      26.732  19.378 -17.530  1.00  0.00     0.041 C 
ATOM     16  O   UNL     1      26.177  20.276 -16.843  1.00  0.00    -0.550 OA
ATOM     17  O   UNL     1      27.981  18.899 -17.155  1.00  0.00    -0.550 OA
ENDBRANCH  14  15
ENDBRANCH  13  14
ENDBRANCH  12  13
ENDBRANCH  11  12
ENDBRANCH  10  11
ENDBRANCH   9  10
ENDBRANCH   8   9
ENDBRANCH   7   8
ENDBRANCH   6   7
ENDBRANCH   5   6
ENDBRANCH   4   5
ENDBRANCH   3   4
ENDBRANCH   2   3
ENDBRANCH   1   2
BRANCH   1  18
ATOM     18  C   UNL     1      27.751  14.003 -18.757  1.00  0.00     0.000 C 
BRANCH  18  19
ATOM     19  C   UNL     1      28.062  14.650 -20.116  1.00  0.00     0.000 C 
BRANCH  19  20
ATOM     20  C   UNL     1      28.264  16.172 -20.023  1.00  0.00     0.000 C 
BRANCH  20  21
ATOM     21  C   UNL     1      29.743  16.612 -20.067  1.00  0.00     0.000 C 
BRANCH  21  22
ATOM     22  C   UNL     1      30.296  16.947 -18.674  1.00  0.00     0.000 C 
BRANCH  22  23
ATOM     23  C   UNL     1      31.793  16.613 -18.583  1.00  0.00     0.000 C 
BRANCH  23  24
ATOM     24  C   UNL     1      32.691  17.852 -18.736  1.00  0.00    -0.000 C 
BRANCH  24  25
ATOM     25  C   UNL     1      34.190  17.548 -18.928  1.00  0.00    -0.000 C 
BRANCH  25  26
ATOM     26  C   UNL     1      34.588  16.106 -18.548  1.00  0.00    -0.000 C 
BRANCH  26  27
ATOM     27  C   UNL     1      34.840  15.947 -17.038  1.00  0.00    -0.000 C 
BRANCH  27  28
ATOM     28  C   UNL     1      34.884  14.475 -16.596  1.00  0.00    -0.000 C 
BRANCH  28  29
ATOM     29  C   UNL     1      33.579  14.029 -15.912  1.00  0.00    -0.000 C 
BRANCH  29  30
ATOM     30  C   UNL     1      32.729  13.113 -16.804  1.00  0.00    -0.000 C 
BRANCH  30  31
ATOM     31  C   UNL     1      31.242  13.497 -16.805  1.00  0.00    -0.003 C 
ATOM     32  C   UNL     1      30.731  13.719 -15.385  1.00  0.00     0.004 C 
ENDBRANCH  30  31
ENDBRANCH  29  30
ENDBRANCH  28  29
ENDBRANCH  27  28
ENDBRANCH  26  27
ENDBRANCH  25  26
ENDBRANCH  24  25
ENDBRANCH  23  24
ENDBRANCH  22  23
ENDBRANCH  21  22
ENDBRANCH  20  21
ENDBRANCH  19  20
ENDBRANCH  18  19
ENDBRANCH   1  18
TORSDOF 28
ENDMDL
MODEL 4
REMARK VINA RESULT:    -2.536      1.834      4.768
REMARK INTER + INTRA:         -11.021
REMARK INTER:                  -6.196
REMARK INTRA:                  -4.824
REMARK UNBOUND:                -4.333
REMARK SMILES CCCCCCCCCCCCCCCCCCCCCCCCCCCCCC(=O)[O-]
REMARK SMILES IDX 16 1 17 2 18 3 19 4 20 5 21 6 22 7 23 8 24 9 25 10 26 11
REMARK SMILES IDX 27 12 28 13 29 14 30 15 31 16 32 17 15 18 14 19 13 20 12 21
REMARK SMILES IDX 11 22 10 23 9 24 8 25 7 26 6 27 5 28 4 29 3 30 2 31 1 32
REMARK H PARENT
REMARK Flexibility Score: inf
ROOT
ATOM      1  C   UNL     1      29.597  15.119 -15.777  1.00  0.00     0.000 C 
ENDROOT
BRANCH   1   2
ATOM      2  C   UNL     1      30.923  14.346 -15.866  1.00  0.00     0.000 C 
BRANCH   2   3
ATOM      3  C   UNL     1      30.746  13.025 -16.631  1.00  0.00     0.000 C 
BRANCH   3   4
ATOM      4  C   UNL     1      31.739  12.875 -17.795  1.00  0.00     0.000 C 
BRANCH   4   5
ATOM      5  C   UNL     1      31.066  12.985 -19.171  1.00  0.00     0.000 C 
BRANCH   5   6
ATOM      6  C   UNL     1      29.554  13.199 -19.029  1.00  0.00     0.000 C 
BRANCH   6   7
ATOM      7  C   UNL     1      29.027  14.134 -20.125  1.00  0.00     0.000 C 
BRANCH   7   8
ATOM      8  C   UNL     1      28.949  15.585 -19.623  1.00  0.00     0.000 C 
BRANCH   8   9
ATOM      9  C   UNL     1      30.285  16.081 -19.037  1.00  0.00     0.000 C 
BRANCH   9  10
ATOM     10  C   UNL     1      30.764  17.428 -19.610  1.00  0.00     0.000 C 
BRANCH  10  11
ATOM     11  C   UNL     1      32.292  17.526 -19.791  1.00  0.00     0.000 C 
BRANCH  11  12
ATOM     12  C   UNL     1      33.000  17.977 -18.501  1.00  0.00     0.000 C 
BRANCH  12  13
ATOM     13  C   UNL     1      34.392  17.350 -18.336  1.00  0.00     0.006 C 
BRANCH  13  14
ATOM     14  C   UNL     1      34.492  15.951 -18.960  1.00  0.00     0.053 C 
BRANCH  14  15
ATOM     15  C   UNL     1      34.650  14.912 -17.894  1.00  0.00     0.041 C 
ATOM     16  O   UNL     1      34.266  15.146 -16.717  1.00  0.00    -0.550 OA
ATOM     17  O   UNL     1      35.177  13.666 -18.210  1.00  0.00    -0.550 OA
ENDBRANCH  14  15
ENDBRANCH  13  14
ENDBRANCH  12  13
ENDBRANCH  11  12
ENDBRANCH  10  11
ENDBRANCH   9  10
ENDBRANCH   8   9
ENDBRANCH   7   8
ENDBRANCH   6   7
ENDBRANCH   5   6
ENDBRANCH   4   5
ENDBRANCH   3   4
ENDBRANCH   2   3
ENDBRANCH   1   2
BRANCH   1  18
ATOM     18  C   UNL     1      28.369  14.194 -15.808  1.00  0.00     0.000 C 
BRANCH  18  19
ATOM     19  C   UNL     1      27.057  14.951 -16.063  1.00  0.00     0.000 C 
BRANCH  19  20
ATOM     20  C   UNL     1      26.393  14.568 -17.397  1.00  0.00     0.000 C 
BRANCH  20  21
ATOM     21  C   UNL     1      26.010  13.077 -17.501  1.00  0.00     0.000 C 
BRANCH  21  22
ATOM     22  C   UNL     1      24.565  12.875 -17.981  1.00  0.00     0.000 C 
BRANCH  22  23
ATOM     23  C   UNL     1      23.572  13.582 -17.046  1.00  0.00     0.000 C 
BRANCH  23  24
ATOM     24  C   UNL     1      22.909  14.808 -17.695  1.00  0.00    -0.000 C 
BRANCH  24  25
ATOM     25  C   UNL     1      22.630  14.674 -19.205  1.00  0.00    -0.000 C 
BRANCH  25  26
ATOM     26  C   UNL     1      23.349  15.732 -20.069  1.00  0.00    -0.000 C 
BRANCH  26  27
ATOM     27  C   UNL     1      22.885  17.164 -19.746  1.00  0.00    -0.000 C 
BRANCH  27  28
ATOM     28  C   UNL     1      24.031  18.187 -19.805  1.00  0.00    -0.000 C 
BRANCH  28  29
ATOM     29  C   UNL     1      25.397  17.557 -19.475  1.00  0.00    -0.000 C 
BRANCH  29  30
ATOM     30  C   UNL     1      25.972  18.061 -18.142  1.00  0.00    -0.000 C 
BRANCH  30  31
ATOM     31  C   UNL     1      27.434  18.517 -18.260  1.00  0.00    -0.003 C 
ATOM     32  C   UNL     1      28.094  18.605 -16.888  1.00  0.00     0.004 C 
ENDBRANCH  30  31
ENDBRANCH  29  30
ENDBRANCH  28  29
ENDBRANCH  27  28
ENDBRANCH  26  27
ENDBRANCH  25  26
ENDBRANCH  24  25
ENDBRANCH  23  24
ENDBRANCH  22  23
ENDBRANCH  21  22
ENDBRANCH  20  21
ENDBRANCH  19  20
ENDBRANCH  18  19
ENDBRANCH   1  18
TORSDOF 28
ENDMDL
MODEL 5
REMARK VINA RESULT:    -2.377      3.274      8.655
REMARK INTER + INTRA:         -10.600
REMARK INTER:                  -7.630
REMARK INTRA:                  -2.969
REMARK UNBOUND:                -4.333
REMARK SMILES CCCCCCCCCCCCCCCCCCCCCCCCCCCCCC(=O)[O-]
REMARK SMILES IDX 16 1 17 2 18 3 19 4 20 5 21 6 22 7 23 8 24 9 25 10 26 11
REMARK SMILES IDX 27 12 28 13 29 14 30 15 31 16 32 17 15 18 14 19 13 20 12 21
REMARK SMILES IDX 11 22 10 23 9 24 8 25 7 26 6 27 5 28 4 29 3 30 2 31 1 32
REMARK H PARENT
REMARK Flexibility Score: inf
ROOT
ATOM      1  C   UNL     1      30.830  14.714 -16.553  1.00  0.00     0.000 C 
ENDROOT
BRANCH   1   2
ATOM      2  C   UNL     1      29.447  14.790 -15.886  1.00  0.00     0.000 C 
BRANCH   2   3
ATOM      3  C   UNL     1      28.876  13.386 -15.630  1.00  0.00     0.000 C 
BRANCH   3   4
ATOM      4  C   UNL     1      27.712  13.038 -16.572  1.00  0.00     0.000 C 
BRANCH   4   5
ATOM      5  C   UNL     1      27.209  14.249 -17.371  1.00  0.00     0.000 C 
BRANCH   5   6
ATOM      6  C   UNL     1      25.943  13.900 -18.163  1.00  0.00     0.000 C 
BRANCH   6   7
ATOM      7  C   UNL     1      25.537  15.055 -19.086  1.00  0.00     0.000 C 
BRANCH   7   8
ATOM      8  C   UNL     1      24.027  15.328 -18.999  1.00  0.00     0.000 C 
BRANCH   8   9
ATOM      9  C   UNL     1      23.183  14.182 -19.591  1.00  0.00     0.000 C 
BRANCH   9  10
ATOM     10  C   UNL     1      22.045  13.697 -18.672  1.00  0.00     0.000 C 
BRANCH  10  11
ATOM     11  C   UNL     1      22.029  14.370 -17.284  1.00  0.00     0.000 C 
BRANCH  11  12
ATOM     12  C   UNL     1      22.783  13.540 -16.230  1.00  0.00     0.000 C 
BRANCH  12  13
ATOM     13  C   UNL     1      21.875  13.065 -15.086  1.00  0.00     0.006 C 
BRANCH  13  14
ATOM     14  C   UNL     1      22.036  13.906 -13.812  1.00  0.00     0.053 C 
BRANCH  14  15
ATOM     15  C   UNL     1      23.395  13.701 -13.216  1.00  0.00     0.041 C 
ATOM     16  O   UNL     1      23.513  13.352 -12.012  1.00  0.00    -0.550 OA
ATOM     17  O   UNL     1      24.529  13.848 -14.005  1.00  0.00    -0.550 OA
ENDBRANCH  14  15
ENDBRANCH  13  14
ENDBRANCH  12  13
ENDBRANCH  11  12
ENDBRANCH  10  11
ENDBRANCH   9  10
ENDBRANCH   8   9
ENDBRANCH   7   8
ENDBRANCH   6   7
ENDBRANCH   5   6
ENDBRANCH   4   5
ENDBRANCH   3   4
ENDBRANCH   2   3
ENDBRANCH   1   2
BRANCH   1  18
ATOM     18  C   UNL     1      30.883  13.679 -17.689  1.00  0.00     0.000 C 
BRANCH  18  19
ATOM     19  C   UNL     1      32.235  12.953 -17.773  1.00  0.00     0.000 C 
BRANCH  19  20
ATOM     20  C   UNL     1      33.356  13.837 -18.344  1.00  0.00     0.000 C 
BRANCH  20  21
ATOM     21  C   UNL     1      34.308  14.412 -17.274  1.00  0.00     0.000 C 
BRANCH  21  22
ATOM     22  C   UNL     1      34.127  15.925 -17.081  1.00  0.00     0.000 C 
BRANCH  22  23
ATOM     23  C   UNL     1      34.998  16.713 -18.071  1.00  0.00     0.000 C 
BRANCH  23  24
ATOM     24  C   UNL     1      34.258  17.060 -19.374  1.00  0.00    -0.000 C 
BRANCH  24  25
ATOM     25  C   UNL     1      32.976  17.895 -19.192  1.00  0.00    -0.000 C 
BRANCH  25  26
ATOM     26  C   UNL     1      31.674  17.104 -19.444  1.00  0.00    -0.000 C 
BRANCH  26  27
ATOM     27  C   UNL     1      30.432  17.834 -18.904  1.00  0.00    -0.000 C 
BRANCH  27  28
ATOM     28  C   UNL     1      29.175  16.948 -18.908  1.00  0.00    -0.000 C 
BRANCH  28  29
ATOM     29  C   UNL     1      27.979  17.624 -18.214  1.00  0.00    -0.000 C 
BRANCH  29  30
ATOM     30  C   UNL     1      27.212  18.572 -19.149  1.00  0.00    -0.000 C 
BRANCH  30  31
ATOM     31  C   UNL     1      27.016  19.971 -18.547  1.00  0.00    -0.003 C 
ATOM     32  C   UNL     1      26.303  19.895 -17.201  1.00  0.00     0.004 C 
ENDBRANCH  30  31
ENDBRANCH  29  30
ENDBRANCH  28  29
ENDBRANCH  27  28
ENDBRANCH  26  27
ENDBRANCH  25  26
ENDBRANCH  24  25
ENDBRANCH  23  24
ENDBRANCH  22  23
ENDBRANCH  21  22
ENDBRANCH  20  21
ENDBRANCH  19  20
ENDBRANCH  18  19
ENDBRANCH   1  18
TORSDOF 28
ENDMDL
MODEL 6
REMARK VINA RESULT:    -2.180      1.776      2.387
REMARK INTER + INTRA:         -10.081
REMARK INTER:                  -6.213
REMARK INTRA:                  -3.868
REMARK UNBOUND:                -4.333
REMARK SMILES CCCCCCCCCCCCCCCCCCCCCCCCCCCCCC(=O)[O-]
REMARK SMILES IDX 16 1 17 2 18 3 19 4 20 5 21 6 22 7 23 8 24 9 25 10 26 11
REMARK SMILES IDX 27 12 28 13 29 14 30 15 31 16 32 17 15 18 14 19 13 20 12 21
REMARK SMILES IDX 11 22 10 23 9 24 8 25 7 26 6 27 5 28 4 29 3 30 2 31 1 32
REMARK H PARENT
REMARK Flexibility Score: inf
ROOT
ATOM      1  C   UNL     1      29.090  17.178 -19.207  1.00  0.00     0.000 C 
ENDROOT
BRANCH   1   2
ATOM      2  C   UNL     1      30.346  16.739 -19.977  1.00  0.00     0.000 C 
BRANCH   2   3
ATOM      3  C   UNL     1      30.572  15.223 -19.855  1.00  0.00     0.000 C 
BRANCH   3   4
ATOM      4  C   UNL     1      29.498  14.530 -19.002  1.00  0.00     0.000 C 
BRANCH   4   5
ATOM      5  C   UNL     1      30.050  13.347 -18.194  1.00  0.00     0.000 C 
BRANCH   5   6
ATOM      6  C   UNL     1      30.555  13.805 -16.820  1.00  0.00     0.000 C 
BRANCH   6   7
ATOM      7  C   UNL     1      31.820  14.661 -16.957  1.00  0.00     0.000 C 
BRANCH   7   8
ATOM      8  C   UNL     1      32.929  14.164 -16.016  1.00  0.00     0.000 C 
BRANCH   8   9
ATOM      9  C   UNL     1      33.613  12.883 -16.533  1.00  0.00     0.000 C 
BRANCH   9  10
ATOM     10  C   UNL     1      34.712  13.135 -17.583  1.00  0.00     0.000 C 
BRANCH  10  11
ATOM     11  C   UNL     1      34.254  12.910 -19.038  1.00  0.00     0.000 C 
BRANCH  11  12
ATOM     12  C   UNL     1      34.576  14.115 -19.939  1.00  0.00     0.000 C 
BRANCH  12  13
ATOM     13  C   UNL     1      33.903  15.411 -19.463  1.00  0.00     0.006 C 
BRANCH  13  14
ATOM     14  C   UNL     1      34.864  16.608 -19.450  1.00  0.00     0.053 C 
BRANCH  14  15
ATOM     15  C   UNL     1      34.595  17.484 -18.266  1.00  0.00     0.041 C 
ATOM     16  O   UNL     1      33.599  18.255 -18.260  1.00  0.00    -0.550 OA
ATOM     17  O   UNL     1      35.416  17.412 -17.147  1.00  0.00    -0.550 OA
ENDBRANCH  14  15
ENDBRANCH  13  14
ENDBRANCH  12  13
ENDBRANCH  11  12
ENDBRANCH  10  11
ENDBRANCH   9  10
ENDBRANCH   8   9
ENDBRANCH   7   8
ENDBRANCH   6   7
ENDBRANCH   5   6
ENDBRANCH   4   5
ENDBRANCH   3   4
ENDBRANCH   2   3
ENDBRANCH   1   2
BRANCH   1  18
ATOM     18  C   UNL     1      29.416  18.096 -18.018  1.00  0.00     0.000 C 
BRANCH  18  19
ATOM     19  C   UNL     1      28.217  18.307 -17.080  1.00  0.00     0.000 C 
BRANCH  19  20
ATOM     20  C   UNL     1      26.865  18.071 -17.773  1.00  0.00     0.000 C 
BRANCH  20  21
ATOM     21  C   UNL     1      26.345  19.291 -18.564  1.00  0.00     0.000 C 
BRANCH  21  22
ATOM     22  C   UNL     1      25.665  18.888 -19.882  1.00  0.00     0.000 C 
BRANCH  22  23
ATOM     23  C   UNL     1      24.881  17.577 -19.716  1.00  0.00     0.000 C 
BRANCH  23  24
ATOM     24  C   UNL     1      23.571  17.759 -18.932  1.00  0.00    -0.000 C 
BRANCH  24  25
ATOM     25  C   UNL     1      22.864  16.449 -18.534  1.00  0.00    -0.000 C 
BRANCH  25  26
ATOM     26  C   UNL     1      22.925  15.352 -19.619  1.00  0.00    -0.000 C 
BRANCH  26  27
ATOM     27  C   UNL     1      23.417  14.004 -19.061  1.00  0.00    -0.000 C 
BRANCH  27  28
ATOM     28  C   UNL     1      24.831  13.642 -19.546  1.00  0.00    -0.000 C 
BRANCH  28  29
ATOM     29  C   UNL     1      25.861  13.644 -18.403  1.00  0.00    -0.000 C 
BRANCH  29  30
ATOM     30  C   UNL     1      25.209  13.797 -17.020  1.00  0.00    -0.000 C 
BRANCH  30  31
ATOM     31  C   UNL     1      26.229  13.741 -15.873  1.00  0.00    -0.003 C 
ATOM     32  C   UNL     1      27.289  14.827 -16.026  1.00  0.00     0.004 C 
ENDBRANCH  30  31
ENDBRANCH  29  30
ENDBRANCH  28  29
ENDBRANCH  27  28
ENDBRANCH  26  27
ENDBRANCH  25  26
ENDBRANCH  24  25
ENDBRANCH  23  24
ENDBRANCH  22  23
ENDBRANCH  21  22
ENDBRANCH  20  21
ENDBRANCH  19  20
ENDBRANCH  18  19
ENDBRANCH   1  18
TORSDOF 28
ENDMDL
MODEL 7
REMARK VINA RESULT:    -2.160      3.477      7.248
REMARK INTER + INTRA:         -10.028
REMARK INTER:                  -6.739
REMARK INTRA:                  -3.289
REMARK UNBOUND:                -4.333
REMARK SMILES CCCCCCCCCCCCCCCCCCCCCCCCCCCCCC(=O)[O-]
REMARK SMILES IDX 16 1 17 2 18 3 19 4 20 5 21 6 22 7 23 8 24 9 25 10 26 11
REMARK SMILES IDX 27 12 28 13 29 14 30 15 31 16 32 17 15 18 14 19 13 20 12 21
REMARK SMILES IDX 11 22 10 23 9 24 8 25 7 26 6 27 5 28 4 29 3 30 2 31 1 32
REMARK H PARENT
REMARK Flexibility Score: inf
ROOT
ATOM      1  C   UNL     1      34.605  15.989 -17.003  1.00  0.00     0.000 C 
ENDROOT
BRANCH   1   2
ATOM      2  C   UNL     1      34.736  14.466 -17.157  1.00  0.00     0.000 C 
BRANCH   2   3
ATOM      3  C   UNL     1      33.805  13.727 -16.182  1.00  0.00     0.000 C 
BRANCH   3   4
ATOM      4  C   UNL     1      32.681  12.961 -16.900  1.00  0.00     0.000 C 
BRANCH   4   5
ATOM      5  C   UNL     1      31.547  13.879 -17.380  1.00  0.00     0.000 C 
BRANCH   5   6
ATOM      6  C   UNL     1      30.767  14.458 -16.193  1.00  0.00     0.000 C 
BRANCH   6   7
ATOM      7  C   UNL     1      29.256  14.418 -16.457  1.00  0.00     0.000 C 
BRANCH   7   8
ATOM      8  C   UNL     1      28.660  13.061 -16.051  1.00  0.00     0.000 C 
BRANCH   8   9
ATOM      9  C   UNL     1      27.167  13.158 -15.678  1.00  0.00     0.000 C 
BRANCH   9  10
ATOM     10  C   UNL     1      26.276  13.737 -16.793  1.00  0.00     0.000 C 
BRANCH  10  11
ATOM     11  C   UNL     1      24.812  13.253 -16.743  1.00  0.00     0.000 C 
BRANCH  11  12
ATOM     12  C   UNL     1      23.814  14.422 -16.812  1.00  0.00     0.000 C 
BRANCH  12  13
ATOM     13  C   UNL     1      22.550  14.176 -15.973  1.00  0.00     0.006 C 
BRANCH  13  14
ATOM     14  C   UNL     1      22.714  13.019 -14.979  1.00  0.00     0.053 C 
BRANCH  14  15
ATOM     15  C   UNL     1      22.943  13.545 -13.595  1.00  0.00     0.041 C 
ATOM     16  O   UNL     1      23.869  14.369 -13.375  1.00  0.00    -0.550 OA
ATOM     17  O   UNL     1      22.102  13.161 -12.558  1.00  0.00    -0.550 OA
ENDBRANCH  14  15
ENDBRANCH  13  14
ENDBRANCH  12  13
ENDBRANCH  11  12
ENDBRANCH  10  11
ENDBRANCH   9  10
ENDBRANCH   8   9
ENDBRANCH   7   8
ENDBRANCH   6   7
ENDBRANCH   5   6
ENDBRANCH   4   5
ENDBRANCH   3   4
ENDBRANCH   2   3
ENDBRANCH   1   2
BRANCH   1  18
ATOM     18  C   UNL     1      34.254  16.690 -18.326  1.00  0.00     0.000 C 
BRANCH  18  19
ATOM     19  C   UNL     1      34.021  18.200 -18.160  1.00  0.00     0.000 C 
BRANCH  19  20
ATOM     20  C   UNL     1      32.735  18.686 -18.850  1.00  0.00     0.000 C 
BRANCH  20  21
ATOM     21  C   UNL     1      31.936  17.566 -19.547  1.00  0.00     0.000 C 
BRANCH  21  22
ATOM     22  C   UNL     1      30.575  17.315 -18.880  1.00  0.00     0.000 C 
BRANCH  22  23
ATOM     23  C   UNL     1      29.505  16.970 -19.927  1.00  0.00     0.000 C 
BRANCH  23  24
ATOM     24  C   UNL     1      28.478  18.098 -20.124  1.00  0.00    -0.000 C 
BRANCH  24  25
ATOM     25  C   UNL     1      27.044  17.759 -19.671  1.00  0.00    -0.000 C 
BRANCH  25  26
ATOM     26  C   UNL     1      26.885  17.642 -18.140  1.00  0.00    -0.000 C 
BRANCH  26  27
ATOM     27  C   UNL     1      25.413  17.720 -17.698  1.00  0.00    -0.000 C 
BRANCH  27  28
ATOM     28  C   UNL     1      24.495  18.292 -18.790  1.00  0.00    -0.000 C 
BRANCH  28  29
ATOM     29  C   UNL     1      23.032  17.842 -18.622  1.00  0.00    -0.000 C 
BRANCH  29  30
ATOM     30  C   UNL     1      22.378  17.450 -19.956  1.00  0.00    -0.000 C 
BRANCH  30  31
ATOM     31  C   UNL     1      22.037  15.955 -20.034  1.00  0.00    -0.003 C 
ATOM     32  C   UNL     1      23.302  15.106 -20.110  1.00  0.00     0.004 C 
ENDBRANCH  30  31
ENDBRANCH  29  30
ENDBRANCH  28  29
ENDBRANCH  27  28
ENDBRANCH  26  27
ENDBRANCH  25  26
ENDBRANCH  24  25
ENDBRANCH  23  24
ENDBRANCH  22  23
ENDBRANCH  21  22
ENDBRANCH  20  21
ENDBRANCH  19  20
ENDBRANCH  18  19
ENDBRANCH   1  18
TORSDOF 28
ENDMDL
MODEL 8
REMARK VINA RESULT:    -2.147      3.166      7.027
REMARK INTER + INTRA:          -9.993
REMARK INTER:                  -6.198
REMARK INTRA:                  -3.795
REMARK UNBOUND:                -4.333
REMARK SMILES CCCCCCCCCCCCCCCCCCCCCCCCCCCCCC(=O)[O-]
REMARK SMILES IDX 16 1 17 2 18 3 19 4 20 5 21 6 22 7 23 8 24 9 25 10 26 11
REMARK SMILES IDX 27 12 28 13 29 14 30 15 31 16 32 17 15 18 14 19 13 20 12 21
REMARK SMILES IDX 11 22 10 23 9 24 8 25 7 26 6 27 5 28 4 29 3 30 2 31 1 32
REMARK H PARENT
REMARK Flexibility Score: inf
ROOT
ATOM      1  C   UNL     1      34.625  15.751 -17.291  1.00  0.00     0.000 C 
ENDROOT
BRANCH   1   2
ATOM      2  C   UNL     1      34.573  14.249 -17.610  1.00  0.00     0.000 C 
BRANCH   2   3
ATOM      3  C   UNL     1      33.126  13.731 -17.617  1.00  0.00     0.000 C 
BRANCH   3   4
ATOM      4  C   UNL     1      32.776  12.962 -18.901  1.00  0.00     0.000 C 
BRANCH   4   5
ATOM      5  C   UNL     1      31.950  13.797 -19.890  1.00  0.00     0.000 C 
BRANCH   5   6
ATOM      6  C   UNL     1      30.753  14.454 -19.191  1.00  0.00     0.000 C 
BRANCH   6   7
ATOM      7  C   UNL     1      29.463  14.240 -19.993  1.00  0.00     0.000 C 
BRANCH   7   8
ATOM      8  C   UNL     1      28.771  12.929 -19.587  1.00  0.00     0.000 C 
BRANCH   8   9
ATOM      9  C   UNL     1      27.283  12.897 -19.986  1.00  0.00     0.000 C 
BRANCH   9  10
ATOM     10  C   UNL     1      26.444  14.039 -19.381  1.00  0.00     0.000 C 
BRANCH  10  11
ATOM     11  C   UNL     1      25.119  14.307 -20.125  1.00  0.00     0.000 C 
BRANCH  11  12
ATOM     12  C   UNL     1      23.904  14.237 -19.184  1.00  0.00     0.000 C 
BRANCH  12  13
ATOM     13  C   UNL     1      23.774  12.879 -18.478  1.00  0.00     0.006 C 
BRANCH  13  14
ATOM     14  C   UNL     1      22.827  12.925 -17.271  1.00  0.00     0.053 C 
BRANCH  14  15
ATOM     15  C   UNL     1      23.281  13.959 -16.287  1.00  0.00     0.041 C 
ATOM     16  O   UNL     1      22.529  14.924 -15.989  1.00  0.00    -0.550 OA
ATOM     17  O   UNL     1      24.516  13.830 -15.664  1.00  0.00    -0.550 OA
ENDBRANCH  14  15
ENDBRANCH  13  14
ENDBRANCH  12  13
ENDBRANCH  11  12
ENDBRANCH  10  11
ENDBRANCH   9  10
ENDBRANCH   8   9
ENDBRANCH   7   8
ENDBRANCH   6   7
ENDBRANCH   5   6
ENDBRANCH   4   5
ENDBRANCH   3   4
ENDBRANCH   2   3
ENDBRANCH   1   2
BRANCH   1  18
ATOM     18  C   UNL     1      34.435  16.629 -18.539  1.00  0.00     0.000 C 
BRANCH  18  19
ATOM     19  C   UNL     1      34.465  18.132 -18.223  1.00  0.00     0.000 C 
BRANCH  19  20
ATOM     20  C   UNL     1      33.162  18.852 -18.613  1.00  0.00     0.000 C 
BRANCH  20  21
ATOM     21  C   UNL     1      32.108  17.931 -19.264  1.00  0.00     0.000 C 
BRANCH  21  22
ATOM     22  C   UNL     1      30.934  17.627 -18.321  1.00  0.00     0.000 C 
BRANCH  22  23
ATOM     23  C   UNL     1      29.592  17.742 -19.061  1.00  0.00     0.000 C 
BRANCH  23  24
ATOM     24  C   UNL     1      28.740  18.926 -18.573  1.00  0.00    -0.000 C 
BRANCH  24  25
ATOM     25  C   UNL     1      27.539  18.541 -17.687  1.00  0.00    -0.000 C 
BRANCH  25  26
ATOM     26  C   UNL     1      26.792  17.276 -18.164  1.00  0.00    -0.000 C 
BRANCH  26  27
ATOM     27  C   UNL     1      26.837  16.143 -17.123  1.00  0.00    -0.000 C 
BRANCH  27  28
ATOM     28  C   UNL     1      27.877  16.393 -16.018  1.00  0.00    -0.000 C 
BRANCH  28  29
ATOM     29  C   UNL     1      28.993  15.333 -16.012  1.00  0.00    -0.000 C 
BRANCH  29  30
ATOM     30  C   UNL     1      28.460  13.917 -15.748  1.00  0.00    -0.000 C 
BRANCH  30  31
ATOM     31  C   UNL     1      29.511  12.996 -15.111  1.00  0.00    -0.003 C 
ATOM     32  C   UNL     1      30.880  13.198 -15.752  1.00  0.00     0.004 C 
ENDBRANCH  30  31
ENDBRANCH  29  30
ENDBRANCH  28  29
ENDBRANCH  27  28
ENDBRANCH  26  27
ENDBRANCH  25  26
ENDBRANCH  24  25
ENDBRANCH  23  24
ENDBRANCH  22  23
ENDBRANCH  21  22
ENDBRANCH  20  21
ENDBRANCH  19  20
ENDBRANCH  18  19
ENDBRANCH   1  18
TORSDOF 28
ENDMDL
