MODEL 1
REMARK VINA RESULT:    -7.256      0.000      0.000
REMARK INTER + INTRA:          -9.018
REMARK INTER:                  -8.741
REMARK INTRA:                  -0.277
REMARK UNBOUND:                -0.277
REMARK SMILES O=c1c(O)c(-c2ccc(O)c(O)c2)oc2cc(O)cc(O)c12
REMARK SMILES IDX 5 1 3 2 2 3 1 4 22 5 20 6 19 7 17 8 16 9 15 10 14 11 6 12
REMARK SMILES IDX 7 13 8 14 9 15 13 16 11 17 10 18 12 20 4 22 21 24 18 26
REMARK H PARENT 10 19 12 21 4 23 21 25 18 27
REMARK Flexibility Score: inf
ROOT
ATOM      1  C   UNL     1     -38.016   4.926  79.488  1.00  0.00     0.180 A 
ATOM      2  C   UNL     1     -38.549   4.937  80.787  1.00  0.00     0.208 A 
ATOM      3  C   UNL     1     -39.871   4.506  80.984  1.00  0.00     0.238 A 
ATOM      4  O   UNL     1     -40.327   4.466  82.157  1.00  0.00    -0.285 OA
ATOM      5  C   UNL     1     -40.646   4.083  79.877  1.00  0.00     0.111 A 
ATOM      6  C   UNL     1     -42.008   3.664  79.955  1.00  0.00     0.134 A 
ATOM      7  C   UNL     1     -42.636   3.143  78.816  1.00  0.00     0.093 A 
ATOM      8  C   UNL     1     -41.971   3.088  77.589  1.00  0.00     0.123 A 
ATOM      9  C   UNL     1     -40.662   3.551  77.489  1.00  0.00     0.094 A 
ATOM     10  C   UNL     1     -39.997   4.042  78.615  1.00  0.00     0.146 A 
ATOM     11  O   UNL     1     -38.745   4.462  78.480  1.00  0.00    -0.452 OA
ENDROOT
BRANCH   1  12
ATOM     12  C   UNL     1     -36.639   5.390  79.198  1.00  0.00     0.025 A 
ATOM     13  C   UNL     1     -35.520   4.589  79.488  1.00  0.00     0.016 A 
ATOM     14  C   UNL     1     -34.230   5.058  79.230  1.00  0.00     0.051 A 
ATOM     15  C   UNL     1     -34.037   6.338  78.691  1.00  0.00     0.157 A 
ATOM     16  C   UNL     1     -36.439   6.680  78.678  1.00  0.00     0.062 A 
ATOM     17  C   UNL     1     -35.145   7.151  78.417  1.00  0.00     0.158 A 
BRANCH  15  18
ATOM     18  O   UNL     1     -32.751   6.808  78.430  1.00  0.00    -0.504 OA
ATOM     19  H   UNL     1     -32.514   7.788  78.537  1.00  0.00     0.293 HD
ENDBRANCH  15  18
BRANCH  17  20
ATOM     20  O   UNL     1     -34.951   8.426  77.888  1.00  0.00    -0.504 OA
ATOM     21  H   UNL     1     -35.639   9.159  78.007  1.00  0.00     0.293 HD
ENDBRANCH  17  20
ENDBRANCH   1  12
BRANCH   2  22
ATOM     22  O   UNL     1     -37.760   5.337  81.870  1.00  0.00    -0.502 OA
ATOM     23  H   UNL     1     -38.127   5.418  82.810  1.00  0.00     0.293 HD
ENDBRANCH   2  22
BRANCH   6  24
ATOM     24  O   UNL     1     -42.791   3.763  81.109  1.00  0.00    -0.507 OA
ATOM     25  H   UNL     1     -43.106   2.978  81.658  1.00  0.00     0.293 HD
ENDBRANCH   6  24
BRANCH   8  26
ATOM     26  O   UNL     1     -42.610   2.583  76.457  1.00  0.00    -0.508 OA
ATOM     27  H   UNL     1     -42.828   1.598  76.367  1.00  0.00     0.293 HD
ENDBRANCH   8  26
TORSDOF 6
ENDMDL
MODEL 2
REMARK VINA RESULT:    -6.585      1.811      6.811
REMARK INTER + INTRA:          -8.210
REMARK INTER:                  -8.472
REMARK INTRA:                   0.262
REMARK UNBOUND:                -0.277
REMARK SMILES O=c1c(O)c(-c2ccc(O)c(O)c2)oc2cc(O)cc(O)c12
REMARK SMILES IDX 5 1 3 2 2 3 1 4 22 5 20 6 19 7 17 8 16 9 15 10 14 11 6 12
REMARK SMILES IDX 7 13 8 14 9 15 13 16 11 17 10 18 12 20 4 22 21 24 18 26
REMARK H PARENT 10 19 12 21 4 23 21 25 18 27
REMARK Flexibility Score: inf
ROOT
ATOM      1  C   UNL     1     -38.301   3.730  80.347  1.00  0.00     0.180 A 
ATOM      2  C   UNL     1     -38.146   3.379  81.699  1.00  0.00     0.208 A 
ATOM      3  C   UNL     1     -36.899   3.577  82.316  1.00  0.00     0.238 A 
ATOM      4  O   UNL     1     -36.781   3.313  83.540  1.00  0.00    -0.285 OA
ATOM      5  C   UNL     1     -35.821   4.109  81.568  1.00  0.00     0.111 A 
ATOM      6  C   UNL     1     -34.505   4.315  82.079  1.00  0.00     0.134 A 
ATOM      7  C   UNL     1     -33.551   4.968  81.287  1.00  0.00     0.093 A 
ATOM      8  C   UNL     1     -33.848   5.364  79.982  1.00  0.00     0.123 A 
ATOM      9  C   UNL     1     -35.111   5.113  79.453  1.00  0.00     0.094 A 
ATOM     10  C   UNL     1     -36.095   4.497  80.230  1.00  0.00     0.146 A 
ATOM     11  O   UNL     1     -37.290   4.287  79.691  1.00  0.00    -0.452 OA
ENDROOT
BRANCH   1  12
ATOM     12  C   UNL     1     -39.577   3.526  79.623  1.00  0.00     0.025 A 
ATOM     13  C   UNL     1     -39.599   3.206  78.254  1.00  0.00     0.016 A 
ATOM     14  C   UNL     1     -40.815   3.043  77.586  1.00  0.00     0.051 A 
ATOM     15  C   UNL     1     -42.026   3.211  78.272  1.00  0.00     0.157 A 
ATOM     16  C   UNL     1     -40.793   3.714  80.300  1.00  0.00     0.062 A 
ATOM     17  C   UNL     1     -42.014   3.550  79.631  1.00  0.00     0.158 A 
BRANCH  15  18
ATOM     18  O   UNL     1     -43.241   3.048  77.609  1.00  0.00    -0.504 OA
ATOM     19  H   UNL     1     -43.932   2.379  77.928  1.00  0.00     0.293 HD
ENDBRANCH  15  18
BRANCH  17  20
ATOM     20  O   UNL     1     -43.220   3.724  80.309  1.00  0.00    -0.504 OA
ATOM     21  H   UNL     1     -43.797   4.543  80.163  1.00  0.00     0.293 HD
ENDBRANCH  17  20
ENDBRANCH   1  12
BRANCH   2  22
ATOM     22  O   UNL     1     -39.229   2.876  82.425  1.00  0.00    -0.502 OA
ATOM     23  H   UNL     1     -39.112   2.269  83.227  1.00  0.00     0.293 HD
ENDBRANCH   2  22
BRANCH   6  24
ATOM     24  O   UNL     1     -34.078   3.875  83.335  1.00  0.00    -0.507 OA
ATOM     25  H   UNL     1     -33.122   3.663  83.576  1.00  0.00     0.293 HD
ENDBRANCH   6  24
BRANCH   8  26
ATOM     26  O   UNL     1     -32.887   5.999  79.196  1.00  0.00    -0.508 OA
ATOM     27  H   UNL     1     -32.950   6.006  78.185  1.00  0.00     0.293 HD
ENDBRANCH   8  26
TORSDOF 6
ENDMDL
MODEL 3
REMARK VINA RESULT:    -6.319      1.679      7.155
REMARK INTER + INTRA:          -7.890
REMARK INTER:                  -7.823
REMARK INTRA:                  -0.066
REMARK UNBOUND:                -0.277
REMARK SMILES O=c1c(O)c(-c2ccc(O)c(O)c2)oc2cc(O)cc(O)c12
REMARK SMILES IDX 5 1 3 2 2 3 1 4 22 5 20 6 19 7 17 8 16 9 15 10 14 11 6 12
REMARK SMILES IDX 7 13 8 14 9 15 13 16 11 17 10 18 12 20 4 22 21 24 18 26
REMARK H PARENT 10 19 12 21 4 23 21 25 18 27
REMARK Flexibility Score: inf
ROOT
ATOM      1  C   UNL     1     -38.367   4.695  79.316  1.00  0.00     0.180 A 
ATOM      2  C   UNL     1     -37.888   5.621  78.373  1.00  0.00     0.208 A 
ATOM      3  C   UNL     1     -36.577   6.107  78.502  1.00  0.00     0.238 A 
ATOM      4  O   UNL     1     -36.134   6.894  77.625  1.00  0.00    -0.285 OA
ATOM      5  C   UNL     1     -35.768   5.674  79.581  1.00  0.00     0.111 A 
ATOM      6  C   UNL     1     -34.439   6.130  79.832  1.00  0.00     0.134 A 
ATOM      7  C   UNL     1     -33.686   5.536  80.853  1.00  0.00     0.093 A 
ATOM      8  C   UNL     1     -34.236   4.548  81.672  1.00  0.00     0.123 A 
ATOM      9  C   UNL     1     -35.552   4.137  81.473  1.00  0.00     0.094 A 
ATOM     10  C   UNL     1     -36.316   4.685  80.440  1.00  0.00     0.146 A 
ATOM     11  O   UNL     1     -37.563   4.258  80.278  1.00  0.00    -0.452 OA
ENDROOT
BRANCH   1  12
ATOM     12  C   UNL     1     -39.746   4.158  79.260  1.00  0.00     0.025 A 
ATOM     13  C   UNL     1     -40.229   3.497  78.116  1.00  0.00     0.016 A 
ATOM     14  C   UNL     1     -41.541   3.020  78.077  1.00  0.00     0.051 A 
ATOM     15  C   UNL     1     -42.394   3.208  79.172  1.00  0.00     0.157 A 
ATOM     16  C   UNL     1     -40.612   4.362  80.347  1.00  0.00     0.062 A 
ATOM     17  C   UNL     1     -41.929   3.883  80.309  1.00  0.00     0.158 A 
BRANCH  15  18
ATOM     18  O   UNL     1     -43.704   2.732  79.137  1.00  0.00    -0.504 OA
ATOM     19  H   UNL     1     -43.977   1.977  78.520  1.00  0.00     0.293 HD
ENDBRANCH  15  18
BRANCH  17  20
ATOM     20  O   UNL     1     -42.782   4.074  81.395  1.00  0.00    -0.504 OA
ATOM     21  H   UNL     1     -42.482   3.887  82.343  1.00  0.00     0.293 HD
ENDBRANCH  17  20
ENDBRANCH   1  12
BRANCH   2  22
ATOM     22  O   UNL     1     -38.695   6.019  77.304  1.00  0.00    -0.502 OA
ATOM     23  H   UNL     1     -39.579   6.495  77.437  1.00  0.00     0.293 HD
ENDBRANCH   2  22
BRANCH   6  24
ATOM     24  O   UNL     1     -33.828   7.175  79.133  1.00  0.00    -0.507 OA
ATOM     25  H   UNL     1     -33.365   7.077  78.243  1.00  0.00     0.293 HD
ENDBRANCH   6  24
BRANCH   8  26
ATOM     26  O   UNL     1     -33.484   3.973  82.695  1.00  0.00    -0.508 OA
ATOM     27  H   UNL     1     -32.472   3.983  82.678  1.00  0.00     0.293 HD
ENDBRANCH   8  26
TORSDOF 6
ENDMDL
MODEL 4
REMARK VINA RESULT:    -6.310      1.486      6.921
REMARK INTER + INTRA:          -7.878
REMARK INTER:                  -7.589
REMARK INTRA:                  -0.289
REMARK UNBOUND:                -0.277
REMARK SMILES O=c1c(O)c(-c2ccc(O)c(O)c2)oc2cc(O)cc(O)c12
REMARK SMILES IDX 5 1 3 2 2 3 1 4 22 5 20 6 19 7 17 8 16 9 15 10 14 11 6 12
REMARK SMILES IDX 7 13 8 14 9 15 13 16 11 17 10 18 12 20 4 22 21 24 18 26
REMARK H PARENT 10 19 12 21 4 23 21 25 18 27
REMARK Flexibility Score: inf
ROOT
ATOM      1  C   UNL     1     -38.378   5.018  78.758  1.00  0.00     0.180 A 
ATOM      2  C   UNL     1     -37.239   4.397  79.298  1.00  0.00     0.208 A 
ATOM      3  C   UNL     1     -35.993   5.033  79.175  1.00  0.00     0.238 A 
ATOM      4  O   UNL     1     -34.985   4.500  79.708  1.00  0.00    -0.285 OA
ATOM      5  C   UNL     1     -35.901   6.274  78.499  1.00  0.00     0.111 A 
ATOM      6  C   UNL     1     -34.685   6.989  78.280  1.00  0.00     0.134 A 
ATOM      7  C   UNL     1     -34.729   8.269  77.714  1.00  0.00     0.093 A 
ATOM      8  C   UNL     1     -35.938   8.833  77.300  1.00  0.00     0.123 A 
ATOM      9  C   UNL     1     -37.123   8.119  77.455  1.00  0.00     0.094 A 
ATOM     10  C   UNL     1     -37.116   6.854  78.049  1.00  0.00     0.146 A 
ATOM     11  O   UNL     1     -38.269   6.212  78.188  1.00  0.00    -0.452 OA
ENDROOT
BRANCH   1  12
ATOM     12  C   UNL     1     -39.720   4.396  78.827  1.00  0.00     0.025 A 
ATOM     13  C   UNL     1     -40.287   3.751  77.714  1.00  0.00     0.016 A 
ATOM     14  C   UNL     1     -41.566   3.194  77.795  1.00  0.00     0.051 A 
ATOM     15  C   UNL     1     -42.301   3.283  78.985  1.00  0.00     0.157 A 
ATOM     16  C   UNL     1     -40.471   4.501  80.011  1.00  0.00     0.062 A 
ATOM     17  C   UNL     1     -41.753   3.940  80.094  1.00  0.00     0.158 A 
BRANCH  15  18
ATOM     18  O   UNL     1     -43.576   2.726  79.071  1.00  0.00    -0.504 OA
ATOM     19  H   UNL     1     -43.919   2.079  78.370  1.00  0.00     0.293 HD
ENDBRANCH  15  18
BRANCH  17  20
ATOM     20  O   UNL     1     -42.489   4.034  81.274  1.00  0.00    -0.504 OA
ATOM     21  H   UNL     1     -42.236   4.687  82.005  1.00  0.00     0.293 HD
ENDBRANCH  17  20
ENDBRANCH   1  12
BRANCH   2  22
ATOM     22  O   UNL     1     -37.355   3.183  79.981  1.00  0.00    -0.502 OA
ATOM     23  H   UNL     1     -38.201   2.910  80.465  1.00  0.00     0.293 HD
ENDBRANCH   2  22
BRANCH   6  24
ATOM     24  O   UNL     1     -33.416   6.479  78.571  1.00  0.00    -0.507 OA
ATOM     25  H   UNL     1     -33.206   5.869  79.346  1.00  0.00     0.293 HD
ENDBRANCH   6  24
BRANCH   8  26
ATOM     26  O   UNL     1     -35.970  10.101  76.724  1.00  0.00    -0.508 OA
ATOM     27  H   UNL     1     -36.395  10.888  77.198  1.00  0.00     0.293 HD
ENDBRANCH   8  26
TORSDOF 6
ENDMDL
MODEL 5
REMARK VINA RESULT:    -6.264      1.683      3.281
REMARK INTER + INTRA:          -7.823
REMARK INTER:                  -7.509
REMARK INTRA:                  -0.314
REMARK UNBOUND:                -0.277
REMARK SMILES O=c1c(O)c(-c2ccc(O)c(O)c2)oc2cc(O)cc(O)c12
REMARK SMILES IDX 5 1 3 2 2 3 1 4 22 5 20 6 19 7 17 8 16 9 15 10 14 11 6 12
REMARK SMILES IDX 7 13 8 14 9 15 13 16 11 17 10 18 12 20 4 22 21 24 18 26
REMARK H PARENT 10 19 12 21 4 23 21 25 18 27
REMARK Flexibility Score: inf
ROOT
ATOM      1  C   UNL     1     -37.684   5.269  80.091  1.00  0.00     0.180 A 
ATOM      2  C   UNL     1     -38.727   5.235  79.151  1.00  0.00     0.208 A 
ATOM      3  C   UNL     1     -40.006   4.828  79.566  1.00  0.00     0.238 A 
ATOM      4  O   UNL     1     -40.949   4.851  78.732  1.00  0.00    -0.285 OA
ATOM      5  C   UNL     1     -40.220   4.446  80.912  1.00  0.00     0.111 A 
ATOM      6  C   UNL     1     -41.464   3.979  81.434  1.00  0.00     0.134 A 
ATOM      7  C   UNL     1     -41.594   3.754  82.810  1.00  0.00     0.093 A 
ATOM      8  C   UNL     1     -40.508   3.916  83.673  1.00  0.00     0.123 A 
ATOM      9  C   UNL     1     -39.274   4.313  83.165  1.00  0.00     0.094 A 
ATOM     10  C   UNL     1     -39.122   4.581  81.802  1.00  0.00     0.146 A 
ATOM     11  O   UNL     1     -37.932   4.969  81.361  1.00  0.00    -0.452 OA
ENDROOT
BRANCH   1  12
ATOM     12  C   UNL     1     -36.305   5.663  79.723  1.00  0.00     0.025 A 
ATOM     13  C   UNL     1     -35.324   4.702  79.423  1.00  0.00     0.016 A 
ATOM     14  C   UNL     1     -34.022   5.096  79.102  1.00  0.00     0.051 A 
ATOM     15  C   UNL     1     -33.679   6.454  79.089  1.00  0.00     0.157 A 
ATOM     16  C   UNL     1     -35.949   7.023  79.729  1.00  0.00     0.062 A 
ATOM     17  C   UNL     1     -34.644   7.419  79.406  1.00  0.00     0.158 A 
BRANCH  15  18
ATOM     18  O   UNL     1     -32.382   6.852  78.767  1.00  0.00    -0.504 OA
ATOM     19  H   UNL     1     -31.594   6.223  78.871  1.00  0.00     0.293 HD
ENDBRANCH  15  18
BRANCH  17  20
ATOM     20  O   UNL     1     -34.297   8.770  79.399  1.00  0.00    -0.504 OA
ATOM     21  H   UNL     1     -34.397   9.338  78.567  1.00  0.00     0.293 HD
ENDBRANCH  17  20
ENDBRANCH   1  12
BRANCH   2  22
ATOM     22  O   UNL     1     -38.500   5.637  77.831  1.00  0.00    -0.502 OA
ATOM     23  H   UNL     1     -37.578   5.630  77.412  1.00  0.00     0.293 HD
ENDBRANCH   2  22
BRANCH   6  24
ATOM     24  O   UNL     1     -42.583   3.697  80.646  1.00  0.00    -0.507 OA
ATOM     25  H   UNL     1     -43.453   4.206  80.679  1.00  0.00     0.293 HD
ENDBRANCH   6  24
BRANCH   8  26
ATOM     26  O   UNL     1     -40.643   3.674  85.039  1.00  0.00    -0.508 OA
ATOM     27  H   UNL     1     -39.940   3.164  85.558  1.00  0.00     0.293 HD
ENDBRANCH   8  26
TORSDOF 6
ENDMDL
MODEL 6
REMARK VINA RESULT:    -6.212      8.947     10.789
REMARK INTER + INTRA:          -7.761
REMARK INTER:                  -7.452
REMARK INTRA:                  -0.309
REMARK UNBOUND:                -0.277
REMARK SMILES O=c1c(O)c(-c2ccc(O)c(O)c2)oc2cc(O)cc(O)c12
REMARK SMILES IDX 5 1 3 2 2 3 1 4 22 5 20 6 19 7 17 8 16 9 15 10 14 11 6 12
REMARK SMILES IDX 7 13 8 14 9 15 13 16 11 17 10 18 12 20 4 22 21 24 18 26
REMARK H PARENT 10 19 12 21 4 23 21 25 18 27
REMARK Flexibility Score: inf
ROOT
ATOM      1  C   UNL     1     -41.701  -4.375  82.464  1.00  0.00     0.180 A 
ATOM      2  C   UNL     1     -42.208  -5.324  83.367  1.00  0.00     0.208 A 
ATOM      3  C   UNL     1     -43.038  -6.349  82.883  1.00  0.00     0.238 A 
ATOM      4  O   UNL     1     -43.446  -7.228  83.686  1.00  0.00    -0.285 OA
ATOM      5  C   UNL     1     -43.361  -6.401  81.505  1.00  0.00     0.111 A 
ATOM      6  C   UNL     1     -44.224  -7.371  80.912  1.00  0.00     0.134 A 
ATOM      7  C   UNL     1     -44.368  -7.406  79.519  1.00  0.00     0.093 A 
ATOM      8  C   UNL     1     -43.733  -6.466  78.705  1.00  0.00     0.123 A 
ATOM      9  C   UNL     1     -42.937  -5.478  79.280  1.00  0.00     0.094 A 
ATOM     10  C   UNL     1     -42.744  -5.440  80.662  1.00  0.00     0.146 A 
ATOM     11  O   UNL     1     -41.968  -4.489  81.169  1.00  0.00    -0.452 OA
ENDROOT
BRANCH   1  12
ATOM     12  C   UNL     1     -40.841  -3.252  82.904  1.00  0.00     0.025 A 
ATOM     13  C   UNL     1     -41.370  -1.969  83.133  1.00  0.00     0.016 A 
ATOM     14  C   UNL     1     -40.536  -0.919  83.523  1.00  0.00     0.051 A 
ATOM     15  C   UNL     1     -39.159  -1.131  83.678  1.00  0.00     0.157 A 
ATOM     16  C   UNL     1     -39.457  -3.453  83.040  1.00  0.00     0.062 A 
ATOM     17  C   UNL     1     -38.619  -2.400  83.433  1.00  0.00     0.158 A 
BRANCH  15  18
ATOM     18  O   UNL     1     -38.323  -0.086  84.069  1.00  0.00    -0.504 OA
ATOM     19  H   UNL     1     -38.339   0.279  85.013  1.00  0.00     0.293 HD
ENDBRANCH  15  18
BRANCH  17  20
ATOM     20  O   UNL     1     -37.248  -2.606  83.580  1.00  0.00    -0.504 OA
ATOM     21  H   UNL     1     -36.800  -3.449  83.243  1.00  0.00     0.293 HD
ENDBRANCH  17  20
ENDBRANCH   1  12
BRANCH   2  22
ATOM     22  O   UNL     1     -41.860  -5.267  84.719  1.00  0.00    -0.502 OA
ATOM     23  H   UNL     1     -42.343  -5.804  85.429  1.00  0.00     0.293 HD
ENDBRANCH   2  22
BRANCH   6  24
ATOM     24  O   UNL     1     -44.976  -8.296  81.641  1.00  0.00    -0.507 OA
ATOM     25  H   UNL     1     -44.629  -9.179  81.981  1.00  0.00     0.293 HD
ENDBRANCH   6  24
BRANCH   8  26
ATOM     26  O   UNL     1     -43.895  -6.499  77.321  1.00  0.00    -0.508 OA
ATOM     27  H   UNL     1     -44.814  -6.496  76.896  1.00  0.00     0.293 HD
ENDBRANCH   8  26
TORSDOF 6
ENDMDL
MODEL 7
REMARK VINA RESULT:    -6.206      1.840      7.305
REMARK INTER + INTRA:          -7.754
REMARK INTER:                  -7.475
REMARK INTRA:                  -0.279
REMARK UNBOUND:                -0.277
REMARK SMILES O=c1c(O)c(-c2ccc(O)c(O)c2)oc2cc(O)cc(O)c12
REMARK SMILES IDX 5 1 3 2 2 3 1 4 22 5 20 6 19 7 17 8 16 9 15 10 14 11 6 12
REMARK SMILES IDX 7 13 8 14 9 15 13 16 11 17 10 18 12 20 4 22 21 24 18 26
REMARK H PARENT 10 19 12 21 4 23 21 25 18 27
REMARK Flexibility Score: inf
ROOT
ATOM      1  C   UNL     1     -38.321   6.341  78.277  1.00  0.00     0.180 A 
ATOM      2  C   UNL     1     -38.580   7.494  77.516  1.00  0.00     0.208 A 
ATOM      3  C   UNL     1     -37.513   8.343  77.181  1.00  0.00     0.238 A 
ATOM      4  O   UNL     1     -37.741   9.344  76.454  1.00  0.00    -0.285 OA
ATOM      5  C   UNL     1     -36.203   8.036  77.625  1.00  0.00     0.111 A 
ATOM      6  C   UNL     1     -35.054   8.846  77.379  1.00  0.00     0.134 A 
ATOM      7  C   UNL     1     -33.788   8.379  77.754  1.00  0.00     0.093 A 
ATOM      8  C   UNL     1     -33.638   7.163  78.423  1.00  0.00     0.123 A 
ATOM      9  C   UNL     1     -34.759   6.394  78.721  1.00  0.00     0.094 A 
ATOM     10  C   UNL     1     -36.032   6.815  78.328  1.00  0.00     0.146 A 
ATOM     11  O   UNL     1     -37.073   6.047  78.622  1.00  0.00    -0.452 OA
ENDROOT
BRANCH   1  12
ATOM     12  C   UNL     1     -39.399   5.412  78.690  1.00  0.00     0.025 A 
ATOM     13  C   UNL     1     -39.894   5.403  80.006  1.00  0.00     0.016 A 
ATOM     14  C   UNL     1     -40.893   4.501  80.379  1.00  0.00     0.051 A 
ATOM     15  C   UNL     1     -41.403   3.586  79.447  1.00  0.00     0.157 A 
ATOM     16  C   UNL     1     -39.898   4.479  77.766  1.00  0.00     0.062 A 
ATOM     17  C   UNL     1     -40.902   3.574  78.139  1.00  0.00     0.158 A 
BRANCH  15  18
ATOM     18  O   UNL     1     -42.401   2.686  79.815  1.00  0.00    -0.504 OA
ATOM     19  H   UNL     1     -43.083   2.350  79.146  1.00  0.00     0.293 HD
ENDBRANCH  15  18
BRANCH  17  20
ATOM     20  O   UNL     1     -41.406   2.659  77.216  1.00  0.00    -0.504 OA
ATOM     21  H   UNL     1     -40.941   1.777  77.037  1.00  0.00     0.293 HD
ENDBRANCH  17  20
ENDBRANCH   1  12
BRANCH   2  22
ATOM     22  O   UNL     1     -39.876   7.766  77.069  1.00  0.00    -0.502 OA
ATOM     23  H   UNL     1     -40.147   8.672  76.707  1.00  0.00     0.293 HD
ENDBRANCH   2  22
BRANCH   6  24
ATOM     24  O   UNL     1     -35.105  10.117  76.800  1.00  0.00    -0.507 OA
ATOM     25  H   UNL     1     -34.783  10.964  77.243  1.00  0.00     0.293 HD
ENDBRANCH   6  24
BRANCH   8  26
ATOM     26  O   UNL     1     -32.375   6.714  78.806  1.00  0.00    -0.508 OA
ATOM     27  H   UNL     1     -32.025   5.808  78.519  1.00  0.00     0.293 HD
ENDBRANCH   8  26
TORSDOF 6
ENDMDL
MODEL 8
REMARK VINA RESULT:    -6.086      9.970     10.977
REMARK INTER + INTRA:          -7.609
REMARK INTER:                  -7.466
REMARK INTRA:                  -0.143
REMARK UNBOUND:                -0.277
REMARK SMILES O=c1c(O)c(-c2ccc(O)c(O)c2)oc2cc(O)cc(O)c12
REMARK SMILES IDX 5 1 3 2 2 3 1 4 22 5 20 6 19 7 17 8 16 9 15 10 14 11 6 12
REMARK SMILES IDX 7 13 8 14 9 15 13 16 11 17 10 18 12 20 4 22 21 24 18 26
REMARK H PARENT 10 19 12 21 4 23 21 25 18 27
REMARK Flexibility Score: inf
ROOT
ATOM      1  C   UNL     1     -37.715  -4.657  83.650  1.00  0.00     0.180 A 
ATOM      2  C   UNL     1     -37.642  -3.256  83.733  1.00  0.00     0.208 A 
ATOM      3  C   UNL     1     -38.815  -2.502  83.568  1.00  0.00     0.238 A 
ATOM      4  O   UNL     1     -38.754  -1.252  83.697  1.00  0.00    -0.285 OA
ATOM      5  C   UNL     1     -40.043  -3.158  83.306  1.00  0.00     0.111 A 
ATOM      6  C   UNL     1     -41.285  -2.493  83.083  1.00  0.00     0.134 A 
ATOM      7  C   UNL     1     -42.460  -3.246  82.963  1.00  0.00     0.093 A 
ATOM      8  C   UNL     1     -42.427  -4.642  82.994  1.00  0.00     0.123 A 
ATOM      9  C   UNL     1     -41.211  -5.302  83.152  1.00  0.00     0.094 A 
ATOM     10  C   UNL     1     -40.027  -4.578  83.311  1.00  0.00     0.146 A 
ATOM     11  O   UNL     1     -38.891  -5.245  83.470  1.00  0.00    -0.452 OA
ENDROOT
BRANCH   1  12
ATOM     12  C   UNL     1     -36.517  -5.517  83.789  1.00  0.00     0.025 A 
ATOM     13  C   UNL     1     -35.775  -5.553  84.983  1.00  0.00     0.016 A 
ATOM     14  C   UNL     1     -34.634  -6.353  85.082  1.00  0.00     0.051 A 
ATOM     15  C   UNL     1     -34.209  -7.117  83.986  1.00  0.00     0.157 A 
ATOM     16  C   UNL     1     -36.075  -6.269  82.687  1.00  0.00     0.062 A 
ATOM     17  C   UNL     1     -34.930  -7.072  82.786  1.00  0.00     0.158 A 
BRANCH  15  18
ATOM     18  O   UNL     1     -33.072  -7.917  84.082  1.00  0.00    -0.504 OA
ATOM     19  H   UNL     1     -33.029  -8.830  83.645  1.00  0.00     0.293 HD
ENDBRANCH  15  18
BRANCH  17  20
ATOM     20  O   UNL     1     -34.502  -7.828  81.695  1.00  0.00    -0.504 OA
ATOM     21  H   UNL     1     -35.071  -8.572  81.311  1.00  0.00     0.293 HD
ENDBRANCH  17  20
ENDBRANCH   1  12
BRANCH   2  22
ATOM     22  O   UNL     1     -36.424  -2.629  84.014  1.00  0.00    -0.502 OA
ATOM     23  H   UNL     1     -36.305  -1.999  84.797  1.00  0.00     0.293 HD
ENDBRANCH   2  22
BRANCH   6  24
ATOM     24  O   UNL     1     -41.415  -1.108  82.943  1.00  0.00    -0.507 OA
ATOM     25  H   UNL     1     -41.190  -0.434  83.659  1.00  0.00     0.293 HD
ENDBRANCH   6  24
BRANCH   8  26
ATOM     26  O   UNL     1     -43.599  -5.384  82.859  1.00  0.00    -0.508 OA
ATOM     27  H   UNL     1     -43.589  -6.396  82.862  1.00  0.00     0.293 HD
ENDBRANCH   8  26
TORSDOF 6
ENDMDL
MODEL 9
REMARK VINA RESULT:    -6.065      9.035     12.087
REMARK INTER + INTRA:          -7.584
REMARK INTER:                  -7.268
REMARK INTRA:                  -0.316
REMARK UNBOUND:                -0.277
REMARK SMILES O=c1c(O)c(-c2ccc(O)c(O)c2)oc2cc(O)cc(O)c12
REMARK SMILES IDX 5 1 3 2 2 3 1 4 22 5 20 6 19 7 17 8 16 9 15 10 14 11 6 12
REMARK SMILES IDX 7 13 8 14 9 15 13 16 11 17 10 18 12 20 4 22 21 24 18 26
REMARK H PARENT 10 19 12 21 4 23 21 25 18 27
REMARK Flexibility Score: inf
ROOT
ATOM      1  C   UNL     1     -40.995  -4.661  82.065  1.00  0.00     0.180 A 
ATOM      2  C   UNL     1     -41.245  -3.383  82.592  1.00  0.00     0.208 A 
ATOM      3  C   UNL     1     -40.199  -2.689  83.221  1.00  0.00     0.238 A 
ATOM      4  O   UNL     1     -40.414  -1.522  83.642  1.00  0.00    -0.285 OA
ATOM      5  C   UNL     1     -38.921  -3.289  83.328  1.00  0.00     0.111 A 
ATOM      6  C   UNL     1     -37.799  -2.694  83.980  1.00  0.00     0.134 A 
ATOM      7  C   UNL     1     -36.548  -3.321  83.912  1.00  0.00     0.093 A 
ATOM      8  C   UNL     1     -36.395  -4.553  83.272  1.00  0.00     0.123 A 
ATOM      9  C   UNL     1     -37.496  -5.170  82.685  1.00  0.00     0.094 A 
ATOM     10  C   UNL     1     -38.748  -4.552  82.704  1.00  0.00     0.146 A 
ATOM     11  O   UNL     1     -39.770  -5.169  82.123  1.00  0.00    -0.452 OA
ENDROOT
BRANCH   1  12
ATOM     12  C   UNL     1     -42.054  -5.463  81.410  1.00  0.00     0.025 A 
ATOM     13  C   UNL     1     -42.979  -6.209  82.163  1.00  0.00     0.016 A 
ATOM     14  C   UNL     1     -43.954  -6.978  81.523  1.00  0.00     0.051 A 
ATOM     15  C   UNL     1     -44.011  -7.025  80.124  1.00  0.00     0.157 A 
ATOM     16  C   UNL     1     -42.103  -5.531  80.008  1.00  0.00     0.062 A 
ATOM     17  C   UNL     1     -43.082  -6.302  79.365  1.00  0.00     0.158 A 
BRANCH  15  18
ATOM     18  O   UNL     1     -44.984  -7.790  79.482  1.00  0.00    -0.504 OA
ATOM     19  H   UNL     1     -44.741  -8.620  78.954  1.00  0.00     0.293 HD
ENDBRANCH  15  18
BRANCH  17  20
ATOM     20  O   UNL     1     -43.136  -6.356  77.973  1.00  0.00    -0.504 OA
ATOM     21  H   UNL     1     -42.859  -5.568  77.401  1.00  0.00     0.293 HD
ENDBRANCH  17  20
ENDBRANCH   1  12
BRANCH   2  22
ATOM     22  O   UNL     1     -42.508  -2.799  82.456  1.00  0.00    -0.502 OA
ATOM     23  H   UNL     1     -43.254  -3.235  81.928  1.00  0.00     0.293 HD
ENDBRANCH   2  22
BRANCH   6  24
ATOM     24  O   UNL     1     -37.865  -1.513  84.724  1.00  0.00    -0.507 OA
ATOM     25  H   UNL     1     -37.796  -1.462  85.729  1.00  0.00     0.293 HD
ENDBRANCH   6  24
BRANCH   8  26
ATOM     26  O   UNL     1     -35.149  -5.177  83.223  1.00  0.00    -0.508 OA
ATOM     27  H   UNL     1     -35.064  -6.182  83.134  1.00  0.00     0.293 HD
ENDBRANCH   8  26
TORSDOF 6
ENDMDL
