MODEL 1
REMARK VINA RESULT:    -6.108      0.000      0.000
REMARK INTER + INTRA:          -9.611
REMARK INTER:                  -8.429
REMARK INTRA:                  -1.182
REMARK UNBOUND:                -1.182
REMARK SMILES CC[C@H](CC[C@@H](C)[C@H]1CC[C@H]2[C@H]3CC=C4C[C@@H](O)CC[C@@]4(C)[C@@H]3CC[C@]12C)C(C)C
REMARK SMILES IDX 5 1 4 2 3 3 2 4 1 5 28 6 29 7 30 8 6 9 7 10 8 11 9 12 26 13
REMARK SMILES IDX 10 14 11 15 25 16 27 17 12 18 24 19 23 20 13 21 21 22 14 23
REMARK SMILES IDX 15 24 20 25 22 26 16 27 19 28 17 29 18 30
REMARK H PARENT 18 31
REMARK Flexibility Score: inf
ROOT
ATOM      1  C   UNL     1      20.726 -10.637  20.476  1.00  0.00     0.004 C 
ENDROOT
BRANCH   1   2
ATOM      2  C   UNL     1      19.910  -9.502  19.812  1.00  0.00     0.004 C 
BRANCH   2   3
ATOM      3  C   UNL     1      18.977  -9.906  18.631  1.00  0.00    -0.009 C 
BRANCH   3   4
ATOM      4  C   UNL     1      18.764 -11.449  18.597  1.00  0.00     0.000 C 
ATOM      5  C   UNL     1      17.302 -11.884  18.490  1.00  0.00     0.004 C 
ENDBRANCH   3   4
BRANCH   3   6
ATOM      6  C   UNL     1      17.658  -9.053  18.699  1.00  0.00    -0.014 C 
ATOM      7  C   UNL     1      17.514  -8.028  17.562  1.00  0.00     0.007 C 
ATOM      8  C   UNL     1      17.439  -8.385  20.066  1.00  0.00     0.007 C 
ENDBRANCH   3   6
ENDBRANCH   2   3
ENDBRANCH   1   2
BRANCH   1   9
ATOM      9  C   UNL     1      20.552 -10.774  22.009  1.00  0.00    -0.011 C 
ATOM     10  C   UNL     1      20.034  -9.456  22.630  1.00  0.00     0.008 C 
BRANCH   9  11
ATOM     11  C   UNL     1      19.776 -12.087  22.381  1.00  0.00    -0.002 C 
ATOM     12  C   UNL     1      20.595 -13.104  23.226  1.00  0.00     0.005 C 
ATOM     13  C   UNL     1      18.360 -12.044  23.046  1.00  0.00    -0.026 C 
ATOM     14  C   UNL     1      19.585 -13.893  24.075  1.00  0.00     0.005 C 
ATOM     15  C   UNL     1      18.240 -13.521  23.472  1.00  0.00    -0.001 C 
ATOM     16  C   UNL     1      17.176 -11.712  22.068  1.00  0.00     0.007 C 
ATOM     17  C   UNL     1      18.363 -11.071  24.261  1.00  0.00     0.012 C 
ATOM     18  C   UNL     1      16.920 -13.939  24.177  1.00  0.00     0.000 C 
ATOM     19  C   UNL     1      15.901 -12.587  22.267  1.00  0.00     0.005 C 
ATOM     20  C   UNL     1      15.727 -13.047  23.738  1.00  0.00     0.003 C 
ATOM     21  C   UNL     1      16.946 -14.025  25.705  1.00  0.00     0.031 C 
ATOM     22  C   UNL     1      14.359 -13.726  24.109  1.00  0.00    -0.008 C 
ATOM     23  C   UNL     1      15.588 -14.422  26.237  1.00  0.00    -0.027 C 
ATOM     24  C   UNL     1      14.421 -14.246  25.562  1.00  0.00    -0.065 C 
ATOM     25  C   UNL     1      13.216 -12.663  24.011  1.00  0.00     0.014 C 
ATOM     26  C   UNL     1      14.036 -14.907  23.155  1.00  0.00     0.016 C 
ATOM     27  C   UNL     1      13.123 -14.650  26.231  1.00  0.00     0.063 C 
ATOM     28  C   UNL     1      11.892 -13.110  24.657  1.00  0.00     0.033 C 
ATOM     29  C   UNL     1      12.082 -13.530  26.120  1.00  0.00     0.118 C 
BRANCH  29  30
ATOM     30  O   UNL     1      12.478 -12.417  26.883  1.00  0.00    -0.393 OA
ATOM     31  H   UNL     1      12.875 -11.763  26.250  1.00  0.00     0.210 HD
ENDBRANCH  29  30
ENDBRANCH   9  11
ENDBRANCH   1   9
TORSDOF 7
ENDMDL
MODEL 2
REMARK VINA RESULT:    -6.094      4.288      8.318
REMARK INTER + INTRA:          -9.592
REMARK INTER:                  -8.485
REMARK INTRA:                  -1.108
REMARK UNBOUND:                -1.182
REMARK SMILES CC[C@H](CC[C@@H](C)[C@H]1CC[C@H]2[C@H]3CC=C4C[C@@H](O)CC[C@@]4(C)[C@@H]3CC[C@]12C)C(C)C
REMARK SMILES IDX 5 1 4 2 3 3 2 4 1 5 28 6 29 7 30 8 6 9 7 10 8 11 9 12 26 13
REMARK SMILES IDX 10 14 11 15 25 16 27 17 12 18 24 19 23 20 13 21 21 22 14 23
REMARK SMILES IDX 15 24 20 25 22 26 16 27 19 28 17 29 18 30
REMARK H PARENT 18 31
REMARK Flexibility Score: inf
ROOT
ATOM      1  C   UNL     1      11.619  -9.690  26.103  1.00  0.00     0.004 C 
ENDROOT
BRANCH   1   2
ATOM      2  C   UNL     1      11.051  -8.787  27.225  1.00  0.00     0.004 C 
BRANCH   2   3
ATOM      3  C   UNL     1       9.639  -8.171  26.982  1.00  0.00    -0.009 C 
BRANCH   3   4
ATOM      4  C   UNL     1       8.716  -8.399  28.215  1.00  0.00     0.000 C 
ATOM      5  C   UNL     1       9.461  -8.584  29.538  1.00  0.00     0.004 C 
ENDBRANCH   3   4
BRANCH   3   6
ATOM      6  C   UNL     1       9.799  -6.672  26.538  1.00  0.00    -0.014 C 
ATOM      7  C   UNL     1       9.288  -6.379  25.118  1.00  0.00     0.007 C 
ATOM      8  C   UNL     1      11.228  -6.134  26.725  1.00  0.00     0.007 C 
ENDBRANCH   3   6
ENDBRANCH   2   3
ENDBRANCH   1   2
BRANCH   1   9
ATOM      9  C   UNL     1      12.121 -11.082  26.559  1.00  0.00    -0.011 C 
ATOM     10  C   UNL     1      11.401 -11.540  27.848  1.00  0.00     0.008 C 
BRANCH   9  11
ATOM     11  C   UNL     1      12.150 -12.099  25.362  1.00  0.00    -0.002 C 
ATOM     12  C   UNL     1      11.404 -11.615  24.085  1.00  0.00     0.005 C 
ATOM     13  C   UNL     1      13.490 -12.722  24.845  1.00  0.00    -0.026 C 
ATOM     14  C   UNL     1      12.094 -12.286  22.887  1.00  0.00     0.005 C 
ATOM     15  C   UNL     1      12.985 -13.338  23.526  1.00  0.00    -0.001 C 
ATOM     16  C   UNL     1      14.075 -13.875  25.740  1.00  0.00     0.007 C 
ATOM     17  C   UNL     1      14.551 -11.607  24.616  1.00  0.00     0.012 C 
ATOM     18  C   UNL     1      14.029 -14.109  22.670  1.00  0.00     0.000 C 
ATOM     19  C   UNL     1      14.615 -15.104  24.947  1.00  0.00     0.005 C 
ATOM     20  C   UNL     1      15.160 -14.709  23.549  1.00  0.00     0.003 C 
ATOM     21  C   UNL     1      14.653 -13.356  21.494  1.00  0.00     0.031 C 
ATOM     22  C   UNL     1      15.950 -15.815  22.760  1.00  0.00    -0.008 C 
ATOM     23  C   UNL     1      15.658 -14.230  20.778  1.00  0.00    -0.027 C 
ATOM     24  C   UNL     1      16.284 -15.296  21.345  1.00  0.00    -0.065 C 
ATOM     25  C   UNL     1      17.289 -16.120  23.507  1.00  0.00     0.014 C 
ATOM     26  C   UNL     1      15.124 -17.125  22.644  1.00  0.00     0.016 C 
ATOM     27  C   UNL     1      17.304 -16.063  20.527  1.00  0.00     0.063 C 
ATOM     28  C   UNL     1      18.295 -16.938  22.676  1.00  0.00     0.033 C 
ATOM     29  C   UNL     1      18.595 -16.273  21.327  1.00  0.00     0.118 C 
BRANCH  29  30
ATOM     30  O   UNL     1      19.245 -15.045  21.539  1.00  0.00    -0.393 OA
ATOM     31  H   UNL     1      20.192 -15.255  21.752  1.00  0.00     0.210 HD
ENDBRANCH  29  30
ENDBRANCH   9  11
ENDBRANCH   1   9
TORSDOF 7
ENDMDL
MODEL 3
REMARK VINA RESULT:    -6.052      4.681      9.023
REMARK INTER + INTRA:          -9.533
REMARK INTER:                  -8.353
REMARK INTRA:                  -1.180
REMARK UNBOUND:                -1.182
REMARK SMILES CC[C@H](CC[C@@H](C)[C@H]1CC[C@H]2[C@H]3CC=C4C[C@@H](O)CC[C@@]4(C)[C@@H]3CC[C@]12C)C(C)C
REMARK SMILES IDX 5 1 4 2 3 3 2 4 1 5 28 6 29 7 30 8 6 9 7 10 8 11 9 12 26 13
REMARK SMILES IDX 10 14 11 15 25 16 27 17 12 18 24 19 23 20 13 21 21 22 14 23
REMARK SMILES IDX 15 24 20 25 22 26 16 27 19 28 17 29 18 30
REMARK H PARENT 18 31
REMARK Flexibility Score: inf
ROOT
ATOM      1  C   UNL     1       9.869  -7.967  26.085  1.00  0.00     0.004 C 
ENDROOT
BRANCH   1   2
ATOM      2  C   UNL     1       9.270  -7.181  27.277  1.00  0.00     0.004 C 
BRANCH   2   3
ATOM      3  C   UNL     1       8.573  -8.020  28.390  1.00  0.00    -0.009 C 
BRANCH   3   4
ATOM      4  C   UNL     1       9.475  -8.117  29.657  1.00  0.00     0.000 C 
ATOM      5  C   UNL     1       9.391  -9.456  30.392  1.00  0.00     0.004 C 
ENDBRANCH   3   4
BRANCH   3   6
ATOM      6  C   UNL     1       7.130  -7.449  28.642  1.00  0.00    -0.014 C 
ATOM      7  C   UNL     1       6.092  -8.513  29.031  1.00  0.00     0.007 C 
ATOM      8  C   UNL     1       6.613  -6.579  27.484  1.00  0.00     0.007 C 
ENDBRANCH   3   6
ENDBRANCH   2   3
ENDBRANCH   1   2
BRANCH   1   9
ATOM      9  C   UNL     1      11.405  -7.855  25.920  1.00  0.00    -0.011 C 
ATOM     10  C   UNL     1      11.935  -6.528  26.510  1.00  0.00     0.008 C 
BRANCH   9  11
ATOM     11  C   UNL     1      12.126  -9.174  26.378  1.00  0.00    -0.002 C 
ATOM     12  C   UNL     1      11.288 -10.069  27.334  1.00  0.00     0.005 C 
ATOM     13  C   UNL     1      12.767 -10.161  25.345  1.00  0.00    -0.026 C 
ATOM     14  C   UNL     1      11.748 -11.518  27.104  1.00  0.00     0.005 C 
ATOM     15  C   UNL     1      13.011 -11.367  26.273  1.00  0.00    -0.001 C 
ATOM     16  C   UNL     1      14.149  -9.700  24.755  1.00  0.00     0.007 C 
ATOM     17  C   UNL     1      11.757 -10.479  24.204  1.00  0.00     0.012 C 
ATOM     18  C   UNL     1      13.686 -12.613  25.635  1.00  0.00     0.000 C 
ATOM     19  C   UNL     1      15.224 -10.825  24.658  1.00  0.00     0.005 C 
ATOM     20  C   UNL     1      14.592 -12.224  24.434  1.00  0.00     0.003 C 
ATOM     21  C   UNL     1      12.766 -13.762  25.217  1.00  0.00     0.031 C 
ATOM     22  C   UNL     1      15.576 -13.396  24.078  1.00  0.00    -0.008 C 
ATOM     23  C   UNL     1      13.567 -14.885  24.597  1.00  0.00    -0.027 C 
ATOM     24  C   UNL     1      14.796 -14.728  24.038  1.00  0.00    -0.065 C 
ATOM     25  C   UNL     1      16.191 -13.137  22.664  1.00  0.00     0.014 C 
ATOM     26  C   UNL     1      16.724 -13.505  25.118  1.00  0.00     0.016 C 
ATOM     27  C   UNL     1      15.472 -15.931  23.413  1.00  0.00     0.063 C 
ATOM     28  C   UNL     1      16.912 -14.358  22.064  1.00  0.00     0.033 C 
ATOM     29  C   UNL     1      16.002 -15.592  22.014  1.00  0.00     0.118 C 
BRANCH  29  30
ATOM     30  O   UNL     1      14.934 -15.356  21.131  1.00  0.00    -0.393 OA
ATOM     31  H   UNL     1      15.335 -15.103  20.259  1.00  0.00     0.210 HD
ENDBRANCH  29  30
ENDBRANCH   9  11
ENDBRANCH   1   9
TORSDOF 7
ENDMDL
MODEL 4
REMARK VINA RESULT:    -6.033      4.200      8.177
REMARK INTER + INTRA:          -9.507
REMARK INTER:                  -8.567
REMARK INTRA:                  -0.940
REMARK UNBOUND:                -1.182
REMARK SMILES CC[C@H](CC[C@@H](C)[C@H]1CC[C@H]2[C@H]3CC=C4C[C@@H](O)CC[C@@]4(C)[C@@H]3CC[C@]12C)C(C)C
REMARK SMILES IDX 5 1 4 2 3 3 2 4 1 5 28 6 29 7 30 8 6 9 7 10 8 11 9 12 26 13
REMARK SMILES IDX 10 14 11 15 25 16 27 17 12 18 24 19 23 20 13 21 21 22 14 23
REMARK SMILES IDX 15 24 20 25 22 26 16 27 19 28 17 29 18 30
REMARK H PARENT 18 31
REMARK Flexibility Score: inf
ROOT
ATOM      1  C   UNL     1      11.243 -10.011  27.219  1.00  0.00     0.004 C 
ENDROOT
BRANCH   1   2
ATOM      2  C   UNL     1      10.958  -8.505  27.433  1.00  0.00     0.004 C 
BRANCH   2   3
ATOM      3  C   UNL     1       9.548  -7.991  27.010  1.00  0.00    -0.009 C 
BRANCH   3   4
ATOM      4  C   UNL     1       8.545  -8.085  28.197  1.00  0.00     0.000 C 
ATOM      5  C   UNL     1       7.303  -7.205  28.048  1.00  0.00     0.004 C 
ENDBRANCH   3   4
BRANCH   3   6
ATOM      6  C   UNL     1       9.689  -6.563  26.368  1.00  0.00    -0.014 C 
ATOM      7  C   UNL     1       9.237  -6.485  24.901  1.00  0.00     0.007 C 
ATOM      8  C   UNL     1      11.093  -5.959  26.539  1.00  0.00     0.007 C 
ENDBRANCH   3   6
ENDBRANCH   2   3
ENDBRANCH   1   2
BRANCH   1   9
ATOM      9  C   UNL     1      11.882 -10.380  25.858  1.00  0.00    -0.011 C 
ATOM     10  C   UNL     1      12.501  -9.138  25.177  1.00  0.00     0.008 C 
BRANCH   9  11
ATOM     11  C   UNL     1      12.798 -11.650  25.983  1.00  0.00    -0.002 C 
ATOM     12  C   UNL     1      12.100 -12.891  26.609  1.00  0.00     0.005 C 
ATOM     13  C   UNL     1      13.605 -12.205  24.761  1.00  0.00    -0.026 C 
ATOM     14  C   UNL     1      12.790 -14.133  26.023  1.00  0.00     0.005 C 
ATOM     15  C   UNL     1      14.025 -13.570  25.340  1.00  0.00    -0.001 C 
ATOM     16  C   UNL     1      14.904 -11.397  24.401  1.00  0.00     0.007 C 
ATOM     17  C   UNL     1      12.678 -12.343  23.519  1.00  0.00     0.012 C 
ATOM     18  C   UNL     1      14.901 -14.475  24.429  1.00  0.00     0.000 C 
ATOM     19  C   UNL     1      16.147 -12.277  24.067  1.00  0.00     0.005 C 
ATOM     20  C   UNL     1      15.751 -13.637  23.435  1.00  0.00     0.003 C 
ATOM     21  C   UNL     1      14.184 -15.588  23.662  1.00  0.00     0.031 C 
ATOM     22  C   UNL     1      16.917 -14.503  22.834  1.00  0.00    -0.008 C 
ATOM     23  C   UNL     1      15.164 -16.362  22.810  1.00  0.00    -0.027 C 
ATOM     24  C   UNL     1      16.361 -15.873  22.388  1.00  0.00    -0.065 C 
ATOM     25  C   UNL     1      17.504 -13.774  21.582  1.00  0.00     0.014 C 
ATOM     26  C   UNL     1      18.051 -14.723  23.871  1.00  0.00     0.016 C 
ATOM     27  C   UNL     1      17.231 -16.741  21.501  1.00  0.00     0.063 C 
ATOM     28  C   UNL     1      18.420 -14.658  20.717  1.00  0.00     0.033 C 
ATOM     29  C   UNL     1      17.721 -15.952  20.281  1.00  0.00     0.118 C 
BRANCH  29  30
ATOM     30  O   UNL     1      16.643 -15.643  19.433  1.00  0.00    -0.393 OA
ATOM     31  H   UNL     1      16.106 -16.473  19.340  1.00  0.00     0.210 HD
ENDBRANCH  29  30
ENDBRANCH   9  11
ENDBRANCH   1   9
TORSDOF 7
ENDMDL
MODEL 5
REMARK VINA RESULT:    -6.021      3.163      4.455
REMARK INTER + INTRA:          -9.491
REMARK INTER:                  -8.039
REMARK INTRA:                  -1.452
REMARK UNBOUND:                -1.182
REMARK SMILES CC[C@H](CC[C@@H](C)[C@H]1CC[C@H]2[C@H]3CC=C4C[C@@H](O)CC[C@@]4(C)[C@@H]3CC[C@]12C)C(C)C
REMARK SMILES IDX 5 1 4 2 3 3 2 4 1 5 28 6 29 7 30 8 6 9 7 10 8 11 9 12 26 13
REMARK SMILES IDX 10 14 11 15 25 16 27 17 12 18 24 19 23 20 13 21 21 22 14 23
REMARK SMILES IDX 15 24 20 25 22 26 16 27 19 28 17 29 18 30
REMARK H PARENT 18 31
REMARK Flexibility Score: inf
ROOT
ATOM      1  C   UNL     1      18.455 -16.366  19.086  1.00  0.00     0.004 C 
ENDROOT
BRANCH   1   2
ATOM      2  C   UNL     1      17.149 -16.583  18.285  1.00  0.00     0.004 C 
BRANCH   2   3
ATOM      3  C   UNL     1      16.532 -15.329  17.596  1.00  0.00    -0.009 C 
BRANCH   3   4
ATOM      4  C   UNL     1      17.263 -15.017  16.256  1.00  0.00     0.000 C 
ATOM      5  C   UNL     1      18.501 -14.131  16.402  1.00  0.00     0.004 C 
ENDBRANCH   3   4
BRANCH   3   6
ATOM      6  C   UNL     1      14.976 -15.516  17.478  1.00  0.00    -0.014 C 
ATOM      7  C   UNL     1      14.192 -14.200  17.348  1.00  0.00     0.007 C 
ATOM      8  C   UNL     1      14.385 -16.396  18.592  1.00  0.00     0.007 C 
ENDBRANCH   3   6
ENDBRANCH   2   3
ENDBRANCH   1   2
BRANCH   1   9
ATOM      9  C   UNL     1      18.311 -15.524  20.379  1.00  0.00    -0.011 C 
ATOM     10  C   UNL     1      18.715 -14.052  20.132  1.00  0.00     0.008 C 
BRANCH   9  11
ATOM     11  C   UNL     1      16.924 -15.773  21.071  1.00  0.00    -0.002 C 
ATOM     12  C   UNL     1      16.814 -17.125  21.831  1.00  0.00     0.005 C 
ATOM     13  C   UNL     1      16.279 -14.711  22.024  1.00  0.00    -0.026 C 
ATOM     14  C   UNL     1      15.807 -16.914  22.973  1.00  0.00     0.005 C 
ATOM     15  C   UNL     1      15.164 -15.577  22.642  1.00  0.00    -0.001 C 
ATOM     16  C   UNL     1      15.613 -13.485  21.300  1.00  0.00     0.007 C 
ATOM     17  C   UNL     1      17.318 -14.232  23.080  1.00  0.00     0.012 C 
ATOM     18  C   UNL     1      14.228 -14.880  23.669  1.00  0.00     0.000 C 
ATOM     19  C   UNL     1      14.231 -13.057  21.883  1.00  0.00     0.005 C 
ATOM     20  C   UNL     1      14.115 -13.354  23.401  1.00  0.00     0.003 C 
ATOM     21  C   UNL     1      14.532 -15.107  25.151  1.00  0.00     0.031 C 
ATOM     22  C   UNL     1      12.872 -12.749  24.146  1.00  0.00    -0.008 C 
ATOM     23  C   UNL     1      13.550 -14.351  26.017  1.00  0.00    -0.027 C 
ATOM     24  C   UNL     1      12.843 -13.266  25.601  1.00  0.00    -0.065 C 
ATOM     25  C   UNL     1      13.000 -11.191  24.175  1.00  0.00     0.014 C 
ATOM     26  C   UNL     1      11.545 -13.135  23.439  1.00  0.00     0.016 C 
ATOM     27  C   UNL     1      11.923 -12.574  26.586  1.00  0.00     0.063 C 
ATOM     28  C   UNL     1      12.026 -10.503  25.149  1.00  0.00     0.033 C 
ATOM     29  C   UNL     1      12.153 -11.058  26.573  1.00  0.00     0.118 C 
BRANCH  29  30
ATOM     30  O   UNL     1      13.426 -10.753  27.088  1.00  0.00    -0.393 OA
ATOM     31  H   UNL     1      13.953 -11.594  27.065  1.00  0.00     0.210 HD
ENDBRANCH  29  30
ENDBRANCH   9  11
ENDBRANCH   1   9
TORSDOF 7
ENDMDL
MODEL 6
REMARK VINA RESULT:    -6.010      3.517      7.956
REMARK INTER + INTRA:          -9.476
REMARK INTER:                  -8.675
REMARK INTRA:                  -0.802
REMARK UNBOUND:                -1.182
REMARK SMILES CC[C@H](CC[C@@H](C)[C@H]1CC[C@H]2[C@H]3CC=C4C[C@@H](O)CC[C@@]4(C)[C@@H]3CC[C@]12C)C(C)C
REMARK SMILES IDX 5 1 4 2 3 3 2 4 1 5 28 6 29 7 30 8 6 9 7 10 8 11 9 12 26 13
REMARK SMILES IDX 10 14 11 15 25 16 27 17 12 18 24 19 23 20 13 21 21 22 14 23
REMARK SMILES IDX 15 24 20 25 22 26 16 27 19 28 17 29 18 30
REMARK H PARENT 18 31
REMARK Flexibility Score: inf
ROOT
ATOM      1  C   UNL     1      11.741  -9.945  24.508  1.00  0.00     0.004 C 
ENDROOT
BRANCH   1   2
ATOM      2  C   UNL     1      12.136  -9.401  25.902  1.00  0.00     0.004 C 
BRANCH   2   3
ATOM      3  C   UNL     1      11.128  -8.429  26.587  1.00  0.00    -0.009 C 
BRANCH   3   4
ATOM      4  C   UNL     1      10.278  -7.674  25.523  1.00  0.00     0.000 C 
ATOM      5  C   UNL     1      10.195  -6.162  25.735  1.00  0.00     0.004 C 
ENDBRANCH   3   4
BRANCH   3   6
ATOM      6  C   UNL     1      10.300  -9.218  27.664  1.00  0.00    -0.014 C 
ATOM      7  C   UNL     1       9.883  -8.374  28.880  1.00  0.00     0.007 C 
ATOM      8  C   UNL     1      10.978 -10.523  28.114  1.00  0.00     0.007 C 
ENDBRANCH   3   6
ENDBRANCH   2   3
ENDBRANCH   1   2
BRANCH   1   9
ATOM      9  C   UNL     1      11.452 -11.466  24.445  1.00  0.00    -0.011 C 
ATOM     10  C   UNL     1      11.008 -11.890  23.026  1.00  0.00     0.008 C 
BRANCH   9  11
ATOM     11  C   UNL     1      12.611 -12.296  25.104  1.00  0.00    -0.002 C 
ATOM     12  C   UNL     1      12.215 -13.741  25.521  1.00  0.00     0.005 C 
ATOM     13  C   UNL     1      14.013 -12.434  24.421  1.00  0.00    -0.026 C 
ATOM     14  C   UNL     1      13.492 -14.592  25.443  1.00  0.00     0.005 C 
ATOM     15  C   UNL     1      14.601 -13.564  25.287  1.00  0.00    -0.001 C 
ATOM     16  C   UNL     1      14.943 -11.173  24.552  1.00  0.00     0.007 C 
ATOM     17  C   UNL     1      13.849 -12.847  22.929  1.00  0.00     0.012 C 
ATOM     18  C   UNL     1      16.051 -14.017  24.955  1.00  0.00     0.000 C 
ATOM     19  C   UNL     1      16.431 -11.493  24.890  1.00  0.00     0.005 C 
ATOM     20  C   UNL     1      16.880 -12.866  24.323  1.00  0.00     0.003 C 
ATOM     21  C   UNL     1      16.206 -15.275  24.099  1.00  0.00     0.031 C 
ATOM     22  C   UNL     1      18.417 -13.188  24.387  1.00  0.00    -0.008 C 
ATOM     23  C   UNL     1      17.667 -15.570  23.848  1.00  0.00    -0.027 C 
ATOM     24  C   UNL     1      18.657 -14.640  23.920  1.00  0.00    -0.065 C 
ATOM     25  C   UNL     1      19.184 -12.223  23.425  1.00  0.00     0.014 C 
ATOM     26  C   UNL     1      18.971 -13.014  25.827  1.00  0.00     0.016 C 
ATOM     27  C   UNL     1      20.078 -15.061  23.602  1.00  0.00     0.063 C 
ATOM     28  C   UNL     1      20.639 -12.643  23.150  1.00  0.00     0.033 C 
ATOM     29  C   UNL     1      20.729 -14.080  22.620  1.00  0.00     0.118 C 
BRANCH  29  30
ATOM     30  O   UNL     1      20.105 -14.160  21.363  1.00  0.00    -0.393 OA
ATOM     31  H   UNL     1      20.424 -13.382  20.836  1.00  0.00     0.210 HD
ENDBRANCH  29  30
ENDBRANCH   9  11
ENDBRANCH   1   9
TORSDOF 7
ENDMDL
MODEL 7
REMARK VINA RESULT:    -6.002      3.778      7.177
REMARK INTER + INTRA:          -9.464
REMARK INTER:                  -8.194
REMARK INTRA:                  -1.271
REMARK UNBOUND:                -1.182
REMARK SMILES CC[C@H](CC[C@@H](C)[C@H]1CC[C@H]2[C@H]3CC=C4C[C@@H](O)CC[C@@]4(C)[C@@H]3CC[C@]12C)C(C)C
REMARK SMILES IDX 5 1 4 2 3 3 2 4 1 5 28 6 29 7 30 8 6 9 7 10 8 11 9 12 26 13
REMARK SMILES IDX 10 14 11 15 25 16 27 17 12 18 24 19 23 20 13 21 21 22 14 23
REMARK SMILES IDX 15 24 20 25 22 26 16 27 19 28 17 29 18 30
REMARK H PARENT 18 31
REMARK Flexibility Score: inf
ROOT
ATOM      1  C   UNL     1      14.756 -12.362  25.241  1.00  0.00     0.004 C 
ENDROOT
BRANCH   1   2
ATOM      2  C   UNL     1      13.301 -12.777  25.564  1.00  0.00     0.004 C 
BRANCH   2   3
ATOM      3  C   UNL     1      12.170 -12.003  24.820  1.00  0.00    -0.009 C 
BRANCH   3   4
ATOM      4  C   UNL     1      12.419 -10.467  24.878  1.00  0.00     0.000 C 
ATOM      5  C   UNL     1      11.474  -9.707  25.808  1.00  0.00     0.004 C 
ENDBRANCH   3   4
BRANCH   3   6
ATOM      6  C   UNL     1      12.003 -12.597  23.374  1.00  0.00    -0.014 C 
ATOM      7  C   UNL     1      10.960 -11.867  22.511  1.00  0.00     0.007 C 
ATOM      8  C   UNL     1      11.750 -14.114  23.368  1.00  0.00     0.007 C 
ENDBRANCH   3   6
ENDBRANCH   2   3
ENDBRANCH   1   2
BRANCH   1   9
ATOM      9  C   UNL     1      15.830 -13.449  25.496  1.00  0.00    -0.011 C 
ATOM     10  C   UNL     1      15.221 -14.677  26.212  1.00  0.00     0.008 C 
BRANCH   9  11
ATOM     11  C   UNL     1      16.677 -13.729  24.204  1.00  0.00    -0.002 C 
ATOM     12  C   UNL     1      17.867 -14.708  24.410  1.00  0.00     0.005 C 
ATOM     13  C   UNL     1      16.005 -14.175  22.862  1.00  0.00    -0.026 C 
ATOM     14  C   UNL     1      18.102 -15.413  23.065  1.00  0.00     0.005 C 
ATOM     15  C   UNL     1      17.263 -14.609  22.086  1.00  0.00    -0.001 C 
ATOM     16  C   UNL     1      15.297 -13.025  22.058  1.00  0.00     0.007 C 
ATOM     17  C   UNL     1      15.023 -15.356  23.116  1.00  0.00     0.012 C 
ATOM     18  C   UNL     1      17.047 -15.119  20.633  1.00  0.00     0.000 C 
ATOM     19  C   UNL     1      15.556 -13.050  20.521  1.00  0.00     0.005 C 
ATOM     20  C   UNL     1      15.783 -14.488  19.986  1.00  0.00     0.003 C 
ATOM     21  C   UNL     1      17.011 -16.635  20.428  1.00  0.00     0.031 C 
ATOM     22  C   UNL     1      15.810 -14.666  18.425  1.00  0.00    -0.008 C 
ATOM     23  C   UNL     1      16.774 -16.968  18.972  1.00  0.00    -0.027 C 
ATOM     24  C   UNL     1      16.191 -16.122  18.080  1.00  0.00    -0.065 C 
ATOM     25  C   UNL     1      14.385 -14.376  17.851  1.00  0.00     0.014 C 
ATOM     26  C   UNL     1      16.830 -13.699  17.764  1.00  0.00     0.016 C 
ATOM     27  C   UNL     1      15.974 -16.599  16.659  1.00  0.00     0.063 C 
ATOM     28  C   UNL     1      14.197 -14.828  16.391  1.00  0.00     0.033 C 
ATOM     29  C   UNL     1      14.538 -16.311  16.202  1.00  0.00     0.118 C 
BRANCH  29  30
ATOM     30  O   UNL     1      13.627 -17.101  16.926  1.00  0.00    -0.393 OA
ATOM     31  H   UNL     1      12.757 -16.625  16.905  1.00  0.00     0.210 HD
ENDBRANCH  29  30
ENDBRANCH   9  11
ENDBRANCH   1   9
TORSDOF 7
ENDMDL
MODEL 8
REMARK VINA RESULT:    -5.972      0.661      1.519
REMARK INTER + INTRA:          -9.424
REMARK INTER:                  -8.409
REMARK INTRA:                  -1.015
REMARK UNBOUND:                -1.182
REMARK SMILES CC[C@H](CC[C@@H](C)[C@H]1CC[C@H]2[C@H]3CC=C4C[C@@H](O)CC[C@@]4(C)[C@@H]3CC[C@]12C)C(C)C
REMARK SMILES IDX 5 1 4 2 3 3 2 4 1 5 28 6 29 7 30 8 6 9 7 10 8 11 9 12 26 13
REMARK SMILES IDX 10 14 11 15 25 16 27 17 12 18 24 19 23 20 13 21 21 22 14 23
REMARK SMILES IDX 15 24 20 25 22 26 16 27 19 28 17 29 18 30
REMARK H PARENT 18 31
REMARK Flexibility Score: inf
ROOT
ATOM      1  C   UNL     1      20.255 -10.200  20.774  1.00  0.00     0.004 C 
ENDROOT
BRANCH   1   2
ATOM      2  C   UNL     1      19.442  -8.884  20.814  1.00  0.00     0.004 C 
BRANCH   2   3
ATOM      3  C   UNL     1      17.952  -8.965  20.364  1.00  0.00    -0.009 C 
BRANCH   3   4
ATOM      4  C   UNL     1      17.168  -7.694  20.807  1.00  0.00     0.000 C 
ATOM      5  C   UNL     1      16.630  -7.750  22.237  1.00  0.00     0.004 C 
ENDBRANCH   3   4
BRANCH   3   6
ATOM      6  C   UNL     1      17.894  -9.280  18.824  1.00  0.00    -0.014 C 
ATOM      7  C   UNL     1      17.375  -8.116  17.964  1.00  0.00     0.007 C 
ATOM      8  C   UNL     1      17.137 -10.578  18.500  1.00  0.00     0.007 C 
ENDBRANCH   3   6
ENDBRANCH   2   3
ENDBRANCH   1   2
BRANCH   1   9
ATOM      9  C   UNL     1      20.678 -10.764  22.153  1.00  0.00    -0.011 C 
ATOM     10  C   UNL     1      20.664  -9.659  23.235  1.00  0.00     0.008 C 
BRANCH   9  11
ATOM     11  C   UNL     1      19.911 -12.093  22.486  1.00  0.00    -0.002 C 
ATOM     12  C   UNL     1      20.718 -13.107  23.347  1.00  0.00     0.005 C 
ATOM     13  C   UNL     1      18.473 -12.079  23.107  1.00  0.00    -0.026 C 
ATOM     14  C   UNL     1      19.693 -13.920  24.154  1.00  0.00     0.005 C 
ATOM     15  C   UNL     1      18.363 -13.561  23.513  1.00  0.00    -0.001 C 
ATOM     16  C   UNL     1      17.316 -11.753  22.095  1.00  0.00     0.007 C 
ATOM     17  C   UNL     1      18.423 -11.119  24.331  1.00  0.00     0.012 C 
ATOM     18  C   UNL     1      17.028 -14.007  24.171  1.00  0.00     0.000 C 
ATOM     19  C   UNL     1      16.049 -12.650  22.244  1.00  0.00     0.005 C 
ATOM     20  C   UNL     1      15.835 -13.128  23.704  1.00  0.00     0.003 C 
ATOM     21  C   UNL     1      17.007 -14.110  25.698  1.00  0.00     0.031 C 
ATOM     22  C   UNL     1      14.467 -13.831  24.024  1.00  0.00    -0.008 C 
ATOM     23  C   UNL     1      15.639 -14.533  26.183  1.00  0.00    -0.027 C 
ATOM     24  C   UNL     1      14.491 -14.367  25.472  1.00  0.00    -0.065 C 
ATOM     25  C   UNL     1      13.311 -12.785  23.900  1.00  0.00     0.014 C 
ATOM     26  C   UNL     1      14.193 -15.007  23.047  1.00  0.00     0.016 C 
ATOM     27  C   UNL     1      13.179 -14.798  26.095  1.00  0.00     0.063 C 
ATOM     28  C   UNL     1      11.975 -13.258  24.499  1.00  0.00     0.033 C 
ATOM     29  C   UNL     1      12.125 -13.692  25.963  1.00  0.00     0.118 C 
BRANCH  29  30
ATOM     30  O   UNL     1      12.480 -12.582  26.750  1.00  0.00    -0.393 OA
ATOM     31  H   UNL     1      12.396 -12.865  27.698  1.00  0.00     0.210 HD
ENDBRANCH  29  30
ENDBRANCH   9  11
ENDBRANCH   1   9
TORSDOF 7
ENDMDL
MODEL 9
REMARK VINA RESULT:    -5.910      3.273      7.793
REMARK INTER + INTRA:          -9.337
REMARK INTER:                  -7.228
REMARK INTRA:                  -2.109
REMARK UNBOUND:                -1.182
REMARK SMILES CC[C@H](CC[C@@H](C)[C@H]1CC[C@H]2[C@H]3CC=C4C[C@@H](O)CC[C@@]4(C)[C@@H]3CC[C@]12C)C(C)C
REMARK SMILES IDX 5 1 4 2 3 3 2 4 1 5 28 6 29 7 30 8 6 9 7 10 8 11 9 12 26 13
REMARK SMILES IDX 10 14 11 15 25 16 27 17 12 18 24 19 23 20 13 21 21 22 14 23
REMARK SMILES IDX 15 24 20 25 22 26 16 27 19 28 17 29 18 30
REMARK H PARENT 18 31
REMARK Flexibility Score: inf
ROOT
ATOM      1  C   UNL     1      13.248 -14.627  25.879  1.00  0.00     0.004 C 
ENDROOT
BRANCH   1   2
ATOM      2  C   UNL     1      12.329 -13.387  25.994  1.00  0.00     0.004 C 
BRANCH   2   3
ATOM      3  C   UNL     1      12.583 -12.230  24.980  1.00  0.00    -0.009 C 
BRANCH   3   4
ATOM      4  C   UNL     1      11.420 -12.134  23.948  1.00  0.00     0.000 C 
ATOM      5  C   UNL     1      11.792 -12.575  22.532  1.00  0.00     0.004 C 
ENDBRANCH   3   4
BRANCH   3   6
ATOM      6  C   UNL     1      12.883 -10.905  25.771  1.00  0.00    -0.014 C 
ATOM      7  C   UNL     1      14.378 -10.642  26.013  1.00  0.00     0.007 C 
ATOM      8  C   UNL     1      12.090 -10.791  27.084  1.00  0.00     0.007 C 
ENDBRANCH   3   6
ENDBRANCH   2   3
ENDBRANCH   1   2
BRANCH   1   9
ATOM      9  C   UNL     1      14.725 -14.330  25.519  1.00  0.00    -0.011 C 
ATOM     10  C   UNL     1      15.662 -14.639  26.710  1.00  0.00     0.008 C 
BRANCH   9  11
ATOM     11  C   UNL     1      15.111 -14.956  24.131  1.00  0.00    -0.002 C 
ATOM     12  C   UNL     1      13.899 -15.363  23.246  1.00  0.00     0.005 C 
ATOM     13  C   UNL     1      16.111 -14.244  23.158  1.00  0.00    -0.026 C 
ATOM     14  C   UNL     1      14.358 -15.249  21.784  1.00  0.00     0.005 C 
ATOM     15  C   UNL     1      15.865 -15.084  21.891  1.00  0.00    -0.001 C 
ATOM     16  C   UNL     1      17.627 -14.371  23.553  1.00  0.00     0.007 C 
ATOM     17  C   UNL     1      15.712 -12.750  22.973  1.00  0.00     0.012 C 
ATOM     18  C   UNL     1      16.706 -14.718  20.636  1.00  0.00     0.000 C 
ATOM     19  C   UNL     1      18.586 -14.675  22.362  1.00  0.00     0.005 C 
ATOM     20  C   UNL     1      18.070 -14.083  21.025  1.00  0.00     0.003 C 
ATOM     21  C   UNL     1      16.030 -13.844  19.578  1.00  0.00     0.031 C 
ATOM     22  C   UNL     1      19.063 -14.113  19.808  1.00  0.00    -0.008 C 
ATOM     23  C   UNL     1      16.980 -13.560  18.437  1.00  0.00    -0.027 C 
ATOM     24  C   UNL     1      18.335 -13.624  18.538  1.00  0.00    -0.065 C 
ATOM     25  C   UNL     1      20.259 -13.147  20.098  1.00  0.00     0.014 C 
ATOM     26  C   UNL     1      19.615 -15.544  19.563  1.00  0.00     0.016 C 
ATOM     27  C   UNL     1      19.173 -13.273  17.325  1.00  0.00     0.063 C 
ATOM     28  C   UNL     1      21.125 -12.838  18.864  1.00  0.00     0.033 C 
ATOM     29  C   UNL     1      20.288 -12.290  17.701  1.00  0.00     0.118 C 
BRANCH  29  30
ATOM     30  O   UNL     1      19.743 -11.044  18.058  1.00  0.00    -0.393 OA
ATOM     31  H   UNL     1      20.420 -10.357  17.824  1.00  0.00     0.210 HD
ENDBRANCH  29  30
ENDBRANCH   9  11
ENDBRANCH   1   9
TORSDOF 7
ENDMDL
