MODEL 1
REMARK VINA RESULT:    -3.890      0.000      0.000
REMARK INTER + INTRA:          -7.557
REMARK INTER:                  -6.619
REMARK INTRA:                  -0.938
REMARK UNBOUND:                -0.938
REMARK SMILES CCCCCCCCCCCCCC(=O)[O-]
REMARK SMILES IDX 8 1 9 2 10 3 11 4 12 5 13 6 14 7 15 8 16 9 7 10 6 11 5 12
REMARK SMILES IDX 4 13 3 14 2 15 1 16
REMARK H PARENT
REMARK Flexibility Score: inf
ROOT
ATOM      1  C   UNL     1      31.861 157.913 120.606  1.00  0.00     0.000 C 
ENDROOT
BRANCH   1   2
ATOM      2  C   UNL     1      31.523 159.368 120.247  1.00  0.00     0.000 C 
BRANCH   2   3
ATOM      3  C   UNL     1      32.201 159.830 118.948  1.00  0.00     0.000 C 
BRANCH   3   4
ATOM      4  C   UNL     1      31.160 160.093 117.850  1.00  0.00     0.000 C 
BRANCH   4   5
ATOM      5  C   UNL     1      29.722 160.176 118.397  1.00  0.00     0.006 C 
BRANCH   5   6
ATOM      6  C   UNL     1      28.652 160.452 117.327  1.00  0.00     0.053 C 
BRANCH   6   7
ATOM      7  C   UNL     1      27.341 159.812 117.665  1.00  0.00     0.041 C 
ATOM      8  O   UNL     1      26.672 159.227 116.772  1.00  0.00    -0.550 OA
ATOM      9  O   UNL     1      26.841 159.891 118.958  1.00  0.00    -0.550 OA
ENDBRANCH   6   7
ENDBRANCH   5   6
ENDBRANCH   4   5
ENDBRANCH   3   4
ENDBRANCH   2   3
ENDBRANCH   1   2
BRANCH   1  10
ATOM     10  C   UNL     1      30.905 157.322 121.653  1.00  0.00     0.000 C 
BRANCH  10  11
ATOM     11  C   UNL     1      29.509 157.951 121.537  1.00  0.00    -0.000 C 
BRANCH  11  12
ATOM     12  C   UNL     1      28.377 156.977 121.913  1.00  0.00    -0.000 C 
BRANCH  12  13
ATOM     13  C   UNL     1      27.147 157.021 120.988  1.00  0.00    -0.000 C 
BRANCH  13  14
ATOM     14  C   UNL     1      26.400 155.682 120.920  1.00  0.00    -0.000 C 
BRANCH  14  15
ATOM     15  C   UNL     1      26.108 155.290 119.467  1.00  0.00    -0.003 C 
ATOM     16  C   UNL     1      25.559 156.475 118.676  1.00  0.00     0.004 C 
ENDBRANCH  14  15
ENDBRANCH  13  14
ENDBRANCH  12  13
ENDBRANCH  11  12
ENDBRANCH  10  11
ENDBRANCH   1  10
TORSDOF 12
ENDMDL
MODEL 2
REMARK VINA RESULT:    -3.829      2.681      4.685
REMARK INTER + INTRA:          -7.452
REMARK INTER:                  -5.997
REMARK INTRA:                  -1.456
REMARK UNBOUND:                -0.938
REMARK SMILES CCCCCCCCCCCCCC(=O)[O-]
REMARK SMILES IDX 8 1 9 2 10 3 11 4 12 5 13 6 14 7 15 8 16 9 7 10 6 11 5 12
REMARK SMILES IDX 4 13 3 14 2 15 1 16
REMARK H PARENT
REMARK Flexibility Score: inf
ROOT
ATOM      1  C   UNL     1      28.798 160.217 117.634  1.00  0.00     0.000 C 
ENDROOT
BRANCH   1   2
ATOM      2  C   UNL     1      29.063 161.173 118.808  1.00  0.00     0.000 C 
BRANCH   2   3
ATOM      3  C   UNL     1      28.650 160.577 120.162  1.00  0.00     0.000 C 
BRANCH   3   4
ATOM      4  C   UNL     1      28.972 159.077 120.222  1.00  0.00     0.000 C 
BRANCH   4   5
ATOM      5  C   UNL     1      28.925 158.512 121.655  1.00  0.00     0.006 C 
BRANCH   5   6
ATOM      6  C   UNL     1      30.047 157.512 121.979  1.00  0.00     0.053 C 
BRANCH   6   7
ATOM      7  C   UNL     1      31.388 158.006 121.530  1.00  0.00     0.041 C 
ATOM      8  O   UNL     1      32.023 157.389 120.633  1.00  0.00    -0.550 OA
ATOM      9  O   UNL     1      31.952 159.127 122.125  1.00  0.00    -0.550 OA
ENDBRANCH   6   7
ENDBRANCH   5   6
ENDBRANCH   4   5
ENDBRANCH   3   4
ENDBRANCH   2   3
ENDBRANCH   1   2
BRANCH   1  10
ATOM     10  C   UNL     1      27.593 160.642 116.782  1.00  0.00     0.000 C 
BRANCH  10  11
ATOM     11  C   UNL     1      26.559 159.510 116.688  1.00  0.00    -0.000 C 
BRANCH  11  12
ATOM     12  C   UNL     1      25.887 159.196 118.036  1.00  0.00    -0.000 C 
BRANCH  12  13
ATOM     13  C   UNL     1      25.729 157.697 118.350  1.00  0.00    -0.000 C 
BRANCH  13  14
ATOM     14  C   UNL     1      25.516 157.417 119.845  1.00  0.00    -0.000 C 
BRANCH  14  15
ATOM     15  C   UNL     1      26.385 156.243 120.312  1.00  0.00    -0.003 C 
ATOM     16  C   UNL     1      26.088 154.982 119.506  1.00  0.00     0.004 C 
ENDBRANCH  14  15
ENDBRANCH  13  14
ENDBRANCH  12  13
ENDBRANCH  11  12
ENDBRANCH  10  11
ENDBRANCH   1  10
TORSDOF 12
ENDMDL
MODEL 3
REMARK VINA RESULT:    -3.786      1.602      4.489
REMARK INTER + INTRA:          -7.380
REMARK INTER:                  -5.976
REMARK INTRA:                  -1.404
REMARK UNBOUND:                -0.938
REMARK SMILES CCCCCCCCCCCCCC(=O)[O-]
REMARK SMILES IDX 8 1 9 2 10 3 11 4 12 5 13 6 14 7 15 8 16 9 7 10 6 11 5 12
REMARK SMILES IDX 4 13 3 14 2 15 1 16
REMARK H PARENT
REMARK Flexibility Score: inf
ROOT
ATOM      1  C   UNL     1      32.008 157.750 120.621  1.00  0.00     0.000 C 
ENDROOT
BRANCH   1   2
ATOM      2  C   UNL     1      30.734 157.266 121.330  1.00  0.00     0.000 C 
BRANCH   2   3
ATOM      3  C   UNL     1      29.593 158.293 121.265  1.00  0.00     0.000 C 
BRANCH   3   4
ATOM      4  C   UNL     1      28.225 157.600 121.357  1.00  0.00     0.000 C 
BRANCH   4   5
ATOM      5  C   UNL     1      27.179 158.216 120.410  1.00  0.00     0.006 C 
BRANCH   5   6
ATOM      6  C   UNL     1      25.852 157.441 120.341  1.00  0.00     0.053 C 
BRANCH   6   7
ATOM      7  C   UNL     1      25.799 156.520 119.162  1.00  0.00     0.041 C 
ATOM      8  O   UNL     1      25.459 156.957 118.031  1.00  0.00    -0.550 OA
ATOM      9  O   UNL     1      26.092 155.171 119.318  1.00  0.00    -0.550 OA
ENDBRANCH   6   7
ENDBRANCH   5   6
ENDBRANCH   4   5
ENDBRANCH   3   4
ENDBRANCH   2   3
ENDBRANCH   1   2
BRANCH   1  10
ATOM     10  C   UNL     1      31.964 159.245 120.275  1.00  0.00     0.000 C 
BRANCH  10  11
ATOM     11  C   UNL     1      32.415 159.488 118.827  1.00  0.00    -0.000 C 
BRANCH  11  12
ATOM     12  C   UNL     1      31.497 160.462 118.067  1.00  0.00    -0.000 C 
BRANCH  12  13
ATOM     13  C   UNL     1      30.008 160.071 118.046  1.00  0.00    -0.000 C 
BRANCH  13  14
ATOM     14  C   UNL     1      29.104 161.115 118.717  1.00  0.00    -0.000 C 
BRANCH  14  15
ATOM     15  C   UNL     1      27.748 161.203 118.006  1.00  0.00    -0.003 C 
ATOM     16  C   UNL     1      27.496 159.970 117.143  1.00  0.00     0.004 C 
ENDBRANCH  14  15
ENDBRANCH  13  14
ENDBRANCH  12  13
ENDBRANCH  11  12
ENDBRANCH  10  11
ENDBRANCH   1  10
TORSDOF 12
ENDMDL
MODEL 4
REMARK VINA RESULT:    -3.756      2.401      5.866
REMARK INTER + INTRA:          -7.328
REMARK INTER:                  -5.902
REMARK INTRA:                  -1.426
REMARK UNBOUND:                -0.938
REMARK SMILES CCCCCCCCCCCCCC(=O)[O-]
REMARK SMILES IDX 8 1 9 2 10 3 11 4 12 5 13 6 14 7 15 8 16 9 7 10 6 11 5 12
REMARK SMILES IDX 4 13 3 14 2 15 1 16
REMARK H PARENT
REMARK Flexibility Score: inf
ROOT
ATOM      1  C   UNL     1      25.527 157.206 119.311  1.00  0.00     0.000 C 
ENDROOT
BRANCH   1   2
ATOM      2  C   UNL     1      26.085 155.905 119.910  1.00  0.00     0.000 C 
BRANCH   2   3
ATOM      3  C   UNL     1      26.663 156.102 121.319  1.00  0.00     0.000 C 
BRANCH   3   4
ATOM      4  C   UNL     1      27.414 157.437 121.422  1.00  0.00     0.000 C 
BRANCH   4   5
ATOM      5  C   UNL     1      28.943 157.259 121.487  1.00  0.00     0.006 C 
BRANCH   5   6
ATOM      6  C   UNL     1      29.732 158.577 121.565  1.00  0.00     0.053 C 
BRANCH   6   7
ATOM      7  C   UNL     1      31.170 158.395 121.190  1.00  0.00     0.041 C 
ATOM      8  O   UNL     1      31.605 157.254 120.882  1.00  0.00    -0.550 OA
ATOM      9  O   UNL     1      32.038 159.479 121.214  1.00  0.00    -0.550 OA
ENDBRANCH   6   7
ENDBRANCH   5   6
ENDBRANCH   4   5
ENDBRANCH   3   4
ENDBRANCH   2   3
ENDBRANCH   1   2
BRANCH   1  10
ATOM     10  C   UNL     1      25.606 157.236 117.778  1.00  0.00     0.000 C 
BRANCH  10  11
ATOM     11  C   UNL     1      25.812 158.669 117.266  1.00  0.00    -0.000 C 
BRANCH  11  12
ATOM     12  C   UNL     1      25.810 159.716 118.394  1.00  0.00    -0.000 C 
BRANCH  12  13
ATOM     13  C   UNL     1      27.035 160.649 118.417  1.00  0.00    -0.000 C 
BRANCH  13  14
ATOM     14  C   UNL     1      28.366 159.888 118.503  1.00  0.00    -0.000 C 
BRANCH  14  15
ATOM     15  C   UNL     1      29.555 160.856 118.462  1.00  0.00    -0.003 C 
ATOM     16  C   UNL     1      30.794 160.183 117.880  1.00  0.00     0.004 C 
ENDBRANCH  14  15
ENDBRANCH  13  14
ENDBRANCH  12  13
ENDBRANCH  11  12
ENDBRANCH  10  11
ENDBRANCH   1  10
TORSDOF 12
ENDMDL
MODEL 5
REMARK VINA RESULT:    -3.728      2.232      5.467
REMARK INTER + INTRA:          -7.281
REMARK INTER:                  -5.741
REMARK INTRA:                  -1.541
REMARK UNBOUND:                -0.938
REMARK SMILES CCCCCCCCCCCCCC(=O)[O-]
REMARK SMILES IDX 8 1 9 2 10 3 11 4 12 5 13 6 14 7 15 8 16 9 7 10 6 11 5 12
REMARK SMILES IDX 4 13 3 14 2 15 1 16
REMARK H PARENT
REMARK Flexibility Score: inf
ROOT
ATOM      1  C   UNL     1      28.578 160.295 117.449  1.00  0.00     0.000 C 
ENDROOT
BRANCH   1   2
ATOM      2  C   UNL     1      27.456 160.511 116.421  1.00  0.00     0.000 C 
BRANCH   2   3
ATOM      3  C   UNL     1      26.499 159.314 116.329  1.00  0.00     0.000 C 
BRANCH   3   4
ATOM      4  C   UNL     1      25.710 159.141 117.637  1.00  0.00     0.000 C 
BRANCH   4   5
ATOM      5  C   UNL     1      25.710 157.688 118.147  1.00  0.00     0.006 C 
BRANCH   5   6
ATOM      6  C   UNL     1      26.129 157.532 119.618  1.00  0.00     0.053 C 
BRANCH   6   7
ATOM      7  C   UNL     1      26.226 156.095 120.026  1.00  0.00     0.041 C 
ATOM      8  O   UNL     1      26.053 155.181 119.177  1.00  0.00    -0.550 OA
ATOM      9  O   UNL     1      26.472 155.764 121.353  1.00  0.00    -0.550 OA
ENDBRANCH   6   7
ENDBRANCH   5   6
ENDBRANCH   4   5
ENDBRANCH   3   4
ENDBRANCH   2   3
ENDBRANCH   1   2
BRANCH   1  10
ATOM     10  C   UNL     1      28.545 161.323 118.589  1.00  0.00     0.000 C 
BRANCH  10  11
ATOM     11  C   UNL     1      28.376 160.630 119.949  1.00  0.00    -0.000 C 
BRANCH  11  12
ATOM     12  C   UNL     1      29.287 159.400 120.114  1.00  0.00    -0.000 C 
BRANCH  12  13
ATOM     13  C   UNL     1      30.656 159.688 120.758  1.00  0.00    -0.000 C 
BRANCH  13  14
ATOM     14  C   UNL     1      31.837 159.273 119.868  1.00  0.00    -0.000 C 
BRANCH  14  15
ATOM     15  C   UNL     1      32.363 160.467 119.063  1.00  0.00    -0.003 C 
ATOM     16  C   UNL     1      32.196 160.239 117.564  1.00  0.00     0.004 C 
ENDBRANCH  14  15
ENDBRANCH  13  14
ENDBRANCH  12  13
ENDBRANCH  11  12
ENDBRANCH  10  11
ENDBRANCH   1  10
TORSDOF 12
ENDMDL
MODEL 6
REMARK VINA RESULT:    -3.724      2.645      4.641
REMARK INTER + INTRA:          -7.275
REMARK INTER:                  -5.987
REMARK INTRA:                  -1.288
REMARK UNBOUND:                -0.938
REMARK SMILES CCCCCCCCCCCCCC(=O)[O-]
REMARK SMILES IDX 8 1 9 2 10 3 11 4 12 5 13 6 14 7 15 8 16 9 7 10 6 11 5 12
REMARK SMILES IDX 4 13 3 14 2 15 1 16
REMARK H PARENT
REMARK Flexibility Score: inf
ROOT
ATOM      1  C   UNL     1      25.850 158.903 117.928  1.00  0.00     0.000 C 
ENDROOT
BRANCH   1   2
ATOM      2  C   UNL     1      26.723 159.620 116.886  1.00  0.00     0.000 C 
BRANCH   2   3
ATOM      3  C   UNL     1      27.650 160.673 117.512  1.00  0.00     0.000 C 
BRANCH   3   4
ATOM      4  C   UNL     1      29.099 160.167 117.563  1.00  0.00     0.000 C 
BRANCH   4   5
ATOM      5  C   UNL     1      29.877 160.705 118.778  1.00  0.00     0.006 C 
BRANCH   5   6
ATOM      6  C   UNL     1      31.253 161.300 118.437  1.00  0.00     0.053 C 
BRANCH   6   7
ATOM      7  C   UNL     1      32.228 160.251 118.000  1.00  0.00     0.041 C 
ATOM      8  O   UNL     1      32.529 159.303 118.773  1.00  0.00    -0.550 OA
ATOM      9  O   UNL     1      32.830 160.337 116.751  1.00  0.00    -0.550 OA
ENDBRANCH   6   7
ENDBRANCH   5   6
ENDBRANCH   4   5
ENDBRANCH   3   4
ENDBRANCH   2   3
ENDBRANCH   1   2
BRANCH   1  10
ATOM     10  C   UNL     1      25.601 157.429 117.581  1.00  0.00     0.000 C 
BRANCH  10  11
ATOM     11  C   UNL     1      25.554 156.566 118.851  1.00  0.00    -0.000 C 
BRANCH  11  12
ATOM     12  C   UNL     1      25.195 157.371 120.112  1.00  0.00    -0.000 C 
BRANCH  12  13
ATOM     13  C   UNL     1      26.027 157.029 121.361  1.00  0.00    -0.000 C 
BRANCH  13  14
ATOM     14  C   UNL     1      27.537 156.982 121.081  1.00  0.00    -0.000 C 
BRANCH  14  15
ATOM     15  C   UNL     1      28.102 158.394 120.885  1.00  0.00    -0.003 C 
ATOM     16  C   UNL     1      27.502 159.373 121.890  1.00  0.00     0.004 C 
ENDBRANCH  14  15
ENDBRANCH  13  14
ENDBRANCH  12  13
ENDBRANCH  11  12
ENDBRANCH  10  11
ENDBRANCH   1  10
TORSDOF 12
ENDMDL
MODEL 7
REMARK VINA RESULT:    -3.696      1.635      3.228
REMARK INTER + INTRA:          -7.226
REMARK INTER:                  -5.669
REMARK INTRA:                  -1.558
REMARK UNBOUND:                -0.938
REMARK SMILES CCCCCCCCCCCCCC(=O)[O-]
REMARK SMILES IDX 8 1 9 2 10 3 11 4 12 5 13 6 14 7 15 8 16 9 7 10 6 11 5 12
REMARK SMILES IDX 4 13 3 14 2 15 1 16
REMARK H PARENT
REMARK Flexibility Score: inf
ROOT
ATOM      1  C   UNL     1      31.390 160.404 117.998  1.00  0.00     0.000 C 
ENDROOT
BRANCH   1   2
ATOM      2  C   UNL     1      30.608 161.253 119.013  1.00  0.00     0.000 C 
BRANCH   2   3
ATOM      3  C   UNL     1      29.088 161.178 118.801  1.00  0.00     0.000 C 
BRANCH   3   4
ATOM      4  C   UNL     1      28.736 160.148 117.718  1.00  0.00     0.000 C 
BRANCH   4   5
ATOM      5  C   UNL     1      27.675 160.661 116.726  1.00  0.00     0.006 C 
BRANCH   5   6
ATOM      6  C   UNL     1      26.686 159.588 116.244  1.00  0.00     0.053 C 
BRANCH   6   7
ATOM      7  C   UNL     1      25.788 159.115 117.345  1.00  0.00     0.041 C 
ATOM      8  O   UNL     1      25.245 159.945 118.122  1.00  0.00    -0.550 OA
ATOM      9  O   UNL     1      25.576 157.755 117.535  1.00  0.00    -0.550 OA
ENDBRANCH   6   7
ENDBRANCH   5   6
ENDBRANCH   4   5
ENDBRANCH   3   4
ENDBRANCH   2   3
ENDBRANCH   1   2
BRANCH   1  10
ATOM     10  C   UNL     1      32.466 159.531 118.659  1.00  0.00     0.000 C 
BRANCH  10  11
ATOM     11  C   UNL     1      32.232 159.422 120.173  1.00  0.00    -0.000 C 
BRANCH  11  12
ATOM     12  C   UNL     1      32.011 157.973 120.645  1.00  0.00    -0.000 C 
BRANCH  12  13
ATOM     13  C   UNL     1      30.919 157.798 121.717  1.00  0.00    -0.000 C 
BRANCH  13  14
ATOM     14  C   UNL     1      29.622 158.548 121.380  1.00  0.00    -0.000 C 
BRANCH  14  15
ATOM     15  C   UNL     1      28.454 157.571 121.205  1.00  0.00    -0.003 C 
ATOM     16  C   UNL     1      27.202 158.291 120.710  1.00  0.00     0.004 C 
ENDBRANCH  14  15
ENDBRANCH  13  14
ENDBRANCH  12  13
ENDBRANCH  11  12
ENDBRANCH  10  11
ENDBRANCH   1  10
TORSDOF 12
ENDMDL
MODEL 8
REMARK VINA RESULT:    -3.692      1.893      5.480
REMARK INTER + INTRA:          -7.221
REMARK INTER:                  -6.260
REMARK INTRA:                  -0.961
REMARK UNBOUND:                -0.938
REMARK SMILES CCCCCCCCCCCCCC(=O)[O-]
REMARK SMILES IDX 8 1 9 2 10 3 11 4 12 5 13 6 14 7 15 8 16 9 7 10 6 11 5 12
REMARK SMILES IDX 4 13 3 14 2 15 1 16
REMARK H PARENT
REMARK Flexibility Score: inf
ROOT
ATOM      1  C   UNL     1      28.082 160.943 117.895  1.00  0.00     0.000 C 
ENDROOT
BRANCH   1   2
ATOM      2  C   UNL     1      27.426 160.373 116.628  1.00  0.00     0.000 C 
BRANCH   2   3
ATOM      3  C   UNL     1      26.482 159.198 116.927  1.00  0.00     0.000 C 
BRANCH   3   4
ATOM      4  C   UNL     1      25.586 159.509 118.136  1.00  0.00     0.000 C 
BRANCH   4   5
ATOM      5  C   UNL     1      25.710 158.460 119.257  1.00  0.00     0.006 C 
BRANCH   5   6
ATOM      6  C   UNL     1      25.615 157.003 118.774  1.00  0.00     0.053 C 
BRANCH   6   7
ATOM      7  C   UNL     1      26.288 156.053 119.716  1.00  0.00     0.041 C 
ATOM      8  O   UNL     1      26.022 154.822 119.674  1.00  0.00    -0.550 OA
ATOM      9  O   UNL     1      27.184 156.530 120.664  1.00  0.00    -0.550 OA
ENDBRANCH   6   7
ENDBRANCH   5   6
ENDBRANCH   4   5
ENDBRANCH   3   4
ENDBRANCH   2   3
ENDBRANCH   1   2
BRANCH   1  10
ATOM     10  C   UNL     1      29.107 159.984 118.516  1.00  0.00     0.000 C 
BRANCH  10  11
ATOM     11  C   UNL     1      30.480 160.137 117.844  1.00  0.00    -0.000 C 
BRANCH  11  12
ATOM     12  C   UNL     1      31.478 160.946 118.692  1.00  0.00    -0.000 C 
BRANCH  12  13
ATOM     13  C   UNL     1      32.569 160.110 119.385  1.00  0.00    -0.000 C 
BRANCH  13  14
ATOM     14  C   UNL     1      32.082 159.440 120.678  1.00  0.00    -0.000 C 
BRANCH  14  15
ATOM     15  C   UNL     1      32.132 157.913 120.557  1.00  0.00    -0.003 C 
ATOM     16  C   UNL     1      31.008 157.259 121.357  1.00  0.00     0.004 C 
ENDBRANCH  14  15
ENDBRANCH  13  14
ENDBRANCH  12  13
ENDBRANCH  11  12
ENDBRANCH  10  11
ENDBRANCH   1  10
TORSDOF 12
ENDMDL
MODEL 9
REMARK VINA RESULT:    -3.651      1.828      5.353
REMARK INTER + INTRA:          -7.151
REMARK INTER:                  -5.509
REMARK INTRA:                  -1.641
REMARK UNBOUND:                -0.938
REMARK SMILES CCCCCCCCCCCCCC(=O)[O-]
REMARK SMILES IDX 8 1 9 2 10 3 11 4 12 5 13 6 14 7 15 8 16 9 7 10 6 11 5 12
REMARK SMILES IDX 4 13 3 14 2 15 1 16
REMARK H PARENT
REMARK Flexibility Score: inf
ROOT
ATOM      1  C   UNL     1      28.768 160.886 119.835  1.00  0.00     0.000 C 
ENDROOT
BRANCH   1   2
ATOM      2  C   UNL     1      28.416 159.390 119.840  1.00  0.00     0.000 C 
BRANCH   2   3
ATOM      3  C   UNL     1      27.850 158.920 121.189  1.00  0.00     0.000 C 
BRANCH   3   4
ATOM      4  C   UNL     1      27.790 157.386 121.253  1.00  0.00     0.000 C 
BRANCH   4   5
ATOM      5  C   UNL     1      26.353 156.850 121.396  1.00  0.00     0.006 C 
BRANCH   5   6
ATOM      6  C   UNL     1      25.410 157.249 120.249  1.00  0.00     0.053 C 
BRANCH   6   7
ATOM      7  C   UNL     1      25.625 156.411 119.027  1.00  0.00     0.041 C 
ATOM      8  O   UNL     1      26.021 155.221 119.136  1.00  0.00    -0.550 OA
ATOM      9  O   UNL     1      25.420 156.955 117.765  1.00  0.00    -0.550 OA
ENDBRANCH   6   7
ENDBRANCH   5   6
ENDBRANCH   4   5
ENDBRANCH   3   4
ENDBRANCH   2   3
ENDBRANCH   1   2
BRANCH   1  10
ATOM     10  C   UNL     1      29.436 161.334 118.526  1.00  0.00     0.000 C 
BRANCH  10  11
ATOM     11  C   UNL     1      30.384 160.249 117.994  1.00  0.00    -0.000 C 
BRANCH  11  12
ATOM     12  C   UNL     1      31.852 160.487 118.391  1.00  0.00    -0.000 C 
BRANCH  12  13
ATOM     13  C   UNL     1      32.417 159.489 119.418  1.00  0.00    -0.000 C 
BRANCH  13  14
ATOM     14  C   UNL     1      32.267 159.972 120.869  1.00  0.00    -0.000 C 
BRANCH  14  15
ATOM     15  C   UNL     1      31.619 158.891 121.742  1.00  0.00    -0.003 C 
ATOM     16  C   UNL     1      31.535 157.560 121.000  1.00  0.00     0.004 C 
ENDBRANCH  14  15
ENDBRANCH  13  14
ENDBRANCH  12  13
ENDBRANCH  11  12
ENDBRANCH  10  11
ENDBRANCH   1  10
TORSDOF 12
ENDMDL
