MODEL 1
REMARK VINA RESULT:    -4.158      0.000      0.000
REMARK INTER + INTRA:         -10.658
REMARK INTER:                  -8.047
REMARK INTRA:                  -2.611
REMARK UNBOUND:                -2.611
REMARK SMILES CCCCCCCCCCCCCCCCCC(=O)[O-]
REMARK SMILES IDX 10 1 11 2 12 3 13 4 14 5 15 6 16 7 17 8 18 9 19 10 20 11
REMARK SMILES IDX 9 12 8 13 7 14 6 15 5 16 4 17 3 18 2 19 1 20
REMARK H PARENT
REMARK Flexibility Score: inf
ROOT
ATOM      1  C   UNL     1     104.950 308.032 201.067  1.00  0.00     0.000 C 
ENDROOT
BRANCH   1   2
ATOM      2  C   UNL     1     105.052 309.369 200.323  1.00  0.00     0.000 C 
BRANCH   2   3
ATOM      3  C   UNL     1     103.874 310.289 200.682  1.00  0.00     0.000 C 
BRANCH   3   4
ATOM      4  C   UNL     1     104.289 311.463 201.584  1.00  0.00     0.000 C 
BRANCH   4   5
ATOM      5  C   UNL     1     103.336 312.664 201.465  1.00  0.00     0.000 C 
BRANCH   5   6
ATOM      6  C   UNL     1     102.914 313.219 202.835  1.00  0.00     0.000 C 
BRANCH   6   7
ATOM      7  C   UNL     1     104.059 313.947 203.559  1.00  0.00     0.006 C 
BRANCH   7   8
ATOM      8  C   UNL     1     104.636 313.116 204.712  1.00  0.00     0.053 C 
BRANCH   8   9
ATOM      9  C   UNL     1     104.208 313.647 206.047  1.00  0.00     0.041 C 
ATOM     10  O   UNL     1     104.317 314.874 206.305  1.00  0.00    -0.550 OA
ATOM     11  O   UNL     1     103.719 312.780 207.016  1.00  0.00    -0.550 OA
ENDBRANCH   8   9
ENDBRANCH   7   8
ENDBRANCH   6   7
ENDBRANCH   5   6
ENDBRANCH   4   5
ENDBRANCH   3   4
ENDBRANCH   2   3
ENDBRANCH   1   2
BRANCH   1  12
ATOM     12  C   UNL     1     103.698 307.987 201.951  1.00  0.00     0.000 C 
BRANCH  12  13
ATOM     13  C   UNL     1     103.959 307.180 203.232  1.00  0.00    -0.000 C 
BRANCH  13  14
ATOM     14  C   UNL     1     104.935 307.886 204.189  1.00  0.00    -0.000 C 
BRANCH  14  15
ATOM     15  C   UNL     1     104.650 309.391 204.319  1.00  0.00    -0.000 C 
BRANCH  15  16
ATOM     16  C   UNL     1     103.505 309.699 205.300  1.00  0.00    -0.000 C 
BRANCH  16  17
ATOM     17  C   UNL     1     102.230 310.287 204.659  1.00  0.00    -0.000 C 
BRANCH  17  18
ATOM     18  C   UNL     1     101.044 309.313 204.552  1.00  0.00    -0.000 C 
BRANCH  18  19
ATOM     19  C   UNL     1      99.997 309.759 203.521  1.00  0.00    -0.003 C 
ATOM     20  C   UNL     1     100.611 309.873 202.129  1.00  0.00     0.004 C 
ENDBRANCH  18  19
ENDBRANCH  17  18
ENDBRANCH  16  17
ENDBRANCH  15  16
ENDBRANCH  14  15
ENDBRANCH  13  14
ENDBRANCH  12  13
ENDBRANCH   1  12
TORSDOF 16
ENDMDL
MODEL 2
REMARK VINA RESULT:    -4.019      1.225      3.161
REMARK INTER + INTRA:         -10.388
REMARK INTER:                  -7.575
REMARK INTRA:                  -2.814
REMARK UNBOUND:                -2.611
REMARK SMILES CCCCCCCCCCCCCCCCCC(=O)[O-]
REMARK SMILES IDX 10 1 11 2 12 3 13 4 14 5 15 6 16 7 17 8 18 9 19 10 20 11
REMARK SMILES IDX 9 12 8 13 7 14 6 15 5 16 4 17 3 18 2 19 1 20
REMARK H PARENT
REMARK Flexibility Score: inf
ROOT
ATOM      1  C   UNL     1     103.733 307.771 201.862  1.00  0.00     0.000 C 
ENDROOT
BRANCH   1   2
ATOM      2  C   UNL     1     103.999 307.381 203.321  1.00  0.00     0.000 C 
BRANCH   2   3
ATOM      3  C   UNL     1     105.050 308.307 203.953  1.00  0.00     0.000 C 
BRANCH   3   4
ATOM      4  C   UNL     1     104.429 309.553 204.606  1.00  0.00     0.000 C 
BRANCH   4   5
ATOM      5  C   UNL     1     105.125 310.855 204.171  1.00  0.00     0.000 C 
BRANCH   5   6
ATOM      6  C   UNL     1     104.611 312.082 204.942  1.00  0.00     0.000 C 
BRANCH   6   7
ATOM      7  C   UNL     1     104.690 313.378 204.116  1.00  0.00     0.006 C 
BRANCH   7   8
ATOM      8  C   UNL     1     103.383 314.179 204.169  1.00  0.00     0.053 C 
BRANCH   8   9
ATOM      9  C   UNL     1     103.607 315.574 204.668  1.00  0.00     0.041 C 
ATOM     10  O   UNL     1     103.774 316.519 203.853  1.00  0.00    -0.550 OA
ATOM     11  O   UNL     1     103.663 315.824 206.033  1.00  0.00    -0.550 OA
ENDBRANCH   8   9
ENDBRANCH   7   8
ENDBRANCH   6   7
ENDBRANCH   5   6
ENDBRANCH   4   5
ENDBRANCH   3   4
ENDBRANCH   2   3
ENDBRANCH   1   2
BRANCH   1  12
ATOM     12  C   UNL     1     105.042 308.093 201.129  1.00  0.00     0.000 C 
BRANCH  12  13
ATOM     13  C   UNL     1     104.855 309.275 200.165  1.00  0.00    -0.000 C 
BRANCH  13  14
ATOM     14  C   UNL     1     104.232 310.504 200.848  1.00  0.00    -0.000 C 
BRANCH  14  15
ATOM     15  C   UNL     1     102.948 310.980 200.149  1.00  0.00    -0.000 C 
BRANCH  15  16
ATOM     16  C   UNL     1     102.021 311.779 201.082  1.00  0.00    -0.000 C 
BRANCH  16  17
ATOM     17  C   UNL     1     101.837 311.184 202.493  1.00  0.00    -0.000 C 
BRANCH  17  18
ATOM     18  C   UNL     1     100.812 310.041 202.593  1.00  0.00    -0.000 C 
BRANCH  18  19
ATOM     19  C   UNL     1     100.923 309.254 203.906  1.00  0.00    -0.003 C 
ATOM     20  C   UNL     1     100.873 310.187 205.112  1.00  0.00     0.004 C 
ENDBRANCH  18  19
ENDBRANCH  17  18
ENDBRANCH  16  17
ENDBRANCH  15  16
ENDBRANCH  14  15
ENDBRANCH  13  14
ENDBRANCH  12  13
ENDBRANCH   1  12
TORSDOF 16
ENDMDL
MODEL 3
REMARK VINA RESULT:    -3.989      1.447      3.785
REMARK INTER + INTRA:         -10.331
REMARK INTER:                  -7.679
REMARK INTRA:                  -2.652
REMARK UNBOUND:                -2.611
REMARK SMILES CCCCCCCCCCCCCCCCCC(=O)[O-]
REMARK SMILES IDX 10 1 11 2 12 3 13 4 14 5 15 6 16 7 17 8 18 9 19 10 20 11
REMARK SMILES IDX 9 12 8 13 7 14 6 15 5 16 4 17 3 18 2 19 1 20
REMARK H PARENT
REMARK Flexibility Score: inf
ROOT
ATOM      1  C   UNL     1     103.697 310.267 200.422  1.00  0.00     0.000 C 
ENDROOT
BRANCH   1   2
ATOM      2  C   UNL     1     105.085 309.656 200.650  1.00  0.00     0.000 C 
BRANCH   2   3
ATOM      3  C   UNL     1     104.975 308.173 201.036  1.00  0.00     0.000 C 
BRANCH   3   4
ATOM      4  C   UNL     1     103.748 307.875 201.913  1.00  0.00     0.000 C 
BRANCH   4   5
ATOM      5  C   UNL     1     104.122 307.178 203.232  1.00  0.00     0.000 C 
BRANCH   5   6
ATOM      6  C   UNL     1     104.797 308.131 204.231  1.00  0.00     0.000 C 
BRANCH   6   7
ATOM      7  C   UNL     1     103.941 309.371 204.542  1.00  0.00     0.006 C 
BRANCH   7   8
ATOM      8  C   UNL     1     104.741 310.674 204.414  1.00  0.00     0.053 C 
BRANCH   8   9
ATOM      9  C   UNL     1     104.583 311.543 205.625  1.00  0.00     0.041 C 
ATOM     10  O   UNL     1     104.229 311.040 206.724  1.00  0.00    -0.550 OA
ATOM     11  O   UNL     1     104.794 312.912 205.531  1.00  0.00    -0.550 OA
ENDBRANCH   8   9
ENDBRANCH   7   8
ENDBRANCH   6   7
ENDBRANCH   5   6
ENDBRANCH   4   5
ENDBRANCH   3   4
ENDBRANCH   2   3
ENDBRANCH   1   2
BRANCH   1  12
ATOM     12  C   UNL     1     103.457 311.456 201.361  1.00  0.00     0.000 C 
BRANCH  12  13
ATOM     13  C   UNL     1     101.954 311.691 201.576  1.00  0.00    -0.000 C 
BRANCH  13  14
ATOM     14  C   UNL     1     101.103 310.468 201.197  1.00  0.00    -0.000 C 
BRANCH  14  15
ATOM     15  C   UNL     1     100.887 309.508 202.380  1.00  0.00    -0.000 C 
BRANCH  15  16
ATOM     16  C   UNL     1      99.422 309.460 202.849  1.00  0.00    -0.000 C 
BRANCH  16  17
ATOM     17  C   UNL     1      99.163 310.032 204.258  1.00  0.00    -0.000 C 
BRANCH  17  18
ATOM     18  C   UNL     1     100.110 309.519 205.357  1.00  0.00    -0.000 C 
BRANCH  18  19
ATOM     19  C   UNL     1     100.794 310.654 206.132  1.00  0.00    -0.003 C 
ATOM     20  C   UNL     1     100.932 311.904 205.269  1.00  0.00     0.004 C 
ENDBRANCH  18  19
ENDBRANCH  17  18
ENDBRANCH  16  17
ENDBRANCH  15  16
ENDBRANCH  14  15
ENDBRANCH  13  14
ENDBRANCH  12  13
ENDBRANCH   1  12
TORSDOF 16
ENDMDL
MODEL 4
REMARK VINA RESULT:    -3.974      1.746      3.614
REMARK INTER + INTRA:         -10.303
REMARK INTER:                  -8.240
REMARK INTRA:                  -2.063
REMARK UNBOUND:                -2.611
REMARK SMILES CCCCCCCCCCCCCCCCCC(=O)[O-]
REMARK SMILES IDX 10 1 11 2 12 3 13 4 14 5 15 6 16 7 17 8 18 9 19 10 20 11
REMARK SMILES IDX 9 12 8 13 7 14 6 15 5 16 4 17 3 18 2 19 1 20
REMARK H PARENT
REMARK Flexibility Score: inf
ROOT
ATOM      1  C   UNL     1     104.749 308.209 204.253  1.00  0.00     0.000 C 
ENDROOT
BRANCH   1   2
ATOM      2  C   UNL     1     103.679 309.197 204.731  1.00  0.00     0.000 C 
BRANCH   2   3
ATOM      3  C   UNL     1     104.322 310.474 205.294  1.00  0.00     0.000 C 
BRANCH   3   4
ATOM      4  C   UNL     1     103.644 310.962 206.585  1.00  0.00     0.000 C 
BRANCH   4   5
ATOM      5  C   UNL     1     103.684 312.494 206.729  1.00  0.00     0.000 C 
BRANCH   5   6
ATOM      6  C   UNL     1     104.487 313.170 205.606  1.00  0.00     0.000 C 
BRANCH   6   7
ATOM      7  C   UNL     1     105.124 314.499 206.049  1.00  0.00     0.006 C 
BRANCH   7   8
ATOM      8  C   UNL     1     104.121 315.659 206.021  1.00  0.00     0.053 C 
BRANCH   8   9
ATOM      9  C   UNL     1     104.482 316.681 204.986  1.00  0.00     0.041 C 
ATOM     10  O   UNL     1     104.179 317.891 205.157  1.00  0.00    -0.550 OA
ATOM     11  O   UNL     1     105.125 316.291 203.818  1.00  0.00    -0.550 OA
ENDBRANCH   8   9
ENDBRANCH   7   8
ENDBRANCH   6   7
ENDBRANCH   5   6
ENDBRANCH   4   5
ENDBRANCH   3   4
ENDBRANCH   2   3
ENDBRANCH   1   2
BRANCH   1  12
ATOM     12  C   UNL     1     104.146 307.151 203.320  1.00  0.00     0.000 C 
BRANCH  12  13
ATOM     13  C   UNL     1     103.793 307.761 201.955  1.00  0.00    -0.000 C 
BRANCH  13  14
ATOM     14  C   UNL     1     105.037 308.146 201.138  1.00  0.00    -0.000 C 
BRANCH  14  15
ATOM     15  C   UNL     1     104.910 309.534 200.487  1.00  0.00    -0.000 C 
BRANCH  15  16
ATOM     16  C   UNL     1     104.983 310.682 201.509  1.00  0.00    -0.000 C 
BRANCH  16  17
ATOM     17  C   UNL     1     103.674 311.474 201.703  1.00  0.00    -0.000 C 
BRANCH  17  18
ATOM     18  C   UNL     1     102.468 310.950 200.903  1.00  0.00    -0.000 C 
BRANCH  18  19
ATOM     19  C   UNL     1     101.159 310.987 201.706  1.00  0.00    -0.003 C 
ATOM     20  C   UNL     1     100.868 309.633 202.345  1.00  0.00     0.004 C 
ENDBRANCH  18  19
ENDBRANCH  17  18
ENDBRANCH  16  17
ENDBRANCH  15  16
ENDBRANCH  14  15
ENDBRANCH  13  14
ENDBRANCH  12  13
ENDBRANCH   1  12
TORSDOF 16
ENDMDL
MODEL 5
REMARK VINA RESULT:    -3.974      3.825      4.842
REMARK INTER + INTRA:         -10.301
REMARK INTER:                  -7.841
REMARK INTRA:                  -2.460
REMARK UNBOUND:                -2.611
REMARK SMILES CCCCCCCCCCCCCCCCCC(=O)[O-]
REMARK SMILES IDX 10 1 11 2 12 3 13 4 14 5 15 6 16 7 17 8 18 9 19 10 20 11
REMARK SMILES IDX 9 12 8 13 7 14 6 15 5 16 4 17 3 18 2 19 1 20
REMARK H PARENT
REMARK Flexibility Score: inf
ROOT
ATOM      1  C   UNL     1     103.754 307.694 201.803  1.00  0.00     0.000 C 
ENDROOT
BRANCH   1   2
ATOM      2  C   UNL     1     105.067 308.159 201.164  1.00  0.00     0.000 C 
BRANCH   2   3
ATOM      3  C   UNL     1     104.838 309.384 200.265  1.00  0.00     0.000 C 
BRANCH   3   4
ATOM      4  C   UNL     1     104.410 310.630 201.058  1.00  0.00     0.000 C 
BRANCH   4   5
ATOM      5  C   UNL     1     102.984 311.091 200.708  1.00  0.00     0.000 C 
BRANCH   5   6
ATOM      6  C   UNL     1     102.727 311.108 199.192  1.00  0.00     0.000 C 
BRANCH   6   7
ATOM      7  C   UNL     1     101.536 312.001 198.802  1.00  0.00     0.006 C 
BRANCH   7   8
ATOM      8  C   UNL     1     100.190 311.368 199.175  1.00  0.00     0.053 C 
BRANCH   8   9
ATOM      9  C   UNL     1      99.437 310.911 197.963  1.00  0.00     0.041 C 
ATOM     10  O   UNL     1     100.007 310.871 196.840  1.00  0.00    -0.550 OA
ATOM     11  O   UNL     1      98.097 310.560 198.066  1.00  0.00    -0.550 OA
ENDBRANCH   8   9
ENDBRANCH   7   8
ENDBRANCH   6   7
ENDBRANCH   5   6
ENDBRANCH   4   5
ENDBRANCH   3   4
ENDBRANCH   2   3
ENDBRANCH   1   2
BRANCH   1  12
ATOM     12  C   UNL     1     103.959 307.322 203.277  1.00  0.00     0.000 C 
BRANCH  12  13
ATOM     13  C   UNL     1     104.929 308.300 203.959  1.00  0.00    -0.000 C 
BRANCH  13  14
ATOM     14  C   UNL     1     104.278 309.065 205.124  1.00  0.00    -0.000 C 
BRANCH  14  15
ATOM     15  C   UNL     1     103.960 310.527 204.765  1.00  0.00    -0.000 C 
BRANCH  15  16
ATOM     16  C   UNL     1     102.483 310.742 204.394  1.00  0.00    -0.000 C 
BRANCH  16  17
ATOM     17  C   UNL     1     101.502 309.696 204.963  1.00  0.00    -0.000 C 
BRANCH  17  18
ATOM     18  C   UNL     1     100.188 309.538 204.178  1.00  0.00    -0.000 C 
BRANCH  18  19
ATOM     19  C   UNL     1     100.405 309.467 202.660  1.00  0.00    -0.003 C 
ATOM     20  C   UNL     1      99.076 309.363 201.919  1.00  0.00     0.004 C 
ENDBRANCH  18  19
ENDBRANCH  17  18
ENDBRANCH  16  17
ENDBRANCH  15  16
ENDBRANCH  14  15
ENDBRANCH  13  14
ENDBRANCH  12  13
ENDBRANCH   1  12
TORSDOF 16
ENDMDL
MODEL 6
REMARK VINA RESULT:    -3.960     14.792     17.091
REMARK INTER + INTRA:         -10.276
REMARK INTER:                  -9.116
REMARK INTRA:                  -1.160
REMARK UNBOUND:                -2.611
REMARK SMILES CCCCCCCCCCCCCCCCCC(=O)[O-]
REMARK SMILES IDX 10 1 11 2 12 3 13 4 14 5 15 6 16 7 17 8 18 9 19 10 20 11
REMARK SMILES IDX 9 12 8 13 7 14 6 15 5 16 4 17 3 18 2 19 1 20
REMARK H PARENT
REMARK Flexibility Score: inf
ROOT
ATOM      1  C   UNL     1     100.287 317.366 188.442  1.00  0.00     0.000 C 
ENDROOT
BRANCH   1   2
ATOM      2  C   UNL     1      99.867 318.834 188.583  1.00  0.00     0.000 C 
BRANCH   2   3
ATOM      3  C   UNL     1      98.371 318.948 188.917  1.00  0.00     0.000 C 
BRANCH   3   4
ATOM      4  C   UNL     1      97.987 318.182 190.194  1.00  0.00     0.000 C 
BRANCH   4   5
ATOM      5  C   UNL     1      96.481 317.875 190.267  1.00  0.00     0.000 C 
BRANCH   5   6
ATOM      6  C   UNL     1      95.960 317.826 191.712  1.00  0.00     0.000 C 
BRANCH   6   7
ATOM      7  C   UNL     1      94.433 317.653 191.788  1.00  0.00     0.006 C 
BRANCH   7   8
ATOM      8  C   UNL     1      93.693 318.646 190.882  1.00  0.00     0.053 C 
BRANCH   8   9
ATOM      9  C   UNL     1      92.762 317.948 189.938  1.00  0.00     0.041 C 
ATOM     10  O   UNL     1      91.697 318.510 189.567  1.00  0.00    -0.550 OA
ATOM     11  O   UNL     1      93.054 316.665 189.494  1.00  0.00    -0.550 OA
ENDBRANCH   8   9
ENDBRANCH   7   8
ENDBRANCH   6   7
ENDBRANCH   5   6
ENDBRANCH   4   5
ENDBRANCH   3   4
ENDBRANCH   2   3
ENDBRANCH   1   2
BRANCH   1  12
ATOM     12  C   UNL     1      99.867 316.801 187.080  1.00  0.00     0.000 C 
BRANCH  12  13
ATOM     13  C   UNL     1     100.290 315.330 186.942  1.00  0.00    -0.000 C 
BRANCH  13  14
ATOM     14  C   UNL     1     101.588 315.013 187.702  1.00  0.00    -0.000 C 
BRANCH  14  15
ATOM     15  C   UNL     1     102.563 314.157 186.875  1.00  0.00    -0.000 C 
BRANCH  15  16
ATOM     16  C   UNL     1     104.036 314.404 187.246  1.00  0.00    -0.000 C 
BRANCH  16  17
ATOM     17  C   UNL     1     104.800 313.169 187.765  1.00  0.00    -0.000 C 
BRANCH  17  18
ATOM     18  C   UNL     1     104.225 312.534 189.043  1.00  0.00    -0.000 C 
BRANCH  18  19
ATOM     19  C   UNL     1     104.157 313.518 190.219  1.00  0.00    -0.003 C 
ATOM     20  C   UNL     1     102.830 313.397 190.961  1.00  0.00     0.004 C 
ENDBRANCH  18  19
ENDBRANCH  17  18
ENDBRANCH  16  17
ENDBRANCH  15  16
ENDBRANCH  14  15
ENDBRANCH  13  14
ENDBRANCH  12  13
ENDBRANCH   1  12
TORSDOF 16
ENDMDL
MODEL 7
REMARK VINA RESULT:    -3.907     13.559     15.781
REMARK INTER + INTRA:         -10.172
REMARK INTER:                  -8.793
REMARK INTRA:                  -1.379
REMARK UNBOUND:                -2.611
REMARK SMILES CCCCCCCCCCCCCCCCCC(=O)[O-]
REMARK SMILES IDX 10 1 11 2 12 3 13 4 14 5 15 6 16 7 17 8 18 9 19 10 20 11
REMARK SMILES IDX 9 12 8 13 7 14 6 15 5 16 4 17 3 18 2 19 1 20
REMARK H PARENT
REMARK Flexibility Score: inf
ROOT
ATOM      1  C   UNL     1     101.351 316.104 188.723  1.00  0.00     0.000 C 
ENDROOT
BRANCH   1   2
ATOM      2  C   UNL     1     101.200 314.806 187.920  1.00  0.00     0.000 C 
BRANCH   2   3
ATOM      3  C   UNL     1     102.457 314.531 187.080  1.00  0.00     0.000 C 
BRANCH   3   4
ATOM      4  C   UNL     1     103.742 314.506 187.924  1.00  0.00     0.000 C 
BRANCH   4   5
ATOM      5  C   UNL     1     104.227 313.075 188.218  1.00  0.00     0.000 C 
BRANCH   5   6
ATOM      6  C   UNL     1     104.502 312.842 189.712  1.00  0.00     0.000 C 
BRANCH   6   7
ATOM      7  C   UNL     1     103.663 313.759 190.620  1.00  0.00     0.006 C 
BRANCH   7   8
ATOM      8  C   UNL     1     102.368 313.082 191.088  1.00  0.00     0.053 C 
BRANCH   8   9
ATOM      9  C   UNL     1     101.643 313.914 192.102  1.00  0.00     0.041 C 
ATOM     10  O   UNL     1     101.886 315.145 192.202  1.00  0.00    -0.550 OA
ATOM     11  O   UNL     1     100.722 313.322 192.957  1.00  0.00    -0.550 OA
ENDBRANCH   8   9
ENDBRANCH   7   8
ENDBRANCH   6   7
ENDBRANCH   5   6
ENDBRANCH   4   5
ENDBRANCH   3   4
ENDBRANCH   2   3
ENDBRANCH   1   2
BRANCH   1  12
ATOM     12  C   UNL     1     100.495 317.226 188.122  1.00  0.00     0.000 C 
BRANCH  12  13
ATOM     13  C   UNL     1     100.073 318.234 189.203  1.00  0.00    -0.000 C 
BRANCH  13  14
ATOM     14  C   UNL     1      98.586 318.612 189.113  1.00  0.00    -0.000 C 
BRANCH  14  15
ATOM     15  C   UNL     1      97.682 317.396 188.844  1.00  0.00    -0.000 C 
BRANCH  15  16
ATOM     16  C   UNL     1      96.802 317.027 190.052  1.00  0.00    -0.000 C 
BRANCH  16  17
ATOM     17  C   UNL     1      95.438 317.744 190.115  1.00  0.00    -0.000 C 
BRANCH  17  18
ATOM     18  C   UNL     1      94.994 318.182 191.521  1.00  0.00    -0.000 C 
BRANCH  18  19
ATOM     19  C   UNL     1      93.725 319.048 191.503  1.00  0.00    -0.003 C 
ATOM     20  C   UNL     1      92.730 318.542 190.463  1.00  0.00     0.004 C 
ENDBRANCH  18  19
ENDBRANCH  17  18
ENDBRANCH  16  17
ENDBRANCH  15  16
ENDBRANCH  14  15
ENDBRANCH  13  14
ENDBRANCH  12  13
ENDBRANCH   1  12
TORSDOF 16
ENDMDL
MODEL 8
REMARK VINA RESULT:    -3.894      2.779      4.716
REMARK INTER + INTRA:         -10.148
REMARK INTER:                  -7.136
REMARK INTRA:                  -3.012
REMARK UNBOUND:                -2.611
REMARK SMILES CCCCCCCCCCCCCCCCCC(=O)[O-]
REMARK SMILES IDX 10 1 11 2 12 3 13 4 14 5 15 6 16 7 17 8 18 9 19 10 20 11
REMARK SMILES IDX 9 12 8 13 7 14 6 15 5 16 4 17 3 18 2 19 1 20
REMARK H PARENT
REMARK Flexibility Score: inf
ROOT
ATOM      1  C   UNL     1     104.028 309.358 204.611  1.00  0.00     0.000 C 
ENDROOT
BRANCH   1   2
ATOM      2  C   UNL     1     104.856 308.127 204.224  1.00  0.00     0.000 C 
BRANCH   2   3
ATOM      3  C   UNL     1     104.029 307.155 203.367  1.00  0.00     0.000 C 
BRANCH   3   4
ATOM      4  C   UNL     1     103.670 307.735 201.989  1.00  0.00     0.000 C 
BRANCH   4   5
ATOM      5  C   UNL     1     104.908 308.214 201.210  1.00  0.00     0.000 C 
BRANCH   5   6
ATOM      6  C   UNL     1     104.778 309.671 200.738  1.00  0.00     0.000 C 
BRANCH   6   7
ATOM      7  C   UNL     1     103.372 310.249 200.973  1.00  0.00     0.006 C 
BRANCH   7   8
ATOM      8  C   UNL     1     103.278 311.726 200.569  1.00  0.00     0.053 C 
BRANCH   8   9
ATOM      9  C   UNL     1     102.093 311.986 199.689  1.00  0.00     0.041 C 
ATOM     10  O   UNL     1     102.017 311.448 198.553  1.00  0.00    -0.550 OA
ATOM     11  O   UNL     1     101.089 312.849 200.110  1.00  0.00    -0.550 OA
ENDBRANCH   8   9
ENDBRANCH   7   8
ENDBRANCH   6   7
ENDBRANCH   5   6
ENDBRANCH   4   5
ENDBRANCH   3   4
ENDBRANCH   2   3
ENDBRANCH   1   2
BRANCH   1  12
ATOM     12  C   UNL     1     104.788 310.653 204.302  1.00  0.00     0.000 C 
BRANCH  12  13
ATOM     13  C   UNL     1     104.785 311.594 205.517  1.00  0.00    -0.000 C 
BRANCH  13  14
ATOM     14  C   UNL     1     103.634 312.613 205.476  1.00  0.00    -0.000 C 
BRANCH  14  15
ATOM     15  C   UNL     1     103.421 313.207 204.073  1.00  0.00    -0.000 C 
BRANCH  15  16
ATOM     16  C   UNL     1     101.943 313.209 203.643  1.00  0.00    -0.000 C 
BRANCH  16  17
ATOM     17  C   UNL     1     101.095 312.046 204.198  1.00  0.00    -0.000 C 
BRANCH  17  18
ATOM     18  C   UNL     1     100.454 311.139 203.133  1.00  0.00    -0.000 C 
BRANCH  18  19
ATOM     19  C   UNL     1     100.606 309.645 203.454  1.00  0.00    -0.003 C 
ATOM     20  C   UNL     1     100.299 309.364 204.921  1.00  0.00     0.004 C 
ENDBRANCH  18  19
ENDBRANCH  17  18
ENDBRANCH  16  17
ENDBRANCH  15  16
ENDBRANCH  14  15
ENDBRANCH  13  14
ENDBRANCH  12  13
ENDBRANCH   1  12
TORSDOF 16
ENDMDL
MODEL 9
REMARK VINA RESULT:    -3.846      2.001      3.747
REMARK INTER + INTRA:         -10.054
REMARK INTER:                  -7.299
REMARK INTRA:                  -2.755
REMARK UNBOUND:                -2.611
REMARK SMILES CCCCCCCCCCCCCCCCCC(=O)[O-]
REMARK SMILES IDX 10 1 11 2 12 3 13 4 14 5 15 6 16 7 17 8 18 9 19 10 20 11
REMARK SMILES IDX 9 12 8 13 7 14 6 15 5 16 4 17 3 18 2 19 1 20
REMARK H PARENT
REMARK Flexibility Score: inf
ROOT
ATOM      1  C   UNL     1     105.014 309.275 200.314  1.00  0.00     0.000 C 
ENDROOT
BRANCH   1   2
ATOM      2  C   UNL     1     104.518 310.555 200.997  1.00  0.00     0.000 C 
BRANCH   2   3
ATOM      3  C   UNL     1     103.116 310.937 200.498  1.00  0.00     0.000 C 
BRANCH   3   4
ATOM      4  C   UNL     1     102.431 311.983 201.392  1.00  0.00     0.000 C 
BRANCH   4   5
ATOM      5  C   UNL     1     101.827 311.366 202.666  1.00  0.00     0.000 C 
BRANCH   5   6
ATOM      6  C   UNL     1     101.099 310.041 202.389  1.00  0.00     0.000 C 
BRANCH   6   7
ATOM      7  C   UNL     1     100.701 309.302 203.678  1.00  0.00     0.006 C 
BRANCH   7   8
ATOM      8  C   UNL     1     101.045 310.107 204.938  1.00  0.00     0.053 C 
BRANCH   8   9
ATOM      9  C   UNL     1      99.816 310.492 205.704  1.00  0.00     0.041 C 
ATOM     10  O   UNL     1      98.705 310.574 205.118  1.00  0.00    -0.550 OA
ATOM     11  O   UNL     1      99.905 310.791 207.057  1.00  0.00    -0.550 OA
ENDBRANCH   8   9
ENDBRANCH   7   8
ENDBRANCH   6   7
ENDBRANCH   5   6
ENDBRANCH   4   5
ENDBRANCH   3   4
ENDBRANCH   2   3
ENDBRANCH   1   2
BRANCH   1  12
ATOM     12  C   UNL     1     105.125 308.121 201.318  1.00  0.00     0.000 C 
BRANCH  12  13
ATOM     13  C   UNL     1     103.740 307.724 201.852  1.00  0.00    -0.000 C 
BRANCH  13  14
ATOM     14  C   UNL     1     103.761 307.367 203.348  1.00  0.00    -0.000 C 
BRANCH  14  15
ATOM     15  C   UNL     1     104.960 307.986 204.086  1.00  0.00    -0.000 C 
BRANCH  15  16
ATOM     16  C   UNL     1     104.569 309.195 204.953  1.00  0.00    -0.000 C 
BRANCH  16  17
ATOM     17  C   UNL     1     104.776 310.573 204.292  1.00  0.00    -0.000 C 
BRANCH  17  18
ATOM     18  C   UNL     1     105.070 311.728 205.266  1.00  0.00    -0.000 C 
BRANCH  18  19
ATOM     19  C   UNL     1     103.994 311.880 206.351  1.00  0.00    -0.003 C 
ATOM     20  C   UNL     1     102.993 312.972 205.983  1.00  0.00     0.004 C 
ENDBRANCH  18  19
ENDBRANCH  17  18
ENDBRANCH  16  17
ENDBRANCH  15  16
ENDBRANCH  14  15
ENDBRANCH  13  14
ENDBRANCH  12  13
ENDBRANCH   1  12
TORSDOF 16
ENDMDL
