MODEL 1
REMARK VINA RESULT:    -4.265      0.000      0.000
REMARK INTER + INTRA:          -4.685
REMARK INTER:                  -4.639
REMARK INTRA:                  -0.045
REMARK UNBOUND:                -0.045
REMARK SMILES COc1cc2ccc(=O)oc2cc1O
REMARK SMILES IDX 3 1 13 2 12 3 11 4 5 5 4 6 6 7 7 8 8 9 9 10 10 11 2 12 1 13
REMARK SMILES IDX 14 14
REMARK H PARENT 14 15
REMARK Flexibility Score: inf
ROOT
ATOM      1  C   UNL     1      57.695  39.764 123.322  1.00  0.00     0.161 A 
ATOM      2  C   UNL     1      56.848  38.678 123.028  1.00  0.00     0.161 A 
ATOM      3  C   UNL     1      55.470  38.876 122.884  1.00  0.00     0.098 A 
ATOM      4  C   UNL     1      54.921  40.152 123.030  1.00  0.00     0.142 A 
ATOM      5  C   UNL     1      55.761  41.247 123.323  1.00  0.00     0.022 A 
ATOM      6  C   UNL     1      57.140  41.052 123.469  1.00  0.00     0.062 A 
ATOM      7  C   UNL     1      55.181  42.512 123.463  1.00  0.00     0.019 A 
ATOM      8  C   UNL     1      53.803  42.655 123.310  1.00  0.00     0.094 A 
ATOM      9  C   UNL     1      53.033  41.524 123.018  1.00  0.00     0.336 A 
ATOM     10  O   UNL     1      51.787  41.631 122.876  1.00  0.00    -0.246 OA
ATOM     11  O   UNL     1      53.609  40.331 122.890  1.00  0.00    -0.423 OA
ENDROOT
BRANCH   1  12
ATOM     12  O   UNL     1      59.072  39.528 123.460  1.00  0.00    -0.493 OA
ATOM     13  C   UNL     1      60.089  40.485 123.174  1.00  0.00     0.278 C 
ENDBRANCH   1  12
BRANCH   2  14
ATOM     14  O   UNL     1      57.359  37.388 122.875  1.00  0.00    -0.504 OA
ATOM     15  H   UNL     1      58.309  37.216 122.571  1.00  0.00     0.293 HD
ENDBRANCH   2  14
TORSDOF 2
ENDMDL
MODEL 2
REMARK VINA RESULT:    -4.144      2.433      5.569
REMARK INTER + INTRA:          -4.553
REMARK INTER:                  -4.510
REMARK INTRA:                  -0.043
REMARK UNBOUND:                -0.045
REMARK SMILES COc1cc2ccc(=O)oc2cc1O
REMARK SMILES IDX 3 1 13 2 12 3 11 4 5 5 4 6 6 7 7 8 8 9 9 10 10 11 2 12 1 13
REMARK SMILES IDX 14 14
REMARK H PARENT 14 15
REMARK Flexibility Score: inf
ROOT
ATOM      1  C   UNL     1      51.653  38.897 123.028  1.00  0.00     0.161 A 
ATOM      2  C   UNL     1      51.916  37.516 122.945  1.00  0.00     0.161 A 
ATOM      3  C   UNL     1      53.235  37.048 122.931  1.00  0.00     0.098 A 
ATOM      4  C   UNL     1      54.303  37.945 122.998  1.00  0.00     0.142 A 
ATOM      5  C   UNL     1      54.051  39.331 123.083  1.00  0.00     0.022 A 
ATOM      6  C   UNL     1      52.732  39.802 123.096  1.00  0.00     0.062 A 
ATOM      7  C   UNL     1      55.142  40.203 123.149  1.00  0.00     0.019 A 
ATOM      8  C   UNL     1      56.436  39.685 123.131  1.00  0.00     0.094 A 
ATOM      9  C   UNL     1      56.609  38.300 123.047  1.00  0.00     0.336 A 
ATOM     10  O   UNL     1      57.769  37.811 123.029  1.00  0.00    -0.246 OA
ATOM     11  O   UNL     1      55.554  37.491 122.985  1.00  0.00    -0.423 OA
ENDROOT
BRANCH   1  12
ATOM     12  O   UNL     1      50.318  39.332 123.039  1.00  0.00    -0.493 OA
ATOM     13  C   UNL     1      49.911  40.693 123.142  1.00  0.00     0.278 C 
ENDBRANCH   1  12
BRANCH   2  14
ATOM     14  O   UNL     1      50.875  36.589 122.875  1.00  0.00    -0.504 OA
ATOM     15  H   UNL     1      50.677  35.940 123.628  1.00  0.00     0.293 HD
ENDBRANCH   2  14
TORSDOF 2
ENDMDL
MODEL 3
REMARK VINA RESULT:    -3.966      1.796      5.534
REMARK INTER + INTRA:          -4.359
REMARK INTER:                  -4.315
REMARK INTRA:                  -0.043
REMARK UNBOUND:                -0.045
REMARK SMILES COc1cc2ccc(=O)oc2cc1O
REMARK SMILES IDX 3 1 13 2 12 3 11 4 5 5 4 6 6 7 7 8 8 9 9 10 10 11 2 12 1 13
REMARK SMILES IDX 14 14
REMARK H PARENT 14 15
REMARK Flexibility Score: inf
ROOT
ATOM      1  C   UNL     1      52.695  41.636 123.166  1.00  0.00     0.161 A 
ATOM      2  C   UNL     1      53.899  42.345 122.989  1.00  0.00     0.161 A 
ATOM      3  C   UNL     1      55.118  41.661 122.925  1.00  0.00     0.098 A 
ATOM      4  C   UNL     1      55.154  40.269 123.036  1.00  0.00     0.142 A 
ATOM      5  C   UNL     1      53.953  39.549 123.212  1.00  0.00     0.022 A 
ATOM      6  C   UNL     1      52.731  40.231 123.277  1.00  0.00     0.062 A 
ATOM      7  C   UNL     1      54.022  38.156 123.319  1.00  0.00     0.019 A 
ATOM      8  C   UNL     1      55.262  37.524 123.249  1.00  0.00     0.094 A 
ATOM      9  C   UNL     1      56.410  38.303 123.072  1.00  0.00     0.336 A 
ATOM     10  O   UNL     1      57.540  37.751 123.006  1.00  0.00    -0.246 OA
ATOM     11  O   UNL     1      56.318  39.627 122.973  1.00  0.00    -0.423 OA
ENDROOT
BRANCH   1  12
ATOM     12  O   UNL     1      51.490  42.355 123.227  1.00  0.00    -0.493 OA
ATOM     13  C   UNL     1      50.198  41.761 123.314  1.00  0.00     0.278 C 
ENDBRANCH   1  12
BRANCH   2  14
ATOM     14  O   UNL     1      53.905  43.736 122.876  1.00  0.00    -0.504 OA
ATOM     15  H   UNL     1      53.073  44.262 122.637  1.00  0.00     0.293 HD
ENDBRANCH   2  14
TORSDOF 2
ENDMDL
MODEL 4
REMARK VINA RESULT:    -3.956     14.467     15.822
REMARK INTER + INTRA:          -4.348
REMARK INTER:                  -4.288
REMARK INTRA:                  -0.060
REMARK UNBOUND:                -0.045
REMARK SMILES COc1cc2ccc(=O)oc2cc1O
REMARK SMILES IDX 3 1 13 2 12 3 11 4 5 5 4 6 6 7 7 8 8 9 9 10 10 11 2 12 1 13
REMARK SMILES IDX 14 14
REMARK H PARENT 14 15
REMARK Flexibility Score: inf
ROOT
ATOM      1  C   UNL     1      47.478  37.546 134.578  1.00  0.00     0.161 A 
ATOM      2  C   UNL     1      47.252  38.458 135.628  1.00  0.00     0.161 A 
ATOM      3  C   UNL     1      48.119  38.499 136.726  1.00  0.00     0.098 A 
ATOM      4  C   UNL     1      49.217  37.639 136.792  1.00  0.00     0.142 A 
ATOM      5  C   UNL     1      49.454  36.724 135.745  1.00  0.00     0.022 A 
ATOM      6  C   UNL     1      48.587  36.678 134.645  1.00  0.00     0.062 A 
ATOM      7  C   UNL     1      50.562  35.875 135.840  1.00  0.00     0.019 A 
ATOM      8  C   UNL     1      51.394  35.958 136.956  1.00  0.00     0.094 A 
ATOM      9  C   UNL     1      51.097  36.891 137.954  1.00  0.00     0.336 A 
ATOM     10  O   UNL     1      51.836  36.982 138.970  1.00  0.00    -0.246 OA
ATOM     11  O   UNL     1      50.036  37.687 137.840  1.00  0.00    -0.423 OA
ENDROOT
BRANCH   1  12
ATOM     12  O   UNL     1      46.588  37.531 133.492  1.00  0.00    -0.493 OA
ATOM     13  C   UNL     1      45.453  36.676 133.389  1.00  0.00     0.278 C 
ENDBRANCH   1  12
BRANCH   2  14
ATOM     14  O   UNL     1      46.165  39.333 135.598  1.00  0.00    -0.504 OA
ATOM     15  H   UNL     1      45.251  39.049 135.268  1.00  0.00     0.293 HD
ENDBRANCH   2  14
TORSDOF 2
ENDMDL
MODEL 5
REMARK VINA RESULT:    -3.902      1.919      4.897
REMARK INTER + INTRA:          -4.289
REMARK INTER:                  -4.228
REMARK INTRA:                  -0.061
REMARK UNBOUND:                -0.045
REMARK SMILES COc1cc2ccc(=O)oc2cc1O
REMARK SMILES IDX 3 1 13 2 12 3 11 4 5 5 4 6 6 7 7 8 8 9 9 10 10 11 2 12 1 13
REMARK SMILES IDX 14 14
REMARK H PARENT 14 15
REMARK Flexibility Score: inf
ROOT
ATOM      1  C   UNL     1      53.932  38.432 123.897  1.00  0.00     0.161 A 
ATOM      2  C   UNL     1      54.659  37.238 123.726  1.00  0.00     0.161 A 
ATOM      3  C   UNL     1      56.045  37.277 123.531  1.00  0.00     0.098 A 
ATOM      4  C   UNL     1      56.720  38.499 123.505  1.00  0.00     0.142 A 
ATOM      5  C   UNL     1      56.002  39.701 123.677  1.00  0.00     0.022 A 
ATOM      6  C   UNL     1      54.615  39.665 123.871  1.00  0.00     0.062 A 
ATOM      7  C   UNL     1      56.706  40.908 123.646  1.00  0.00     0.019 A 
ATOM      8  C   UNL     1      58.086  40.891 123.449  1.00  0.00     0.094 A 
ATOM      9  C   UNL     1      58.732  39.661 123.287  1.00  0.00     0.336 A 
ATOM     10  O   UNL     1      59.978  39.623 123.107  1.00  0.00    -0.246 OA
ATOM     11  O   UNL     1      58.038  38.526 123.320  1.00  0.00    -0.423 OA
ENDROOT
BRANCH   1  12
ATOM     12  O   UNL     1      52.543  38.356 124.089  1.00  0.00    -0.493 OA
ATOM     13  C   UNL     1      51.576  38.456 123.048  1.00  0.00     0.278 C 
ENDBRANCH   1  12
BRANCH   2  14
ATOM     14  O   UNL     1      54.020  35.997 123.745  1.00  0.00    -0.504 OA
ATOM     15  H   UNL     1      54.372  35.216 124.283  1.00  0.00     0.293 HD
ENDBRANCH   2  14
TORSDOF 2
ENDMDL
MODEL 6
REMARK VINA RESULT:    -3.848      2.098      3.791
REMARK INTER + INTRA:          -4.231
REMARK INTER:                  -4.185
REMARK INTRA:                  -0.046
REMARK UNBOUND:                -0.045
REMARK SMILES COc1cc2ccc(=O)oc2cc1O
REMARK SMILES IDX 3 1 13 2 12 3 11 4 5 5 4 6 6 7 7 8 8 9 9 10 10 11 2 12 1 13
REMARK SMILES IDX 14 14
REMARK H PARENT 14 15
REMARK Flexibility Score: inf
ROOT
ATOM      1  C   UNL     1      56.792  41.870 123.381  1.00  0.00     0.161 A 
ATOM      2  C   UNL     1      55.412  42.090 123.199  1.00  0.00     0.161 A 
ATOM      3  C   UNL     1      54.521  41.012 123.181  1.00  0.00     0.098 A 
ATOM      4  C   UNL     1      54.990  39.706 123.343  1.00  0.00     0.142 A 
ATOM      5  C   UNL     1      56.369  39.474 123.527  1.00  0.00     0.022 A 
ATOM      6  C   UNL     1      57.264  40.551 123.545  1.00  0.00     0.062 A 
ATOM      7  C   UNL     1      56.807  38.155 123.686  1.00  0.00     0.019 A 
ATOM      8  C   UNL     1      55.877  37.116 123.659  1.00  0.00     0.094 A 
ATOM      9  C   UNL     1      54.525  37.423 123.474  1.00  0.00     0.336 A 
ATOM     10  O   UNL     1      53.669  36.500 123.446  1.00  0.00    -0.246 OA
ATOM     11  O   UNL     1      54.134  38.686 123.324  1.00  0.00    -0.423 OA
ENDROOT
BRANCH   1  12
ATOM     12  O   UNL     1      57.658  42.975 123.394  1.00  0.00    -0.493 OA
ATOM     13  C   UNL     1      59.010  42.948 122.948  1.00  0.00     0.278 C 
ENDBRANCH   1  12
BRANCH   2  14
ATOM     14  O   UNL     1      54.907  43.381 123.034  1.00  0.00    -0.504 OA
ATOM     15  H   UNL     1      53.992  43.556 122.636  1.00  0.00     0.293 HD
ENDBRANCH   2  14
TORSDOF 2
ENDMDL
MODEL 7
REMARK VINA RESULT:    -3.812      3.413      5.400
REMARK INTER + INTRA:          -4.191
REMARK INTER:                  -4.127
REMARK INTRA:                  -0.064
REMARK UNBOUND:                -0.045
REMARK SMILES COc1cc2ccc(=O)oc2cc1O
REMARK SMILES IDX 3 1 13 2 12 3 11 4 5 5 4 6 6 7 7 8 8 9 9 10 10 11 2 12 1 13
REMARK SMILES IDX 14 14
REMARK H PARENT 14 15
REMARK Flexibility Score: inf
ROOT
ATOM      1  C   UNL     1      55.133  36.888 124.179  1.00  0.00     0.161 A 
ATOM      2  C   UNL     1      55.430  36.727 125.547  1.00  0.00     0.161 A 
ATOM      3  C   UNL     1      56.498  37.422 126.124  1.00  0.00     0.098 A 
ATOM      4  C   UNL     1      57.281  38.283 125.351  1.00  0.00     0.142 A 
ATOM      5  C   UNL     1      56.991  38.453 123.981  1.00  0.00     0.022 A 
ATOM      6  C   UNL     1      55.923  37.758 123.400  1.00  0.00     0.062 A 
ATOM      7  C   UNL     1      57.793  39.323 123.234  1.00  0.00     0.019 A 
ATOM      8  C   UNL     1      58.845  39.991 123.858  1.00  0.00     0.094 A 
ATOM      9  C   UNL     1      59.072  39.774 125.221  1.00  0.00     0.336 A 
ATOM     10  O   UNL     1      60.017  40.368 125.804  1.00  0.00    -0.246 OA
ATOM     11  O   UNL     1      58.294  38.941 125.910  1.00  0.00    -0.423 OA
ENDROOT
BRANCH   1  12
ATOM     12  O   UNL     1      54.055  36.174 123.632  1.00  0.00    -0.493 OA
ATOM     13  C   UNL     1      52.802  36.751 123.275  1.00  0.00     0.278 C 
ENDBRANCH   1  12
BRANCH   2  14
ATOM     14  O   UNL     1      54.672  35.875 126.351  1.00  0.00    -0.504 OA
ATOM     15  H   UNL     1      54.926  34.907 126.503  1.00  0.00     0.293 HD
ENDBRANCH   2  14
TORSDOF 2
ENDMDL
MODEL 8
REMARK VINA RESULT:    -3.778      2.229      2.836
REMARK INTER + INTRA:          -4.154
REMARK INTER:                  -4.110
REMARK INTRA:                  -0.044
REMARK UNBOUND:                -0.045
REMARK SMILES COc1cc2ccc(=O)oc2cc1O
REMARK SMILES IDX 3 1 13 2 12 3 11 4 5 5 4 6 6 7 7 8 8 9 9 10 10 11 2 12 1 13
REMARK SMILES IDX 14 14
REMARK H PARENT 14 15
REMARK Flexibility Score: inf
ROOT
ATOM      1  C   UNL     1      56.240  39.533 123.247  1.00  0.00     0.161 A 
ATOM      2  C   UNL     1      56.285  38.126 123.192  1.00  0.00     0.161 A 
ATOM      3  C   UNL     1      55.100  37.381 123.188  1.00  0.00     0.098 A 
ATOM      4  C   UNL     1      53.861  38.024 123.238  1.00  0.00     0.142 A 
ATOM      5  C   UNL     1      53.805  39.433 123.292  1.00  0.00     0.022 A 
ATOM      6  C   UNL     1      54.989  40.181 123.297  1.00  0.00     0.062 A 
ATOM      7  C   UNL     1      52.549  40.048 123.342  1.00  0.00     0.019 A 
ATOM      8  C   UNL     1      51.400  39.259 123.336  1.00  0.00     0.094 A 
ATOM      9  C   UNL     1      51.533  37.868 123.279  1.00  0.00     0.336 A 
ATOM     10  O   UNL     1      50.508  37.137 123.273  1.00  0.00    -0.246 OA
ATOM     11  O   UNL     1      52.740  37.308 123.233  1.00  0.00    -0.423 OA
ENDROOT
BRANCH   1  12
ATOM     12  O   UNL     1      57.448  40.248 123.250  1.00  0.00    -0.493 OA
ATOM     13  C   UNL     1      57.587  41.599 123.682  1.00  0.00     0.278 C 
ENDBRANCH   1  12
BRANCH   2  14
ATOM     14  O   UNL     1      57.503  37.447 123.142  1.00  0.00    -0.504 OA
ATOM     15  H   UNL     1      58.338  37.802 123.592  1.00  0.00     0.293 HD
ENDBRANCH   2  14
TORSDOF 2
ENDMDL
MODEL 9
REMARK VINA RESULT:    -3.776     14.177     15.520
REMARK INTER + INTRA:          -4.153
REMARK INTER:                  -4.088
REMARK INTRA:                  -0.065
REMARK UNBOUND:                -0.045
REMARK SMILES COc1cc2ccc(=O)oc2cc1O
REMARK SMILES IDX 3 1 13 2 12 3 11 4 5 5 4 6 6 7 7 8 8 9 9 10 10 11 2 12 1 13
REMARK SMILES IDX 14 14
REMARK H PARENT 14 15
REMARK Flexibility Score: inf
ROOT
ATOM      1  C   UNL     1      46.892  37.840 134.265  1.00  0.00     0.161 A 
ATOM      2  C   UNL     1      47.653  36.843 133.621  1.00  0.00     0.161 A 
ATOM      3  C   UNL     1      48.747  36.261 134.270  1.00  0.00     0.098 A 
ATOM      4  C   UNL     1      49.096  36.660 135.562  1.00  0.00     0.142 A 
ATOM      5  C   UNL     1      48.341  37.656 136.217  1.00  0.00     0.022 A 
ATOM      6  C   UNL     1      47.246  38.242 135.570  1.00  0.00     0.062 A 
ATOM      7  C   UNL     1      48.716  38.034 137.510  1.00  0.00     0.019 A 
ATOM      8  C   UNL     1      49.815  37.422 138.111  1.00  0.00     0.094 A 
ATOM      9  C   UNL     1      50.516  36.441 137.402  1.00  0.00     0.336 A 
ATOM     10  O   UNL     1      51.511  35.876 137.926  1.00  0.00    -0.246 OA
ATOM     11  O   UNL     1      50.139  36.099 136.172  1.00  0.00    -0.423 OA
ENDROOT
BRANCH   1  12
ATOM     12  O   UNL     1      45.801  38.403 133.584  1.00  0.00    -0.493 OA
ATOM     13  C   UNL     1      44.444  38.011 133.767  1.00  0.00     0.278 C 
ENDBRANCH   1  12
BRANCH   2  14
ATOM     14  O   UNL     1      47.335  36.419 132.330  1.00  0.00    -0.504 OA
ATOM     15  H   UNL     1      46.636  35.707 132.152  1.00  0.00     0.293 HD
ENDBRANCH   2  14
TORSDOF 2
ENDMDL
