MODEL 1
REMARK VINA RESULT:    -2.355      0.000      0.000
REMARK INTER + INTRA:          -2.549
REMARK INTER:                  -2.561
REMARK INTRA:                   0.012
REMARK UNBOUND:                 0.012
REMARK SMILES C[C@H]1[C@H](C)CC[C@]2(C(=O)[O-])CC[C@]3(C)C(=CC[C@H]4[C@@]5(C)CC[C@H](O)C(C)(C)[C@H]5CC[C@]43C)[C@H]12
REMARK SMILES IDX 7 1 6 2 11 3 33 4 5 5 12 6 15 7 2 8 3 9 13 10 16 11 1 12
REMARK SMILES IDX 4 13 14 14 31 15 17 16 18 17 30 18 32 19 19 20 29 21 28 22
REMARK SMILES IDX 21 23 20 24 25 25 22 26 23 27 26 28 27 29 8 30 9 31 10 32
REMARK SMILES IDX 24 33
REMARK H PARENT 24 34
REMARK Flexibility Score: inf
ROOT
ATOM      1  C   UNL     1       0.194   5.649   6.943  1.00  0.00     0.017 C 
ATOM      2  C   UNL     1       1.569   4.953   6.751  1.00  0.00     0.014 C 
ATOM      3  C   UNL     1       0.371   7.082   7.512  1.00  0.00     0.014 C 
ATOM      4  C   UNL     1      -0.715   4.821   7.911  1.00  0.00     0.030 C 
ATOM      5  C   UNL     1       2.234   4.520   8.060  1.00  0.00     0.004 C 
ATOM      6  C   UNL     1      -0.978   7.814   7.729  1.00  0.00     0.013 C 
ATOM      7  C   UNL     1      -2.025   5.601   8.163  1.00  0.00    -0.063 C 
ATOM      8  C   UNL     1      -0.011   4.317   9.213  1.00  0.00    -0.003 C 
ATOM      9  C   UNL     1       1.316   3.586   8.867  1.00  0.00    -0.011 C 
ATOM     10  C   UNL     1      -2.003   7.069   8.663  1.00  0.00    -0.006 C 
ATOM     11  C   UNL     1      -3.127   5.056   7.621  1.00  0.00    -0.027 C 
ATOM     12  C   UNL     1      -0.961   3.397  10.009  1.00  0.00     0.008 C 
ATOM     13  C   UNL     1       2.063   3.104  10.125  1.00  0.00     0.008 C 
ATOM     14  C   UNL     1      -1.450   7.125  10.125  1.00  0.00     0.017 C 
ATOM     15  C   UNL     1      -3.475   7.779   8.641  1.00  0.00    -0.020 C 
ATOM     16  C   UNL     1      -4.401   5.774   7.371  1.00  0.00     0.032 C 
ATOM     17  C   UNL     1      -4.307   7.327   7.389  1.00  0.00     0.006 C 
ATOM     18  C   UNL     1      -4.331   7.398   9.906  1.00  0.00     0.008 C 
ATOM     19  C   UNL     1      -3.247   9.334   8.634  1.00  0.00     0.012 C 
ATOM     20  C   UNL     1      -5.750   8.053   7.242  1.00  0.00    -0.025 C 
ATOM     21  C   UNL     1      -5.880   7.435   9.755  1.00  0.00     0.005 C 
ATOM     22  C   UNL     1      -6.394   8.410   8.664  1.00  0.00     0.003 C 
ATOM     23  C   UNL     1      -6.727   7.139   6.412  1.00  0.00     0.010 C 
ATOM     24  C   UNL     1      -5.541   9.369   6.414  1.00  0.00     0.012 C 
ATOM     25  C   UNL     1      -7.971   8.677   8.685  1.00  0.00    -0.006 C 
ATOM     26  C   UNL     1      -8.185   7.583   6.394  1.00  0.00     0.033 C 
ATOM     27  C   UNL     1      -8.736   7.640   7.816  1.00  0.00     0.120 C 
ATOM     28  C   UNL     1      -8.547   8.610  10.125  1.00  0.00     0.014 C 
ATOM     29  C   UNL     1      -8.275  10.125   8.196  1.00  0.00     0.014 C 
ENDROOT
BRANCH   1  30
ATOM     30  C   UNL     1      -0.423   5.754   5.547  1.00  0.00     0.048 C 
ATOM     31  O   UNL     1      -0.882   4.745   4.957  1.00  0.00    -0.550 OA
ATOM     32  O   UNL     1      -0.422   6.972   4.875  1.00  0.00    -0.550 OA
ENDBRANCH   1  30
BRANCH  27  33
ATOM     33  O   UNL     1     -10.108   7.948   7.750  1.00  0.00    -0.393 OA
ATOM     34  H   UNL     1     -10.251   8.500   6.937  1.00  0.00     0.210 HD
ENDBRANCH  27  33
TORSDOF 2
ENDMDL
MODEL 2
REMARK VINA RESULT:    -1.488      2.155      7.867
REMARK INTER + INTRA:          -1.606
REMARK INTER:                  -2.129
REMARK INTRA:                   0.523
REMARK UNBOUND:                 0.012
REMARK SMILES C[C@H]1[C@H](C)CC[C@]2(C(=O)[O-])CC[C@]3(C)C(=CC[C@H]4[C@@]5(C)CC[C@H](O)C(C)(C)[C@H]5CC[C@]43C)[C@H]12
REMARK SMILES IDX 7 1 6 2 11 3 33 4 5 5 12 6 15 7 2 8 3 9 13 10 16 11 1 12
REMARK SMILES IDX 4 13 14 14 31 15 17 16 18 17 30 18 32 19 19 20 29 21 28 22
REMARK SMILES IDX 21 23 20 24 25 25 22 26 23 27 26 28 27 29 8 30 9 31 10 32
REMARK SMILES IDX 24 33
REMARK H PARENT 24 34
REMARK Flexibility Score: inf
ROOT
ATOM      1  C   UNL     1      -6.545   9.172   5.880  1.00  0.00     0.017 C 
ATOM      2  C   UNL     1      -7.734  10.121   5.565  1.00  0.00     0.014 C 
ATOM      3  C   UNL     1      -6.863   7.718   5.444  1.00  0.00     0.014 C 
ATOM      4  C   UNL     1      -6.214   9.190   7.409  1.00  0.00     0.030 C 
ATOM      5  C   UNL     1      -8.936   9.939   6.495  1.00  0.00     0.004 C 
ATOM      6  C   UNL     1      -5.706   6.733   5.748  1.00  0.00     0.013 C 
ATOM      7  C   UNL     1      -5.104   8.153   7.697  1.00  0.00    -0.063 C 
ATOM      8  C   UNL     1      -7.453   9.078   8.357  1.00  0.00    -0.003 C 
ATOM      9  C   UNL     1      -8.533  10.125   7.967  1.00  0.00    -0.011 C 
ATOM     10  C   UNL     1      -5.250   6.674   7.253  1.00  0.00    -0.006 C 
ATOM     11  C   UNL     1      -3.914   8.672   8.041  1.00  0.00    -0.027 C 
ATOM     12  C   UNL     1      -7.015   9.252   9.827  1.00  0.00     0.008 C 
ATOM     13  C   UNL     1      -9.790  10.027   8.853  1.00  0.00     0.008 C 
ATOM     14  C   UNL     1      -6.389   5.983   8.074  1.00  0.00     0.017 C 
ATOM     15  C   UNL     1      -3.879   5.806   7.443  1.00  0.00    -0.020 C 
ATOM     16  C   UNL     1      -2.617   7.954   7.979  1.00  0.00     0.032 C 
ATOM     17  C   UNL     1      -2.610   6.665   7.106  1.00  0.00     0.006 C 
ATOM     18  C   UNL     1      -3.699   5.307   8.925  1.00  0.00     0.008 C 
ATOM     19  C   UNL     1      -3.980   4.555   6.497  1.00  0.00     0.012 C 
ATOM     20  C   UNL     1      -1.207   5.854   7.183  1.00  0.00    -0.025 C 
ATOM     21  C   UNL     1      -2.244   5.052   9.419  1.00  0.00     0.005 C 
ATOM     22  C   UNL     1      -1.239   4.699   8.292  1.00  0.00     0.003 C 
ATOM     23  C   UNL     1      -0.025   6.854   7.467  1.00  0.00     0.010 C 
ATOM     24  C   UNL     1      -0.943   5.221   5.772  1.00  0.00     0.012 C 
ATOM     25  C   UNL     1       0.179   4.158   8.797  1.00  0.00    -0.006 C 
ATOM     26  C   UNL     1       1.316   6.208   7.798  1.00  0.00     0.033 C 
ATOM     27  C   UNL     1       1.182   5.322   9.033  1.00  0.00     0.120 C 
ATOM     28  C   UNL     1       0.053   3.362  10.124  1.00  0.00     0.014 C 
ATOM     29  C   UNL     1       0.761   3.141   7.770  1.00  0.00     0.014 C 
ENDROOT
BRANCH   1  30
ATOM     30  C   UNL     1      -5.368   9.682   5.046  1.00  0.00     0.048 C 
ATOM     31  O   UNL     1      -4.304  10.073   5.587  1.00  0.00    -0.550 OA
ATOM     32  O   UNL     1      -5.486   9.786   3.665  1.00  0.00    -0.550 OA
ENDBRANCH   1  30
BRANCH  27  33
ATOM     33  O   UNL     1       2.457   4.832   9.370  1.00  0.00    -0.393 OA
ATOM     34  H   UNL     1       2.902   4.552   8.527  1.00  0.00     0.210 HD
ENDBRANCH  27  33
TORSDOF 2
ENDMDL
MODEL 3
REMARK VINA RESULT:    -0.870      2.406      7.947
REMARK INTER + INTRA:          -0.934
REMARK INTER:                  -0.939
REMARK INTRA:                   0.005
REMARK UNBOUND:                 0.012
REMARK SMILES C[C@H]1[C@H](C)CC[C@]2(C(=O)[O-])CC[C@]3(C)C(=CC[C@H]4[C@@]5(C)CC[C@H](O)C(C)(C)[C@H]5CC[C@]43C)[C@H]12
REMARK SMILES IDX 7 1 6 2 11 3 33 4 5 5 12 6 15 7 2 8 3 9 13 10 16 11 1 12
REMARK SMILES IDX 4 13 14 14 31 15 17 16 18 17 30 18 32 19 19 20 29 21 28 22
REMARK SMILES IDX 21 23 20 24 25 25 22 26 23 27 26 28 27 29 8 30 9 31 10 32
REMARK SMILES IDX 24 33
REMARK H PARENT 24 34
REMARK Flexibility Score: inf
ROOT
ATOM      1  C   UNL     1      -5.706   8.693   5.986  1.00  0.00     0.017 C 
ATOM      2  C   UNL     1      -6.981   9.303   5.342  1.00  0.00     0.014 C 
ATOM      3  C   UNL     1      -4.861   9.787   6.691  1.00  0.00     0.014 C 
ATOM      4  C   UNL     1      -4.827   7.981   4.905  1.00  0.00     0.030 C 
ATOM      5  C   UNL     1      -6.706  10.125   4.080  1.00  0.00     0.004 C 
ATOM      6  C   UNL     1      -3.572   9.224   7.341  1.00  0.00     0.013 C 
ATOM      7  C   UNL     1      -3.520   7.487   5.564  1.00  0.00    -0.063 C 
ATOM      8  C   UNL     1      -4.610   8.793   3.587  1.00  0.00    -0.003 C 
ATOM      9  C   UNL     1      -5.971   9.287   3.021  1.00  0.00    -0.011 C 
ATOM     10  C   UNL     1      -2.608   8.452   6.365  1.00  0.00    -0.006 C 
ATOM     11  C   UNL     1      -3.406   6.152   5.676  1.00  0.00    -0.027 C 
ATOM     12  C   UNL     1      -3.856   7.933   2.550  1.00  0.00     0.008 C 
ATOM     13  C   UNL     1      -5.802  10.125   1.739  1.00  0.00     0.008 C 
ATOM     14  C   UNL     1      -1.963   9.499   5.398  1.00  0.00     0.017 C 
ATOM     15  C   UNL     1      -1.409   7.687   7.169  1.00  0.00    -0.020 C 
ATOM     16  C   UNL     1      -2.480   5.447   6.595  1.00  0.00     0.032 C 
ATOM     17  C   UNL     1      -1.898   6.313   7.750  1.00  0.00     0.006 C 
ATOM     18  C   UNL     1      -0.185   7.364   6.234  1.00  0.00     0.008 C 
ATOM     19  C   UNL     1      -0.927   8.645   8.318  1.00  0.00     0.012 C 
ATOM     20  C   UNL     1      -0.794   5.526   8.641  1.00  0.00    -0.025 C 
ATOM     21  C   UNL     1       0.705   6.146   6.620  1.00  0.00     0.005 C 
ATOM     22  C   UNL     1       0.699   5.803   8.132  1.00  0.00     0.003 C 
ATOM     23  C   UNL     1      -1.099   3.982   8.630  1.00  0.00     0.010 C 
ATOM     24  C   UNL     1      -0.943   6.013  10.125  1.00  0.00     0.012 C 
ATOM     25  C   UNL     1       1.813   4.751   8.591  1.00  0.00    -0.006 C 
ATOM     26  C   UNL     1      -0.014   3.094   9.229  1.00  0.00     0.033 C 
ATOM     27  C   UNL     1       1.299   3.289   8.476  1.00  0.00     0.120 C 
ATOM     28  C   UNL     1       3.104   4.870   7.737  1.00  0.00     0.014 C 
ATOM     29  C   UNL     1       2.266   5.054  10.051  1.00  0.00     0.014 C 
ENDROOT
BRANCH   1  30
ATOM     30  C   UNL     1      -6.201   7.706   7.045  1.00  0.00     0.048 C 
ATOM     31  O   UNL     1      -6.653   6.577   6.727  1.00  0.00    -0.550 OA
ATOM     32  O   UNL     1      -6.223   8.075   8.385  1.00  0.00    -0.550 OA
ENDBRANCH   1  30
BRANCH  27  33
ATOM     33  O   UNL     1       2.243   2.378   8.985  1.00  0.00    -0.393 OA
ATOM     34  H   UNL     1       3.135   2.814   8.934  1.00  0.00     0.210 HD
ENDBRANCH  27  33
TORSDOF 2
ENDMDL
