MODEL 1
REMARK VINA RESULT:     1.082      0.000      0.000
REMARK INTER + INTRA:           1.695
REMARK INTER:                   2.030
REMARK INTRA:                  -0.335
REMARK UNBOUND:                -0.335
REMARK SMILES CCCCCCCCC=CCCCCCCCC(=O)[O-]
REMARK SMILES IDX 10 1 9 2 11 3 12 4 13 5 14 6 15 7 16 8 17 9 18 10 19 11
REMARK SMILES IDX 20 12 8 13 7 14 6 15 5 16 4 17 3 18 2 19 1 20
REMARK H PARENT
REMARK Flexibility Score: inf
ROOT
ATOM      1  C   UNL     1      14.826  13.829  36.582  1.00  0.00    -0.031 C 
ATOM      2  C   UNL     1      13.536  14.019  36.263  1.00  0.00    -0.031 C 
ENDROOT
BRANCH   1   3
ATOM      3  C   UNL     1      15.310  13.918  38.004  1.00  0.00     0.027 C 
BRANCH   3   4
ATOM      4  C   UNL     1      16.139  12.691  38.421  1.00  0.00     0.004 C 
BRANCH   4   5
ATOM      5  C   UNL     1      15.964  12.281  39.896  1.00  0.00     0.000 C 
BRANCH   5   6
ATOM      6  C   UNL     1      15.568  13.455  40.801  1.00  0.00     0.000 C 
BRANCH   6   7
ATOM      7  C   UNL     1      16.812  14.110  41.419  1.00  0.00     0.000 C 
BRANCH   7   8
ATOM      8  C   UNL     1      18.000  13.137  41.543  1.00  0.00     0.006 C 
BRANCH   8   9
ATOM      9  C   UNL     1      19.250  13.748  42.196  1.00  0.00     0.053 C 
BRANCH   9  10
ATOM     10  C   UNL     1      19.548  13.129  43.526  1.00  0.00     0.041 C 
ATOM     11  O   UNL     1      18.665  12.460  44.125  1.00  0.00    -0.550 OA
ATOM     12  O   UNL     1      20.789  13.321  44.121  1.00  0.00    -0.550 OA
ENDBRANCH   9  10
ENDBRANCH   8   9
ENDBRANCH   7   8
ENDBRANCH   6   7
ENDBRANCH   5   6
ENDBRANCH   4   5
ENDBRANCH   3   4
ENDBRANCH   1   3
BRANCH   2  13
ATOM     13  C   UNL     1      13.045  13.881  34.846  1.00  0.00     0.027 C 
BRANCH  13  14
ATOM     14  C   UNL     1      14.195  13.587  33.868  1.00  0.00     0.004 C 
BRANCH  14  15
ATOM     15  C   UNL     1      14.299  12.116  33.422  1.00  0.00     0.000 C 
BRANCH  15  16
ATOM     16  C   UNL     1      13.128  11.252  33.922  1.00  0.00     0.000 C 
BRANCH  16  17
ATOM     17  C   UNL     1      13.556  10.260  35.017  1.00  0.00    -0.000 C 
BRANCH  17  18
ATOM     18  C   UNL     1      14.582  10.858  35.989  1.00  0.00    -0.000 C 
BRANCH  18  19
ATOM     19  C   UNL     1      14.145  10.643  37.444  1.00  0.00    -0.003 C 
ATOM     20  C   UNL     1      12.703  11.091  37.659  1.00  0.00     0.004 C 
ENDBRANCH  18  19
ENDBRANCH  17  18
ENDBRANCH  16  17
ENDBRANCH  15  16
ENDBRANCH  14  15
ENDBRANCH  13  14
ENDBRANCH   2  13
TORSDOF 15
ENDMDL
MODEL 2
REMARK VINA RESULT:     1.598      2.008      3.588
REMARK INTER + INTRA:           2.664
REMARK INTER:                   2.852
REMARK INTRA:                  -0.188
REMARK UNBOUND:                -0.335
REMARK SMILES CCCCCCCCC=CCCCCCCCC(=O)[O-]
REMARK SMILES IDX 10 1 9 2 11 3 12 4 13 5 14 6 15 7 16 8 17 9 18 10 19 11
REMARK SMILES IDX 20 12 8 13 7 14 6 15 5 16 4 17 3 18 2 19 1 20
REMARK H PARENT
REMARK Flexibility Score: inf
ROOT
ATOM      1  C   UNL     1      15.307  12.806  37.979  1.00  0.00    -0.031 C 
ATOM      2  C   UNL     1      14.495  12.752  36.912  1.00  0.00    -0.031 C 
ENDROOT
BRANCH   1   3
ATOM      3  C   UNL     1      15.259  13.953  38.951  1.00  0.00     0.027 C 
BRANCH   3   4
ATOM      4  C   UNL     1      15.492  13.504  40.404  1.00  0.00     0.004 C 
BRANCH   4   5
ATOM      5  C   UNL     1      16.431  12.292  40.549  1.00  0.00     0.000 C 
BRANCH   5   6
ATOM      6  C   UNL     1      17.911  12.689  40.648  1.00  0.00     0.000 C 
BRANCH   6   7
ATOM      7  C   UNL     1      18.440  12.468  42.073  1.00  0.00     0.000 C 
BRANCH   7   8
ATOM      8  C   UNL     1      18.308  13.721  42.959  1.00  0.00     0.006 C 
BRANCH   8   9
ATOM      9  C   UNL     1      19.448  13.897  43.976  1.00  0.00     0.053 C 
BRANCH   9  10
ATOM     10  C   UNL     1      20.783  14.009  43.309  1.00  0.00     0.041 C 
ATOM     11  O   UNL     1      20.857  14.124  42.057  1.00  0.00    -0.550 OA
ATOM     12  O   UNL     1      21.947  13.949  44.065  1.00  0.00    -0.550 OA
ENDBRANCH   9  10
ENDBRANCH   8   9
ENDBRANCH   7   8
ENDBRANCH   6   7
ENDBRANCH   5   6
ENDBRANCH   4   5
ENDBRANCH   3   4
ENDBRANCH   1   3
BRANCH   2  13
ATOM     13  C   UNL     1      14.511  11.579  35.967  1.00  0.00     0.027 C 
BRANCH  13  14
ATOM     14  C   UNL     1      15.151  11.940  34.616  1.00  0.00     0.004 C 
BRANCH  14  15
ATOM     15  C   UNL     1      14.476  13.110  33.877  1.00  0.00     0.000 C 
BRANCH  15  16
ATOM     16  C   UNL     1      12.958  13.177  34.116  1.00  0.00     0.000 C 
BRANCH  16  17
ATOM     17  C   UNL     1      12.236  14.048  33.073  1.00  0.00    -0.000 C 
BRANCH  17  18
ATOM     18  C   UNL     1      12.199  13.398  31.683  1.00  0.00    -0.000 C 
BRANCH  18  19
ATOM     19  C   UNL     1      11.207  14.124  30.767  1.00  0.00    -0.003 C 
ATOM     20  C   UNL     1      11.289  13.598  29.337  1.00  0.00     0.004 C 
ENDBRANCH  18  19
ENDBRANCH  17  18
ENDBRANCH  16  17
ENDBRANCH  15  16
ENDBRANCH  14  15
ENDBRANCH  13  14
ENDBRANCH   2  13
TORSDOF 15
ENDMDL
MODEL 3
REMARK VINA RESULT:     2.139      3.987      8.763
REMARK INTER + INTRA:           3.679
REMARK INTER:                   3.549
REMARK INTRA:                   0.131
REMARK UNBOUND:                -0.335
REMARK SMILES CCCCCCCCC=CCCCCCCCC(=O)[O-]
REMARK SMILES IDX 10 1 9 2 11 3 12 4 13 5 14 6 15 7 16 8 17 9 18 10 19 11
REMARK SMILES IDX 20 12 8 13 7 14 6 15 5 16 4 17 3 18 2 19 1 20
REMARK H PARENT
REMARK Flexibility Score: inf
ROOT
ATOM      1  C   UNL     1      15.282  13.337  39.017  1.00  0.00    -0.031 C 
ATOM      2  C   UNL     1      15.464  14.055  40.137  1.00  0.00    -0.031 C 
ENDROOT
BRANCH   1   3
ATOM      3  C   UNL     1      13.958  13.312  38.301  1.00  0.00     0.027 C 
BRANCH   3   4
ATOM      4  C   UNL     1      13.992  12.443  37.032  1.00  0.00     0.004 C 
BRANCH   4   5
ATOM      5  C   UNL     1      15.223  12.679  36.136  1.00  0.00     0.000 C 
BRANCH   5   6
ATOM      6  C   UNL     1      15.182  14.028  35.406  1.00  0.00     0.000 C 
BRANCH   6   7
ATOM      7  C   UNL     1      13.938  14.125  34.510  1.00  0.00     0.000 C 
BRANCH   7   8
ATOM      8  C   UNL     1      14.052  13.267  33.235  1.00  0.00     0.006 C 
BRANCH   8   9
ATOM      9  C   UNL     1      14.762  11.919  33.443  1.00  0.00     0.053 C 
BRANCH   9  10
ATOM     10  C   UNL     1      13.790  10.799  33.649  1.00  0.00     0.041 C 
ATOM     11  O   UNL     1      13.360  10.538  34.804  1.00  0.00    -0.550 OA
ATOM     12  O   UNL     1      13.386  10.021  32.571  1.00  0.00    -0.550 OA
ENDBRANCH   9  10
ENDBRANCH   8   9
ENDBRANCH   7   8
ENDBRANCH   6   7
ENDBRANCH   5   6
ENDBRANCH   4   5
ENDBRANCH   3   4
ENDBRANCH   1   3
BRANCH   2  13
ATOM     13  C   UNL     1      16.802  14.117  40.824  1.00  0.00     0.027 C 
BRANCH  13  14
ATOM     14  C   UNL     1      17.518  12.756  40.809  1.00  0.00     0.004 C 
BRANCH  14  15
ATOM     15  C   UNL     1      17.417  11.961  42.124  1.00  0.00     0.000 C 
BRANCH  15  16
ATOM     16  C   UNL     1      18.675  12.087  43.001  1.00  0.00     0.000 C 
BRANCH  16  17
ATOM     17  C   UNL     1      18.558  13.218  44.038  1.00  0.00    -0.000 C 
BRANCH  17  18
ATOM     18  C   UNL     1      19.797  14.122  44.068  1.00  0.00    -0.000 C 
BRANCH  18  19
ATOM     19  C   UNL     1      21.043  13.358  43.605  1.00  0.00    -0.003 C 
ATOM     20  C   UNL     1      22.320  14.053  44.067  1.00  0.00     0.004 C 
ENDBRANCH  18  19
ENDBRANCH  17  18
ENDBRANCH  16  17
ENDBRANCH  15  16
ENDBRANCH  14  15
ENDBRANCH  13  14
ENDBRANCH   2  13
TORSDOF 15
ENDMDL
MODEL 4
REMARK VINA RESULT:     2.283      1.333      2.932
REMARK INTER + INTRA:           3.950
REMARK INTER:                   3.787
REMARK INTRA:                   0.163
REMARK UNBOUND:                -0.335
REMARK SMILES CCCCCCCCC=CCCCCCCCC(=O)[O-]
REMARK SMILES IDX 10 1 9 2 11 3 12 4 13 5 14 6 15 7 16 8 17 9 18 10 19 11
REMARK SMILES IDX 20 12 8 13 7 14 6 15 5 16 4 17 3 18 2 19 1 20
REMARK H PARENT
REMARK Flexibility Score: inf
ROOT
ATOM      1  C   UNL     1      15.413  12.296  36.893  1.00  0.00    -0.031 C 
ATOM      2  C   UNL     1      14.541  12.331  35.873  1.00  0.00    -0.031 C 
ENDROOT
BRANCH   1   3
ATOM      3  C   UNL     1      16.190  13.515  37.311  1.00  0.00     0.027 C 
BRANCH   3   4
ATOM      4  C   UNL     1      16.990  13.288  38.606  1.00  0.00     0.004 C 
BRANCH   4   5
ATOM      5  C   UNL     1      16.479  12.119  39.469  1.00  0.00     0.000 C 
BRANCH   5   6
ATOM      6  C   UNL     1      16.867  12.251  40.948  1.00  0.00     0.000 C 
BRANCH   6   7
ATOM      7  C   UNL     1      18.341  12.660  41.089  1.00  0.00     0.000 C 
BRANCH   7   8
ATOM      8  C   UNL     1      18.514  14.077  41.665  1.00  0.00     0.006 C 
BRANCH   8   9
ATOM      9  C   UNL     1      18.677  14.122  43.193  1.00  0.00     0.053 C 
BRANCH   9  10
ATOM     10  C   UNL     1      19.363  12.901  43.721  1.00  0.00     0.041 C 
ATOM     11  O   UNL     1      20.613  12.894  43.875  1.00  0.00    -0.550 OA
ATOM     12  O   UNL     1      18.628  11.758  44.008  1.00  0.00    -0.550 OA
ENDBRANCH   9  10
ENDBRANCH   8   9
ENDBRANCH   7   8
ENDBRANCH   6   7
ENDBRANCH   5   6
ENDBRANCH   4   5
ENDBRANCH   3   4
ENDBRANCH   1   3
BRANCH   2  13
ATOM     13  C   UNL     1      13.729  11.123  35.489  1.00  0.00     0.027 C 
BRANCH  13  14
ATOM     14  C   UNL     1      13.182  11.233  34.055  1.00  0.00     0.004 C 
BRANCH  14  15
ATOM     15  C   UNL     1      14.250  11.503  32.978  1.00  0.00     0.000 C 
BRANCH  15  16
ATOM     16  C   UNL     1      14.989  12.837  33.186  1.00  0.00     0.000 C 
BRANCH  16  17
ATOM     17  C   UNL     1      14.037  14.045  33.170  1.00  0.00    -0.000 C 
BRANCH  17  18
ATOM     18  C   UNL     1      13.202  14.124  31.884  1.00  0.00    -0.000 C 
BRANCH  18  19
ATOM     19  C   UNL     1      11.725  13.826  32.172  1.00  0.00    -0.003 C 
ATOM     20  C   UNL     1      11.378  14.117  33.629  1.00  0.00     0.004 C 
ENDBRANCH  18  19
ENDBRANCH  17  18
ENDBRANCH  16  17
ENDBRANCH  15  16
ENDBRANCH  14  15
ENDBRANCH  13  14
ENDBRANCH   2  13
TORSDOF 15
ENDMDL
MODEL 5
REMARK VINA RESULT:     2.444      4.146      8.852
REMARK INTER + INTRA:           4.252
REMARK INTER:                   4.399
REMARK INTRA:                  -0.147
REMARK UNBOUND:                -0.335
REMARK SMILES CCCCCCCCC=CCCCCCCCC(=O)[O-]
REMARK SMILES IDX 10 1 9 2 11 3 12 4 13 5 14 6 15 7 16 8 17 9 18 10 19 11
REMARK SMILES IDX 20 12 8 13 7 14 6 15 5 16 4 17 3 18 2 19 1 20
REMARK H PARENT
REMARK Flexibility Score: inf
ROOT
ATOM      1  C   UNL     1      15.219  13.225  38.838  1.00  0.00    -0.031 C 
ATOM      2  C   UNL     1      14.961  13.457  40.135  1.00  0.00    -0.031 C 
ENDROOT
BRANCH   1   3
ATOM      3  C   UNL     1      14.114  13.017  37.838  1.00  0.00     0.027 C 
BRANCH   3   4
ATOM      4  C   UNL     1      14.230  13.961  36.628  1.00  0.00     0.004 C 
BRANCH   4   5
ATOM      5  C   UNL     1      15.562  13.849  35.864  1.00  0.00     0.000 C 
BRANCH   5   6
ATOM      6  C   UNL     1      15.659  12.577  35.012  1.00  0.00     0.000 C 
BRANCH   6   7
ATOM      7  C   UNL     1      14.821  11.445  35.625  1.00  0.00     0.000 C 
BRANCH   7   8
ATOM      8  C   UNL     1      13.659  11.003  34.717  1.00  0.00     0.006 C 
BRANCH   8   9
ATOM      9  C   UNL     1      13.506  11.839  33.436  1.00  0.00     0.053 C 
BRANCH   9  10
ATOM     10  C   UNL     1      12.598  13.013  33.637  1.00  0.00     0.041 C 
ATOM     11  O   UNL     1      11.829  13.054  34.633  1.00  0.00    -0.550 OA
ATOM     12  O   UNL     1      12.576  14.044  32.706  1.00  0.00    -0.550 OA
ENDBRANCH   9  10
ENDBRANCH   8   9
ENDBRANCH   7   8
ENDBRANCH   6   7
ENDBRANCH   5   6
ENDBRANCH   4   5
ENDBRANCH   3   4
ENDBRANCH   1   3
BRANCH   2  13
ATOM     13  C   UNL     1      16.066  13.713  41.125  1.00  0.00     0.027 C 
BRANCH  13  14
ATOM     14  C   UNL     1      16.811  12.421  41.500  1.00  0.00     0.004 C 
BRANCH  14  15
ATOM     15  C   UNL     1      18.345  12.508  41.391  1.00  0.00     0.000 C 
BRANCH  15  16
ATOM     16  C   UNL     1      19.054  12.339  42.746  1.00  0.00     0.000 C 
BRANCH  16  17
ATOM     17  C   UNL     1      18.913  13.582  43.642  1.00  0.00    -0.000 C 
BRANCH  17  18
ATOM     18  C   UNL     1      20.266  14.120  44.124  1.00  0.00    -0.000 C 
BRANCH  18  19
ATOM     19  C   UNL     1      21.302  14.087  42.994  1.00  0.00    -0.003 C 
ATOM     20  C   UNL     1      22.724  14.123  43.546  1.00  0.00     0.004 C 
ENDBRANCH  18  19
ENDBRANCH  17  18
ENDBRANCH  16  17
ENDBRANCH  15  16
ENDBRANCH  14  15
ENDBRANCH  13  14
ENDBRANCH   2  13
TORSDOF 15
ENDMDL
MODEL 6
REMARK VINA RESULT:     2.621      2.765      4.366
REMARK INTER + INTRA:           4.583
REMARK INTER:                   5.487
REMARK INTRA:                  -0.903
REMARK UNBOUND:                -0.335
REMARK SMILES CCCCCCCCC=CCCCCCCCC(=O)[O-]
REMARK SMILES IDX 10 1 9 2 11 3 12 4 13 5 14 6 15 7 16 8 17 9 18 10 19 11
REMARK SMILES IDX 20 12 8 13 7 14 6 15 5 16 4 17 3 18 2 19 1 20
REMARK H PARENT
REMARK Flexibility Score: inf
ROOT
ATOM      1  C   UNL     1      14.026  11.289  35.525  1.00  0.00    -0.031 C 
ATOM      2  C   UNL     1      14.462  11.997  34.471  1.00  0.00    -0.031 C 
ENDROOT
BRANCH   1   3
ATOM      3  C   UNL     1      14.760  11.296  36.839  1.00  0.00     0.027 C 
BRANCH   3   4
ATOM      4  C   UNL     1      15.403  12.659  37.146  1.00  0.00     0.004 C 
BRANCH   4   5
ATOM      5  C   UNL     1      14.453  13.672  37.812  1.00  0.00     0.000 C 
BRANCH   5   6
ATOM      6  C   UNL     1      14.717  13.844  39.314  1.00  0.00     0.000 C 
BRANCH   6   7
ATOM      7  C   UNL     1      16.216  13.714  39.622  1.00  0.00     0.000 C 
BRANCH   7   8
ATOM      8  C   UNL     1      16.563  14.096  41.072  1.00  0.00     0.006 C 
BRANCH   8   9
ATOM      9  C   UNL     1      18.049  13.928  41.431  1.00  0.00     0.053 C 
BRANCH   9  10
ATOM     10  C   UNL     1      18.298  12.680  42.220  1.00  0.00     0.041 C 
ATOM     11  O   UNL     1      19.101  12.694  43.190  1.00  0.00    -0.550 OA
ATOM     12  O   UNL     1      17.671  11.493  41.862  1.00  0.00    -0.550 OA
ENDBRANCH   9  10
ENDBRANCH   8   9
ENDBRANCH   7   8
ENDBRANCH   6   7
ENDBRANCH   5   6
ENDBRANCH   4   5
ENDBRANCH   3   4
ENDBRANCH   1   3
BRANCH   2  13
ATOM     13  C   UNL     1      13.700  12.027  33.172  1.00  0.00     0.027 C 
BRANCH  13  14
ATOM     14  C   UNL     1      12.320  12.687  33.334  1.00  0.00     0.004 C 
BRANCH  14  15
ATOM     15  C   UNL     1      12.210  14.102  32.736  1.00  0.00     0.000 C 
BRANCH  15  16
ATOM     16  C   UNL     1      12.385  14.125  31.207  1.00  0.00     0.000 C 
BRANCH  16  17
ATOM     17  C   UNL     1      11.046  14.004  30.460  1.00  0.00    -0.000 C 
BRANCH  17  18
ATOM     18  C   UNL     1      11.227  13.714  28.964  1.00  0.00    -0.000 C 
BRANCH  18  19
ATOM     19  C   UNL     1      11.589  12.242  28.733  1.00  0.00    -0.003 C 
ATOM     20  C   UNL     1      10.404  11.329  29.035  1.00  0.00     0.004 C 
ENDBRANCH  18  19
ENDBRANCH  17  18
ENDBRANCH  16  17
ENDBRANCH  15  16
ENDBRANCH  14  15
ENDBRANCH  13  14
ENDBRANCH   2  13
TORSDOF 15
ENDMDL
MODEL 7
REMARK VINA RESULT:     3.016      3.303      8.185
REMARK INTER + INTRA:           5.326
REMARK INTER:                   1.664
REMARK INTRA:                   3.662
REMARK UNBOUND:                -0.335
REMARK SMILES CCCCCCCCC=CCCCCCCCC(=O)[O-]
REMARK SMILES IDX 10 1 9 2 11 3 12 4 13 5 14 6 15 7 16 8 17 9 18 10 19 11
REMARK SMILES IDX 20 12 8 13 7 14 6 15 5 16 4 17 3 18 2 19 1 20
REMARK H PARENT
REMARK Flexibility Score: inf
ROOT
ATOM      1  C   UNL     1      16.334  12.821  37.980  1.00  0.00    -0.031 C 
ATOM      2  C   UNL     1      15.901  13.349  39.136  1.00  0.00    -0.031 C 
ENDROOT
BRANCH   1   3
ATOM      3  C   UNL     1      15.466  12.795  36.750  1.00  0.00     0.027 C 
BRANCH   3   4
ATOM      4  C   UNL     1      14.397  13.902  36.760  1.00  0.00     0.004 C 
BRANCH   4   5
ATOM      5  C   UNL     1      13.443  13.871  35.551  1.00  0.00     0.000 C 
BRANCH   5   6
ATOM      6  C   UNL     1      14.161  14.111  34.216  1.00  0.00     0.000 C 
BRANCH   6   7
ATOM      7  C   UNL     1      13.696  13.097  33.159  1.00  0.00     0.000 C 
BRANCH   7   8
ATOM      8  C   UNL     1      13.843  11.637  33.627  1.00  0.00     0.006 C 
BRANCH   8   9
ATOM      9  C   UNL     1      12.826  11.212  34.698  1.00  0.00     0.053 C 
BRANCH   9  10
ATOM     10  C   UNL     1      13.495  10.754  35.957  1.00  0.00     0.041 C 
ATOM     11  O   UNL     1      14.557  10.079  35.900  1.00  0.00    -0.550 OA
ATOM     12  O   UNL     1      12.926  11.040  37.192  1.00  0.00    -0.550 OA
ENDBRANCH   9  10
ENDBRANCH   8   9
ENDBRANCH   7   8
ENDBRANCH   6   7
ENDBRANCH   5   6
ENDBRANCH   4   5
ENDBRANCH   3   4
ENDBRANCH   1   3
BRANCH   2  13
ATOM     13  C   UNL     1      16.788  13.418  40.351  1.00  0.00     0.027 C 
BRANCH  13  14
ATOM     14  C   UNL     1      16.078  14.086  41.541  1.00  0.00     0.004 C 
BRANCH  14  15
ATOM     15  C   UNL     1      16.850  14.015  42.872  1.00  0.00     0.000 C 
BRANCH  15  16
ATOM     16  C   UNL     1      18.166  13.226  42.763  1.00  0.00     0.000 C 
BRANCH  16  17
ATOM     17  C   UNL     1      18.983  13.614  41.519  1.00  0.00    -0.000 C 
BRANCH  17  18
ATOM     18  C   UNL     1      20.467  13.848  41.835  1.00  0.00    -0.000 C 
BRANCH  18  19
ATOM     19  C   UNL     1      20.679  14.055  43.340  1.00  0.00    -0.003 C 
ATOM     20  C   UNL     1      20.344  12.790  44.124  1.00  0.00     0.004 C 
ENDBRANCH  18  19
ENDBRANCH  17  18
ENDBRANCH  16  17
ENDBRANCH  15  16
ENDBRANCH  14  15
ENDBRANCH  13  14
ENDBRANCH   2  13
TORSDOF 15
ENDMDL
MODEL 8
REMARK VINA RESULT:     3.546      4.776      8.788
REMARK INTER + INTRA:           6.319
REMARK INTER:                   4.006
REMARK INTRA:                   2.313
REMARK UNBOUND:                -0.335
REMARK SMILES CCCCCCCCC=CCCCCCCCC(=O)[O-]
REMARK SMILES IDX 10 1 9 2 11 3 12 4 13 5 14 6 15 7 16 8 17 9 18 10 19 11
REMARK SMILES IDX 20 12 8 13 7 14 6 15 5 16 4 17 3 18 2 19 1 20
REMARK H PARENT
REMARK Flexibility Score: inf
ROOT
ATOM      1  C   UNL     1      15.572  13.221  37.770  1.00  0.00    -0.031 C 
ATOM      2  C   UNL     1      14.633  12.947  38.689  1.00  0.00    -0.031 C 
ENDROOT
BRANCH   1   3
ATOM      3  C   UNL     1      15.992  12.206  36.742  1.00  0.00     0.027 C 
BRANCH   3   4
ATOM      4  C   UNL     1      14.800  11.413  36.177  1.00  0.00     0.004 C 
BRANCH   4   5
ATOM      5  C   UNL     1      13.497  11.570  36.982  1.00  0.00     0.000 C 
BRANCH   5   6
ATOM      6  C   UNL     1      12.658  12.775  36.536  1.00  0.00     0.000 C 
BRANCH   6   7
ATOM      7  C   UNL     1      13.248  13.408  35.266  1.00  0.00     0.000 C 
BRANCH   7   8
ATOM      8  C   UNL     1      12.919  12.607  33.992  1.00  0.00     0.006 C 
BRANCH   8   9
ATOM      9  C   UNL     1      13.415  13.259  32.691  1.00  0.00     0.053 C 
BRANCH   9  10
ATOM     10  C   UNL     1      12.286  13.772  31.853  1.00  0.00     0.041 C 
ATOM     11  O   UNL     1      11.159  13.988  32.374  1.00  0.00    -0.550 OA
ATOM     12  O   UNL     1      12.466  13.978  30.491  1.00  0.00    -0.550 OA
ENDBRANCH   9  10
ENDBRANCH   8   9
ENDBRANCH   7   8
ENDBRANCH   6   7
ENDBRANCH   5   6
ENDBRANCH   4   5
ENDBRANCH   3   4
ENDBRANCH   1   3
BRANCH   2  13
ATOM     13  C   UNL     1      14.180  13.981  39.686  1.00  0.00     0.027 C 
BRANCH  13  14
ATOM     14  C   UNL     1      15.170  14.125  40.853  1.00  0.00     0.004 C 
BRANCH  14  15
ATOM     15  C   UNL     1      16.653  13.982  40.461  1.00  0.00     0.000 C 
BRANCH  15  16
ATOM     16  C   UNL     1      17.608  14.125  41.659  1.00  0.00     0.000 C 
BRANCH  16  17
ATOM     17  C   UNL     1      18.500  12.886  41.851  1.00  0.00    -0.000 C 
BRANCH  17  18
ATOM     18  C   UNL     1      19.023  12.751  43.287  1.00  0.00    -0.000 C 
BRANCH  18  19
ATOM     19  C   UNL     1      19.748  14.029  43.727  1.00  0.00    -0.003 C 
ATOM     20  C   UNL     1      21.240  13.776  43.927  1.00  0.00     0.004 C 
ENDBRANCH  18  19
ENDBRANCH  17  18
ENDBRANCH  16  17
ENDBRANCH  15  16
ENDBRANCH  14  15
ENDBRANCH  13  14
ENDBRANCH   2  13
TORSDOF 15
ENDMDL
