MODEL 1
REMARK VINA RESULT:    26.723      0.000      0.000
REMARK INTER + INTRA:          70.165
REMARK INTER:                  70.466
REMARK INTRA:                  -0.301
REMARK UNBOUND:                -0.301
REMARK SMILES CCCCCCCCCCCCCCCCCCCCCCCCCCCCCC(=O)[O-]
REMARK SMILES IDX 16 1 17 2 18 3 19 4 20 5 21 6 22 7 23 8 24 9 25 10 26 11
REMARK SMILES IDX 27 12 28 13 29 14 30 15 31 16 32 17 15 18 14 19 13 20 12 21
REMARK SMILES IDX 11 22 10 23 9 24 8 25 7 26 6 27 5 28 4 29 3 30 2 31 1 32
REMARK H PARENT
REMARK Flexibility Score: inf
ROOT
ATOM      1  C   UNL     1      -0.743  19.190  20.282  1.00  0.00     0.000 C 
ENDROOT
BRANCH   1   2
ATOM      2  C   UNL     1      -1.040  17.724  20.626  1.00  0.00     0.000 C 
BRANCH   2   3
ATOM      3  C   UNL     1       0.077  16.798  20.118  1.00  0.00     0.000 C 
BRANCH   3   4
ATOM      4  C   UNL     1      -0.374  15.323  20.047  1.00  0.00     0.000 C 
BRANCH   4   5
ATOM      5  C   UNL     1      -0.909  14.908  18.666  1.00  0.00     0.000 C 
BRANCH   5   6
ATOM      6  C   UNL     1      -0.724  13.409  18.379  1.00  0.00     0.000 C 
BRANCH   6   7
ATOM      7  C   UNL     1      -2.051  12.635  18.387  1.00  0.00     0.000 C 
BRANCH   7   8
ATOM      8  C   UNL     1      -2.554  12.343  19.813  1.00  0.00     0.000 C 
BRANCH   8   9
ATOM      9  C   UNL     1      -4.031  12.719  20.009  1.00  0.00     0.000 C 
BRANCH   9  10
ATOM     10  C   UNL     1      -4.237  13.748  21.134  1.00  0.00     0.000 C 
BRANCH  10  11
ATOM     11  C   UNL     1      -4.063  15.198  20.651  1.00  0.00     0.000 C 
BRANCH  11  12
ATOM     12  C   UNL     1      -5.224  16.149  21.000  1.00  0.00     0.000 C 
BRANCH  12  13
ATOM     13  C   UNL     1      -5.612  17.147  19.890  1.00  0.00     0.006 C 
BRANCH  13  14
ATOM     14  C   UNL     1      -7.098  17.536  19.879  1.00  0.00     0.053 C 
BRANCH  14  15
ATOM     15  C   UNL     1      -7.989  16.337  19.991  1.00  0.00     0.041 C 
ATOM     16  O   UNL     1      -7.522  15.180  19.810  1.00  0.00    -0.550 OA
ATOM     17  O   UNL     1      -9.329  16.495  20.321  1.00  0.00    -0.550 OA
ENDBRANCH  14  15
ENDBRANCH  13  14
ENDBRANCH  12  13
ENDBRANCH  11  12
ENDBRANCH  10  11
ENDBRANCH   9  10
ENDBRANCH   8   9
ENDBRANCH   7   8
ENDBRANCH   6   7
ENDBRANCH   5   6
ENDBRANCH   4   5
ENDBRANCH   3   4
ENDBRANCH   2   3
ENDBRANCH   1   2
BRANCH   1  18
ATOM     18  C   UNL     1      -1.315  20.177  21.315  1.00  0.00     0.000 C 
BRANCH  18  19
ATOM     19  C   UNL     1      -0.303  20.603  22.400  1.00  0.00     0.000 C 
BRANCH  19  20
ATOM     20  C   UNL     1       0.301  21.991  22.123  1.00  0.00     0.000 C 
BRANCH  20  21
ATOM     21  C   UNL     1      -0.758  23.106  22.124  1.00  0.00     0.000 C 
BRANCH  21  22
ATOM     22  C   UNL     1      -1.803  22.921  23.239  1.00  0.00     0.000 C 
BRANCH  22  23
ATOM     23  C   UNL     1      -2.998  23.876  23.090  1.00  0.00     0.000 C 
BRANCH  23  24
ATOM     24  C   UNL     1      -2.670  25.102  22.224  1.00  0.00    -0.000 C 
BRANCH  24  25
ATOM     25  C   UNL     1      -3.937  25.929  21.949  1.00  0.00    -0.000 C 
BRANCH  25  26
ATOM     26  C   UNL     1      -3.715  27.063  20.930  1.00  0.00    -0.000 C 
BRANCH  26  27
ATOM     27  C   UNL     1      -4.791  27.175  19.830  1.00  0.00    -0.000 C 
BRANCH  27  28
ATOM     28  C   UNL     1      -4.496  28.246  18.755  1.00  0.00    -0.000 C 
BRANCH  28  29
ATOM     29  C   UNL     1      -3.999  29.586  19.331  1.00  0.00    -0.000 C 
BRANCH  29  30
ATOM     30  C   UNL     1      -2.840  29.465  20.335  1.00  0.00    -0.000 C 
BRANCH  30  31
ATOM     31  C   UNL     1      -1.572  30.198  19.872  1.00  0.00    -0.003 C 
ATOM     32  C   UNL     1      -0.751  30.680  21.065  1.00  0.00     0.004 C 
ENDBRANCH  30  31
ENDBRANCH  29  30
ENDBRANCH  28  29
ENDBRANCH  27  28
ENDBRANCH  26  27
ENDBRANCH  25  26
ENDBRANCH  24  25
ENDBRANCH  23  24
ENDBRANCH  22  23
ENDBRANCH  21  22
ENDBRANCH  20  21
ENDBRANCH  19  20
ENDBRANCH  18  19
ENDBRANCH   1  18
TORSDOF 28
ENDMDL
MODEL 2
REMARK VINA RESULT:    27.623      1.757      2.699
REMARK INTER + INTRA:          72.537
REMARK INTER:                  74.823
REMARK INTRA:                  -2.286
REMARK UNBOUND:                -0.301
REMARK SMILES CCCCCCCCCCCCCCCCCCCCCCCCCCCCCC(=O)[O-]
REMARK SMILES IDX 16 1 17 2 18 3 19 4 20 5 21 6 22 7 23 8 24 9 25 10 26 11
REMARK SMILES IDX 27 12 28 13 29 14 30 15 31 16 32 17 15 18 14 19 13 20 12 21
REMARK SMILES IDX 11 22 10 23 9 24 8 25 7 26 6 27 5 28 4 29 3 30 2 31 1 32
REMARK H PARENT
REMARK Flexibility Score: inf
ROOT
ATOM      1  C   UNL     1       0.029  16.754  19.886  1.00  0.00     0.000 C 
ENDROOT
BRANCH   1   2
ATOM      2  C   UNL     1      -0.477  15.305  19.911  1.00  0.00     0.000 C 
BRANCH   2   3
ATOM      3  C   UNL     1      -0.932  14.851  18.516  1.00  0.00     0.000 C 
BRANCH   3   4
ATOM      4  C   UNL     1      -0.965  13.313  18.383  1.00  0.00     0.000 C 
BRANCH   4   5
ATOM      5  C   UNL     1      -1.467  12.596  19.648  1.00  0.00     0.000 C 
BRANCH   5   6
ATOM      6  C   UNL     1      -2.910  12.081  19.511  1.00  0.00     0.000 C 
BRANCH   6   7
ATOM      7  C   UNL     1      -3.956  13.186  19.725  1.00  0.00     0.000 C 
BRANCH   7   8
ATOM      8  C   UNL     1      -3.978  13.704  21.175  1.00  0.00     0.000 C 
BRANCH   8   9
ATOM      9  C   UNL     1      -3.775  15.224  21.265  1.00  0.00     0.000 C 
BRANCH   9  10
ATOM     10  C   UNL     1      -4.687  16.002  20.301  1.00  0.00     0.000 C 
BRANCH  10  11
ATOM     11  C   UNL     1      -6.035  16.384  20.936  1.00  0.00     0.000 C 
BRANCH  11  12
ATOM     12  C   UNL     1      -6.996  17.164  20.018  1.00  0.00     0.000 C 
BRANCH  12  13
ATOM     13  C   UNL     1      -6.315  18.041  18.948  1.00  0.00     0.006 C 
BRANCH  13  14
ATOM     14  C   UNL     1      -6.841  19.483  18.881  1.00  0.00     0.053 C 
BRANCH  14  15
ATOM     15  C   UNL     1      -6.752  20.045  17.495  1.00  0.00     0.041 C 
ATOM     16  O   UNL     1      -7.787  20.463  16.911  1.00  0.00    -0.550 OA
ATOM     17  O   UNL     1      -5.520  20.131  16.858  1.00  0.00    -0.550 OA
ENDBRANCH  14  15
ENDBRANCH  13  14
ENDBRANCH  12  13
ENDBRANCH  11  12
ENDBRANCH  10  11
ENDBRANCH   9  10
ENDBRANCH   8   9
ENDBRANCH   7   8
ENDBRANCH   6   7
ENDBRANCH   5   6
ENDBRANCH   4   5
ENDBRANCH   3   4
ENDBRANCH   2   3
ENDBRANCH   1   2
BRANCH   1  18
ATOM     18  C   UNL     1      -0.872  17.718  20.676  1.00  0.00     0.000 C 
BRANCH  18  19
ATOM     19  C   UNL     1      -0.737  19.194  20.246  1.00  0.00     0.000 C 
BRANCH  19  20
ATOM     20  C   UNL     1      -1.232  20.167  21.332  1.00  0.00     0.000 C 
BRANCH  20  21
ATOM     21  C   UNL     1      -0.077  20.832  22.099  1.00  0.00     0.000 C 
BRANCH  21  22
ATOM     22  C   UNL     1      -0.310  22.337  22.322  1.00  0.00     0.000 C 
BRANCH  22  23
ATOM     23  C   UNL     1      -1.696  22.637  22.915  1.00  0.00     0.000 C 
BRANCH  23  24
ATOM     24  C   UNL     1      -1.942  24.141  23.111  1.00  0.00    -0.000 C 
BRANCH  24  25
ATOM     25  C   UNL     1      -3.267  24.566  22.458  1.00  0.00    -0.000 C 
BRANCH  25  26
ATOM     26  C   UNL     1      -3.188  25.932  21.750  1.00  0.00    -0.000 C 
BRANCH  26  27
ATOM     27  C   UNL     1      -4.492  26.393  21.067  1.00  0.00    -0.000 C 
BRANCH  27  28
ATOM     28  C   UNL     1      -4.467  27.855  20.564  1.00  0.00    -0.000 C 
BRANCH  28  29
ATOM     29  C   UNL     1      -3.742  28.038  19.217  1.00  0.00    -0.000 C 
BRANCH  29  30
ATOM     30  C   UNL     1      -2.420  28.820  19.297  1.00  0.00    -0.000 C 
BRANCH  30  31
ATOM     31  C   UNL     1      -2.472  29.973  20.311  1.00  0.00    -0.003 C 
ATOM     32  C   UNL     1      -1.068  30.467  20.652  1.00  0.00     0.004 C 
ENDBRANCH  30  31
ENDBRANCH  29  30
ENDBRANCH  28  29
ENDBRANCH  27  28
ENDBRANCH  26  27
ENDBRANCH  25  26
ENDBRANCH  24  25
ENDBRANCH  23  24
ENDBRANCH  22  23
ENDBRANCH  21  22
ENDBRANCH  20  21
ENDBRANCH  19  20
ENDBRANCH  18  19
ENDBRANCH   1  18
TORSDOF 28
ENDMDL
MODEL 3
REMARK VINA RESULT:    27.686      3.881     11.226
REMARK INTER + INTRA:          72.704
REMARK INTER:                  75.108
REMARK INTRA:                  -2.404
REMARK UNBOUND:                -0.301
REMARK SMILES CCCCCCCCCCCCCCCCCCCCCCCCCCCCCC(=O)[O-]
REMARK SMILES IDX 16 1 17 2 18 3 19 4 20 5 21 6 22 7 23 8 24 9 25 10 26 11
REMARK SMILES IDX 27 12 28 13 29 14 30 15 31 16 32 17 15 18 14 19 13 20 12 21
REMARK SMILES IDX 11 22 10 23 9 24 8 25 7 26 6 27 5 28 4 29 3 30 2 31 1 32
REMARK H PARENT
REMARK Flexibility Score: inf
ROOT
ATOM      1  C   UNL     1      -0.627  16.640  21.308  1.00  0.00     0.000 C 
ENDROOT
BRANCH   1   2
ATOM      2  C   UNL     1      -1.506  17.898  21.352  1.00  0.00     0.000 C 
BRANCH   2   3
ATOM      3  C   UNL     1      -0.776  19.106  20.746  1.00  0.00     0.000 C 
BRANCH   3   4
ATOM      4  C   UNL     1      -1.279  20.444  21.329  1.00  0.00     0.000 C 
BRANCH   4   5
ATOM      5  C   UNL     1      -0.185  21.522  21.433  1.00  0.00     0.000 C 
BRANCH   5   6
ATOM      6  C   UNL     1      -0.277  22.344  22.728  1.00  0.00     0.000 C 
BRANCH   6   7
ATOM      7  C   UNL     1      -1.727  22.645  23.137  1.00  0.00     0.000 C 
BRANCH   7   8
ATOM      8  C   UNL     1      -2.264  23.937  22.495  1.00  0.00     0.000 C 
BRANCH   8   9
ATOM      9  C   UNL     1      -2.476  25.064  23.518  1.00  0.00     0.000 C 
BRANCH   9  10
ATOM     10  C   UNL     1      -3.169  26.296  22.909  1.00  0.00     0.000 C 
BRANCH  10  11
ATOM     11  C   UNL     1      -3.310  26.203  21.380  1.00  0.00     0.000 C 
BRANCH  11  12
ATOM     12  C   UNL     1      -4.533  26.931  20.789  1.00  0.00     0.000 C 
BRANCH  12  13
ATOM     13  C   UNL     1      -4.333  27.505  19.372  1.00  0.00     0.006 C 
BRANCH  13  14
ATOM     14  C   UNL     1      -2.949  28.127  19.130  1.00  0.00     0.053 C 
BRANCH  14  15
ATOM     15  C   UNL     1      -2.817  29.467  19.789  1.00  0.00     0.041 C 
ATOM     16  O   UNL     1      -3.845  30.116  20.118  1.00  0.00    -0.550 OA
ATOM     17  O   UNL     1      -1.558  29.984  20.065  1.00  0.00    -0.550 OA
ENDBRANCH  14  15
ENDBRANCH  13  14
ENDBRANCH  12  13
ENDBRANCH  11  12
ENDBRANCH  10  11
ENDBRANCH   9  10
ENDBRANCH   8   9
ENDBRANCH   7   8
ENDBRANCH   6   7
ENDBRANCH   5   6
ENDBRANCH   4   5
ENDBRANCH   3   4
ENDBRANCH   2   3
ENDBRANCH   1   2
BRANCH   1  18
ATOM     18  C   UNL     1      -0.299  16.186  19.876  1.00  0.00     0.000 C 
BRANCH  18  19
ATOM     19  C   UNL     1      -0.215  14.654  19.709  1.00  0.00     0.000 C 
BRANCH  19  20
ATOM     20  C   UNL     1      -0.594  14.199  18.288  1.00  0.00     0.000 C 
BRANCH  20  21
ATOM     21  C   UNL     1      -1.206  12.789  18.264  1.00  0.00     0.000 C 
BRANCH  21  22
ATOM     22  C   UNL     1      -2.051  12.494  19.517  1.00  0.00     0.000 C 
BRANCH  22  23
ATOM     23  C   UNL     1      -3.530  12.241  19.185  1.00  0.00     0.000 C 
BRANCH  23  24
ATOM     24  C   UNL     1      -4.483  12.921  20.179  1.00  0.00    -0.000 C 
BRANCH  24  25
ATOM     25  C   UNL     1      -3.706  13.834  21.141  1.00  0.00    -0.000 C 
BRANCH  25  26
ATOM     26  C   UNL     1      -3.790  15.327  20.767  1.00  0.00    -0.000 C 
BRANCH  26  27
ATOM     27  C   UNL     1      -5.007  16.079  21.344  1.00  0.00    -0.000 C 
BRANCH  27  28
ATOM     28  C   UNL     1      -5.346  17.401  20.616  1.00  0.00    -0.000 C 
BRANCH  28  29
ATOM     29  C   UNL     1      -6.525  17.285  19.633  1.00  0.00    -0.000 C 
BRANCH  29  30
ATOM     30  C   UNL     1      -7.222  15.914  19.620  1.00  0.00    -0.000 C 
BRANCH  30  31
ATOM     31  C   UNL     1      -8.635  15.959  20.224  1.00  0.00    -0.003 C 
ATOM     32  C   UNL     1      -9.312  17.296  19.934  1.00  0.00     0.004 C 
ENDBRANCH  30  31
ENDBRANCH  29  30
ENDBRANCH  28  29
ENDBRANCH  27  28
ENDBRANCH  26  27
ENDBRANCH  25  26
ENDBRANCH  24  25
ENDBRANCH  23  24
ENDBRANCH  22  23
ENDBRANCH  21  22
ENDBRANCH  20  21
ENDBRANCH  19  20
ENDBRANCH  18  19
ENDBRANCH   1  18
TORSDOF 28
ENDMDL
MODEL 4
REMARK VINA RESULT:    27.895      3.480     11.981
REMARK INTER + INTRA:          73.256
REMARK INTER:                  75.200
REMARK INTRA:                  -1.944
REMARK UNBOUND:                -0.301
REMARK SMILES CCCCCCCCCCCCCCCCCCCCCCCCCCCCCC(=O)[O-]
REMARK SMILES IDX 16 1 17 2 18 3 19 4 20 5 21 6 22 7 23 8 24 9 25 10 26 11
REMARK SMILES IDX 27 12 28 13 29 14 30 15 31 16 32 17 15 18 14 19 13 20 12 21
REMARK SMILES IDX 11 22 10 23 9 24 8 25 7 26 6 27 5 28 4 29 3 30 2 31 1 32
REMARK H PARENT
REMARK Flexibility Score: inf
ROOT
ATOM      1  C   UNL     1      -0.802  20.580  22.012  1.00  0.00     0.000 C 
ENDROOT
BRANCH   1   2
ATOM      2  C   UNL     1       0.389  21.548  22.044  1.00  0.00     0.000 C 
BRANCH   2   3
ATOM      3  C   UNL     1      -0.083  23.006  22.153  1.00  0.00     0.000 C 
BRANCH   3   4
ATOM      4  C   UNL     1      -1.417  23.132  22.921  1.00  0.00     0.000 C 
BRANCH   4   5
ATOM      5  C   UNL     1      -1.665  24.536  23.500  1.00  0.00     0.000 C 
BRANCH   5   6
ATOM      6  C   UNL     1      -0.770  24.851  24.709  1.00  0.00     0.000 C 
BRANCH   6   7
ATOM      7  C   UNL     1      -0.217  26.284  24.679  1.00  0.00     0.000 C 
BRANCH   7   8
ATOM      8  C   UNL     1      -1.331  27.347  24.723  1.00  0.00     0.000 C 
BRANCH   8   9
ATOM      9  C   UNL     1      -0.795  28.755  25.022  1.00  0.00     0.000 C 
BRANCH   9  10
ATOM     10  C   UNL     1      -0.492  29.558  23.745  1.00  0.00     0.000 C 
BRANCH  10  11
ATOM     11  C   UNL     1      -1.328  29.096  22.540  1.00  0.00     0.000 C 
BRANCH  11  12
ATOM     12  C   UNL     1      -1.006  29.802  21.209  1.00  0.00     0.000 C 
BRANCH  12  13
ATOM     13  C   UNL     1      -2.217  30.045  20.285  1.00  0.00     0.006 C 
BRANCH  13  14
ATOM     14  C   UNL     1      -3.520  29.388  20.763  1.00  0.00     0.053 C 
BRANCH  14  15
ATOM     15  C   UNL     1      -3.668  27.994  20.234  1.00  0.00     0.041 C 
ATOM     16  O   UNL     1      -4.211  27.102  20.939  1.00  0.00    -0.550 OA
ATOM     17  O   UNL     1      -3.231  27.687  18.952  1.00  0.00    -0.550 OA
ENDBRANCH  14  15
ENDBRANCH  13  14
ENDBRANCH  12  13
ENDBRANCH  11  12
ENDBRANCH  10  11
ENDBRANCH   9  10
ENDBRANCH   8   9
ENDBRANCH   7   8
ENDBRANCH   6   7
ENDBRANCH   5   6
ENDBRANCH   4   5
ENDBRANCH   3   4
ENDBRANCH   2   3
ENDBRANCH   1   2
BRANCH   1  18
ATOM     18  C   UNL     1      -0.873  19.758  20.713  1.00  0.00     0.000 C 
BRANCH  18  19
ATOM     19  C   UNL     1      -1.101  18.249  20.940  1.00  0.00     0.000 C 
BRANCH  19  20
ATOM     20  C   UNL     1      -0.049  17.385  20.221  1.00  0.00     0.000 C 
BRANCH  20  21
ATOM     21  C   UNL     1      -0.340  15.879  20.343  1.00  0.00     0.000 C 
BRANCH  21  22
ATOM     22  C   UNL     1      -0.395  15.180  18.973  1.00  0.00     0.000 C 
BRANCH  22  23
ATOM     23  C   UNL     1      -1.030  13.782  19.050  1.00  0.00     0.000 C 
BRANCH  23  24
ATOM     24  C   UNL     1      -2.557  13.818  18.882  1.00  0.00    -0.000 C 
BRANCH  24  25
ATOM     25  C   UNL     1      -3.250  13.076  20.037  1.00  0.00    -0.000 C 
BRANCH  25  26
ATOM     26  C   UNL     1      -4.194  13.975  20.859  1.00  0.00    -0.000 C 
BRANCH  26  27
ATOM     27  C   UNL     1      -3.877  15.483  20.803  1.00  0.00    -0.000 C 
BRANCH  27  28
ATOM     28  C   UNL     1      -5.086  16.401  21.095  1.00  0.00    -0.000 C 
BRANCH  28  29
ATOM     29  C   UNL     1      -5.964  16.687  19.862  1.00  0.00    -0.000 C 
BRANCH  29  30
ATOM     30  C   UNL     1      -7.311  15.945  19.844  1.00  0.00    -0.000 C 
BRANCH  30  31
ATOM     31  C   UNL     1      -8.433  16.733  20.538  1.00  0.00    -0.003 C 
ATOM     32  C   UNL     1      -9.361  17.383  19.516  1.00  0.00     0.004 C 
ENDBRANCH  30  31
ENDBRANCH  29  30
ENDBRANCH  28  29
ENDBRANCH  27  28
ENDBRANCH  26  27
ENDBRANCH  25  26
ENDBRANCH  24  25
ENDBRANCH  23  24
ENDBRANCH  22  23
ENDBRANCH  21  22
ENDBRANCH  20  21
ENDBRANCH  19  20
ENDBRANCH  18  19
ENDBRANCH   1  18
TORSDOF 28
ENDMDL
MODEL 5
REMARK VINA RESULT:    28.059      4.203     11.748
REMARK INTER + INTRA:          73.686
REMARK INTER:                  75.090
REMARK INTRA:                  -1.403
REMARK UNBOUND:                -0.301
REMARK SMILES CCCCCCCCCCCCCCCCCCCCCCCCCCCCCC(=O)[O-]
REMARK SMILES IDX 16 1 17 2 18 3 19 4 20 5 21 6 22 7 23 8 24 9 25 10 26 11
REMARK SMILES IDX 27 12 28 13 29 14 30 15 31 16 32 17 15 18 14 19 13 20 12 21
REMARK SMILES IDX 11 22 10 23 9 24 8 25 7 26 6 27 5 28 4 29 3 30 2 31 1 32
REMARK H PARENT
REMARK Flexibility Score: inf
ROOT
ATOM      1  C   UNL     1      -0.510  18.869  19.921  1.00  0.00     0.000 C 
ENDROOT
BRANCH   1   2
ATOM      2  C   UNL     1      -1.200  20.041  20.631  1.00  0.00     0.000 C 
BRANCH   2   3
ATOM      3  C   UNL     1      -0.571  20.304  22.008  1.00  0.00     0.000 C 
BRANCH   3   4
ATOM      4  C   UNL     1       0.160  21.663  22.067  1.00  0.00     0.000 C 
BRANCH   4   5
ATOM      5  C   UNL     1      -0.789  22.867  22.203  1.00  0.00     0.000 C 
BRANCH   5   6
ATOM      6  C   UNL     1      -2.035  22.554  23.047  1.00  0.00     0.000 C 
BRANCH   6   7
ATOM      7  C   UNL     1      -3.171  23.564  22.823  1.00  0.00     0.000 C 
BRANCH   7   8
ATOM      8  C   UNL     1      -2.681  25.023  22.870  1.00  0.00     0.000 C 
BRANCH   8   9
ATOM      9  C   UNL     1      -2.858  25.751  21.528  1.00  0.00     0.000 C 
BRANCH   9  10
ATOM     10  C   UNL     1      -4.314  26.180  21.274  1.00  0.00     0.000 C 
BRANCH  10  11
ATOM     11  C   UNL     1      -4.434  27.654  20.852  1.00  0.00     0.000 C 
BRANCH  11  12
ATOM     12  C   UNL     1      -3.865  27.986  19.459  1.00  0.00     0.000 C 
BRANCH  12  13
ATOM     13  C   UNL     1      -2.472  28.647  19.460  1.00  0.00     0.006 C 
BRANCH  13  14
ATOM     14  C   UNL     1      -2.472  30.125  19.878  1.00  0.00     0.053 C 
BRANCH  14  15
ATOM     15  C   UNL     1      -1.303  30.456  20.757  1.00  0.00     0.041 C 
ATOM     16  O   UNL     1      -0.684  29.539  21.360  1.00  0.00    -0.550 OA
ATOM     17  O   UNL     1      -0.881  31.773  20.886  1.00  0.00    -0.550 OA
ENDBRANCH  14  15
ENDBRANCH  13  14
ENDBRANCH  12  13
ENDBRANCH  11  12
ENDBRANCH  10  11
ENDBRANCH   9  10
ENDBRANCH   8   9
ENDBRANCH   7   8
ENDBRANCH   6   7
ENDBRANCH   5   6
ENDBRANCH   4   5
ENDBRANCH   3   4
ENDBRANCH   2   3
ENDBRANCH   1   2
BRANCH   1  18
ATOM     18  C   UNL     1      -0.712  17.525  20.643  1.00  0.00     0.000 C 
BRANCH  18  19
ATOM     19  C   UNL     1       0.007  16.338  19.969  1.00  0.00     0.000 C 
BRANCH  19  20
ATOM     20  C   UNL     1      -0.954  15.181  19.643  1.00  0.00     0.000 C 
BRANCH  20  21
ATOM     21  C   UNL     1      -0.513  14.379  18.407  1.00  0.00     0.000 C 
BRANCH  21  22
ATOM     22  C   UNL     1      -0.964  12.908  18.470  1.00  0.00     0.000 C 
BRANCH  22  23
ATOM     23  C   UNL     1      -1.860  12.619  19.685  1.00  0.00     0.000 C 
BRANCH  23  24
ATOM     24  C   UNL     1      -3.251  12.103  19.283  1.00  0.00    -0.000 C 
BRANCH  24  25
ATOM     25  C   UNL     1      -4.351  13.042  19.805  1.00  0.00    -0.000 C 
BRANCH  25  26
ATOM     26  C   UNL     1      -3.979  13.742  21.127  1.00  0.00    -0.000 C 
BRANCH  26  27
ATOM     27  C   UNL     1      -3.940  15.282  21.064  1.00  0.00    -0.000 C 
BRANCH  27  28
ATOM     28  C   UNL     1      -5.326  15.961  21.158  1.00  0.00    -0.000 C 
BRANCH  28  29
ATOM     29  C   UNL     1      -5.455  17.235  20.303  1.00  0.00    -0.000 C 
BRANCH  29  30
ATOM     30  C   UNL     1      -6.770  17.352  19.514  1.00  0.00    -0.000 C 
BRANCH  30  31
ATOM     31  C   UNL     1      -7.958  16.698  20.238  1.00  0.00    -0.003 C 
ATOM     32  C   UNL     1      -7.921  15.179  20.090  1.00  0.00     0.004 C 
ENDBRANCH  30  31
ENDBRANCH  29  30
ENDBRANCH  28  29
ENDBRANCH  27  28
ENDBRANCH  26  27
ENDBRANCH  25  26
ENDBRANCH  24  25
ENDBRANCH  23  24
ENDBRANCH  22  23
ENDBRANCH  21  22
ENDBRANCH  20  21
ENDBRANCH  19  20
ENDBRANCH  18  19
ENDBRANCH   1  18
TORSDOF 28
ENDMDL
MODEL 6
REMARK VINA RESULT:    28.249      1.017      2.228
REMARK INTER + INTRA:          74.189
REMARK INTER:                  75.542
REMARK INTRA:                  -1.353
REMARK UNBOUND:                -0.301
REMARK SMILES CCCCCCCCCCCCCCCCCCCCCCCCCCCCCC(=O)[O-]
REMARK SMILES IDX 16 1 17 2 18 3 19 4 20 5 21 6 22 7 23 8 24 9 25 10 26 11
REMARK SMILES IDX 27 12 28 13 29 14 30 15 31 16 32 17 15 18 14 19 13 20 12 21
REMARK SMILES IDX 11 22 10 23 9 24 8 25 7 26 6 27 5 28 4 29 3 30 2 31 1 32
REMARK H PARENT
REMARK Flexibility Score: inf
ROOT
ATOM      1  C   UNL     1      -0.777  16.831  20.506  1.00  0.00     0.000 C 
ENDROOT
BRANCH   1   2
ATOM      2  C   UNL     1      -0.139  15.539  19.978  1.00  0.00     0.000 C 
BRANCH   2   3
ATOM      3  C   UNL     1      -0.862  15.038  18.719  1.00  0.00     0.000 C 
BRANCH   3   4
ATOM      4  C   UNL     1      -0.781  13.503  18.571  1.00  0.00     0.000 C 
BRANCH   4   5
ATOM      5  C   UNL     1      -2.156  12.823  18.439  1.00  0.00     0.000 C 
BRANCH   5   6
ATOM      6  C   UNL     1      -2.687  12.285  19.778  1.00  0.00     0.000 C 
BRANCH   6   7
ATOM      7  C   UNL     1      -4.161  12.645  20.018  1.00  0.00     0.000 C 
BRANCH   7   8
ATOM      8  C   UNL     1      -4.331  13.773  21.051  1.00  0.00     0.000 C 
BRANCH   8   9
ATOM      9  C   UNL     1      -4.009  15.160  20.474  1.00  0.00     0.000 C 
BRANCH   9  10
ATOM     10  C   UNL     1      -4.849  16.279  21.114  1.00  0.00     0.000 C 
BRANCH  10  11
ATOM     11  C   UNL     1      -5.585  17.140  20.073  1.00  0.00     0.000 C 
BRANCH  11  12
ATOM     12  C   UNL     1      -7.105  17.274  20.289  1.00  0.00     0.000 C 
BRANCH  12  13
ATOM     13  C   UNL     1      -7.845  15.954  20.585  1.00  0.00     0.006 C 
BRANCH  13  14
ATOM     14  C   UNL     1      -8.781  15.486  19.460  1.00  0.00     0.053 C 
BRANCH  14  15
ATOM     15  C   UNL     1      -8.395  14.135  18.940  1.00  0.00     0.041 C 
ATOM     16  O   UNL     1      -8.859  13.720  17.845  1.00  0.00    -0.550 OA
ATOM     17  O   UNL     1      -7.501  13.346  19.652  1.00  0.00    -0.550 OA
ENDBRANCH  14  15
ENDBRANCH  13  14
ENDBRANCH  12  13
ENDBRANCH  11  12
ENDBRANCH  10  11
ENDBRANCH   9  10
ENDBRANCH   8   9
ENDBRANCH   7   8
ENDBRANCH   6   7
ENDBRANCH   5   6
ENDBRANCH   4   5
ENDBRANCH   3   4
ENDBRANCH   2   3
ENDBRANCH   1   2
BRANCH   1  18
ATOM     18  C   UNL     1       0.057  18.085  20.193  1.00  0.00     0.000 C 
BRANCH  18  19
ATOM     19  C   UNL     1      -0.757  19.397  20.203  1.00  0.00     0.000 C 
BRANCH  19  20
ATOM     20  C   UNL     1      -0.863  20.008  21.612  1.00  0.00     0.000 C 
BRANCH  20  21
ATOM     21  C   UNL     1      -0.408  21.477  21.652  1.00  0.00     0.000 C 
BRANCH  21  22
ATOM     22  C   UNL     1      -0.823  22.184  22.955  1.00  0.00     0.000 C 
BRANCH  22  23
ATOM     23  C   UNL     1      -2.294  22.630  22.940  1.00  0.00     0.000 C 
BRANCH  23  24
ATOM     24  C   UNL     1      -2.454  24.144  23.149  1.00  0.00    -0.000 C 
BRANCH  24  25
ATOM     25  C   UNL     1      -3.202  24.781  21.967  1.00  0.00    -0.000 C 
BRANCH  25  26
ATOM     26  C   UNL     1      -3.238  26.320  22.027  1.00  0.00    -0.000 C 
BRANCH  26  27
ATOM     27  C   UNL     1      -4.166  26.994  20.995  1.00  0.00    -0.000 C 
BRANCH  27  28
ATOM     28  C   UNL     1      -3.451  27.467  19.707  1.00  0.00    -0.000 C 
BRANCH  28  29
ATOM     29  C   UNL     1      -4.178  28.612  18.977  1.00  0.00    -0.000 C 
BRANCH  29  30
ATOM     30  C   UNL     1      -3.820  30.023  19.475  1.00  0.00    -0.000 C 
BRANCH  30  31
ATOM     31  C   UNL     1      -2.306  30.231  19.636  1.00  0.00    -0.003 C 
ATOM     32  C   UNL     1      -1.788  29.537  20.892  1.00  0.00     0.004 C 
ENDBRANCH  30  31
ENDBRANCH  29  30
ENDBRANCH  28  29
ENDBRANCH  27  28
ENDBRANCH  26  27
ENDBRANCH  25  26
ENDBRANCH  24  25
ENDBRANCH  23  24
ENDBRANCH  22  23
ENDBRANCH  21  22
ENDBRANCH  20  21
ENDBRANCH  19  20
ENDBRANCH  18  19
ENDBRANCH   1  18
TORSDOF 28
ENDMDL
MODEL 7
REMARK VINA RESULT:    28.301      1.817      3.820
REMARK INTER + INTRA:          74.325
REMARK INTER:                  75.179
REMARK INTRA:                  -0.854
REMARK UNBOUND:                -0.301
REMARK SMILES CCCCCCCCCCCCCCCCCCCCCCCCCCCCCC(=O)[O-]
REMARK SMILES IDX 16 1 17 2 18 3 19 4 20 5 21 6 22 7 23 8 24 9 25 10 26 11
REMARK SMILES IDX 27 12 28 13 29 14 30 15 31 16 32 17 15 18 14 19 13 20 12 21
REMARK SMILES IDX 11 22 10 23 9 24 8 25 7 26 6 27 5 28 4 29 3 30 2 31 1 32
REMARK H PARENT
REMARK Flexibility Score: inf
ROOT
ATOM      1  C   UNL     1      -0.891  15.020  18.873  1.00  0.00     0.000 C 
ENDROOT
BRANCH   1   2
ATOM      2  C   UNL     1      -0.329  13.680  18.377  1.00  0.00     0.000 C 
BRANCH   2   3
ATOM      3  C   UNL     1      -1.448  12.646  18.184  1.00  0.00     0.000 C 
BRANCH   3   4
ATOM      4  C   UNL     1      -2.021  12.147  19.528  1.00  0.00     0.000 C 
BRANCH   4   5
ATOM      5  C   UNL     1      -3.559  12.111  19.568  1.00  0.00     0.000 C 
BRANCH   5   6
ATOM      6  C   UNL     1      -4.156  13.142  20.539  1.00  0.00     0.000 C 
BRANCH   6   7
ATOM      7  C   UNL     1      -3.457  14.508  20.457  1.00  0.00     0.000 C 
BRANCH   7   8
ATOM      8  C   UNL     1      -4.083  15.548  21.403  1.00  0.00     0.000 C 
BRANCH   8   9
ATOM      9  C   UNL     1      -5.257  16.304  20.761  1.00  0.00     0.000 C 
BRANCH   9  10
ATOM     10  C   UNL     1      -6.422  15.375  20.378  1.00  0.00     0.000 C 
BRANCH  10  11
ATOM     11  C   UNL     1      -7.736  16.137  20.138  1.00  0.00     0.000 C 
BRANCH  11  12
ATOM     12  C   UNL     1      -7.600  17.670  20.057  1.00  0.00     0.000 C 
BRANCH  12  13
ATOM     13  C   UNL     1      -6.751  18.192  18.881  1.00  0.00     0.006 C 
BRANCH  13  14
ATOM     14  C   UNL     1      -6.631  19.723  18.817  1.00  0.00     0.053 C 
BRANCH  14  15
ATOM     15  C   UNL     1      -6.683  20.227  17.407  1.00  0.00     0.041 C 
ATOM     16  O   UNL     1      -5.663  20.746  16.880  1.00  0.00    -0.550 OA
ATOM     17  O   UNL     1      -7.850  20.098  16.665  1.00  0.00    -0.550 OA
ENDBRANCH  14  15
ENDBRANCH  13  14
ENDBRANCH  12  13
ENDBRANCH  11  12
ENDBRANCH  10  11
ENDBRANCH   9  10
ENDBRANCH   8   9
ENDBRANCH   7   8
ENDBRANCH   6   7
ENDBRANCH   5   6
ENDBRANCH   4   5
ENDBRANCH   3   4
ENDBRANCH   2   3
ENDBRANCH   1   2
BRANCH   1  18
ATOM     18  C   UNL     1      -0.087  15.612  20.044  1.00  0.00     0.000 C 
BRANCH  18  19
ATOM     19  C   UNL     1       0.212  17.119  19.899  1.00  0.00     0.000 C 
BRANCH  19  20
ATOM     20  C   UNL     1      -0.756  17.989  20.720  1.00  0.00     0.000 C 
BRANCH  20  21
ATOM     21  C   UNL     1      -0.539  19.493  20.488  1.00  0.00     0.000 C 
BRANCH  21  22
ATOM     22  C   UNL     1      -1.171  20.356  21.595  1.00  0.00     0.000 C 
BRANCH  22  23
ATOM     23  C   UNL     1      -0.180  21.367  22.193  1.00  0.00     0.000 C 
BRANCH  23  24
ATOM     24  C   UNL     1      -0.738  22.798  22.214  1.00  0.00    -0.000 C 
BRANCH  24  25
ATOM     25  C   UNL     1      -2.124  22.832  22.880  1.00  0.00    -0.000 C 
BRANCH  25  26
ATOM     26  C   UNL     1      -2.668  24.259  23.083  1.00  0.00    -0.000 C 
BRANCH  26  27
ATOM     27  C   UNL     1      -3.234  24.931  21.815  1.00  0.00    -0.000 C 
BRANCH  27  28
ATOM     28  C   UNL     1      -3.320  26.473  21.893  1.00  0.00    -0.000 C 
BRANCH  28  29
ATOM     29  C   UNL     1      -4.047  27.117  20.698  1.00  0.00    -0.000 C 
BRANCH  29  30
ATOM     30  C   UNL     1      -3.148  27.954  19.772  1.00  0.00    -0.000 C 
BRANCH  30  31
ATOM     31  C   UNL     1      -3.156  29.449  20.127  1.00  0.00    -0.003 C 
ATOM     32  C   UNL     1      -1.816  30.099  19.793  1.00  0.00     0.004 C 
ENDBRANCH  30  31
ENDBRANCH  29  30
ENDBRANCH  28  29
ENDBRANCH  27  28
ENDBRANCH  26  27
ENDBRANCH  25  26
ENDBRANCH  24  25
ENDBRANCH  23  24
ENDBRANCH  22  23
ENDBRANCH  21  22
ENDBRANCH  20  21
ENDBRANCH  19  20
ENDBRANCH  18  19
ENDBRANCH   1  18
TORSDOF 28
ENDMDL
MODEL 8
REMARK VINA RESULT:    28.379      1.006      1.702
REMARK INTER + INTRA:          74.531
REMARK INTER:                  74.687
REMARK INTRA:                  -0.157
REMARK UNBOUND:                -0.301
REMARK SMILES CCCCCCCCCCCCCCCCCCCCCCCCCCCCCC(=O)[O-]
REMARK SMILES IDX 16 1 17 2 18 3 19 4 20 5 21 6 22 7 23 8 24 9 25 10 26 11
REMARK SMILES IDX 27 12 28 13 29 14 30 15 31 16 32 17 15 18 14 19 13 20 12 21
REMARK SMILES IDX 11 22 10 23 9 24 8 25 7 26 6 27 5 28 4 29 3 30 2 31 1 32
REMARK H PARENT
REMARK Flexibility Score: inf
ROOT
ATOM      1  C   UNL     1      -0.758  20.341  20.744  1.00  0.00     0.000 C 
ENDROOT
BRANCH   1   2
ATOM      2  C   UNL     1      -1.165  18.868  20.890  1.00  0.00     0.000 C 
BRANCH   2   3
ATOM      3  C   UNL     1      -0.121  17.938  20.254  1.00  0.00     0.000 C 
BRANCH   3   4
ATOM      4  C   UNL     1      -0.342  16.460  20.641  1.00  0.00     0.000 C 
BRANCH   4   5
ATOM      5  C   UNL     1       0.091  15.465  19.550  1.00  0.00     0.000 C 
BRANCH   5   6
ATOM      6  C   UNL     1      -1.099  14.755  18.883  1.00  0.00     0.000 C 
BRANCH   6   7
ATOM      7  C   UNL     1      -0.676  13.512  18.086  1.00  0.00     0.000 C 
BRANCH   7   8
ATOM      8  C   UNL     1      -1.175  12.203  18.726  1.00  0.00     0.000 C 
BRANCH   8   9
ATOM      9  C   UNL     1      -2.156  12.447  19.885  1.00  0.00     0.000 C 
BRANCH   9  10
ATOM     10  C   UNL     1      -3.627  12.366  19.443  1.00  0.00     0.000 C 
BRANCH  10  11
ATOM     11  C   UNL     1      -4.583  13.052  20.434  1.00  0.00     0.000 C 
BRANCH  11  12
ATOM     12  C   UNL     1      -3.948  14.157  21.301  1.00  0.00     0.000 C 
BRANCH  12  13
ATOM     13  C   UNL     1      -4.160  15.596  20.788  1.00  0.00     0.006 C 
BRANCH  13  14
ATOM     14  C   UNL     1      -5.425  15.785  19.937  1.00  0.00     0.053 C 
BRANCH  14  15
ATOM     15  C   UNL     1      -6.241  16.952  20.405  1.00  0.00     0.041 C 
ATOM     16  O   UNL     1      -5.674  18.001  20.810  1.00  0.00    -0.550 OA
ATOM     17  O   UNL     1      -7.628  16.889  20.367  1.00  0.00    -0.550 OA
ENDBRANCH  14  15
ENDBRANCH  13  14
ENDBRANCH  12  13
ENDBRANCH  11  12
ENDBRANCH  10  11
ENDBRANCH   9  10
ENDBRANCH   8   9
ENDBRANCH   7   8
ENDBRANCH   6   7
ENDBRANCH   5   6
ENDBRANCH   4   5
ENDBRANCH   3   4
ENDBRANCH   2   3
ENDBRANCH   1   2
BRANCH   1  18
ATOM     18  C   UNL     1      -0.046  20.895  21.990  1.00  0.00     0.000 C 
BRANCH  18  19
ATOM     19  C   UNL     1       0.025  22.436  22.036  1.00  0.00     0.000 C 
BRANCH  19  20
ATOM     20  C   UNL     1      -0.850  23.028  23.156  1.00  0.00     0.000 C 
BRANCH  20  21
ATOM     21  C   UNL     1      -2.337  22.671  22.993  1.00  0.00     0.000 C 
BRANCH  21  22
ATOM     22  C   UNL     1      -3.267  23.792  23.491  1.00  0.00     0.000 C 
BRANCH  22  23
ATOM     23  C   UNL     1      -2.860  25.175  22.960  1.00  0.00     0.000 C 
BRANCH  23  24
ATOM     24  C   UNL     1      -3.346  25.423  21.524  1.00  0.00    -0.000 C 
BRANCH  24  25
ATOM     25  C   UNL     1      -3.722  26.900  21.324  1.00  0.00    -0.000 C 
BRANCH  25  26
ATOM     26  C   UNL     1      -5.158  27.099  20.800  1.00  0.00    -0.000 C 
BRANCH  26  27
ATOM     27  C   UNL     1      -5.273  27.343  19.281  1.00  0.00    -0.000 C 
BRANCH  27  28
ATOM     28  C   UNL     1      -3.946  27.742  18.596  1.00  0.00    -0.000 C 
BRANCH  28  29
ATOM     29  C   UNL     1      -2.866  28.241  19.574  1.00  0.00    -0.000 C 
BRANCH  29  30
ATOM     30  C   UNL     1      -3.007  29.715  19.992  1.00  0.00    -0.000 C 
BRANCH  30  31
ATOM     31  C   UNL     1      -1.692  30.499  19.859  1.00  0.00    -0.003 C 
ATOM     32  C   UNL     1      -0.829  30.338  21.108  1.00  0.00     0.004 C 
ENDBRANCH  30  31
ENDBRANCH  29  30
ENDBRANCH  28  29
ENDBRANCH  27  28
ENDBRANCH  26  27
ENDBRANCH  25  26
ENDBRANCH  24  25
ENDBRANCH  23  24
ENDBRANCH  22  23
ENDBRANCH  21  22
ENDBRANCH  20  21
ENDBRANCH  19  20
ENDBRANCH  18  19
ENDBRANCH   1  18
TORSDOF 28
ENDMDL
