MODEL 1
REMARK VINA RESULT:    -6.613      0.000      0.000
REMARK INTER + INTRA:         -11.363
REMARK INTER:                  -9.706
REMARK INTRA:                  -1.656
REMARK UNBOUND:                -1.656
REMARK SMILES O=c1c(O[C@@H]2O[C@@H](CO)[C@H](O)[C@H](O)[C@@H]2O)c(-c2ccc(O)c(O)c2)oc2cc(O)cc(O)c12
REMARK SMILES IDX 4 1 3 2 16 3 25 4 2 5 26 6 1 7 33 8 27 9 31 10 28 11 30 12
REMARK SMILES IDX 17 13 18 14 19 15 20 16 24 17 22 18 21 19 23 21 32 23 29 25
REMARK SMILES IDX 5 27 14 28 6 29 12 30 7 31 10 32 15 33 13 35 8 37 9 38 11 40
REMARK H PARENT 21 20 23 22 32 24 29 26 15 34 13 36 9 39 11 41
REMARK Flexibility Score: inf
ROOT
ATOM      1  O   UNL     1      14.161 -35.735  -2.239  1.00  0.00    -0.454 OA
ENDROOT
BRANCH   1   2
ATOM      2  C   UNL     1      13.664 -36.680  -3.159  1.00  0.00     0.214 A 
ATOM      3  C   UNL     1      14.495 -37.757  -3.527  1.00  0.00     0.180 A 
ATOM      4  O   UNL     1      14.010 -38.749  -4.264  1.00  0.00    -0.452 OA
ATOM      5  C   UNL     1      12.362 -36.625  -3.705  1.00  0.00     0.239 A 
ATOM      6  C   UNL     1      12.772 -38.772  -4.737  1.00  0.00     0.146 A 
ATOM      7  O   UNL     1      11.627 -35.637  -3.454  1.00  0.00    -0.285 OA
ATOM      8  C   UNL     1      11.894 -37.682  -4.524  1.00  0.00     0.111 A 
ATOM      9  C   UNL     1      12.350 -39.898  -5.452  1.00  0.00     0.094 A 
ATOM     10  C   UNL     1      10.589 -37.737  -5.100  1.00  0.00     0.134 A 
ATOM     11  C   UNL     1      11.052 -39.973  -5.947  1.00  0.00     0.123 A 
ATOM     12  C   UNL     1      10.175 -38.902  -5.761  1.00  0.00     0.093 A 
BRANCH   3  13
ATOM     13  C   UNL     1      15.909 -37.849  -3.084  1.00  0.00     0.025 A 
ATOM     14  C   UNL     1      16.916 -37.070  -3.681  1.00  0.00     0.016 A 
ATOM     15  C   UNL     1      18.245 -37.203  -3.272  1.00  0.00     0.051 A 
ATOM     16  C   UNL     1      18.590 -38.118  -2.272  1.00  0.00     0.157 A 
ATOM     17  C   UNL     1      16.262 -38.783  -2.094  1.00  0.00     0.062 A 
ATOM     18  C   UNL     1      17.594 -38.909  -1.675  1.00  0.00     0.158 A 
BRANCH  16  19
ATOM     19  O   UNL     1      19.924 -38.227  -1.883  1.00  0.00    -0.504 OA
ATOM     20  H   UNL     1      20.683 -37.902  -2.472  1.00  0.00     0.293 HD
ENDBRANCH  16  19
BRANCH  18  21
ATOM     21  O   UNL     1      17.933 -39.824  -0.679  1.00  0.00    -0.504 OA
ATOM     22  H   UNL     1      18.802 -39.742  -0.162  1.00  0.00     0.293 HD
ENDBRANCH  18  21
ENDBRANCH   3  13
BRANCH  10  23
ATOM     23  O   UNL     1       9.681 -36.675  -5.071  1.00  0.00    -0.507 OA
ATOM     24  H   UNL     1       8.679 -36.787  -5.104  1.00  0.00     0.293 HD
ENDBRANCH  10  23
BRANCH  11  25
ATOM     25  O   UNL     1      10.643 -41.114  -6.636  1.00  0.00    -0.508 OA
ATOM     26  H   UNL     1       9.697 -41.471  -6.561  1.00  0.00     0.293 HD
ENDBRANCH  11  25
ENDBRANCH   1   2
BRANCH   1  27
ATOM     27  C   UNL     1      13.911 -35.693  -0.831  1.00  0.00     0.339 C 
ATOM     28  C   UNL     1      15.226 -35.872  -0.024  1.00  0.00     0.214 C 
ATOM     29  O   UNL     1      13.328 -34.442  -0.516  1.00  0.00    -0.332 OA
ATOM     30  C   UNL     1      15.090 -35.302   1.415  1.00  0.00     0.180 C 
ATOM     31  C   UNL     1      12.793 -34.418   0.808  1.00  0.00     0.179 C 
ATOM     32  C   UNL     1      13.612 -35.258   1.837  1.00  0.00     0.177 C 
BRANCH  28  33
ATOM     33  O   UNL     1      16.293 -35.257  -0.703  1.00  0.00    -0.384 OA
ATOM     34  H   UNL     1      15.947 -34.975  -1.590  1.00  0.00     0.211 HD
ENDBRANCH  28  33
BRANCH  30  35
ATOM     35  O   UNL     1      15.628 -34.004   1.493  1.00  0.00    -0.387 OA
ATOM     36  H   UNL     1      15.268 -33.589   2.318  1.00  0.00     0.211 HD
ENDBRANCH  30  35
BRANCH  31  37
ATOM     37  C   UNL     1      11.310 -34.813   0.782  1.00  0.00     0.191 C 
BRANCH  37  38
ATOM     38  O   UNL     1      11.075 -35.854   1.692  1.00  0.00    -0.394 OA
ATOM     39  H   UNL     1      11.278 -36.696   1.209  1.00  0.00     0.210 HD
ENDBRANCH  37  38
ENDBRANCH  31  37
BRANCH  32  40
ATOM     40  O   UNL     1      13.492 -34.697   3.119  1.00  0.00    -0.387 OA
ATOM     41  H   UNL     1      13.785 -35.390   3.766  1.00  0.00     0.211 HD
ENDBRANCH  32  40
ENDBRANCH   1  27
TORSDOF 12
ENDMDL
MODEL 2
REMARK VINA RESULT:    -6.549      1.444      1.844
REMARK INTER + INTRA:         -11.269
REMARK INTER:                 -10.377
REMARK INTRA:                  -0.892
REMARK UNBOUND:                -1.656
REMARK SMILES O=c1c(O[C@@H]2O[C@@H](CO)[C@H](O)[C@H](O)[C@@H]2O)c(-c2ccc(O)c(O)c2)oc2cc(O)cc(O)c12
REMARK SMILES IDX 4 1 3 2 16 3 25 4 2 5 26 6 1 7 33 8 27 9 31 10 28 11 30 12
REMARK SMILES IDX 17 13 18 14 19 15 20 16 24 17 22 18 21 19 23 21 32 23 29 25
REMARK SMILES IDX 5 27 14 28 6 29 12 30 7 31 10 32 15 33 13 35 8 37 9 38 11 40
REMARK H PARENT 21 20 23 22 32 24 29 26 15 34 13 36 9 39 11 41
REMARK Flexibility Score: inf
ROOT
ATOM      1  O   UNL     1      13.814 -36.701  -0.629  1.00  0.00    -0.454 OA
ENDROOT
BRANCH   1   2
ATOM      2  C   UNL     1      13.292 -37.135  -1.864  1.00  0.00     0.214 A 
ATOM      3  C   UNL     1      14.164 -37.761  -2.777  1.00  0.00     0.180 A 
ATOM      4  O   UNL     1      13.682 -38.324  -3.878  1.00  0.00    -0.452 OA
ATOM      5  C   UNL     1      11.931 -37.008  -2.222  1.00  0.00     0.239 A 
ATOM      6  C   UNL     1      12.401 -38.290  -4.216  1.00  0.00     0.146 A 
ATOM      7  O   UNL     1      11.146 -36.386  -1.462  1.00  0.00    -0.285 OA
ATOM      8  C   UNL     1      11.461 -37.584  -3.428  1.00  0.00     0.111 A 
ATOM      9  C   UNL     1      11.996 -38.970  -5.370  1.00  0.00     0.094 A 
ATOM     10  C   UNL     1      10.104 -37.536  -3.867  1.00  0.00     0.134 A 
ATOM     11  C   UNL     1      10.657 -38.979  -5.750  1.00  0.00     0.123 A 
ATOM     12  C   UNL     1       9.717 -38.275  -4.995  1.00  0.00     0.093 A 
BRANCH   3  13
ATOM     13  C   UNL     1      15.626 -37.855  -2.533  1.00  0.00     0.025 A 
ATOM     14  C   UNL     1      16.540 -37.073  -3.261  1.00  0.00     0.016 A 
ATOM     15  C   UNL     1      17.913 -37.206  -3.040  1.00  0.00     0.051 A 
ATOM     16  C   UNL     1      18.393 -38.124  -2.100  1.00  0.00     0.157 A 
ATOM     17  C   UNL     1      16.113 -38.791  -1.604  1.00  0.00     0.062 A 
ATOM     18  C   UNL     1      17.490 -38.918  -1.374  1.00  0.00     0.158 A 
BRANCH  16  19
ATOM     19  O   UNL     1      19.769 -38.234  -1.900  1.00  0.00    -0.504 OA
ATOM     20  H   UNL     1      20.313 -37.482  -1.491  1.00  0.00     0.293 HD
ENDBRANCH  16  19
BRANCH  18  21
ATOM     21  O   UNL     1      17.963 -39.835  -0.438  1.00  0.00    -0.504 OA
ATOM     22  H   UNL     1      17.525 -39.934   0.472  1.00  0.00     0.293 HD
ENDBRANCH  18  21
ENDBRANCH   3  13
BRANCH  10  23
ATOM     23  O   UNL     1       9.113 -36.768  -3.250  1.00  0.00    -0.507 OA
ATOM     24  H   UNL     1       8.138 -36.784  -3.513  1.00  0.00     0.293 HD
ENDBRANCH  10  23
BRANCH  11  25
ATOM     25  O   UNL     1      10.270 -39.682  -6.890  1.00  0.00    -0.508 OA
ATOM     26  H   UNL     1      10.748 -39.562  -7.776  1.00  0.00     0.293 HD
ENDBRANCH  11  25
ENDBRANCH   1   2
BRANCH   1  27
ATOM     27  C   UNL     1      13.633 -35.416  -0.026  1.00  0.00     0.339 C 
ATOM     28  C   UNL     1      14.107 -35.422   1.453  1.00  0.00     0.214 C 
ATOM     29  O   UNL     1      14.384 -34.467  -0.760  1.00  0.00    -0.332 OA
ATOM     30  C   UNL     1      14.435 -33.987   1.949  1.00  0.00     0.180 C 
ATOM     31  C   UNL     1      14.047 -33.125  -0.403  1.00  0.00     0.179 C 
ATOM     32  C   UNL     1      13.686 -32.942   1.104  1.00  0.00     0.177 C 
BRANCH  28  33
ATOM     33  O   UNL     1      15.224 -36.264   1.597  1.00  0.00    -0.384 OA
ATOM     34  H   UNL     1      15.845 -35.815   2.230  1.00  0.00     0.211 HD
ENDBRANCH  28  33
BRANCH  30  35
ATOM     35  O   UNL     1      15.818 -33.734   1.872  1.00  0.00    -0.387 OA
ATOM     36  H   UNL     1      16.050 -33.153   2.642  1.00  0.00     0.211 HD
ENDBRANCH  30  35
BRANCH  31  37
ATOM     37  C   UNL     1      12.948 -32.594  -1.334  1.00  0.00     0.191 C 
BRANCH  37  38
ATOM     38  O   UNL     1      13.298 -32.829  -2.671  1.00  0.00    -0.394 OA
ATOM     39  H   UNL     1      12.471 -33.137  -3.125  1.00  0.00     0.210 HD
ENDBRANCH  37  38
ENDBRANCH  31  37
BRANCH  32  40
ATOM     40  O   UNL     1      14.025 -31.647   1.526  1.00  0.00    -0.387 OA
ATOM     41  H   UNL     1      14.336 -31.720   2.466  1.00  0.00     0.211 HD
ENDBRANCH  32  40
ENDBRANCH   1  27
TORSDOF 12
ENDMDL
MODEL 3
REMARK VINA RESULT:    -6.518      2.302      3.756
REMARK INTER + INTRA:         -11.222
REMARK INTER:                  -9.620
REMARK INTRA:                  -1.602
REMARK UNBOUND:                -1.656
REMARK SMILES O=c1c(O[C@@H]2O[C@@H](CO)[C@H](O)[C@H](O)[C@@H]2O)c(-c2ccc(O)c(O)c2)oc2cc(O)cc(O)c12
REMARK SMILES IDX 4 1 3 2 16 3 25 4 2 5 26 6 1 7 33 8 27 9 31 10 28 11 30 12
REMARK SMILES IDX 17 13 18 14 19 15 20 16 24 17 22 18 21 19 23 21 32 23 29 25
REMARK SMILES IDX 5 27 14 28 6 29 12 30 7 31 10 32 15 33 13 35 8 37 9 38 11 40
REMARK H PARENT 21 20 23 22 32 24 29 26 15 34 13 36 9 39 11 41
REMARK Flexibility Score: inf
ROOT
ATOM      1  O   UNL     1      13.532 -36.340  -3.957  1.00  0.00    -0.454 OA
ENDROOT
BRANCH   1   2
ATOM      2  C   UNL     1      13.605 -37.748  -3.934  1.00  0.00     0.214 A 
ATOM      3  C   UNL     1      14.413 -38.360  -2.955  1.00  0.00     0.180 A 
ATOM      4  O   UNL     1      14.384 -39.678  -2.800  1.00  0.00    -0.452 OA
ATOM      5  C   UNL     1      12.883 -38.579  -4.820  1.00  0.00     0.239 A 
ATOM      6  C   UNL     1      13.665 -40.489  -3.562  1.00  0.00     0.146 A 
ATOM      7  O   UNL     1      12.216 -38.061  -5.750  1.00  0.00    -0.285 OA
ATOM      8  C   UNL     1      12.912 -39.985  -4.650  1.00  0.00     0.111 A 
ATOM      9  C   UNL     1      13.665 -41.857  -3.269  1.00  0.00     0.094 A 
ATOM     10  C   UNL     1      12.198 -40.910  -5.470  1.00  0.00     0.134 A 
ATOM     11  C   UNL     1      12.906 -42.742  -4.030  1.00  0.00     0.123 A 
ATOM     12  C   UNL     1      12.169 -42.266  -5.117  1.00  0.00     0.093 A 
BRANCH   3  13
ATOM     13  C   UNL     1      15.282 -37.573  -2.045  1.00  0.00     0.025 A 
ATOM     14  C   UNL     1      16.506 -37.037  -2.483  1.00  0.00     0.016 A 
ATOM     15  C   UNL     1      17.324 -36.333  -1.597  1.00  0.00     0.051 A 
ATOM     16  C   UNL     1      16.941 -36.161  -0.263  1.00  0.00     0.157 A 
ATOM     17  C   UNL     1      14.909 -37.416  -0.698  1.00  0.00     0.062 A 
ATOM     18  C   UNL     1      15.725 -36.701   0.189  1.00  0.00     0.158 A 
BRANCH  16  19
ATOM     19  O   UNL     1      17.777 -35.451   0.598  1.00  0.00    -0.504 OA
ATOM     20  H   UNL     1      18.743 -35.719   0.748  1.00  0.00     0.293 HD
ENDBRANCH  16  19
BRANCH  18  21
ATOM     21  O   UNL     1      15.339 -36.534   1.518  1.00  0.00    -0.504 OA
ATOM     22  H   UNL     1      14.617 -37.113   1.934  1.00  0.00     0.293 HD
ENDBRANCH  18  21
ENDBRANCH   3  13
BRANCH  10  23
ATOM     23  O   UNL     1      11.528 -40.552  -6.643  1.00  0.00    -0.507 OA
ATOM     24  H   UNL     1      11.943 -40.578  -7.562  1.00  0.00     0.293 HD
ENDBRANCH  10  23
BRANCH  11  25
ATOM     25  O   UNL     1      12.901 -44.098  -3.706  1.00  0.00    -0.508 OA
ATOM     26  H   UNL     1      12.059 -44.565  -3.388  1.00  0.00     0.293 HD
ENDBRANCH  11  25
ENDBRANCH   1   2
BRANCH   1  27
ATOM     27  C   UNL     1      12.516 -35.524  -3.366  1.00  0.00     0.339 C 
ATOM     28  C   UNL     1      13.096 -34.656  -2.216  1.00  0.00     0.214 C 
ATOM     29  O   UNL     1      11.978 -34.682  -4.369  1.00  0.00    -0.332 OA
ATOM     30  C   UNL     1      12.203 -33.415  -1.937  1.00  0.00     0.180 C 
ATOM     31  C   UNL     1      10.778 -34.036  -3.939  1.00  0.00     0.179 C 
ATOM     32  C   UNL     1      10.766 -33.667  -2.423  1.00  0.00     0.177 C 
BRANCH  28  33
ATOM     33  O   UNL     1      14.410 -34.262  -2.525  1.00  0.00    -0.384 OA
ATOM     34  H   UNL     1      14.541 -33.359  -2.132  1.00  0.00     0.211 HD
ENDBRANCH  28  33
BRANCH  30  35
ATOM     35  O   UNL     1      12.714 -32.275  -2.586  1.00  0.00    -0.387 OA
ATOM     36  H   UNL     1      13.462 -31.936  -2.030  1.00  0.00     0.211 HD
ENDBRANCH  30  35
BRANCH  31  37
ATOM     37  C   UNL     1       9.556 -34.872  -4.345  1.00  0.00     0.191 C 
BRANCH  37  38
ATOM     38  O   UNL     1       8.887 -35.330  -3.200  1.00  0.00    -0.394 OA
ATOM     39  H   UNL     1       8.593 -34.520  -2.709  1.00  0.00     0.210 HD
ENDBRANCH  37  38
ENDBRANCH  31  37
BRANCH  32  40
ATOM     40  O   UNL     1       9.978 -32.524  -2.213  1.00  0.00    -0.387 OA
ATOM     41  H   UNL     1       9.386 -32.720  -1.440  1.00  0.00     0.211 HD
ENDBRANCH  32  40
ENDBRANCH   1  27
TORSDOF 12
ENDMDL
MODEL 4
REMARK VINA RESULT:    -6.423     10.100     13.370
REMARK INTER + INTRA:         -11.083
REMARK INTER:                 -10.189
REMARK INTRA:                  -0.894
REMARK UNBOUND:                -1.656
REMARK SMILES O=c1c(O[C@@H]2O[C@@H](CO)[C@H](O)[C@H](O)[C@@H]2O)c(-c2ccc(O)c(O)c2)oc2cc(O)cc(O)c12
REMARK SMILES IDX 4 1 3 2 16 3 25 4 2 5 26 6 1 7 33 8 27 9 31 10 28 11 30 12
REMARK SMILES IDX 17 13 18 14 19 15 20 16 24 17 22 18 21 19 23 21 32 23 29 25
REMARK SMILES IDX 5 27 14 28 6 29 12 30 7 31 10 32 15 33 13 35 8 37 9 38 11 40
REMARK H PARENT 21 20 23 22 32 24 29 26 15 34 13 36 9 39 11 41
REMARK Flexibility Score: inf
ROOT
ATOM      1  O   UNL     1      26.022 -32.482   1.434  1.00  0.00    -0.454 OA
ENDROOT
BRANCH   1   2
ATOM      2  C   UNL     1      26.291 -33.313   0.328  1.00  0.00     0.214 A 
ATOM      3  C   UNL     1      27.045 -32.784  -0.739  1.00  0.00     0.180 A 
ATOM      4  O   UNL     1      27.452 -33.578  -1.722  1.00  0.00    -0.452 OA
ATOM      5  C   UNL     1      25.874 -34.661   0.247  1.00  0.00     0.239 A 
ATOM      6  C   UNL     1      27.144 -34.864  -1.799  1.00  0.00     0.146 A 
ATOM      7  O   UNL     1      25.136 -35.136   1.147  1.00  0.00    -0.285 OA
ATOM      8  C   UNL     1      26.293 -35.466  -0.841  1.00  0.00     0.111 A 
ATOM      9  C   UNL     1      27.680 -35.619  -2.849  1.00  0.00     0.094 A 
ATOM     10  C   UNL     1      25.952 -36.842  -1.002  1.00  0.00     0.134 A 
ATOM     11  C   UNL     1      27.400 -36.978  -2.956  1.00  0.00     0.123 A 
ATOM     12  C   UNL     1      26.549 -37.586  -2.029  1.00  0.00     0.093 A 
BRANCH   3  13
ATOM     13  C   UNL     1      27.445 -31.356  -0.791  1.00  0.00     0.025 A 
ATOM     14  C   UNL     1      28.347 -30.814   0.141  1.00  0.00     0.016 A 
ATOM     15  C   UNL     1      28.679 -29.458   0.095  1.00  0.00     0.051 A 
ATOM     16  C   UNL     1      28.109 -28.622  -0.872  1.00  0.00     0.157 A 
ATOM     17  C   UNL     1      26.859 -30.509  -1.748  1.00  0.00     0.062 A 
ATOM     18  C   UNL     1      27.199 -29.150  -1.802  1.00  0.00     0.158 A 
BRANCH  16  19
ATOM     19  O   UNL     1      28.461 -27.273  -0.896  1.00  0.00    -0.504 OA
ATOM     20  H   UNL     1      29.261 -26.937  -1.418  1.00  0.00     0.293 HD
ENDBRANCH  16  19
BRANCH  18  21
ATOM     21  O   UNL     1      26.627 -28.322  -2.767  1.00  0.00    -0.504 OA
ATOM     22  H   UNL     1      27.045 -28.216  -3.685  1.00  0.00     0.293 HD
ENDBRANCH  18  21
ENDBRANCH   3  13
BRANCH  10  23
ATOM     23  O   UNL     1      25.022 -37.512  -0.202  1.00  0.00    -0.507 OA
ATOM     24  H   UNL     1      24.737 -38.469  -0.346  1.00  0.00     0.293 HD
ENDBRANCH  10  23
BRANCH  11  25
ATOM     25  O   UNL     1      27.963 -37.717  -3.995  1.00  0.00    -0.508 OA
ATOM     26  H   UNL     1      27.595 -37.672  -4.939  1.00  0.00     0.293 HD
ENDBRANCH  11  25
ENDBRANCH   1   2
BRANCH   1  27
ATOM     27  C   UNL     1      24.737 -32.169   1.979  1.00  0.00     0.339 C 
ATOM     28  C   UNL     1      24.643 -30.665   2.358  1.00  0.00     0.214 C 
ATOM     29  O   UNL     1      23.752 -32.475   1.010  1.00  0.00    -0.332 OA
ATOM     30  C   UNL     1      23.166 -30.189   2.425  1.00  0.00     0.180 C 
ATOM     31  C   UNL     1      22.434 -32.458   1.562  1.00  0.00     0.179 C 
ATOM     32  C   UNL     1      22.228 -31.382   2.674  1.00  0.00     0.177 C 
BRANCH  28  33
ATOM     33  O   UNL     1      25.373 -29.891   1.439  1.00  0.00    -0.384 OA
ATOM     34  H   UNL     1      24.773 -29.159   1.138  1.00  0.00     0.211 HD
ENDBRANCH  28  33
BRANCH  30  35
ATOM     35  O   UNL     1      22.790 -29.552   1.227  1.00  0.00    -0.387 OA
ATOM     36  H   UNL     1      22.510 -30.264   0.596  1.00  0.00     0.211 HD
ENDBRANCH  30  35
BRANCH  31  37
ATOM     37  C   UNL     1      22.043 -33.865   2.033  1.00  0.00     0.191 C 
BRANCH  37  38
ATOM     38  O   UNL     1      20.646 -33.991   2.058  1.00  0.00    -0.394 OA
ATOM     39  H   UNL     1      20.282 -33.094   1.840  1.00  0.00     0.210 HD
ENDBRANCH  37  38
ENDBRANCH  31  37
BRANCH  32  40
ATOM     40  O   UNL     1      20.891 -30.952   2.684  1.00  0.00    -0.387 OA
ATOM     41  H   UNL     1      20.362 -31.640   2.202  1.00  0.00     0.211 HD
ENDBRANCH  32  40
ENDBRANCH   1  27
TORSDOF 12
ENDMDL
MODEL 5
REMARK VINA RESULT:    -6.416      2.209      5.880
REMARK INTER + INTRA:         -11.073
REMARK INTER:                  -9.511
REMARK INTRA:                  -1.562
REMARK UNBOUND:                -1.656
REMARK SMILES O=c1c(O[C@@H]2O[C@@H](CO)[C@H](O)[C@H](O)[C@@H]2O)c(-c2ccc(O)c(O)c2)oc2cc(O)cc(O)c12
REMARK SMILES IDX 4 1 3 2 16 3 25 4 2 5 26 6 1 7 33 8 27 9 31 10 28 11 30 12
REMARK SMILES IDX 17 13 18 14 19 15 20 16 24 17 22 18 21 19 23 21 32 23 29 25
REMARK SMILES IDX 5 27 14 28 6 29 12 30 7 31 10 32 15 33 13 35 8 37 9 38 11 40
REMARK H PARENT 21 20 23 22 32 24 29 26 15 34 13 36 9 39 11 41
REMARK Flexibility Score: inf
ROOT
ATOM      1  O   UNL     1      12.730 -37.583  -2.361  1.00  0.00    -0.454 OA
ENDROOT
BRANCH   1   2
ATOM      2  C   UNL     1      11.884 -38.147  -3.338  1.00  0.00     0.214 A 
ATOM      3  C   UNL     1      10.691 -37.471  -3.661  1.00  0.00     0.180 A 
ATOM      4  O   UNL     1       9.949 -37.883  -4.682  1.00  0.00    -0.452 OA
ATOM      5  C   UNL     1      12.186 -39.338  -4.035  1.00  0.00     0.239 A 
ATOM      6  C   UNL     1      10.235 -38.954  -5.409  1.00  0.00     0.146 A 
ATOM      7  O   UNL     1      13.204 -40.003  -3.714  1.00  0.00    -0.285 OA
ATOM      8  C   UNL     1      11.347 -39.771  -5.091  1.00  0.00     0.111 A 
ATOM      9  C   UNL     1       9.415 -39.260  -6.500  1.00  0.00     0.094 A 
ATOM     10  C   UNL     1      11.577 -40.941  -5.875  1.00  0.00     0.134 A 
ATOM     11  C   UNL     1       9.691 -40.362  -7.304  1.00  0.00     0.123 A 
ATOM     12  C   UNL     1      10.774 -41.190  -6.996  1.00  0.00     0.093 A 
BRANCH   3  13
ATOM     13  C   UNL     1      10.240 -36.268  -2.918  1.00  0.00     0.025 A 
ATOM     14  C   UNL     1       9.492 -36.377  -1.733  1.00  0.00     0.016 A 
ATOM     15  C   UNL     1       9.046 -35.231  -1.072  1.00  0.00     0.051 A 
ATOM     16  C   UNL     1       9.331 -33.961  -1.586  1.00  0.00     0.157 A 
ATOM     17  C   UNL     1      10.507 -34.991  -3.443  1.00  0.00     0.062 A 
ATOM     18  C   UNL     1      10.069 -33.839  -2.775  1.00  0.00     0.158 A 
BRANCH  16  19
ATOM     19  O   UNL     1       8.875 -32.834  -0.903  1.00  0.00    -0.504 OA
ATOM     20  H   UNL     1       8.629 -32.866   0.079  1.00  0.00     0.293 HD
ENDBRANCH  16  19
BRANCH  18  21
ATOM     21  O   UNL     1      10.355 -32.577  -3.293  1.00  0.00    -0.504 OA
ATOM     22  H   UNL     1      10.055 -31.732  -2.817  1.00  0.00     0.293 HD
ENDBRANCH  18  21
ENDBRANCH   3  13
BRANCH  10  23
ATOM     23  O   UNL     1      12.558 -41.893  -5.582  1.00  0.00    -0.507 OA
ATOM     24  H   UNL     1      13.220 -42.249  -6.256  1.00  0.00     0.293 HD
ENDBRANCH  10  23
BRANCH  11  25
ATOM     25  O   UNL     1       8.875 -40.637  -8.400  1.00  0.00    -0.508 OA
ATOM     26  H   UNL     1       8.956 -40.116  -9.266  1.00  0.00     0.293 HD
ENDBRANCH  11  25
ENDBRANCH   1   2
BRANCH   1  27
ATOM     27  C   UNL     1      13.937 -36.852  -2.591  1.00  0.00     0.339 C 
ATOM     28  C   UNL     1      13.776 -35.363  -2.180  1.00  0.00     0.214 C 
ATOM     29  O   UNL     1      14.972 -37.444  -1.828  1.00  0.00    -0.332 OA
ATOM     30  C   UNL     1      15.152 -34.699  -1.900  1.00  0.00     0.180 C 
ATOM     31  C   UNL     1      16.262 -36.958  -2.205  1.00  0.00     0.179 C 
ATOM     32  C   UNL     1      16.272 -35.457  -2.632  1.00  0.00     0.177 C 
BRANCH  28  33
ATOM     33  O   UNL     1      12.938 -35.263  -1.054  1.00  0.00    -0.384 OA
ATOM     34  H   UNL     1      12.207 -34.634  -1.293  1.00  0.00     0.211 HD
ENDBRANCH  28  33
BRANCH  30  35
ATOM     35  O   UNL     1      15.431 -34.687  -0.521  1.00  0.00    -0.387 OA
ATOM     36  H   UNL     1      14.575 -34.509  -0.053  1.00  0.00     0.211 HD
ENDBRANCH  30  35
BRANCH  31  37
ATOM     37  C   UNL     1      16.876 -37.873  -3.274  1.00  0.00     0.191 C 
BRANCH  37  38
ATOM     38  O   UNL     1      17.752 -37.138  -4.086  1.00  0.00    -0.394 OA
ATOM     39  H   UNL     1      17.198 -36.744  -4.808  1.00  0.00     0.210 HD
ENDBRANCH  37  38
ENDBRANCH  31  37
BRANCH  32  40
ATOM     40  O   UNL     1      17.519 -34.882  -2.335  1.00  0.00    -0.387 OA
ATOM     41  H   UNL     1      18.047 -35.569  -1.851  1.00  0.00     0.211 HD
ENDBRANCH  32  40
ENDBRANCH   1  27
TORSDOF 12
ENDMDL
MODEL 6
REMARK VINA RESULT:    -6.326      1.514      2.558
REMARK INTER + INTRA:         -10.941
REMARK INTER:                  -9.601
REMARK INTRA:                  -1.340
REMARK UNBOUND:                -1.656
REMARK SMILES O=c1c(O[C@@H]2O[C@@H](CO)[C@H](O)[C@H](O)[C@@H]2O)c(-c2ccc(O)c(O)c2)oc2cc(O)cc(O)c12
REMARK SMILES IDX 4 1 3 2 16 3 25 4 2 5 26 6 1 7 33 8 27 9 31 10 28 11 30 12
REMARK SMILES IDX 17 13 18 14 19 15 20 16 24 17 22 18 21 19 23 21 32 23 29 25
REMARK SMILES IDX 5 27 14 28 6 29 12 30 7 31 10 32 15 33 13 35 8 37 9 38 11 40
REMARK H PARENT 21 20 23 22 32 24 29 26 15 34 13 36 9 39 11 41
REMARK Flexibility Score: inf
ROOT
ATOM      1  O   UNL     1      13.756 -37.463  -0.265  1.00  0.00    -0.454 OA
ENDROOT
BRANCH   1   2
ATOM      2  C   UNL     1      13.217 -37.629  -1.557  1.00  0.00     0.214 A 
ATOM      3  C   UNL     1      14.094 -37.952  -2.612  1.00  0.00     0.180 A 
ATOM      4  O   UNL     1      13.609 -38.270  -3.806  1.00  0.00    -0.452 OA
ATOM      5  C   UNL     1      11.838 -37.521  -1.845  1.00  0.00     0.239 A 
ATOM      6  C   UNL     1      12.316 -38.253  -4.098  1.00  0.00     0.146 A 
ATOM      7  O   UNL     1      11.043 -37.159  -0.941  1.00  0.00    -0.285 OA
ATOM      8  C   UNL     1      11.361 -37.826  -3.144  1.00  0.00     0.111 A 
ATOM      9  C   UNL     1      11.914 -38.666  -5.373  1.00  0.00     0.094 A 
ATOM     10  C   UNL     1       9.988 -37.777  -3.530  1.00  0.00     0.134 A 
ATOM     11  C   UNL     1      10.565 -38.684  -5.716  1.00  0.00     0.123 A 
ATOM     12  C   UNL     1       9.609 -38.252  -4.793  1.00  0.00     0.093 A 
BRANCH   3  13
ATOM     13  C   UNL     1      15.567 -37.991  -2.429  1.00  0.00     0.025 A 
ATOM     14  C   UNL     1      16.419 -37.159  -3.175  1.00  0.00     0.016 A 
ATOM     15  C   UNL     1      17.804 -37.241  -3.012  1.00  0.00     0.051 A 
ATOM     16  C   UNL     1      18.358 -38.159  -2.113  1.00  0.00     0.157 A 
ATOM     17  C   UNL     1      16.128 -38.926  -1.541  1.00  0.00     0.062 A 
ATOM     18  C   UNL     1      17.517 -39.003  -1.369  1.00  0.00     0.158 A 
BRANCH  16  19
ATOM     19  O   UNL     1      19.744 -38.217  -1.970  1.00  0.00    -0.504 OA
ATOM     20  H   UNL     1      20.354 -38.447  -2.746  1.00  0.00     0.293 HD
ENDBRANCH  16  19
BRANCH  18  21
ATOM     21  O   UNL     1      18.064 -39.920  -0.473  1.00  0.00    -0.504 OA
ATOM     22  H   UNL     1      17.555 -40.752  -0.195  1.00  0.00     0.293 HD
ENDBRANCH  18  21
ENDBRANCH   3  13
BRANCH  10  23
ATOM     23  O   UNL     1       8.972 -37.253  -2.725  1.00  0.00    -0.507 OA
ATOM     24  H   UNL     1       8.991 -36.329  -2.320  1.00  0.00     0.293 HD
ENDBRANCH  10  23
BRANCH  11  25
ATOM     25  O   UNL     1      10.183 -39.121  -6.983  1.00  0.00    -0.508 OA
ATOM     26  H   UNL     1       9.655 -38.528  -7.614  1.00  0.00     0.293 HD
ENDBRANCH  11  25
ENDBRANCH   1   2
BRANCH   1  27
ATOM     27  C   UNL     1      14.357 -36.280   0.269  1.00  0.00     0.339 C 
ATOM     28  C   UNL     1      13.278 -35.283   0.772  1.00  0.00     0.214 C 
ATOM     29  O   UNL     1      15.197 -36.651   1.346  1.00  0.00    -0.332 OA
ATOM     30  C   UNL     1      13.864 -34.290   1.813  1.00  0.00     0.180 C 
ATOM     31  C   UNL     1      16.047 -35.579   1.757  1.00  0.00     0.179 C 
ATOM     32  C   UNL     1      15.388 -34.169   1.640  1.00  0.00     0.177 C 
BRANCH  28  33
ATOM     33  O   UNL     1      12.189 -35.987   1.318  1.00  0.00    -0.384 OA
ATOM     34  H   UNL     1      11.497 -35.314   1.551  1.00  0.00     0.211 HD
ENDBRANCH  28  33
BRANCH  30  35
ATOM     35  O   UNL     1      13.584 -34.715   3.125  1.00  0.00    -0.387 OA
ATOM     36  H   UNL     1      14.278 -34.319   3.713  1.00  0.00     0.211 HD
ENDBRANCH  30  35
BRANCH  31  37
ATOM     37  C   UNL     1      17.389 -35.658   1.018  1.00  0.00     0.191 C 
BRANCH  37  38
ATOM     38  O   UNL     1      18.286 -34.721   1.551  1.00  0.00    -0.394 OA
ATOM     39  H   UNL     1      18.762 -34.321   0.778  1.00  0.00     0.210 HD
ENDBRANCH  37  38
ENDBRANCH  31  37
BRANCH  32  40
ATOM     40  O   UNL     1      15.918 -33.308   2.614  1.00  0.00    -0.387 OA
ATOM     41  H   UNL     1      16.652 -32.798   2.181  1.00  0.00     0.211 HD
ENDBRANCH  32  40
ENDBRANCH   1  27
TORSDOF 12
ENDMDL
MODEL 7
REMARK VINA RESULT:    -6.292      1.901      4.413
REMARK INTER + INTRA:         -10.890
REMARK INTER:                  -9.232
REMARK INTRA:                  -1.658
REMARK UNBOUND:                -1.656
REMARK SMILES O=c1c(O[C@@H]2O[C@@H](CO)[C@H](O)[C@H](O)[C@@H]2O)c(-c2ccc(O)c(O)c2)oc2cc(O)cc(O)c12
REMARK SMILES IDX 4 1 3 2 16 3 25 4 2 5 26 6 1 7 33 8 27 9 31 10 28 11 30 12
REMARK SMILES IDX 17 13 18 14 19 15 20 16 24 17 22 18 21 19 23 21 32 23 29 25
REMARK SMILES IDX 5 27 14 28 6 29 12 30 7 31 10 32 15 33 13 35 8 37 9 38 11 40
REMARK H PARENT 21 20 23 22 32 24 29 26 15 34 13 36 9 39 11 41
REMARK Flexibility Score: inf
ROOT
ATOM      1  O   UNL     1      15.379 -37.453  -2.082  1.00  0.00    -0.454 OA
ENDROOT
BRANCH   1   2
ATOM      2  C   UNL     1      14.224 -37.817  -2.804  1.00  0.00     0.214 A 
ATOM      3  C   UNL     1      13.172 -36.884  -2.899  1.00  0.00     0.180 A 
ATOM      4  O   UNL     1      12.140 -37.127  -3.697  1.00  0.00    -0.452 OA
ATOM      5  C   UNL     1      14.079 -39.057  -3.466  1.00  0.00     0.239 A 
ATOM      6  C   UNL     1      12.000 -38.246  -4.393  1.00  0.00     0.146 A 
ATOM      7  O   UNL     1      14.967 -39.937  -3.335  1.00  0.00    -0.285 OA
ATOM      8  C   UNL     1      12.941 -39.297  -4.275  1.00  0.00     0.111 A 
ATOM      9  C   UNL     1      10.900 -38.367  -5.250  1.00  0.00     0.094 A 
ATOM     10  C   UNL     1      12.713 -40.500  -5.007  1.00  0.00     0.134 A 
ATOM     11  C   UNL     1      10.726 -39.516  -6.016  1.00  0.00     0.123 A 
ATOM     12  C   UNL     1      11.635 -40.571  -5.901  1.00  0.00     0.093 A 
BRANCH   3  13
ATOM     13  C   UNL     1      13.190 -35.598  -2.159  1.00  0.00     0.025 A 
ATOM     14  C   UNL     1      13.803 -34.452  -2.697  1.00  0.00     0.016 A 
ATOM     15  C   UNL     1      13.839 -33.263  -1.966  1.00  0.00     0.051 A 
ATOM     16  C   UNL     1      13.275 -33.201  -0.687  1.00  0.00     0.157 A 
ATOM     17  C   UNL     1      12.641 -35.537  -0.866  1.00  0.00     0.062 A 
ATOM     18  C   UNL     1      12.668 -34.341  -0.135  1.00  0.00     0.158 A 
BRANCH  16  19
ATOM     19  O   UNL     1      13.324 -31.999   0.019  1.00  0.00    -0.504 OA
ATOM     20  H   UNL     1      13.859 -31.205  -0.312  1.00  0.00     0.293 HD
ENDBRANCH  16  19
BRANCH  18  21
ATOM     21  O   UNL     1      12.105 -34.285   1.139  1.00  0.00    -0.504 OA
ATOM     22  H   UNL     1      12.431 -34.889   1.886  1.00  0.00     0.293 HD
ENDBRANCH  18  21
ENDBRANCH   3  13
BRANCH  10  23
ATOM     23  O   UNL     1      13.495 -41.651  -4.875  1.00  0.00    -0.507 OA
ATOM     24  H   UNL     1      13.613 -42.158  -4.010  1.00  0.00     0.293 HD
ENDBRANCH  10  23
BRANCH  11  25
ATOM     25  O   UNL     1       9.637 -39.608  -6.881  1.00  0.00    -0.508 OA
ATOM     26  H   UNL     1       8.893 -40.280  -6.729  1.00  0.00     0.293 HD
ENDBRANCH  11  25
ENDBRANCH   1   2
BRANCH   1  27
ATOM     27  C   UNL     1      15.694 -37.805  -0.732  1.00  0.00     0.339 C 
ATOM     28  C   UNL     1      16.989 -38.659  -0.665  1.00  0.00     0.214 C 
ATOM     29  O   UNL     1      15.873 -36.614   0.012  1.00  0.00    -0.332 OA
ATOM     30  C   UNL     1      17.641 -38.592   0.744  1.00  0.00     0.180 C 
ATOM     31  C   UNL     1      15.915 -36.861   1.418  1.00  0.00     0.179 C 
ATOM     32  C   UNL     1      16.591 -38.214   1.803  1.00  0.00     0.177 C 
BRANCH  28  33
ATOM     33  O   UNL     1      17.897 -38.235  -1.652  1.00  0.00    -0.384 OA
ATOM     34  H   UNL     1      17.662 -37.296  -1.876  1.00  0.00     0.211 HD
ENDBRANCH  28  33
BRANCH  30  35
ATOM     35  O   UNL     1      18.681 -37.644   0.770  1.00  0.00    -0.387 OA
ATOM     36  H   UNL     1      18.714 -37.275   1.690  1.00  0.00     0.211 HD
ENDBRANCH  30  35
BRANCH  31  37
ATOM     37  C   UNL     1      14.509 -36.721   2.018  1.00  0.00     0.191 C 
BRANCH  37  38
ATOM     38  O   UNL     1      14.395 -35.495   2.690  1.00  0.00    -0.394 OA
ATOM     39  H   UNL     1      13.850 -34.908   2.105  1.00  0.00     0.210 HD
ENDBRANCH  37  38
ENDBRANCH  31  37
BRANCH  32  40
ATOM     40  O   UNL     1      17.196 -38.107   3.066  1.00  0.00    -0.387 OA
ATOM     41  H   UNL     1      16.766 -38.784   3.651  1.00  0.00     0.211 HD
ENDBRANCH  32  40
ENDBRANCH   1  27
TORSDOF 12
ENDMDL
MODEL 8
REMARK VINA RESULT:    -6.214      2.237      7.380
REMARK INTER + INTRA:         -10.777
REMARK INTER:                  -9.004
REMARK INTRA:                  -1.772
REMARK UNBOUND:                -1.656
REMARK SMILES O=c1c(O[C@@H]2O[C@@H](CO)[C@H](O)[C@H](O)[C@@H]2O)c(-c2ccc(O)c(O)c2)oc2cc(O)cc(O)c12
REMARK SMILES IDX 4 1 3 2 16 3 25 4 2 5 26 6 1 7 33 8 27 9 31 10 28 11 30 12
REMARK SMILES IDX 17 13 18 14 19 15 20 16 24 17 22 18 21 19 23 21 32 23 29 25
REMARK SMILES IDX 5 27 14 28 6 29 12 30 7 31 10 32 15 33 13 35 8 37 9 38 11 40
REMARK H PARENT 21 20 23 22 32 24 29 26 15 34 13 36 9 39 11 41
REMARK Flexibility Score: inf
ROOT
ATOM      1  O   UNL     1      13.377 -36.915  -4.007  1.00  0.00    -0.454 OA
ENDROOT
BRANCH   1   2
ATOM      2  C   UNL     1      14.175 -36.927  -2.845  1.00  0.00     0.214 A 
ATOM      3  C   UNL     1      13.834 -36.056  -1.790  1.00  0.00     0.180 A 
ATOM      4  O   UNL     1      14.461 -36.149  -0.624  1.00  0.00    -0.452 OA
ATOM      5  C   UNL     1      15.279 -37.790  -2.667  1.00  0.00     0.239 A 
ATOM      6  C   UNL     1      15.454 -36.995  -0.392  1.00  0.00     0.146 A 
ATOM      7  O   UNL     1      15.652 -38.522  -3.619  1.00  0.00    -0.285 OA
ATOM      8  C   UNL     1      15.951 -37.830  -1.421  1.00  0.00     0.111 A 
ATOM      9  C   UNL     1      16.001 -37.048   0.895  1.00  0.00     0.094 A 
ATOM     10  C   UNL     1      17.057 -38.685  -1.130  1.00  0.00     0.134 A 
ATOM     11  C   UNL     1      17.030 -37.938   1.188  1.00  0.00     0.123 A 
ATOM     12  C   UNL     1      17.545 -38.758   0.182  1.00  0.00     0.093 A 
BRANCH   3  13
ATOM     13  C   UNL     1      12.754 -35.046  -1.919  1.00  0.00     0.025 A 
ATOM     14  C   UNL     1      13.035 -33.714  -2.272  1.00  0.00     0.016 A 
ATOM     15  C   UNL     1      12.007 -32.773  -2.350  1.00  0.00     0.051 A 
ATOM     16  C   UNL     1      10.687 -33.142  -2.068  1.00  0.00     0.157 A 
ATOM     17  C   UNL     1      11.430 -35.409  -1.617  1.00  0.00     0.062 A 
ATOM     18  C   UNL     1      10.395 -34.468  -1.705  1.00  0.00     0.158 A 
BRANCH  16  19
ATOM     19  O   UNL     1       9.680 -32.182  -2.156  1.00  0.00    -0.504 OA
ATOM     20  H   UNL     1       8.870 -32.307  -2.753  1.00  0.00     0.293 HD
ENDBRANCH  16  19
BRANCH  18  21
ATOM     21  O   UNL     1       9.081 -34.840  -1.422  1.00  0.00    -0.504 OA
ATOM     22  H   UNL     1       8.422 -34.182  -1.022  1.00  0.00     0.293 HD
ENDBRANCH  18  21
ENDBRANCH   3  13
BRANCH  10  23
ATOM     23  O   UNL     1      17.718 -39.456  -2.090  1.00  0.00    -0.507 OA
ATOM     24  H   UNL     1      18.585 -39.187  -2.532  1.00  0.00     0.293 HD
ENDBRANCH  10  23
BRANCH  11  25
ATOM     25  O   UNL     1      17.545 -37.992   2.483  1.00  0.00    -0.508 OA
ATOM     26  H   UNL     1      17.336 -38.763   3.106  1.00  0.00     0.293 HD
ENDBRANCH  11  25
ENDBRANCH   1   2
BRANCH   1  27
ATOM     27  C   UNL     1      12.161 -37.638  -4.220  1.00  0.00     0.339 C 
ATOM     28  C   UNL     1      12.167 -38.347  -5.602  1.00  0.00     0.214 C 
ATOM     29  O   UNL     1      12.027 -38.604  -3.194  1.00  0.00    -0.332 OA
ATOM     30  C   UNL     1      11.165 -39.533  -5.636  1.00  0.00     0.180 C 
ATOM     31  C   UNL     1      10.720 -39.178  -3.165  1.00  0.00     0.179 C 
ATOM     32  C   UNL     1      10.069 -39.340  -4.575  1.00  0.00     0.177 C 
BRANCH  28  33
ATOM     33  O   UNL     1      13.467 -38.787  -5.911  1.00  0.00    -0.384 OA
ATOM     34  H   UNL     1      13.874 -39.105  -5.062  1.00  0.00     0.211 HD
ENDBRANCH  28  33
BRANCH  30  35
ATOM     35  O   UNL     1      11.824 -40.754  -5.397  1.00  0.00    -0.387 OA
ATOM     36  H   UNL     1      11.281 -41.252  -4.733  1.00  0.00     0.211 HD
ENDBRANCH  30  35
BRANCH  31  37
ATOM     37  C   UNL     1       9.823 -38.396  -2.195  1.00  0.00     0.191 C 
BRANCH  37  38
ATOM     38  O   UNL     1       8.875 -37.652  -2.913  1.00  0.00    -0.394 OA
ATOM     39  H   UNL     1       8.308 -38.310  -3.390  1.00  0.00     0.210 HD
ENDBRANCH  37  38
ENDBRANCH  31  37
BRANCH  32  40
ATOM     40  O   UNL     1       9.194 -40.439  -4.577  1.00  0.00    -0.387 OA
ATOM     41  H   UNL     1       9.009 -40.663  -3.628  1.00  0.00     0.211 HD
ENDBRANCH  32  40
ENDBRANCH   1  27
TORSDOF 12
ENDMDL
MODEL 9
REMARK VINA RESULT:    -6.126      1.793      6.411
REMARK INTER + INTRA:         -10.647
REMARK INTER:                  -8.987
REMARK INTRA:                  -1.660
REMARK UNBOUND:                -1.656
REMARK SMILES O=c1c(O[C@@H]2O[C@@H](CO)[C@H](O)[C@H](O)[C@@H]2O)c(-c2ccc(O)c(O)c2)oc2cc(O)cc(O)c12
REMARK SMILES IDX 4 1 3 2 16 3 25 4 2 5 26 6 1 7 33 8 27 9 31 10 28 11 30 12
REMARK SMILES IDX 17 13 18 14 19 15 20 16 24 17 22 18 21 19 23 21 32 23 29 25
REMARK SMILES IDX 5 27 14 28 6 29 12 30 7 31 10 32 15 33 13 35 8 37 9 38 11 40
REMARK H PARENT 21 20 23 22 32 24 29 26 15 34 13 36 9 39 11 41
REMARK Flexibility Score: inf
ROOT
ATOM      1  O   UNL     1      13.452 -38.308  -1.230  1.00  0.00    -0.454 OA
ENDROOT
BRANCH   1   2
ATOM      2  C   UNL     1      13.609 -37.095  -0.530  1.00  0.00     0.214 A 
ATOM      3  C   UNL     1      14.907 -36.565  -0.391  1.00  0.00     0.180 A 
ATOM      4  O   UNL     1      15.078 -35.352   0.121  1.00  0.00    -0.452 OA
ATOM      5  C   UNL     1      12.527 -36.364   0.012  1.00  0.00     0.239 A 
ATOM      6  C   UNL     1      14.084 -34.602   0.574  1.00  0.00     0.146 A 
ATOM      7  O   UNL     1      11.369 -36.849  -0.030  1.00  0.00    -0.285 OA
ATOM      8  C   UNL     1      12.755 -35.091   0.590  1.00  0.00     0.111 A 
ATOM      9  C   UNL     1      14.375 -33.314   1.037  1.00  0.00     0.094 A 
ATOM     10  C   UNL     1      11.731 -34.261   1.137  1.00  0.00     0.134 A 
ATOM     11  C   UNL     1      13.358 -32.485   1.501  1.00  0.00     0.123 A 
ATOM     12  C   UNL     1      12.043 -32.954   1.539  1.00  0.00     0.093 A 
BRANCH   3  13
ATOM     13  C   UNL     1      16.113 -37.305  -0.838  1.00  0.00     0.025 A 
ATOM     14  C   UNL     1      16.718 -38.280  -0.026  1.00  0.00     0.016 A 
ATOM     15  C   UNL     1      17.874 -38.935  -0.453  1.00  0.00     0.051 A 
ATOM     16  C   UNL     1      18.449 -38.623  -1.690  1.00  0.00     0.157 A 
ATOM     17  C   UNL     1      16.705 -36.979  -2.072  1.00  0.00     0.062 A 
ATOM     18  C   UNL     1      17.860 -37.644  -2.507  1.00  0.00     0.158 A 
BRANCH  16  19
ATOM     19  O   UNL     1      19.602 -39.296  -2.092  1.00  0.00    -0.504 OA
ATOM     20  H   UNL     1      20.522 -38.874  -2.020  1.00  0.00     0.293 HD
ENDBRANCH  16  19
BRANCH  18  21
ATOM     21  O   UNL     1      18.429 -37.328  -3.739  1.00  0.00    -0.504 OA
ATOM     22  H   UNL     1      19.435 -37.315  -3.867  1.00  0.00     0.293 HD
ENDBRANCH  18  21
ENDBRANCH   3  13
BRANCH  10  23
ATOM     23  O   UNL     1      10.410 -34.678   1.328  1.00  0.00    -0.507 OA
ATOM     24  H   UNL     1      10.025 -34.946   2.221  1.00  0.00     0.293 HD
ENDBRANCH  10  23
BRANCH  11  25
ATOM     25  O   UNL     1      13.665 -31.196   1.935  1.00  0.00    -0.508 OA
ATOM     26  H   UNL     1      14.297 -30.597   1.416  1.00  0.00     0.293 HD
ENDBRANCH  11  25
ENDBRANCH   1   2
BRANCH   1  27
ATOM     27  C   UNL     1      12.959 -38.472  -2.563  1.00  0.00     0.339 C 
ATOM     28  C   UNL     1      14.043 -39.088  -3.488  1.00  0.00     0.214 C 
ATOM     29  O   UNL     1      11.831 -39.327  -2.521  1.00  0.00    -0.332 OA
ATOM     30  C   UNL     1      13.408 -39.767  -4.733  1.00  0.00     0.180 C 
ATOM     31  C   UNL     1      11.111 -39.324  -3.755  1.00  0.00     0.179 C 
ATOM     32  C   UNL     1      12.018 -39.174  -5.017  1.00  0.00     0.177 C 
BRANCH  28  33
ATOM     33  O   UNL     1      14.825 -40.008  -2.767  1.00  0.00    -0.384 OA
ATOM     34  H   UNL     1      15.776 -39.791  -2.957  1.00  0.00     0.211 HD
ENDBRANCH  28  33
BRANCH  30  35
ATOM     35  O   UNL     1      13.283 -41.155  -4.538  1.00  0.00    -0.387 OA
ATOM     36  H   UNL     1      14.060 -41.443  -3.992  1.00  0.00     0.211 HD
ENDBRANCH  30  35
BRANCH  31  37
ATOM     37  C   UNL     1       9.995 -38.271  -3.711  1.00  0.00     0.191 C 
BRANCH  37  38
ATOM     38  O   UNL     1       9.995 -37.522  -4.896  1.00  0.00    -0.394 OA
ATOM     39  H   UNL     1      10.531 -38.039  -5.551  1.00  0.00     0.210 HD
ENDBRANCH  37  38
ENDBRANCH  31  37
BRANCH  32  40
ATOM     40  O   UNL     1      11.429 -39.825  -6.112  1.00  0.00    -0.387 OA
ATOM     41  H   UNL     1      10.512 -40.086  -5.835  1.00  0.00     0.211 HD
ENDBRANCH  32  40
ENDBRANCH   1  27
TORSDOF 12
ENDMDL
