MODEL 1
REMARK VINA RESULT:    -5.907      0.000      0.000
REMARK INTER + INTRA:         -17.430
REMARK INTER:                 -13.504
REMARK INTRA:                  -3.926
REMARK UNBOUND:                -3.926
REMARK SMILES CCCCCCCCCCCCCCCCCCCCCCCC(=O)[O-]
REMARK SMILES IDX 13 1 14 2 15 3 16 4 17 5 18 6 19 7 20 8 21 9 22 10 23 11
REMARK SMILES IDX 24 12 25 13 26 14 12 15 11 16 10 17 9 18 8 19 7 20 6 21 5 22
REMARK SMILES IDX 4 23 3 24 2 25 1 26
REMARK H PARENT
REMARK Flexibility Score: inf
ROOT
ATOM      1  C   UNL     1     217.924  -9.157  28.656  1.00  0.00     0.000 C 
ENDROOT
BRANCH   1   2
ATOM      2  C   UNL     1     218.485  -7.807  29.138  1.00  0.00     0.000 C 
BRANCH   2   3
ATOM      3  C   UNL     1     219.543  -7.955  30.241  1.00  0.00     0.000 C 
BRANCH   3   4
ATOM      4  C   UNL     1     219.856  -9.436  30.504  1.00  0.00     0.000 C 
BRANCH   4   5
ATOM      5  C   UNL     1     221.201  -9.650  31.224  1.00  0.00     0.000 C 
BRANCH   5   6
ATOM      6  C   UNL     1     222.057  -8.383  31.407  1.00  0.00     0.000 C 
BRANCH   6   7
ATOM      7  C   UNL     1     223.260  -8.327  30.449  1.00  0.00     0.000 C 
BRANCH   7   8
ATOM      8  C   UNL     1     223.072  -7.305  29.313  1.00  0.00     0.000 C 
BRANCH   8   9
ATOM      9  C   UNL     1     222.598  -7.896  27.972  1.00  0.00     0.000 C 
BRANCH   9  10
ATOM     10  C   UNL     1     223.050  -9.351  27.764  1.00  0.00     0.006 C 
BRANCH  10  11
ATOM     11  C   UNL     1     221.863 -10.313  27.618  1.00  0.00     0.053 C 
BRANCH  11  12
ATOM     12  C   UNL     1     221.940 -11.102  26.347  1.00  0.00     0.041 C 
ATOM     13  O   UNL     1     222.544 -12.207  26.321  1.00  0.00    -0.550 OA
ATOM     14  O   UNL     1     221.370 -10.601  25.183  1.00  0.00    -0.550 OA
ENDBRANCH  11  12
ENDBRANCH  10  11
ENDBRANCH   9  10
ENDBRANCH   8   9
ENDBRANCH   7   8
ENDBRANCH   6   7
ENDBRANCH   5   6
ENDBRANCH   4   5
ENDBRANCH   3   4
ENDBRANCH   2   3
ENDBRANCH   1   2
BRANCH   1  15
ATOM     15  C   UNL     1     217.238  -9.127  27.278  1.00  0.00     0.000 C 
BRANCH  15  16
ATOM     16  C   UNL     1     218.187  -8.702  26.145  1.00  0.00     0.000 C 
BRANCH  16  17
ATOM     17  C   UNL     1     217.756  -7.393  25.457  1.00  0.00     0.000 C 
BRANCH  17  18
ATOM     18  C   UNL     1     218.901  -6.542  24.872  1.00  0.00    -0.000 C 
BRANCH  18  19
ATOM     19  C   UNL     1     220.287  -6.957  25.394  1.00  0.00    -0.000 C 
BRANCH  19  20
ATOM     20  C   UNL     1     221.254  -7.372  24.270  1.00  0.00    -0.000 C 
BRANCH  20  21
ATOM     21  C   UNL     1     220.636  -7.433  22.861  1.00  0.00    -0.000 C 
BRANCH  21  22
ATOM     22  C   UNL     1     220.770  -8.816  22.205  1.00  0.00    -0.000 C 
BRANCH  22  23
ATOM     23  C   UNL     1     219.522  -9.158  21.381  1.00  0.00    -0.000 C 
BRANCH  23  24
ATOM     24  C   UNL     1     218.241  -8.860  22.174  1.00  0.00    -0.000 C 
BRANCH  24  25
ATOM     25  C   UNL     1     217.511 -10.137  22.617  1.00  0.00    -0.003 C 
ATOM     26  C   UNL     1     218.422 -11.108  23.368  1.00  0.00     0.004 C 
ENDBRANCH  24  25
ENDBRANCH  23  24
ENDBRANCH  22  23
ENDBRANCH  21  22
ENDBRANCH  20  21
ENDBRANCH  19  20
ENDBRANCH  18  19
ENDBRANCH  17  18
ENDBRANCH  16  17
ENDBRANCH  15  16
ENDBRANCH   1  15
TORSDOF 22
ENDMDL
MODEL 2
REMARK VINA RESULT:    -5.899      1.966      5.871
REMARK INTER + INTRA:         -17.412
REMARK INTER:                 -13.302
REMARK INTRA:                  -4.110
REMARK UNBOUND:                -3.926
REMARK SMILES CCCCCCCCCCCCCCCCCCCCCCCC(=O)[O-]
REMARK SMILES IDX 13 1 14 2 15 3 16 4 17 5 18 6 19 7 20 8 21 9 22 10 23 11
REMARK SMILES IDX 24 12 25 13 26 14 12 15 11 16 10 17 9 18 8 19 7 20 6 21 5 22
REMARK SMILES IDX 4 23 3 24 2 25 1 26
REMARK H PARENT
REMARK Flexibility Score: inf
ROOT
ATOM      1  C   UNL     1     218.579  -9.643  21.895  1.00  0.00     0.000 C 
ENDROOT
BRANCH   1   2
ATOM      2  C   UNL     1     217.877  -9.412  23.245  1.00  0.00     0.000 C 
BRANCH   2   3
ATOM      3  C   UNL     1     217.546  -7.935  23.505  1.00  0.00     0.000 C 
BRANCH   3   4
ATOM      4  C   UNL     1     217.752  -7.580  24.984  1.00  0.00     0.000 C 
BRANCH   4   5
ATOM      5  C   UNL     1     218.115  -8.799  25.854  1.00  0.00     0.000 C 
BRANCH   5   6
ATOM      6  C   UNL     1     217.710  -8.692  27.336  1.00  0.00     0.000 C 
BRANCH   6   7
ATOM      7  C   UNL     1     218.233  -7.411  28.010  1.00  0.00     0.000 C 
BRANCH   7   8
ATOM      8  C   UNL     1     219.529  -7.642  28.808  1.00  0.00     0.000 C 
BRANCH   8   9
ATOM      9  C   UNL     1     219.332  -8.177  30.238  1.00  0.00     0.000 C 
BRANCH   9  10
ATOM     10  C   UNL     1     220.051  -9.513  30.484  1.00  0.00     0.006 C 
BRANCH  10  11
ATOM     11  C   UNL     1     221.342  -9.338  31.296  1.00  0.00     0.053 C 
BRANCH  11  12
ATOM     12  C   UNL     1     221.791 -10.629  31.910  1.00  0.00     0.041 C 
ATOM     13  O   UNL     1     221.829 -11.681  31.219  1.00  0.00    -0.550 OA
ATOM     14  O   UNL     1     222.139 -10.675  33.254  1.00  0.00    -0.550 OA
ENDBRANCH  11  12
ENDBRANCH  10  11
ENDBRANCH   9  10
ENDBRANCH   8   9
ENDBRANCH   7   8
ENDBRANCH   6   7
ENDBRANCH   5   6
ENDBRANCH   4   5
ENDBRANCH   3   4
ENDBRANCH   2   3
ENDBRANCH   1   2
BRANCH   1  15
ATOM     15  C   UNL     1     219.328  -8.422  21.329  1.00  0.00     0.000 C 
BRANCH  15  16
ATOM     16  C   UNL     1     220.770  -8.747  20.903  1.00  0.00     0.000 C 
BRANCH  16  17
ATOM     17  C   UNL     1     221.810  -8.410  21.988  1.00  0.00     0.000 C 
BRANCH  17  18
ATOM     18  C   UNL     1     221.252  -7.729  23.254  1.00  0.00    -0.000 C 
BRANCH  18  19
ATOM     19  C   UNL     1     221.612  -8.478  24.549  1.00  0.00    -0.000 C 
BRANCH  19  20
ATOM     20  C   UNL     1     221.331  -9.990  24.467  1.00  0.00    -0.000 C 
BRANCH  20  21
ATOM     21  C   UNL     1     221.532 -10.769  25.780  1.00  0.00    -0.000 C 
BRANCH  21  22
ATOM     22  C   UNL     1     221.712  -9.853  27.001  1.00  0.00    -0.000 C 
BRANCH  22  23
ATOM     23  C   UNL     1     222.682 -10.472  28.014  1.00  0.00    -0.000 C 
BRANCH  23  24
ATOM     24  C   UNL     1     223.691  -9.429  28.518  1.00  0.00    -0.000 C 
BRANCH  24  25
ATOM     25  C   UNL     1     223.421  -8.026  27.954  1.00  0.00    -0.003 C 
ATOM     26  C   UNL     1     223.153  -6.992  29.048  1.00  0.00     0.004 C 
ENDBRANCH  24  25
ENDBRANCH  23  24
ENDBRANCH  22  23
ENDBRANCH  21  22
ENDBRANCH  20  21
ENDBRANCH  19  20
ENDBRANCH  18  19
ENDBRANCH  17  18
ENDBRANCH  16  17
ENDBRANCH  15  16
ENDBRANCH   1  15
TORSDOF 22
ENDMDL
MODEL 3
REMARK VINA RESULT:    -5.890      2.162      4.804
REMARK INTER + INTRA:         -17.391
REMARK INTER:                 -13.478
REMARK INTRA:                  -3.913
REMARK UNBOUND:                -3.926
REMARK SMILES CCCCCCCCCCCCCCCCCCCCCCCC(=O)[O-]
REMARK SMILES IDX 13 1 14 2 15 3 16 4 17 5 18 6 19 7 20 8 21 9 22 10 23 11
REMARK SMILES IDX 24 12 25 13 26 14 12 15 11 16 10 17 9 18 8 19 7 20 6 21 5 22
REMARK SMILES IDX 4 23 3 24 2 25 1 26
REMARK H PARENT
REMARK Flexibility Score: inf
ROOT
ATOM      1  C   UNL     1     221.817  -9.107  24.401  1.00  0.00     0.000 C 
ENDROOT
BRANCH   1   2
ATOM      2  C   UNL     1     221.235 -10.435  24.914  1.00  0.00     0.000 C 
BRANCH   2   3
ATOM      3  C   UNL     1     221.989 -10.992  26.130  1.00  0.00     0.000 C 
BRANCH   3   4
ATOM      4  C   UNL     1     221.771 -10.104  27.364  1.00  0.00     0.000 C 
BRANCH   4   5
ATOM      5  C   UNL     1     223.081  -9.536  27.940  1.00  0.00     0.000 C 
BRANCH   5   6
ATOM      6  C   UNL     1     223.097  -8.012  28.158  1.00  0.00     0.000 C 
BRANCH   6   7
ATOM      7  C   UNL     1     221.868  -7.503  28.933  1.00  0.00     0.000 C 
BRANCH   7   8
ATOM      8  C   UNL     1     221.782  -8.076  30.359  1.00  0.00     0.000 C 
BRANCH   8   9
ATOM      9  C   UNL     1     220.366  -8.453  30.830  1.00  0.00     0.000 C 
BRANCH   9  10
ATOM     10  C   UNL     1     220.184  -9.967  31.033  1.00  0.00     0.006 C 
BRANCH  10  11
ATOM     11  C   UNL     1     221.506 -10.734  30.894  1.00  0.00     0.053 C 
BRANCH  11  12
ATOM     12  C   UNL     1     221.964 -11.296  32.206  1.00  0.00     0.041 C 
ATOM     13  O   UNL     1     222.322 -12.500  32.290  1.00  0.00    -0.550 OA
ATOM     14  O   UNL     1     221.964 -10.496  33.342  1.00  0.00    -0.550 OA
ENDBRANCH  11  12
ENDBRANCH  10  11
ENDBRANCH   9  10
ENDBRANCH   8   9
ENDBRANCH   7   8
ENDBRANCH   6   7
ENDBRANCH   5   6
ENDBRANCH   4   5
ENDBRANCH   3   4
ENDBRANCH   2   3
ENDBRANCH   1   2
BRANCH   1  15
ATOM     15  C   UNL     1     222.105  -9.058  22.889  1.00  0.00     0.000 C 
BRANCH  15  16
ATOM     16  C   UNL     1     221.135  -8.144  22.123  1.00  0.00     0.000 C 
BRANCH  16  17
ATOM     17  C   UNL     1     220.117  -8.924  21.270  1.00  0.00     0.000 C 
BRANCH  17  18
ATOM     18  C   UNL     1     218.638  -8.552  21.495  1.00  0.00    -0.000 C 
BRANCH  18  19
ATOM     19  C   UNL     1     217.976  -9.369  22.618  1.00  0.00    -0.000 C 
BRANCH  19  20
ATOM     20  C   UNL     1     218.167  -8.740  24.011  1.00  0.00    -0.000 C 
BRANCH  20  21
ATOM     21  C   UNL     1     217.864  -7.233  24.099  1.00  0.00    -0.000 C 
BRANCH  21  22
ATOM     22  C   UNL     1     218.924  -6.453  24.892  1.00  0.00    -0.000 C 
BRANCH  22  23
ATOM     23  C   UNL     1     219.448  -7.280  26.072  1.00  0.00    -0.000 C 
BRANCH  23  24
ATOM     24  C   UNL     1     218.496  -7.189  27.273  1.00  0.00    -0.000 C 
BRANCH  24  25
ATOM     25  C   UNL     1     218.252  -8.553  27.938  1.00  0.00    -0.003 C 
ATOM     26  C   UNL     1     216.957  -9.215  27.468  1.00  0.00     0.004 C 
ENDBRANCH  24  25
ENDBRANCH  23  24
ENDBRANCH  22  23
ENDBRANCH  21  22
ENDBRANCH  20  21
ENDBRANCH  19  20
ENDBRANCH  18  19
ENDBRANCH  17  18
ENDBRANCH  16  17
ENDBRANCH  15  16
ENDBRANCH   1  15
TORSDOF 22
ENDMDL
MODEL 4
REMARK VINA RESULT:    -5.869      2.021      4.194
REMARK INTER + INTRA:         -17.343
REMARK INTER:                 -13.141
REMARK INTRA:                  -4.203
REMARK UNBOUND:                -3.926
REMARK SMILES CCCCCCCCCCCCCCCCCCCCCCCC(=O)[O-]
REMARK SMILES IDX 13 1 14 2 15 3 16 4 17 5 18 6 19 7 20 8 21 9 22 10 23 11
REMARK SMILES IDX 24 12 25 13 26 14 12 15 11 16 10 17 9 18 8 19 7 20 6 21 5 22
REMARK SMILES IDX 4 23 3 24 2 25 1 26
REMARK H PARENT
REMARK Flexibility Score: inf
ROOT
ATOM      1  C   UNL     1     220.771  -7.509  27.186  1.00  0.00     0.000 C 
ENDROOT
BRANCH   1   2
ATOM      2  C   UNL     1     220.115  -6.832  25.970  1.00  0.00     0.000 C 
BRANCH   2   3
ATOM      3  C   UNL     1     218.654  -7.255  25.763  1.00  0.00     0.000 C 
BRANCH   3   4
ATOM      4  C   UNL     1     218.444  -8.720  26.174  1.00  0.00     0.000 C 
BRANCH   4   5
ATOM      5  C   UNL     1     217.256  -8.914  27.134  1.00  0.00     0.000 C 
BRANCH   5   6
ATOM      6  C   UNL     1     217.554  -8.620  28.616  1.00  0.00     0.000 C 
BRANCH   6   7
ATOM      7  C   UNL     1     218.629  -9.549  29.208  1.00  0.00     0.000 C 
BRANCH   7   8
ATOM      8  C   UNL     1     219.103  -9.102  30.603  1.00  0.00     0.000 C 
BRANCH   8   9
ATOM      9  C   UNL     1     220.204  -8.025  30.607  1.00  0.00     0.000 C 
BRANCH   9  10
ATOM     10  C   UNL     1     221.519  -8.515  31.235  1.00  0.00     0.006 C 
BRANCH  10  11
ATOM     11  C   UNL     1     221.926  -9.903  30.723  1.00  0.00     0.053 C 
BRANCH  11  12
ATOM     12  C   UNL     1     222.099 -10.881  31.844  1.00  0.00     0.041 C 
ATOM     13  O   UNL     1     222.074 -12.119  31.616  1.00  0.00    -0.550 OA
ATOM     14  O   UNL     1     222.256 -10.424  33.147  1.00  0.00    -0.550 OA
ENDBRANCH  11  12
ENDBRANCH  10  11
ENDBRANCH   9  10
ENDBRANCH   8   9
ENDBRANCH   7   8
ENDBRANCH   6   7
ENDBRANCH   5   6
ENDBRANCH   4   5
ENDBRANCH   3   4
ENDBRANCH   2   3
ENDBRANCH   1   2
BRANCH   1  15
ATOM     15  C   UNL     1     222.289  -7.741  27.067  1.00  0.00     0.000 C 
BRANCH  15  16
ATOM     16  C   UNL     1     222.688  -9.213  27.268  1.00  0.00     0.000 C 
BRANCH  16  17
ATOM     17  C   UNL     1     221.579 -10.200  26.857  1.00  0.00     0.000 C 
BRANCH  17  18
ATOM     18  C   UNL     1     221.734 -10.827  25.458  1.00  0.00    -0.000 C 
BRANCH  18  19
ATOM     19  C   UNL     1     221.141  -9.954  24.338  1.00  0.00    -0.000 C 
BRANCH  19  20
ATOM     20  C   UNL     1     222.212  -9.161  23.565  1.00  0.00    -0.000 C 
BRANCH  20  21
ATOM     21  C   UNL     1     221.717  -8.465  22.284  1.00  0.00    -0.000 C 
BRANCH  21  22
ATOM     22  C   UNL     1     220.322  -7.839  22.439  1.00  0.00    -0.000 C 
BRANCH  22  23
ATOM     23  C   UNL     1     219.330  -8.452  21.444  1.00  0.00    -0.000 C 
BRANCH  23  24
ATOM     24  C   UNL     1     218.138  -9.088  22.175  1.00  0.00    -0.000 C 
BRANCH  24  25
ATOM     25  C   UNL     1     218.161 -10.623  22.117  1.00  0.00    -0.003 C 
ATOM     26  C   UNL     1     217.805 -11.270  23.455  1.00  0.00     0.004 C 
ENDBRANCH  24  25
ENDBRANCH  23  24
ENDBRANCH  22  23
ENDBRANCH  21  22
ENDBRANCH  20  21
ENDBRANCH  19  20
ENDBRANCH  18  19
ENDBRANCH  17  18
ENDBRANCH  16  17
ENDBRANCH  15  16
ENDBRANCH   1  15
TORSDOF 22
ENDMDL
MODEL 5
REMARK VINA RESULT:    -5.849      2.346      6.217
REMARK INTER + INTRA:         -17.297
REMARK INTER:                 -13.249
REMARK INTRA:                  -4.048
REMARK UNBOUND:                -3.926
REMARK SMILES CCCCCCCCCCCCCCCCCCCCCCCC(=O)[O-]
REMARK SMILES IDX 13 1 14 2 15 3 16 4 17 5 18 6 19 7 20 8 21 9 22 10 23 11
REMARK SMILES IDX 24 12 25 13 26 14 12 15 11 16 10 17 9 18 8 19 7 20 6 21 5 22
REMARK SMILES IDX 4 23 3 24 2 25 1 26
REMARK H PARENT
REMARK Flexibility Score: inf
ROOT
ATOM      1  C   UNL     1     219.211  -8.746  21.013  1.00  0.00     0.000 C 
ENDROOT
BRANCH   1   2
ATOM      2  C   UNL     1     220.748  -8.712  20.932  1.00  0.00     0.000 C 
BRANCH   2   3
ATOM      3  C   UNL     1     221.396  -7.984  22.118  1.00  0.00     0.000 C 
BRANCH   3   4
ATOM      4  C   UNL     1     221.997  -8.987  23.113  1.00  0.00     0.000 C 
BRANCH   4   5
ATOM      5  C   UNL     1     221.594  -8.706  24.573  1.00  0.00     0.000 C 
BRANCH   5   6
ATOM      6  C   UNL     1     221.090  -9.928  25.362  1.00  0.00     0.000 C 
BRANCH   6   7
ATOM      7  C   UNL     1     221.385  -9.833  26.870  1.00  0.00     0.000 C 
BRANCH   7   8
ATOM      8  C   UNL     1     222.334  -8.672  27.221  1.00  0.00     0.000 C 
BRANCH   8   9
ATOM      9  C   UNL     1     221.688  -7.512  28.000  1.00  0.00     0.000 C 
BRANCH   9  10
ATOM     10  C   UNL     1     222.133  -7.455  29.471  1.00  0.00     0.006 C 
BRANCH  10  11
ATOM     11  C   UNL     1     223.611  -7.829  29.646  1.00  0.00     0.053 C 
BRANCH  11  12
ATOM     12  C   UNL     1     224.487  -6.615  29.709  1.00  0.00     0.041 C 
ATOM     13  O   UNL     1     224.870  -6.053  28.649  1.00  0.00    -0.550 OA
ATOM     14  O   UNL     1     224.906  -6.123  30.939  1.00  0.00    -0.550 OA
ENDBRANCH  11  12
ENDBRANCH  10  11
ENDBRANCH   9  10
ENDBRANCH   8   9
ENDBRANCH   7   8
ENDBRANCH   6   7
ENDBRANCH   5   6
ENDBRANCH   4   5
ENDBRANCH   3   4
ENDBRANCH   2   3
ENDBRANCH   1   2
BRANCH   1  15
ATOM     15  C   UNL     1     218.627  -9.856  21.907  1.00  0.00     0.000 C 
BRANCH  15  16
ATOM     16  C   UNL     1     217.696  -9.313  23.005  1.00  0.00     0.000 C 
BRANCH  16  17
ATOM     17  C   UNL     1     217.756  -7.780  23.142  1.00  0.00     0.000 C 
BRANCH  17  18
ATOM     18  C   UNL     1     218.257  -7.254  24.502  1.00  0.00    -0.000 C 
BRANCH  18  19
ATOM     19  C   UNL     1     217.597  -7.958  25.700  1.00  0.00    -0.000 C 
BRANCH  19  20
ATOM     20  C   UNL     1     218.327  -7.692  27.030  1.00  0.00    -0.000 C 
BRANCH  20  21
ATOM     21  C   UNL     1     217.996  -8.672  28.170  1.00  0.00    -0.000 C 
BRANCH  21  22
ATOM     22  C   UNL     1     218.025  -8.012  29.558  1.00  0.00    -0.000 C 
BRANCH  22  23
ATOM     23  C   UNL     1     218.646  -8.950  30.600  1.00  0.00    -0.000 C 
BRANCH  23  24
ATOM     24  C   UNL     1     219.580  -9.971  29.933  1.00  0.00    -0.000 C 
BRANCH  24  25
ATOM     25  C   UNL     1     220.558 -10.614  30.929  1.00  0.00    -0.003 C 
ATOM     26  C   UNL     1     221.791 -11.206  30.247  1.00  0.00     0.004 C 
ENDBRANCH  24  25
ENDBRANCH  23  24
ENDBRANCH  22  23
ENDBRANCH  21  22
ENDBRANCH  20  21
ENDBRANCH  19  20
ENDBRANCH  18  19
ENDBRANCH  17  18
ENDBRANCH  16  17
ENDBRANCH  15  16
ENDBRANCH   1  15
TORSDOF 22
ENDMDL
MODEL 6
REMARK VINA RESULT:    -5.809      2.548      3.465
REMARK INTER + INTRA:         -17.207
REMARK INTER:                 -13.024
REMARK INTRA:                  -4.183
REMARK UNBOUND:                -3.926
REMARK SMILES CCCCCCCCCCCCCCCCCCCCCCCC(=O)[O-]
REMARK SMILES IDX 13 1 14 2 15 3 16 4 17 5 18 6 19 7 20 8 21 9 22 10 23 11
REMARK SMILES IDX 24 12 25 13 26 14 12 15 11 16 10 17 9 18 8 19 7 20 6 21 5 22
REMARK SMILES IDX 4 23 3 24 2 25 1 26
REMARK H PARENT
REMARK Flexibility Score: inf
ROOT
ATOM      1  C   UNL     1     219.128  -8.030  29.880  1.00  0.00     0.000 C 
ENDROOT
BRANCH   1   2
ATOM      2  C   UNL     1     218.603  -9.397  30.355  1.00  0.00     0.000 C 
BRANCH   2   3
ATOM      3  C   UNL     1     219.683 -10.255  31.027  1.00  0.00     0.000 C 
BRANCH   3   4
ATOM      4  C   UNL     1     221.085  -9.842  30.553  1.00  0.00     0.000 C 
BRANCH   4   5
ATOM      5  C   UNL     1     221.831 -10.971  29.816  1.00  0.00     0.000 C 
BRANCH   5   6
ATOM      6  C   UNL     1     222.529 -10.552  28.509  1.00  0.00     0.000 C 
BRANCH   6   7
ATOM      7  C   UNL     1     221.654  -9.647  27.624  1.00  0.00     0.000 C 
BRANCH   7   8
ATOM      8  C   UNL     1     222.353  -8.330  27.241  1.00  0.00     0.000 C 
BRANCH   8   9
ATOM      9  C   UNL     1     222.418  -7.273  28.359  1.00  0.00     0.000 C 
BRANCH   9  10
ATOM     10  C   UNL     1     223.819  -7.142  28.979  1.00  0.00     0.006 C 
BRANCH  10  11
ATOM     11  C   UNL     1     223.811  -7.401  30.492  1.00  0.00     0.053 C 
BRANCH  11  12
ATOM     12  C   UNL     1     224.909  -6.658  31.189  1.00  0.00     0.041 C 
ATOM     13  O   UNL     1     225.622  -7.239  32.049  1.00  0.00    -0.550 OA
ATOM     14  O   UNL     1     225.124  -5.314  30.911  1.00  0.00    -0.550 OA
ENDBRANCH  11  12
ENDBRANCH  10  11
ENDBRANCH   9  10
ENDBRANCH   8   9
ENDBRANCH   7   8
ENDBRANCH   6   7
ENDBRANCH   5   6
ENDBRANCH   4   5
ENDBRANCH   3   4
ENDBRANCH   2   3
ENDBRANCH   1   2
BRANCH   1  15
ATOM     15  C   UNL     1     218.656  -7.596  28.481  1.00  0.00     0.000 C 
BRANCH  15  16
ATOM     16  C   UNL     1     218.047  -8.752  27.668  1.00  0.00     0.000 C 
BRANCH  16  17
ATOM     17  C   UNL     1     218.350  -8.655  26.161  1.00  0.00     0.000 C 
BRANCH  17  18
ATOM     18  C   UNL     1     217.523  -7.614  25.383  1.00  0.00    -0.000 C 
BRANCH  18  19
ATOM     19  C   UNL     1     218.337  -6.887  24.298  1.00  0.00    -0.000 C 
BRANCH  19  20
ATOM     20  C   UNL     1     219.799  -6.634  24.711  1.00  0.00    -0.000 C 
BRANCH  20  21
ATOM     21  C   UNL     1     220.854  -6.988  23.647  1.00  0.00    -0.000 C 
BRANCH  21  22
ATOM     22  C   UNL     1     221.533  -8.343  23.900  1.00  0.00    -0.000 C 
BRANCH  22  23
ATOM     23  C   UNL     1     220.736  -9.486  23.258  1.00  0.00    -0.000 C 
BRANCH  23  24
ATOM     24  C   UNL     1     220.173  -9.065  21.893  1.00  0.00    -0.000 C 
BRANCH  24  25
ATOM     25  C   UNL     1     218.702  -9.468  21.711  1.00  0.00    -0.003 C 
ATOM     26  C   UNL     1     218.194 -10.371  22.834  1.00  0.00     0.004 C 
ENDBRANCH  24  25
ENDBRANCH  23  24
ENDBRANCH  22  23
ENDBRANCH  21  22
ENDBRANCH  20  21
ENDBRANCH  19  20
ENDBRANCH  18  19
ENDBRANCH  17  18
ENDBRANCH  16  17
ENDBRANCH  15  16
ENDBRANCH   1  15
TORSDOF 22
ENDMDL
MODEL 7
REMARK VINA RESULT:    -5.791      1.958      2.908
REMARK INTER + INTRA:         -17.165
REMARK INTER:                 -13.537
REMARK INTRA:                  -3.628
REMARK UNBOUND:                -3.926
REMARK SMILES CCCCCCCCCCCCCCCCCCCCCCCC(=O)[O-]
REMARK SMILES IDX 13 1 14 2 15 3 16 4 17 5 18 6 19 7 20 8 21 9 22 10 23 11
REMARK SMILES IDX 24 12 25 13 26 14 12 15 11 16 10 17 9 18 8 19 7 20 6 21 5 22
REMARK SMILES IDX 4 23 3 24 2 25 1 26
REMARK H PARENT
REMARK Flexibility Score: inf
ROOT
ATOM      1  C   UNL     1     217.950  -7.778  26.952  1.00  0.00     0.000 C 
ENDROOT
BRANCH   1   2
ATOM      2  C   UNL     1     217.515  -8.973  27.819  1.00  0.00     0.000 C 
BRANCH   2   3
ATOM      3  C   UNL     1     218.257  -9.043  29.161  1.00  0.00     0.000 C 
BRANCH   3   4
ATOM      4  C   UNL     1     218.980  -7.720  29.457  1.00  0.00     0.000 C 
BRANCH   4   5
ATOM      5  C   UNL     1     220.495  -7.895  29.672  1.00  0.00     0.000 C 
BRANCH   5   6
ATOM      6  C   UNL     1     221.383  -7.411  28.512  1.00  0.00     0.000 C 
BRANCH   6   7
ATOM      7  C   UNL     1     222.289  -8.519  27.946  1.00  0.00     0.000 C 
BRANCH   7   8
ATOM      8  C   UNL     1     221.618  -9.905  27.959  1.00  0.00     0.000 C 
BRANCH   8   9
ATOM      9  C   UNL     1     222.381 -10.995  28.733  1.00  0.00     0.000 C 
BRANCH   9  10
ATOM     10  C   UNL     1     221.755 -11.308  30.103  1.00  0.00     0.006 C 
BRANCH  10  11
ATOM     11  C   UNL     1     222.752 -11.114  31.254  1.00  0.00     0.053 C 
BRANCH  11  12
ATOM     12  C   UNL     1     223.811 -10.112  30.911  1.00  0.00     0.041 C 
ATOM     13  O   UNL     1     223.645  -8.894  31.185  1.00  0.00    -0.550 OA
ATOM     14  O   UNL     1     224.968 -10.520  30.259  1.00  0.00    -0.550 OA
ENDBRANCH  11  12
ENDBRANCH  10  11
ENDBRANCH   9  10
ENDBRANCH   8   9
ENDBRANCH   7   8
ENDBRANCH   6   7
ENDBRANCH   5   6
ENDBRANCH   4   5
ENDBRANCH   3   4
ENDBRANCH   2   3
ENDBRANCH   1   2
BRANCH   1  15
ATOM     15  C   UNL     1     217.537  -7.859  25.471  1.00  0.00     0.000 C 
BRANCH  15  16
ATOM     16  C   UNL     1     218.290  -6.853  24.583  1.00  0.00     0.000 C 
BRANCH  16  17
ATOM     17  C   UNL     1     219.676  -6.477  25.140  1.00  0.00     0.000 C 
BRANCH  17  18
ATOM     18  C   UNL     1     220.878  -6.905  24.275  1.00  0.00    -0.000 C 
BRANCH  18  19
ATOM     19  C   UNL     1     221.353  -8.338  24.571  1.00  0.00    -0.000 C 
BRANCH  19  20
ATOM     20  C   UNL     1     221.654  -9.147  23.295  1.00  0.00    -0.000 C 
BRANCH  20  21
ATOM     21  C   UNL     1     221.830  -8.313  22.013  1.00  0.00    -0.000 C 
BRANCH  21  22
ATOM     22  C   UNL     1     220.593  -8.338  21.104  1.00  0.00    -0.000 C 
BRANCH  22  23
ATOM     23  C   UNL     1     219.703  -9.548  21.419  1.00  0.00    -0.000 C 
BRANCH  23  24
ATOM     24  C   UNL     1     218.263  -9.108  21.720  1.00  0.00    -0.000 C 
BRANCH  24  25
ATOM     25  C   UNL     1     217.537 -10.073  22.670  1.00  0.00    -0.003 C 
ATOM     26  C   UNL     1     218.496 -11.000  23.416  1.00  0.00     0.004 C 
ENDBRANCH  24  25
ENDBRANCH  23  24
ENDBRANCH  22  23
ENDBRANCH  21  22
ENDBRANCH  20  21
ENDBRANCH  19  20
ENDBRANCH  18  19
ENDBRANCH  17  18
ENDBRANCH  16  17
ENDBRANCH  15  16
ENDBRANCH   1  15
TORSDOF 22
ENDMDL
MODEL 8
REMARK VINA RESULT:    -5.764      2.272      3.236
REMARK INTER + INTRA:         -17.103
REMARK INTER:                 -13.220
REMARK INTRA:                  -3.883
REMARK UNBOUND:                -3.926
REMARK SMILES CCCCCCCCCCCCCCCCCCCCCCCC(=O)[O-]
REMARK SMILES IDX 13 1 14 2 15 3 16 4 17 5 18 6 19 7 20 8 21 9 22 10 23 11
REMARK SMILES IDX 24 12 25 13 26 14 12 15 11 16 10 17 9 18 8 19 7 20 6 21 5 22
REMARK SMILES IDX 4 23 3 24 2 25 1 26
REMARK H PARENT
REMARK Flexibility Score: inf
ROOT
ATOM      1  C   UNL     1     217.931  -8.118  29.432  1.00  0.00     0.000 C 
ENDROOT
BRANCH   1   2
ATOM      2  C   UNL     1     219.154  -7.213  29.660  1.00  0.00     0.000 C 
BRANCH   2   3
ATOM      3  C   UNL     1     220.164  -7.807  30.653  1.00  0.00     0.000 C 
BRANCH   3   4
ATOM      4  C   UNL     1     221.571  -7.853  30.041  1.00  0.00     0.000 C 
BRANCH   4   5
ATOM      5  C   UNL     1     221.619  -7.328  28.593  1.00  0.00     0.000 C 
BRANCH   5   6
ATOM      6  C   UNL     1     222.309  -8.259  27.580  1.00  0.00     0.000 C 
BRANCH   6   7
ATOM      7  C   UNL     1     221.582  -9.604  27.406  1.00  0.00     0.000 C 
BRANCH   7   8
ATOM      8  C   UNL     1     222.470 -10.813  27.751  1.00  0.00     0.000 C 
BRANCH   8   9
ATOM      9  C   UNL     1     223.007 -10.841  29.194  1.00  0.00     0.000 C 
BRANCH   9  10
ATOM     10  C   UNL     1     222.056 -11.547  30.175  1.00  0.00     0.006 C 
BRANCH  10  11
ATOM     11  C   UNL     1     222.625 -11.599  31.599  1.00  0.00     0.053 C 
BRANCH  11  12
ATOM     12  C   UNL     1     221.944 -10.619  32.506  1.00  0.00     0.041 C 
ATOM     13  O   UNL     1     220.703 -10.699  32.710  1.00  0.00    -0.550 OA
ATOM     14  O   UNL     1     222.675  -9.599  33.101  1.00  0.00    -0.550 OA
ENDBRANCH  11  12
ENDBRANCH  10  11
ENDBRANCH   9  10
ENDBRANCH   8   9
ENDBRANCH   7   8
ENDBRANCH   6   7
ENDBRANCH   5   6
ENDBRANCH   4   5
ENDBRANCH   3   4
ENDBRANCH   2   3
ENDBRANCH   1   2
BRANCH   1  15
ATOM     15  C   UNL     1     218.122  -9.226  28.380  1.00  0.00     0.000 C 
BRANCH  15  16
ATOM     16  C   UNL     1     217.141  -9.109  27.201  1.00  0.00     0.000 C 
BRANCH  16  17
ATOM     17  C   UNL     1     217.505  -7.977  26.223  1.00  0.00     0.000 C 
BRANCH  17  18
ATOM     18  C   UNL     1     218.996  -7.877  25.847  1.00  0.00    -0.000 C 
BRANCH  18  19
ATOM     19  C   UNL     1     219.383  -6.502  25.275  1.00  0.00    -0.000 C 
BRANCH  19  20
ATOM     20  C   UNL     1     220.483  -6.586  24.200  1.00  0.00    -0.000 C 
BRANCH  20  21
ATOM     21  C   UNL     1     221.253  -7.918  24.150  1.00  0.00    -0.000 C 
BRANCH  21  22
ATOM     22  C   UNL     1     221.011  -8.704  22.852  1.00  0.00    -0.000 C 
BRANCH  22  23
ATOM     23  C   UNL     1     219.930  -8.033  21.996  1.00  0.00    -0.000 C 
BRANCH  23  24
ATOM     24  C   UNL     1     218.578  -8.743  22.161  1.00  0.00    -0.000 C 
BRANCH  24  25
ATOM     25  C   UNL     1     218.731 -10.231  22.509  1.00  0.00    -0.003 C 
ATOM     26  C   UNL     1     217.852 -10.656  23.685  1.00  0.00     0.004 C 
ENDBRANCH  24  25
ENDBRANCH  23  24
ENDBRANCH  22  23
ENDBRANCH  21  22
ENDBRANCH  20  21
ENDBRANCH  19  20
ENDBRANCH  18  19
ENDBRANCH  17  18
ENDBRANCH  16  17
ENDBRANCH  15  16
ENDBRANCH   1  15
TORSDOF 22
ENDMDL
MODEL 9
REMARK VINA RESULT:    -5.734      2.217      3.119
REMARK INTER + INTRA:         -17.034
REMARK INTER:                 -12.778
REMARK INTRA:                  -4.256
REMARK UNBOUND:                -3.926
REMARK SMILES CCCCCCCCCCCCCCCCCCCCCCCC(=O)[O-]
REMARK SMILES IDX 13 1 14 2 15 3 16 4 17 5 18 6 19 7 20 8 21 9 22 10 23 11
REMARK SMILES IDX 24 12 25 13 26 14 12 15 11 16 10 17 9 18 8 19 7 20 6 21 5 22
REMARK SMILES IDX 4 23 3 24 2 25 1 26
REMARK H PARENT
REMARK Flexibility Score: inf
ROOT
ATOM      1  C   UNL     1     217.740  -9.094  27.917  1.00  0.00     0.000 C 
ENDROOT
BRANCH   1   2
ATOM      2  C   UNL     1     218.428  -8.317  29.053  1.00  0.00     0.000 C 
BRANCH   2   3
ATOM      3  C   UNL     1     218.244  -8.974  30.428  1.00  0.00     0.000 C 
BRANCH   3   4
ATOM      4  C   UNL     1     219.206 -10.158  30.603  1.00  0.00     0.000 C 
BRANCH   4   5
ATOM      5  C   UNL     1     220.689  -9.744  30.548  1.00  0.00     0.000 C 
BRANCH   5   6
ATOM      6  C   UNL     1     221.578 -10.608  29.634  1.00  0.00     0.000 C 
BRANCH   6   7
ATOM      7  C   UNL     1     221.749 -10.013  28.225  1.00  0.00     0.000 C 
BRANCH   7   8
ATOM      8  C   UNL     1     221.921  -8.483  28.240  1.00  0.00     0.000 C 
BRANCH   8   9
ATOM      9  C   UNL     1     223.317  -7.976  27.835  1.00  0.00     0.000 C 
BRANCH   9  10
ATOM     10  C   UNL     1     223.925  -7.007  28.863  1.00  0.00     0.006 C 
BRANCH  10  11
ATOM     11  C   UNL     1     223.483  -7.329  30.297  1.00  0.00     0.053 C 
BRANCH  11  12
ATOM     12  C   UNL     1     224.531  -8.096  31.043  1.00  0.00     0.041 C 
ATOM     13  O   UNL     1     224.384  -9.329  31.256  1.00  0.00    -0.550 OA
ATOM     14  O   UNL     1     225.655  -7.443  31.531  1.00  0.00    -0.550 OA
ENDBRANCH  11  12
ENDBRANCH  10  11
ENDBRANCH   9  10
ENDBRANCH   8   9
ENDBRANCH   7   8
ENDBRANCH   6   7
ENDBRANCH   5   6
ENDBRANCH   4   5
ENDBRANCH   3   4
ENDBRANCH   2   3
ENDBRANCH   1   2
BRANCH   1  15
ATOM     15  C   UNL     1     217.487  -8.286  26.631  1.00  0.00     0.000 C 
BRANCH  15  16
ATOM     16  C   UNL     1     218.565  -7.219  26.371  1.00  0.00     0.000 C 
BRANCH  16  17
ATOM     17  C   UNL     1     218.581  -6.720  24.915  1.00  0.00     0.000 C 
BRANCH  17  18
ATOM     18  C   UNL     1     219.971  -6.648  24.253  1.00  0.00    -0.000 C 
BRANCH  18  19
ATOM     19  C   UNL     1     221.012  -7.550  24.939  1.00  0.00    -0.000 C 
BRANCH  19  20
ATOM     20  C   UNL     1     221.168  -8.919  24.251  1.00  0.00    -0.000 C 
BRANCH  20  21
ATOM     21  C   UNL     1     220.272 -10.040  24.808  1.00  0.00    -0.000 C 
BRANCH  21  22
ATOM     22  C   UNL     1     219.512 -10.803  23.712  1.00  0.00    -0.000 C 
BRANCH  22  23
ATOM     23  C   UNL     1     218.065 -10.307  23.599  1.00  0.00    -0.000 C 
BRANCH  23  24
ATOM     24  C   UNL     1     217.923  -9.276  22.470  1.00  0.00    -0.000 C 
BRANCH  24  25
ATOM     25  C   UNL     1     218.836  -9.582  21.272  1.00  0.00    -0.003 C 
ATOM     26  C   UNL     1     219.737  -8.406  20.900  1.00  0.00     0.004 C 
ENDBRANCH  24  25
ENDBRANCH  23  24
ENDBRANCH  22  23
ENDBRANCH  21  22
ENDBRANCH  20  21
ENDBRANCH  19  20
ENDBRANCH  18  19
ENDBRANCH  17  18
ENDBRANCH  16  17
ENDBRANCH  15  16
ENDBRANCH   1  15
TORSDOF 22
ENDMDL
