MODEL 1
REMARK VINA RESULT:    51.865      0.000      0.000
REMARK INTER + INTRA:          87.217
REMARK INTER:                  85.218
REMARK INTRA:                   1.999
REMARK UNBOUND:                 1.999
REMARK SMILES C[C@H]1O[C@@H](OC[C@H]2O[C@H](Oc3c(-c4ccc(O)c(O)c4)oc4cc(O)cc(O)c4c3=O)[C@@H](O)[C@@H](O)[C@H]2O)[C@H](O)[C@@H](O)[C@@H]1O
REMARK SMILES IDX 7 1 36 2 34 3 32 4 9 5 8 6 6 7 5 8 4 9 1 10 2 11 42 12 3 13
REMARK SMILES IDX 40 14 38 15 43 16 41 18 39 20 37 22 35 24 10 26 11 27 12 28
REMARK SMILES IDX 30 29 21 30 29 31 31 32 22 33 27 34 23 35 26 36 24 37 13 38
REMARK SMILES IDX 20 39 14 40 18 41 15 42 16 43 19 44 17 46 28 48 25 50 33 52
REMARK H PARENT 43 17 41 19 39 21 37 23 35 25 19 45 17 47 28 49 25 51 33 53
REMARK Flexibility Score: inf
ROOT
ATOM      1  C   UNL     1       0.663   7.079   9.079  1.00  0.00     0.180 C 
ATOM      2  C   UNL     1       0.398   7.588  10.535  1.00  0.00     0.177 C 
ATOM      3  C   UNL     1      -0.643   8.615  10.473  1.00  0.00     0.180 C 
ATOM      4  C   UNL     1      -1.990   7.945   9.915  1.00  0.00     0.214 C 
ATOM      5  C   UNL     1      -1.701   8.069   8.458  1.00  0.00     0.339 C 
ATOM      6  O   UNL     1      -0.512   7.293   8.107  1.00  0.00    -0.332 OA
ENDROOT
BRANCH   1   7
ATOM      7  C   UNL     1       1.401   5.636   9.300  1.00  0.00     0.198 C 
BRANCH   7   8
ATOM      8  O   UNL     1       2.045   5.573  10.573  1.00  0.00    -0.347 OA
BRANCH   8   9
ATOM      9  C   UNL     1       3.259   4.859  11.019  1.00  0.00     0.281 C 
ATOM     10  C   UNL     1       3.716   1.676   9.315  1.00  0.00     0.041 C 
ATOM     11  C   UNL     1       4.207   2.864  10.237  1.00  0.00     0.150 C 
ATOM     12  C   UNL     1       4.684   2.286  11.638  1.00  0.00     0.174 C 
ATOM     13  O   UNL     1       3.021   3.647  10.388  1.00  0.00    -0.344 OA
ATOM     14  C   UNL     1       3.846   2.921  12.776  1.00  0.00     0.179 C 
ATOM     15  C   UNL     1       3.576   4.511  12.577  1.00  0.00     0.202 C 
BRANCH  12  16
ATOM     16  O   UNL     1       6.081   2.636  11.739  1.00  0.00    -0.388 OA
ATOM     17  H   UNL     1       6.787   2.167  12.293  1.00  0.00     0.211 HD
ENDBRANCH  12  16
BRANCH  14  18
ATOM     18  O   UNL     1       2.765   2.160  13.212  1.00  0.00    -0.387 OA
ATOM     19  H   UNL     1       2.483   1.558  12.472  1.00  0.00     0.211 HD
ENDBRANCH  14  18
BRANCH  15  20
ATOM     20  O   UNL     1       4.736   5.239  13.001  1.00  0.00    -0.385 OA
ATOM     21  H   UNL     1       4.817   5.113  13.969  1.00  0.00     0.211 HD
ENDBRANCH  15  20
ENDBRANCH   8   9
ENDBRANCH   7   8
ENDBRANCH   1   7
BRANCH   2  22
ATOM     22  O   UNL     1       0.238   6.840  11.704  1.00  0.00    -0.387 OA
ATOM     23  H   UNL     1       0.903   6.094  11.898  1.00  0.00     0.211 HD
ENDBRANCH   2  22
BRANCH   3  24
ATOM     24  O   UNL     1      -0.627   9.879  11.028  1.00  0.00    -0.387 OA
ATOM     25  H   UNL     1      -1.619  10.223  11.163  1.00  0.00     0.211 HD
ENDBRANCH   3  24
BRANCH   5  26
ATOM     26  O   UNL     1      -1.709   9.598   8.189  1.00  0.00    -0.454 OA
BRANCH  26  27
ATOM     27  C   UNL     1      -2.808  10.477   8.565  1.00  0.00     0.214 A 
ATOM     28  C   UNL     1      -3.143  11.765   7.866  1.00  0.00     0.180 A 
ATOM     29  C   UNL     1      -3.558  10.270   9.789  1.00  0.00     0.239 A 
ATOM     30  O   UNL     1      -4.046  12.581   8.460  1.00  0.00    -0.452 OA
ATOM     31  C   UNL     1      -3.899  11.441  10.558  1.00  0.00     0.111 A 
ATOM     32  O   UNL     1      -3.671   9.103  10.265  1.00  0.00    -0.285 OA
ATOM     33  C   UNL     1      -4.072  12.588   9.777  1.00  0.00     0.146 A 
ATOM     34  C   UNL     1      -3.726  11.615  11.993  1.00  0.00     0.134 A 
ATOM     35  C   UNL     1      -4.123  13.863  10.408  1.00  0.00     0.094 A 
ATOM     36  C   UNL     1      -3.477  12.914  12.502  1.00  0.00     0.093 A 
ATOM     37  C   UNL     1      -3.645  14.040  11.685  1.00  0.00     0.123 A 
BRANCH  28  38
ATOM     38  C   UNL     1      -2.471  12.651   6.745  1.00  0.00     0.025 A 
ATOM     39  C   UNL     1      -2.518  14.083   7.047  1.00  0.00     0.062 A 
ATOM     40  C   UNL     1      -1.580  12.302   5.567  1.00  0.00     0.016 A 
ATOM     41  C   UNL     1      -1.923  14.956   6.196  1.00  0.00     0.158 A 
ATOM     42  C   UNL     1      -1.297  13.274   4.629  1.00  0.00     0.051 A 
ATOM     43  C   UNL     1      -1.805  14.592   4.939  1.00  0.00     0.157 A 
BRANCH  41  44
ATOM     44  O   UNL     1      -1.220  16.122   6.703  1.00  0.00    -0.504 OA
ATOM     45  H   UNL     1      -1.576  17.025   6.433  1.00  0.00     0.293 HD
ENDBRANCH  41  44
BRANCH  43  46
ATOM     46  O   UNL     1      -2.760  15.174   4.015  1.00  0.00    -0.504 OA
ATOM     47  H   UNL     1      -3.764  15.190   4.233  1.00  0.00     0.293 HD
ENDBRANCH  43  46
ENDBRANCH  28  38
BRANCH  34  48
ATOM     48  O   UNL     1      -3.735  10.546  12.947  1.00  0.00    -0.507 OA
ATOM     49  H   UNL     1      -3.538   9.615  12.638  1.00  0.00     0.293 HD
ENDBRANCH  34  48
BRANCH  37  50
ATOM     50  O   UNL     1      -3.108  15.297  12.082  1.00  0.00    -0.508 OA
ATOM     51  H   UNL     1      -2.695  15.378  13.000  1.00  0.00     0.293 HD
ENDBRANCH  37  50
ENDBRANCH  26  27
ENDBRANCH   5  26
BRANCH   4  52
ATOM     52  O   UNL     1      -2.131   6.614  10.292  1.00  0.00    -0.384 OA
ATOM     53  H   UNL     1      -2.513   6.192   9.406  1.00  0.00     0.211 HD
ENDBRANCH   4  52
TORSDOF 16
ENDMDL
MODEL 2
REMARK VINA RESULT:    52.413      2.054     10.739
REMARK INTER + INTRA:          88.117
REMARK INTER:                  89.647
REMARK INTRA:                  -1.530
REMARK UNBOUND:                 1.999
REMARK SMILES C[C@H]1O[C@@H](OC[C@H]2O[C@H](Oc3c(-c4ccc(O)c(O)c4)oc4cc(O)cc(O)c4c3=O)[C@@H](O)[C@@H](O)[C@H]2O)[C@H](O)[C@@H](O)[C@@H]1O
REMARK SMILES IDX 7 1 36 2 34 3 32 4 9 5 8 6 6 7 5 8 4 9 1 10 2 11 42 12 3 13
REMARK SMILES IDX 40 14 38 15 43 16 41 18 39 20 37 22 35 24 10 26 11 27 12 28
REMARK SMILES IDX 30 29 21 30 29 31 31 32 22 33 27 34 23 35 26 36 24 37 13 38
REMARK SMILES IDX 20 39 14 40 18 41 15 42 16 43 19 44 17 46 28 48 25 50 33 52
REMARK H PARENT 43 17 41 19 39 21 37 23 35 25 19 45 17 47 28 49 25 51 33 53
REMARK Flexibility Score: inf
ROOT
ATOM      1  C   UNL     1      -1.949   9.656   9.108  1.00  0.00     0.180 C 
ATOM      2  C   UNL     1      -3.203   9.070   9.839  1.00  0.00     0.177 C 
ATOM      3  C   UNL     1      -2.850   7.747  10.356  1.00  0.00     0.180 C 
ATOM      4  C   UNL     1      -1.668   7.916  11.429  1.00  0.00     0.214 C 
ATOM      5  C   UNL     1      -0.518   7.916  10.479  1.00  0.00     0.339 C 
ATOM      6  O   UNL     1      -0.607   9.058   9.572  1.00  0.00    -0.332 OA
ENDROOT
BRANCH   1   7
ATOM      7  C   UNL     1      -2.249  11.262   9.047  1.00  0.00     0.198 C 
BRANCH   7   8
ATOM      8  O   UNL     1      -2.615  11.671   7.727  1.00  0.00    -0.347 OA
BRANCH   8   9
ATOM      9  C   UNL     1      -3.007  12.989   7.188  1.00  0.00     0.281 C 
ATOM     10  C   UNL     1      -1.479  13.689   3.959  1.00  0.00     0.041 C 
ATOM     11  C   UNL     1      -2.511  13.980   5.124  1.00  0.00     0.150 C 
ATOM     12  C   UNL     1      -2.323  15.471   5.637  1.00  0.00     0.174 C 
ATOM     13  O   UNL     1      -2.114  13.043   6.127  1.00  0.00    -0.344 OA
ATOM     14  C   UNL     1      -1.973  15.463   7.147  1.00  0.00     0.179 C 
ATOM     15  C   UNL     1      -2.831  14.384   8.008  1.00  0.00     0.202 C 
BRANCH  12  16
ATOM     16  O   UNL     1      -3.586  16.124   5.383  1.00  0.00    -0.388 OA
ATOM     17  H   UNL     1      -4.232  16.488   6.072  1.00  0.00     0.211 HD
ENDBRANCH  12  16
BRANCH  14  18
ATOM     18  O   UNL     1      -0.615  15.550   7.440  1.00  0.00    -0.387 OA
ATOM     19  H   UNL     1      -0.101  15.430   6.598  1.00  0.00     0.211 HD
ENDBRANCH  14  18
BRANCH  15  20
ATOM     20  O   UNL     1      -4.123  14.935   8.293  1.00  0.00    -0.385 OA
ATOM     21  H   UNL     1      -4.166  15.082   9.260  1.00  0.00     0.211 HD
ENDBRANCH  15  20
ENDBRANCH   8   9
ENDBRANCH   7   8
ENDBRANCH   1   7
BRANCH   2  22
ATOM     22  O   UNL     1      -4.060   9.704  10.742  1.00  0.00    -0.387 OA
ATOM     23  H   UNL     1      -4.900   9.214  11.040  1.00  0.00     0.211 HD
ENDBRANCH   2  22
BRANCH   3  24
ATOM     24  O   UNL     1      -3.539   6.561  10.203  1.00  0.00    -0.387 OA
ATOM     25  H   UNL     1      -4.459   6.612  10.727  1.00  0.00     0.211 HD
ENDBRANCH   3  24
BRANCH   5  26
ATOM     26  O   UNL     1      -0.505   6.481   9.885  1.00  0.00    -0.454 OA
BRANCH  26  27
ATOM     27  C   UNL     1       0.609   5.934   9.122  1.00  0.00     0.214 A 
ATOM     28  C   UNL     1       1.616   4.960   9.667  1.00  0.00     0.180 A 
ATOM     29  C   UNL     1       0.952   6.447   7.809  1.00  0.00     0.239 A 
ATOM     30  O   UNL     1       2.715   4.713   8.916  1.00  0.00    -0.452 OA
ATOM     31  C   UNL     1       2.353   6.617   7.514  1.00  0.00     0.111 A 
ATOM     32  O   UNL     1       0.050   6.953   7.079  1.00  0.00    -0.285 OA
ATOM     33  C   UNL     1       3.176   5.705   8.183  1.00  0.00     0.146 A 
ATOM     34  C   UNL     1       2.977   7.793   6.924  1.00  0.00     0.134 A 
ATOM     35  C   UNL     1       4.581   5.929   8.220  1.00  0.00     0.094 A 
ATOM     36  C   UNL     1       4.317   8.103   7.268  1.00  0.00     0.093 A 
ATOM     37  C   UNL     1       5.108   7.171   7.953  1.00  0.00     0.123 A 
BRANCH  28  38
ATOM     38  C   UNL     1       1.950   4.357  11.087  1.00  0.00     0.025 A 
ATOM     39  C   UNL     1       3.357   3.977  11.228  1.00  0.00     0.062 A 
ATOM     40  C   UNL     1       1.175   4.329  12.392  1.00  0.00     0.016 A 
ATOM     41  C   UNL     1       3.796   3.499  12.419  1.00  0.00     0.158 A 
ATOM     42  C   UNL     1       1.639   3.549  13.432  1.00  0.00     0.051 A 
ATOM     43  C   UNL     1       2.915   2.910  13.196  1.00  0.00     0.157 A 
BRANCH  41  44
ATOM     44  O   UNL     1       5.112   3.852  12.920  1.00  0.00    -0.504 OA
ATOM     45  H   UNL     1       5.684   4.438  12.333  1.00  0.00     0.293 HD
ENDBRANCH  41  44
BRANCH  43  46
ATOM     46  O   UNL     1       2.948   1.460  13.212  1.00  0.00    -0.504 OA
ATOM     47  H   UNL     1       3.763   0.954  13.579  1.00  0.00     0.293 HD
ENDBRANCH  43  46
ENDBRANCH  28  38
BRANCH  34  48
ATOM     48  O   UNL     1       2.314   8.710   6.047  1.00  0.00    -0.507 OA
ATOM     49  H   UNL     1       1.346   8.914   6.196  1.00  0.00     0.293 HD
ENDBRANCH  34  48
BRANCH  37  50
ATOM     50  O   UNL     1       6.325   7.580   8.566  1.00  0.00    -0.508 OA
ATOM     51  H   UNL     1       7.155   7.650   7.995  1.00  0.00     0.293 HD
ENDBRANCH  37  50
ENDBRANCH  26  27
ENDBRANCH   5  26
BRANCH   4  52
ATOM     52  O   UNL     1      -1.743   9.112  12.134  1.00  0.00    -0.384 OA
ATOM     53  H   UNL     1      -1.999   8.764  13.095  1.00  0.00     0.211 HD
ENDBRANCH   4  52
TORSDOF 16
ENDMDL
MODEL 3
REMARK VINA RESULT:    53.761      2.601     10.602
REMARK INTER + INTRA:          90.333
REMARK INTER:                  92.055
REMARK INTRA:                  -1.723
REMARK UNBOUND:                 1.999
REMARK SMILES C[C@H]1O[C@@H](OC[C@H]2O[C@H](Oc3c(-c4ccc(O)c(O)c4)oc4cc(O)cc(O)c4c3=O)[C@@H](O)[C@@H](O)[C@H]2O)[C@H](O)[C@@H](O)[C@@H]1O
REMARK SMILES IDX 7 1 36 2 34 3 32 4 9 5 8 6 6 7 5 8 4 9 1 10 2 11 42 12 3 13
REMARK SMILES IDX 40 14 38 15 43 16 41 18 39 20 37 22 35 24 10 26 11 27 12 28
REMARK SMILES IDX 30 29 21 30 29 31 31 32 22 33 27 34 23 35 26 36 24 37 13 38
REMARK SMILES IDX 20 39 14 40 18 41 15 42 16 43 19 44 17 46 28 48 25 50 33 52
REMARK H PARENT 43 17 41 19 39 21 37 23 35 25 19 45 17 47 28 49 25 51 33 53
REMARK Flexibility Score: inf
ROOT
ATOM      1  C   UNL     1      -2.330  10.286   9.757  1.00  0.00     0.180 C 
ATOM      2  C   UNL     1      -2.638   9.255   8.620  1.00  0.00     0.177 C 
ATOM      3  C   UNL     1      -1.949   8.005   8.942  1.00  0.00     0.180 C 
ATOM      4  C   UNL     1      -2.540   7.434  10.320  1.00  0.00     0.214 C 
ATOM      5  C   UNL     1      -1.683   8.216  11.258  1.00  0.00     0.339 C 
ATOM      6  O   UNL     1      -1.933   9.648  11.102  1.00  0.00    -0.332 OA
ENDROOT
BRANCH   1   7
ATOM      7  C   UNL     1      -3.515  11.402   9.603  1.00  0.00     0.198 C 
BRANCH   7   8
ATOM      8  O   UNL     1      -2.973  12.708   9.400  1.00  0.00    -0.347 OA
BRANCH   8   9
ATOM      9  C   UNL     1      -3.296  13.755   8.409  1.00  0.00     0.281 C 
ATOM     10  C   UNL     1      -2.025  12.979   5.088  1.00  0.00     0.041 C 
ATOM     11  C   UNL     1      -2.911  13.814   6.099  1.00  0.00     0.150 C 
ATOM     12  C   UNL     1      -2.544  15.354   5.977  1.00  0.00     0.174 C 
ATOM     13  O   UNL     1      -2.507  13.293   7.366  1.00  0.00    -0.344 OA
ATOM     14  C   UNL     1      -2.054  15.883   7.349  1.00  0.00     0.179 C 
ATOM     15  C   UNL     1      -2.919  15.327   8.608  1.00  0.00     0.202 C 
BRANCH  12  16
ATOM     16  O   UNL     1      -3.762  16.004   5.555  1.00  0.00    -0.388 OA
ATOM     17  H   UNL     1      -4.063  16.171   4.603  1.00  0.00     0.211 HD
ENDBRANCH  12  16
BRANCH  14  18
ATOM     18  O   UNL     1      -0.673  15.914   7.513  1.00  0.00    -0.387 OA
ATOM     19  H   UNL     1      -0.452  16.568   8.229  1.00  0.00     0.211 HD
ENDBRANCH  14  18
BRANCH  15  20
ATOM     20  O   UNL     1      -4.125  16.094   8.722  1.00  0.00    -0.385 OA
ATOM     21  H   UNL     1      -4.012  16.892   8.165  1.00  0.00     0.211 HD
ENDBRANCH  15  20
ENDBRANCH   8   9
ENDBRANCH   7   8
ENDBRANCH   1   7
BRANCH   2  22
ATOM     22  O   UNL     1      -3.866   8.963   8.019  1.00  0.00    -0.387 OA
ATOM     23  H   UNL     1      -4.659   8.743   8.617  1.00  0.00     0.211 HD
ENDBRANCH   2  22
BRANCH   3  24
ATOM     24  O   UNL     1      -1.126   7.253   8.128  1.00  0.00    -0.387 OA
ATOM     25  H   UNL     1      -0.978   7.755   7.207  1.00  0.00     0.211 HD
ENDBRANCH   3  24
BRANCH   5  26
ATOM     26  O   UNL     1      -0.249   7.671  11.021  1.00  0.00    -0.454 OA
BRANCH  26  27
ATOM     27  C   UNL     1       0.242   6.420  11.585  1.00  0.00     0.214 A 
ATOM     28  C   UNL     1       0.819   6.279  12.965  1.00  0.00     0.180 A 
ATOM     29  C   UNL     1       0.392   5.229  10.770  1.00  0.00     0.239 A 
ATOM     30  O   UNL     1       1.434   5.111  13.268  1.00  0.00    -0.452 OA
ATOM     31  C   UNL     1       1.577   4.434  10.978  1.00  0.00     0.111 A 
ATOM     32  O   UNL     1      -0.356   5.060   9.763  1.00  0.00    -0.285 OA
ATOM     33  C   UNL     1       2.061   4.492  12.289  1.00  0.00     0.146 A 
ATOM     34  C   UNL     1       2.465   3.916   9.947  1.00  0.00     0.134 A 
ATOM     35  C   UNL     1       3.366   4.001  12.575  1.00  0.00     0.094 A 
ATOM     36  C   UNL     1       3.839   3.743  10.249  1.00  0.00     0.093 A 
ATOM     37  C   UNL     1       4.291   3.824  11.573  1.00  0.00     0.123 A 
BRANCH  28  38
ATOM     38  C   UNL     1       1.234   7.269  14.123  1.00  0.00     0.025 A 
ATOM     39  C   UNL     1       2.450   8.026  13.817  1.00  0.00     0.062 A 
ATOM     40  C   UNL     1       0.497   7.766  15.353  1.00  0.00     0.016 A 
ATOM     41  C   UNL     1       2.887   8.957  14.700  1.00  0.00     0.158 A 
ATOM     42  C   UNL     1       1.190   8.486  16.305  1.00  0.00     0.051 A 
ATOM     43  C   UNL     1       2.561   8.794  15.963  1.00  0.00     0.157 A 
BRANCH  41  44
ATOM     44  O   UNL     1       3.464  10.206  14.235  1.00  0.00    -0.504 OA
ATOM     45  H   UNL     1       2.824  10.936  13.968  1.00  0.00     0.293 HD
ENDBRANCH  41  44
BRANCH  43  46
ATOM     46  O   UNL     1       3.600   8.267  16.827  1.00  0.00    -0.504 OA
ATOM     47  H   UNL     1       4.323   8.881  17.219  1.00  0.00     0.293 HD
ENDBRANCH  43  46
ENDBRANCH  28  38
BRANCH  34  48
ATOM     48  O   UNL     1       2.062   3.610   8.608  1.00  0.00    -0.507 OA
ATOM     49  H   UNL     1       2.634   3.913   7.845  1.00  0.00     0.293 HD
ENDBRANCH  34  48
BRANCH  37  50
ATOM     50  O   UNL     1       5.680   3.961  11.846  1.00  0.00    -0.508 OA
ATOM     51  H   UNL     1       5.965   4.534  12.628  1.00  0.00     0.293 HD
ENDBRANCH  37  50
ENDBRANCH  26  27
ENDBRANCH   5  26
BRANCH   4  52
ATOM     52  O   UNL     1      -3.887   7.731  10.497  1.00  0.00    -0.384 OA
ATOM     53  H   UNL     1      -4.135   8.116   9.548  1.00  0.00     0.211 HD
ENDBRANCH   4  52
TORSDOF 16
ENDMDL
MODEL 4
REMARK VINA RESULT:    53.800      2.075     10.925
REMARK INTER + INTRA:          90.397
REMARK INTER:                  91.470
REMARK INTRA:                  -1.074
REMARK UNBOUND:                 1.999
REMARK SMILES C[C@H]1O[C@@H](OC[C@H]2O[C@H](Oc3c(-c4ccc(O)c(O)c4)oc4cc(O)cc(O)c4c3=O)[C@@H](O)[C@@H](O)[C@H]2O)[C@H](O)[C@@H](O)[C@@H]1O
REMARK SMILES IDX 7 1 36 2 34 3 32 4 9 5 8 6 6 7 5 8 4 9 1 10 2 11 42 12 3 13
REMARK SMILES IDX 40 14 38 15 43 16 41 18 39 20 37 22 35 24 10 26 11 27 12 28
REMARK SMILES IDX 30 29 21 30 29 31 31 32 22 33 27 34 23 35 26 36 24 37 13 38
REMARK SMILES IDX 20 39 14 40 18 41 15 42 16 43 19 44 17 46 28 48 25 50 33 52
REMARK H PARENT 43 17 41 19 39 21 37 23 35 25 19 45 17 47 28 49 25 51 33 53
REMARK Flexibility Score: inf
ROOT
ATOM      1  C   UNL     1      -2.592   9.047   8.763  1.00  0.00     0.180 C 
ATOM      2  C   UNL     1      -2.965   9.243  10.271  1.00  0.00     0.177 C 
ATOM      3  C   UNL     1      -1.956   8.556  11.080  1.00  0.00     0.180 C 
ATOM      4  C   UNL     1      -0.531   9.245  10.814  1.00  0.00     0.214 C 
ATOM      5  C   UNL     1      -0.152   8.483   9.590  1.00  0.00     0.339 C 
ATOM      6  O   UNL     1      -1.103   8.747   8.511  1.00  0.00    -0.332 OA
ENDROOT
BRANCH   1   7
ATOM      7  C   UNL     1      -3.415  10.238   8.002  1.00  0.00     0.198 C 
BRANCH   7   8
ATOM      8  O   UNL     1      -2.840  11.518   8.270  1.00  0.00    -0.347 OA
BRANCH   8   9
ATOM      9  C   UNL     1      -3.224  12.873   7.824  1.00  0.00     0.281 C 
ATOM     10  C   UNL     1      -2.013  13.640   4.479  1.00  0.00     0.041 C 
ATOM     11  C   UNL     1      -2.902  13.927   5.757  1.00  0.00     0.150 C 
ATOM     12  C   UNL     1      -2.591  15.386   6.301  1.00  0.00     0.174 C 
ATOM     13  O   UNL     1      -2.447  12.933   6.677  1.00  0.00    -0.344 OA
ATOM     14  C   UNL     1      -2.085  15.300   7.764  1.00  0.00     0.179 C 
ATOM     15  C   UNL     1      -2.897  14.224   8.672  1.00  0.00     0.202 C 
BRANCH  12  16
ATOM     16  O   UNL     1      -3.841  16.102   6.207  1.00  0.00    -0.388 OA
ATOM     17  H   UNL     1      -4.514  16.055   5.452  1.00  0.00     0.211 HD
ENDBRANCH  12  16
BRANCH  14  18
ATOM     18  O   UNL     1      -0.701  15.316   7.913  1.00  0.00    -0.387 OA
ATOM     19  H   UNL     1      -0.428  16.213   8.246  1.00  0.00     0.211 HD
ENDBRANCH  14  18
BRANCH  15  20
ATOM     20  O   UNL     1      -4.125  14.818   9.113  1.00  0.00    -0.385 OA
ATOM     21  H   UNL     1      -4.682  14.950   8.318  1.00  0.00     0.211 HD
ENDBRANCH  15  20
ENDBRANCH   8   9
ENDBRANCH   7   8
ENDBRANCH   1   7
BRANCH   2  22
ATOM     22  O   UNL     1      -3.363  10.411  10.926  1.00  0.00    -0.387 OA
ATOM     23  H   UNL     1      -3.701  10.341  11.882  1.00  0.00     0.211 HD
ENDBRANCH   2  22
BRANCH   3  24
ATOM     24  O   UNL     1      -2.157   7.656  12.107  1.00  0.00    -0.387 OA
ATOM     25  H   UNL     1      -1.490   6.840  12.002  1.00  0.00     0.211 HD
ENDBRANCH   3  24
BRANCH   5  26
ATOM     26  O   UNL     1       0.039   7.024  10.084  1.00  0.00    -0.454 OA
BRANCH  26  27
ATOM     27  C   UNL     1       0.874   6.044   9.402  1.00  0.00     0.214 A 
ATOM     28  C   UNL     1       1.449   4.817  10.052  1.00  0.00     0.180 A 
ATOM     29  C   UNL     1       1.385   6.284   8.066  1.00  0.00     0.239 A 
ATOM     30  O   UNL     1       2.381   4.121   9.359  1.00  0.00    -0.452 OA
ATOM     31  C   UNL     1       2.750   5.901   7.804  1.00  0.00     0.111 A 
ATOM     32  O   UNL     1       0.735   7.023   7.269  1.00  0.00    -0.285 OA
ATOM     33  C   UNL     1       3.177   4.810   8.567  1.00  0.00     0.146 A 
ATOM     34  C   UNL     1       3.766   6.711   7.147  1.00  0.00     0.134 A 
ATOM     35  C   UNL     1       4.565   4.502   8.633  1.00  0.00     0.094 A 
ATOM     36  C   UNL     1       5.125   6.534   7.509  1.00  0.00     0.093 A 
ATOM     37  C   UNL     1       5.514   5.437   8.290  1.00  0.00     0.123 A 
BRANCH  28  38
ATOM     38  C   UNL     1       1.533   4.253  11.525  1.00  0.00     0.025 A 
ATOM     39  C   UNL     1       2.852   3.705  11.850  1.00  0.00     0.062 A 
ATOM     40  C   UNL     1       0.616   4.395  12.725  1.00  0.00     0.016 A 
ATOM     41  C   UNL     1       3.082   3.241  13.103  1.00  0.00     0.158 A 
ATOM     42  C   UNL     1       0.849   3.619  13.843  1.00  0.00     0.051 A 
ATOM     43  C   UNL     1       2.047   2.811  13.790  1.00  0.00     0.157 A 
BRANCH  41  44
ATOM     44  O   UNL     1       4.367   3.450  13.747  1.00  0.00    -0.504 OA
ATOM     45  H   UNL     1       5.132   2.869  13.443  1.00  0.00     0.293 HD
ENDBRANCH  41  44
BRANCH  43  46
ATOM     46  O   UNL     1       1.885   1.371  13.865  1.00  0.00    -0.504 OA
ATOM     47  H   UNL     1       2.442   0.811  14.521  1.00  0.00     0.293 HD
ENDBRANCH  43  46
ENDBRANCH  28  38
BRANCH  34  48
ATOM     48  O   UNL     1       3.490   7.731   6.181  1.00  0.00    -0.507 OA
ATOM     49  H   UNL     1       4.167   8.452   6.026  1.00  0.00     0.293 HD
ENDBRANCH  34  48
BRANCH  37  50
ATOM     50  O   UNL     1       6.795   5.419   8.908  1.00  0.00    -0.508 OA
ATOM     51  H   UNL     1       7.534   5.978   8.507  1.00  0.00     0.293 HD
ENDBRANCH  37  50
ENDBRANCH  26  27
ENDBRANCH   5  26
BRANCH   4  52
ATOM     52  O   UNL     1      -0.628  10.608  10.553  1.00  0.00    -0.384 OA
ATOM     53  H   UNL     1      -0.351  10.639   9.537  1.00  0.00     0.211 HD
ENDBRANCH   4  52
TORSDOF 16
ENDMDL
