MODEL 1
REMARK VINA RESULT:    -7.022      0.000      0.000
REMARK INTER + INTRA:          -8.532
REMARK INTER:                  -8.254
REMARK INTRA:                  -0.278
REMARK UNBOUND:                -0.278
REMARK SMILES O=c1cc(-c2ccc(O)c(O)c2)oc2cc(O)cc(O)c12
REMARK SMILES IDX 4 1 3 2 2 3 1 4 21 5 19 6 18 7 16 8 15 9 14 10 13 11 5 12
REMARK SMILES IDX 6 13 7 14 8 15 12 16 10 17 9 18 11 20 20 22 17 24
REMARK H PARENT 9 19 11 21 20 23 17 25
REMARK Flexibility Score: inf
ROOT
ATOM      1  C   UNL     1      22.938  16.333   4.074  1.00  0.00     0.138 A 
ATOM      2  C   UNL     1      23.969  15.437   3.750  1.00  0.00     0.100 A 
ATOM      3  C   UNL     1      23.649  14.137   3.357  1.00  0.00     0.197 A 
ATOM      4  O   UNL     1      24.582  13.338   3.069  1.00  0.00    -0.289 OA
ATOM      5  C   UNL     1      22.299  13.740   3.293  1.00  0.00     0.107 A 
ATOM      6  C   UNL     1      21.889  12.443   2.904  1.00  0.00     0.134 A 
ATOM      7  C   UNL     1      20.522  12.126   2.873  1.00  0.00     0.093 A 
ATOM      8  C   UNL     1      19.562  13.079   3.222  1.00  0.00     0.123 A 
ATOM      9  C   UNL     1      19.961  14.363   3.609  1.00  0.00     0.094 A 
ATOM     10  C   UNL     1      21.318  14.698   3.646  1.00  0.00     0.146 A 
ATOM     11  O   UNL     1      21.671  15.925   4.014  1.00  0.00    -0.456 OA
ENDROOT
BRANCH   1  12
ATOM     12  C   UNL     1      23.218  17.728   4.501  1.00  0.00     0.021 A 
ATOM     13  C   UNL     1      23.918  18.588   3.638  1.00  0.00     0.016 A 
ATOM     14  C   UNL     1      24.200  19.902   4.020  1.00  0.00     0.051 A 
ATOM     15  C   UNL     1      23.796  20.375   5.273  1.00  0.00     0.157 A 
ATOM     16  C   UNL     1      22.825  18.207   5.766  1.00  0.00     0.062 A 
ATOM     17  C   UNL     1      23.111  19.526   6.150  1.00  0.00     0.158 A 
BRANCH  15  18
ATOM     18  O   UNL     1      24.074  21.687   5.657  1.00  0.00    -0.504 OA
ATOM     19  H   UNL     1      25.025  22.009   5.790  1.00  0.00     0.293 HD
ENDBRANCH  15  18
BRANCH  17  20
ATOM     20  O   UNL     1      22.719  19.997   7.402  1.00  0.00    -0.504 OA
ATOM     21  H   UNL     1      23.341  19.960   8.201  1.00  0.00     0.293 HD
ENDBRANCH  17  20
ENDBRANCH   1  12
BRANCH   6  22
ATOM     22  O   UNL     1      22.825  11.472   2.549  1.00  0.00    -0.507 OA
ATOM     23  H   UNL     1      23.810  11.692   2.453  1.00  0.00     0.293 HD
ENDBRANCH   6  22
BRANCH   8  24
ATOM     24  O   UNL     1      18.211  12.737   3.182  1.00  0.00    -0.508 OA
ATOM     25  H   UNL     1      17.496  13.365   3.531  1.00  0.00     0.293 HD
ENDBRANCH   8  24
TORSDOF 5
ENDMDL
MODEL 2
REMARK VINA RESULT:    -6.481      1.242      2.793
REMARK INTER + INTRA:          -7.896
REMARK INTER:                  -7.632
REMARK INTRA:                  -0.264
REMARK UNBOUND:                -0.278
REMARK SMILES O=c1cc(-c2ccc(O)c(O)c2)oc2cc(O)cc(O)c12
REMARK SMILES IDX 4 1 3 2 2 3 1 4 21 5 19 6 18 7 16 8 15 9 14 10 13 11 5 12
REMARK SMILES IDX 6 13 7 14 8 15 12 16 10 17 9 18 11 20 20 22 17 24
REMARK H PARENT 9 19 11 21 20 23 17 25
REMARK Flexibility Score: inf
ROOT
ATOM      1  C   UNL     1      22.780  16.568   4.048  1.00  0.00     0.138 A 
ATOM      2  C   UNL     1      21.461  16.149   3.811  1.00  0.00     0.100 A 
ATOM      3  C   UNL     1      21.219  14.838   3.402  1.00  0.00     0.197 A 
ATOM      4  O   UNL     1      20.031  14.472   3.190  1.00  0.00    -0.289 OA
ATOM      5  C   UNL     1      22.301  13.952   3.230  1.00  0.00     0.107 A 
ATOM      6  C   UNL     1      22.144  12.606   2.820  1.00  0.00     0.134 A 
ATOM      7  C   UNL     1      23.275  11.790   2.666  1.00  0.00     0.093 A 
ATOM      8  C   UNL     1      24.555  12.292   2.914  1.00  0.00     0.123 A 
ATOM      9  C   UNL     1      24.717  13.621   3.319  1.00  0.00     0.094 A 
ATOM     10  C   UNL     1      23.602  14.450   3.479  1.00  0.00     0.146 A 
ATOM     11  O   UNL     1      23.782  15.709   3.867  1.00  0.00    -0.456 OA
ENDROOT
BRANCH   1  12
ATOM     12  C   UNL     1      23.098  17.951   4.482  1.00  0.00     0.021 A 
ATOM     13  C   UNL     1      23.821  18.797   3.624  1.00  0.00     0.016 A 
ATOM     14  C   UNL     1      24.139  20.101   4.013  1.00  0.00     0.051 A 
ATOM     15  C   UNL     1      23.749  20.578   5.269  1.00  0.00     0.157 A 
ATOM     16  C   UNL     1      22.720  18.434   5.751  1.00  0.00     0.062 A 
ATOM     17  C   UNL     1      23.042  19.743   6.142  1.00  0.00     0.158 A 
BRANCH  15  18
ATOM     18  O   UNL     1      24.063  21.879   5.660  1.00  0.00    -0.504 OA
ATOM     19  H   UNL     1      23.597  22.681   5.254  1.00  0.00     0.293 HD
ENDBRANCH  15  18
BRANCH  17  20
ATOM     20  O   UNL     1      22.664  20.217   7.397  1.00  0.00    -0.504 OA
ATOM     21  H   UNL     1      22.547  21.208   7.576  1.00  0.00     0.293 HD
ENDBRANCH  17  20
ENDBRANCH   1  12
BRANCH   6  22
ATOM     22  O   UNL     1      20.878  12.078   2.565  1.00  0.00    -0.507 OA
ATOM     23  H   UNL     1      20.419  11.457   3.222  1.00  0.00     0.293 HD
ENDBRANCH   6  22
BRANCH   8  24
ATOM     24  O   UNL     1      25.661  11.459   2.753  1.00  0.00    -0.508 OA
ATOM     25  H   UNL     1      26.584  11.739   3.064  1.00  0.00     0.293 HD
ENDBRANCH   8  24
TORSDOF 5
ENDMDL
MODEL 3
REMARK VINA RESULT:    -6.434      1.032      2.665
REMARK INTER + INTRA:          -7.841
REMARK INTER:                  -7.572
REMARK INTRA:                  -0.269
REMARK UNBOUND:                -0.278
REMARK SMILES O=c1cc(-c2ccc(O)c(O)c2)oc2cc(O)cc(O)c12
REMARK SMILES IDX 4 1 3 2 2 3 1 4 21 5 19 6 18 7 16 8 15 9 14 10 13 11 5 12
REMARK SMILES IDX 6 13 7 14 8 15 12 16 10 17 9 18 11 20 20 22 17 24
REMARK H PARENT 9 19 11 21 20 23 17 25
REMARK Flexibility Score: inf
ROOT
ATOM      1  C   UNL     1      21.840  16.736   4.443  1.00  0.00     0.138 A 
ATOM      2  C   UNL     1      20.462  16.577   4.662  1.00  0.00     0.100 A 
ATOM      3  C   UNL     1      19.849  15.369   4.331  1.00  0.00     0.197 A 
ATOM      4  O   UNL     1      18.611  15.237   4.529  1.00  0.00    -0.289 OA
ATOM      5  C   UNL     1      20.619  14.325   3.779  1.00  0.00     0.107 A 
ATOM      6  C   UNL     1      20.077  13.069   3.418  1.00  0.00     0.134 A 
ATOM      7  C   UNL     1      20.912  12.084   2.868  1.00  0.00     0.093 A 
ATOM      8  C   UNL     1      22.273  12.330   2.675  1.00  0.00     0.123 A 
ATOM      9  C   UNL     1      22.815  13.571   3.030  1.00  0.00     0.094 A 
ATOM     10  C   UNL     1      22.000  14.565   3.580  1.00  0.00     0.146 A 
ATOM     11  O   UNL     1      22.539  15.734   3.911  1.00  0.00    -0.456 OA
ENDROOT
BRANCH   1  12
ATOM     12  C   UNL     1      22.546  18.000   4.773  1.00  0.00     0.021 A 
ATOM     13  C   UNL     1      23.227  18.697   3.761  1.00  0.00     0.016 A 
ATOM     14  C   UNL     1      23.905  19.884   4.048  1.00  0.00     0.051 A 
ATOM     15  C   UNL     1      23.923  20.389   5.353  1.00  0.00     0.157 A 
ATOM     16  C   UNL     1      22.580  18.507   6.087  1.00  0.00     0.062 A 
ATOM     17  C   UNL     1      23.263  19.698   6.376  1.00  0.00     0.158 A 
BRANCH  15  18
ATOM     18  O   UNL     1      24.597  21.574   5.644  1.00  0.00    -0.504 OA
ATOM     19  H   UNL     1      25.401  21.589   6.260  1.00  0.00     0.293 HD
ENDBRANCH  15  18
BRANCH  17  20
ATOM     20  O   UNL     1      23.292  20.197   7.677  1.00  0.00    -0.504 OA
ATOM     21  H   UNL     1      23.499  19.601   8.470  1.00  0.00     0.293 HD
ENDBRANCH  17  20
ENDBRANCH   1  12
BRANCH   6  22
ATOM     22  O   UNL     1      18.721  12.795   3.599  1.00  0.00    -0.507 OA
ATOM     23  H   UNL     1      18.332  11.881   3.397  1.00  0.00     0.293 HD
ENDBRANCH   6  22
BRANCH   8  24
ATOM     24  O   UNL     1      23.079  11.334   2.128  1.00  0.00    -0.508 OA
ATOM     25  H   UNL     1      22.699  10.623   1.515  1.00  0.00     0.293 HD
ENDBRANCH   8  24
TORSDOF 5
ENDMDL
MODEL 4
REMARK VINA RESULT:    -5.699      3.139      5.898
REMARK INTER + INTRA:          -6.976
REMARK INTER:                  -6.714
REMARK INTRA:                  -0.263
REMARK UNBOUND:                -0.278
REMARK SMILES O=c1cc(-c2ccc(O)c(O)c2)oc2cc(O)cc(O)c12
REMARK SMILES IDX 4 1 3 2 2 3 1 4 21 5 19 6 18 7 16 8 15 9 14 10 13 11 5 12
REMARK SMILES IDX 6 13 7 14 8 15 12 16 10 17 9 18 11 20 20 22 17 24
REMARK H PARENT 9 19 11 21 20 23 17 25
REMARK Flexibility Score: inf
ROOT
ATOM      1  C   UNL     1      23.021  19.444   7.554  1.00  0.00     0.138 A 
ATOM      2  C   UNL     1      23.629  20.453   6.789  1.00  0.00     0.100 A 
ATOM      3  C   UNL     1      23.923  20.213   5.447  1.00  0.00     0.197 A 
ATOM      4  O   UNL     1      24.471  21.125   4.769  1.00  0.00    -0.289 OA
ATOM      5  C   UNL     1      23.610  18.963   4.878  1.00  0.00     0.107 A 
ATOM      6  C   UNL     1      23.873  18.639   3.525  1.00  0.00     0.134 A 
ATOM      7  C   UNL     1      23.535  17.368   3.037  1.00  0.00     0.093 A 
ATOM      8  C   UNL     1      22.941  16.418   3.872  1.00  0.00     0.123 A 
ATOM      9  C   UNL     1      22.679  16.733   5.210  1.00  0.00     0.094 A 
ATOM     10  C   UNL     1      23.008  17.994   5.715  1.00  0.00     0.146 A 
ATOM     11  O   UNL     1      22.747  18.269   6.989  1.00  0.00    -0.456 OA
ENDROOT
BRANCH   1  12
ATOM     12  C   UNL     1      22.687  19.641   8.987  1.00  0.00     0.021 A 
ATOM     13  C   UNL     1      23.707  19.570   9.952  1.00  0.00     0.016 A 
ATOM     14  C   UNL     1      23.416  19.743  11.307  1.00  0.00     0.051 A 
ATOM     15  C   UNL     1      22.101  19.981  11.723  1.00  0.00     0.157 A 
ATOM     16  C   UNL     1      21.364  19.867   9.414  1.00  0.00     0.062 A 
ATOM     17  C   UNL     1      21.072  20.039  10.776  1.00  0.00     0.158 A 
BRANCH  15  18
ATOM     18  O   UNL     1      21.808  20.157  13.074  1.00  0.00    -0.504 OA
ATOM     19  H   UNL     1      22.316  20.822  13.645  1.00  0.00     0.293 HD
ENDBRANCH  15  18
BRANCH  17  20
ATOM     20  O   UNL     1      19.762  20.265  11.194  1.00  0.00    -0.504 OA
ATOM     21  H   UNL     1      19.482  20.129  12.158  1.00  0.00     0.293 HD
ENDBRANCH  17  20
ENDBRANCH   1  12
BRANCH   6  22
ATOM     22  O   UNL     1      24.466  19.567   2.668  1.00  0.00    -0.507 OA
ATOM     23  H   UNL     1      24.320  19.533   1.665  1.00  0.00     0.293 HD
ENDBRANCH   6  22
BRANCH   8  24
ATOM     24  O   UNL     1      22.616  15.164   3.361  1.00  0.00    -0.508 OA
ATOM     25  H   UNL     1      21.801  15.026   2.774  1.00  0.00     0.293 HD
ENDBRANCH   8  24
TORSDOF 5
ENDMDL
MODEL 5
REMARK VINA RESULT:    -5.570      1.413      7.138
REMARK INTER + INTRA:          -6.824
REMARK INTER:                  -6.551
REMARK INTRA:                  -0.273
REMARK UNBOUND:                -0.278
REMARK SMILES O=c1cc(-c2ccc(O)c(O)c2)oc2cc(O)cc(O)c12
REMARK SMILES IDX 4 1 3 2 2 3 1 4 21 5 19 6 18 7 16 8 15 9 14 10 13 11 5 12
REMARK SMILES IDX 6 13 7 14 8 15 12 16 10 17 9 18 11 20 20 22 17 24
REMARK H PARENT 9 19 11 21 20 23 17 25
REMARK Flexibility Score: inf
ROOT
ATOM      1  C   UNL     1      22.119  16.619   3.971  1.00  0.00     0.138 A 
ATOM      2  C   UNL     1      22.706  17.412   2.971  1.00  0.00     0.100 A 
ATOM      3  C   UNL     1      23.344  18.601   3.325  1.00  0.00     0.197 A 
ATOM      4  O   UNL     1      23.867  19.307   2.420  1.00  0.00    -0.289 OA
ATOM      5  C   UNL     1      23.390  18.991   4.678  1.00  0.00     0.107 A 
ATOM      6  C   UNL     1      24.018  20.179   5.121  1.00  0.00     0.134 A 
ATOM      7  C   UNL     1      24.014  20.500   6.487  1.00  0.00     0.093 A 
ATOM      8  C   UNL     1      23.396  19.657   7.415  1.00  0.00     0.123 A 
ATOM      9  C   UNL     1      22.773  18.481   6.982  1.00  0.00     0.094 A 
ATOM     10  C   UNL     1      22.767  18.145   5.625  1.00  0.00     0.146 A 
ATOM     11  O   UNL     1      22.170  17.021   5.240  1.00  0.00    -0.456 OA
ENDROOT
BRANCH   1  12
ATOM     12  C   UNL     1      21.424  15.346   3.654  1.00  0.00     0.021 A 
ATOM     13  C   UNL     1      20.122  15.130   4.136  1.00  0.00     0.016 A 
ATOM     14  C   UNL     1      19.450  13.937   3.859  1.00  0.00     0.051 A 
ATOM     15  C   UNL     1      20.071  12.936   3.104  1.00  0.00     0.157 A 
ATOM     16  C   UNL     1      22.048  14.328   2.907  1.00  0.00     0.062 A 
ATOM     17  C   UNL     1      21.374  13.129   2.630  1.00  0.00     0.158 A 
BRANCH  15  18
ATOM     18  O   UNL     1      19.403  11.745   2.823  1.00  0.00    -0.504 OA
ATOM     19  H   UNL     1      19.721  11.118   2.093  1.00  0.00     0.293 HD
ENDBRANCH  15  18
BRANCH  17  20
ATOM     20  O   UNL     1      21.994  12.126   1.888  1.00  0.00    -0.504 OA
ATOM     21  H   UNL     1      21.457  11.412   1.409  1.00  0.00     0.293 HD
ENDBRANCH  17  20
ENDBRANCH   1  12
BRANCH   6  22
ATOM     22  O   UNL     1      24.643  21.040   4.218  1.00  0.00    -0.507 OA
ATOM     23  H   UNL     1      25.635  20.976   4.022  1.00  0.00     0.293 HD
ENDBRANCH   6  22
BRANCH   8  24
ATOM     24  O   UNL     1      23.407  19.999   8.765  1.00  0.00    -0.508 OA
ATOM     25  H   UNL     1      23.948  19.471   9.440  1.00  0.00     0.293 HD
ENDBRANCH   8  24
TORSDOF 5
ENDMDL
MODEL 6
REMARK VINA RESULT:    -5.293      3.635      7.830
REMARK INTER + INTRA:          -6.499
REMARK INTER:                  -6.203
REMARK INTRA:                  -0.297
REMARK UNBOUND:                -0.278
REMARK SMILES O=c1cc(-c2ccc(O)c(O)c2)oc2cc(O)cc(O)c12
REMARK SMILES IDX 4 1 3 2 2 3 1 4 21 5 19 6 18 7 16 8 15 9 14 10 13 11 5 12
REMARK SMILES IDX 6 13 7 14 8 15 12 16 10 17 9 18 11 20 20 22 17 24
REMARK H PARENT 9 19 11 21 20 23 17 25
REMARK Flexibility Score: inf
ROOT
ATOM      1  C   UNL     1      23.654  19.195   7.101  1.00  0.00     0.138 A 
ATOM      2  C   UNL     1      24.764  20.017   7.360  1.00  0.00     0.100 A 
ATOM      3  C   UNL     1      24.968  20.509   8.649  1.00  0.00     0.197 A 
ATOM      4  O   UNL     1      25.966  21.247   8.871  1.00  0.00    -0.289 OA
ATOM      5  C   UNL     1      24.059  20.178   9.673  1.00  0.00     0.107 A 
ATOM      6  C   UNL     1      24.192  20.633  11.006  1.00  0.00     0.134 A 
ATOM      7  C   UNL     1      23.239  20.262  11.966  1.00  0.00     0.093 A 
ATOM      8  C   UNL     1      22.158  19.448  11.620  1.00  0.00     0.123 A 
ATOM      9  C   UNL     1      22.020  18.996  10.303  1.00  0.00     0.094 A 
ATOM     10  C   UNL     1      22.960  19.353   9.332  1.00  0.00     0.146 A 
ATOM     11  O   UNL     1      22.807  18.909   8.089  1.00  0.00    -0.456 OA
ENDROOT
BRANCH   1  12
ATOM     12  C   UNL     1      23.385  18.644   5.749  1.00  0.00     0.021 A 
ATOM     13  C   UNL     1      24.455  18.180   4.965  1.00  0.00     0.016 A 
ATOM     14  C   UNL     1      24.228  17.664   3.687  1.00  0.00     0.051 A 
ATOM     15  C   UNL     1      22.930  17.614   3.166  1.00  0.00     0.157 A 
ATOM     16  C   UNL     1      22.083  18.603   5.213  1.00  0.00     0.062 A 
ATOM     17  C   UNL     1      21.855  18.087   3.928  1.00  0.00     0.158 A 
BRANCH  15  18
ATOM     18  O   UNL     1      22.699  17.099   1.891  1.00  0.00    -0.504 OA
ATOM     19  H   UNL     1      21.790  16.742   1.620  1.00  0.00     0.293 HD
ENDBRANCH  15  18
BRANCH  17  20
ATOM     20  O   UNL     1      20.565  18.046   3.402  1.00  0.00    -0.504 OA
ATOM     21  H   UNL     1      19.902  17.331   3.679  1.00  0.00     0.293 HD
ENDBRANCH  17  20
ENDBRANCH   1  12
BRANCH   6  22
ATOM     22  O   UNL     1      25.262  21.447  11.382  1.00  0.00    -0.507 OA
ATOM     23  H   UNL     1      25.951  21.764  10.710  1.00  0.00     0.293 HD
ENDBRANCH   6  22
BRANCH   8  24
ATOM     24  O   UNL     1      21.226  19.095  12.593  1.00  0.00    -0.508 OA
ATOM     25  H   UNL     1      20.934  19.751  13.309  1.00  0.00     0.293 HD
ENDBRANCH   8  24
TORSDOF 5
ENDMDL
MODEL 7
REMARK VINA RESULT:    -4.697      5.665      8.991
REMARK INTER + INTRA:          -5.798
REMARK INTER:                  -5.485
REMARK INTRA:                  -0.313
REMARK UNBOUND:                -0.278
REMARK SMILES O=c1cc(-c2ccc(O)c(O)c2)oc2cc(O)cc(O)c12
REMARK SMILES IDX 4 1 3 2 2 3 1 4 21 5 19 6 18 7 16 8 15 9 14 10 13 11 5 12
REMARK SMILES IDX 6 13 7 14 8 15 12 16 10 17 9 18 11 20 20 22 17 24
REMARK H PARENT 9 19 11 21 20 23 17 25
REMARK Flexibility Score: inf
ROOT
ATOM      1  C   UNL     1      21.283  19.767  10.549  1.00  0.00     0.138 A 
ATOM      2  C   UNL     1      22.383  20.190  11.313  1.00  0.00     0.100 A 
ATOM      3  C   UNL     1      23.620  20.369  10.694  1.00  0.00     0.197 A 
ATOM      4  O   UNL     1      24.603  20.747  11.388  1.00  0.00    -0.289 OA
ATOM      5  C   UNL     1      23.751  20.120   9.313  1.00  0.00     0.107 A 
ATOM      6  C   UNL     1      24.968  20.278   8.608  1.00  0.00     0.134 A 
ATOM      7  C   UNL     1      25.015  20.003   7.233  1.00  0.00     0.093 A 
ATOM      8  C   UNL     1      23.873  19.576   6.552  1.00  0.00     0.123 A 
ATOM      9  C   UNL     1      22.667  19.417   7.244  1.00  0.00     0.094 A 
ATOM     10  C   UNL     1      22.599  19.687   8.614  1.00  0.00     0.146 A 
ATOM     11  O   UNL     1      21.441  19.530   9.248  1.00  0.00    -0.456 OA
ENDROOT
BRANCH   1  12
ATOM     12  C   UNL     1      19.943  19.558  11.154  1.00  0.00     0.021 A 
ATOM     13  C   UNL     1      19.832  19.368  12.542  1.00  0.00     0.016 A 
ATOM     14  C   UNL     1      18.584  19.161  13.133  1.00  0.00     0.051 A 
ATOM     15  C   UNL     1      17.426  19.131  12.347  1.00  0.00     0.157 A 
ATOM     16  C   UNL     1      18.775  19.512  10.367  1.00  0.00     0.062 A 
ATOM     17  C   UNL     1      17.522  19.303  10.961  1.00  0.00     0.158 A 
BRANCH  15  18
ATOM     18  O   UNL     1      16.178  18.927  12.934  1.00  0.00    -0.504 OA
ATOM     19  H   UNL     1      16.043  19.012  13.935  1.00  0.00     0.293 HD
ENDBRANCH  15  18
BRANCH  17  20
ATOM     20  O   UNL     1      16.369  19.261  10.180  1.00  0.00    -0.504 OA
ATOM     21  H   UNL     1      15.681  20.005  10.209  1.00  0.00     0.293 HD
ENDBRANCH  17  20
ENDBRANCH   1  12
BRANCH   6  22
ATOM     22  O   UNL     1      26.125  20.703   9.262  1.00  0.00    -0.507 OA
ATOM     23  H   UNL     1      27.048  20.472   8.913  1.00  0.00     0.293 HD
ENDBRANCH   6  22
BRANCH   8  24
ATOM     24  O   UNL     1      23.948  19.310   5.186  1.00  0.00    -0.508 OA
ATOM     25  H   UNL     1      24.496  18.538   4.827  1.00  0.00     0.293 HD
ENDBRANCH   8  24
TORSDOF 5
ENDMDL
MODEL 8
REMARK VINA RESULT:    -4.357      2.262      2.957
REMARK INTER + INTRA:          -5.399
REMARK INTER:                  -5.084
REMARK INTRA:                  -0.315
REMARK UNBOUND:                -0.278
REMARK SMILES O=c1cc(-c2ccc(O)c(O)c2)oc2cc(O)cc(O)c12
REMARK SMILES IDX 4 1 3 2 2 3 1 4 21 5 19 6 18 7 16 8 15 9 14 10 13 11 5 12
REMARK SMILES IDX 6 13 7 14 8 15 12 16 10 17 9 18 11 20 20 22 17 24
REMARK H PARENT 9 19 11 21 20 23 17 25
REMARK Flexibility Score: inf
ROOT
ATOM      1  C   UNL     1      23.719  17.943   5.793  1.00  0.00     0.138 A 
ATOM      2  C   UNL     1      24.566  17.530   4.753  1.00  0.00     0.100 A 
ATOM      3  C   UNL     1      24.091  16.634   3.795  1.00  0.00     0.197 A 
ATOM      4  O   UNL     1      24.860  16.267   2.865  1.00  0.00    -0.289 OA
ATOM      5  C   UNL     1      22.769  16.154   3.886  1.00  0.00     0.107 A 
ATOM      6  C   UNL     1      22.208  15.246   2.957  1.00  0.00     0.134 A 
ATOM      7  C   UNL     1      20.884  14.811   3.122  1.00  0.00     0.093 A 
ATOM      8  C   UNL     1      20.113  15.267   4.195  1.00  0.00     0.123 A 
ATOM      9  C   UNL     1      20.663  16.164   5.117  1.00  0.00     0.094 A 
ATOM     10  C   UNL     1      21.980  16.609   4.969  1.00  0.00     0.146 A 
ATOM     11  O   UNL     1      22.478  17.464   5.857  1.00  0.00    -0.456 OA
ENDROOT
BRANCH   1  12
ATOM     12  C   UNL     1      24.171  18.893   6.842  1.00  0.00     0.021 A 
ATOM     13  C   UNL     1      25.360  19.617   6.654  1.00  0.00     0.016 A 
ATOM     14  C   UNL     1      25.811  20.510   7.629  1.00  0.00     0.051 A 
ATOM     15  C   UNL     1      25.085  20.688   8.812  1.00  0.00     0.157 A 
ATOM     16  C   UNL     1      23.453  19.067   8.042  1.00  0.00     0.062 A 
ATOM     17  C   UNL     1      23.906  19.962   9.022  1.00  0.00     0.158 A 
BRANCH  15  18
ATOM     18  O   UNL     1      25.530  21.580   9.787  1.00  0.00    -0.504 OA
ATOM     19  H   UNL     1      25.494  22.582   9.644  1.00  0.00     0.293 HD
ENDBRANCH  15  18
BRANCH  17  20
ATOM     20  O   UNL     1      23.192  20.133  10.206  1.00  0.00    -0.504 OA
ATOM     21  H   UNL     1      22.905  21.052  10.524  1.00  0.00     0.293 HD
ENDBRANCH  17  20
ENDBRANCH   1  12
BRANCH   6  22
ATOM     22  O   UNL     1      22.954  14.774   1.876  1.00  0.00    -0.507 OA
ATOM     23  H   UNL     1      23.964  14.844   1.856  1.00  0.00     0.293 HD
ENDBRANCH   6  22
BRANCH   8  24
ATOM     24  O   UNL     1      18.802  14.819   4.335  1.00  0.00    -0.508 OA
ATOM     25  H   UNL     1      18.147  15.284   4.954  1.00  0.00     0.293 HD
ENDBRANCH   8  24
TORSDOF 5
ENDMDL
