MODEL 1
REMARK VINA RESULT:    -3.073      0.000      0.000
REMARK INTER + INTRA:          -4.016
REMARK INTER:                  -3.701
REMARK INTRA:                  -0.315
REMARK UNBOUND:                -0.315
REMARK SMILES O=c1c(O)c(-c2ccc(O)c(O)c2)oc2cc(O)cc(O)c12
REMARK SMILES IDX 5 1 3 2 2 3 1 4 22 5 20 6 19 7 17 8 16 9 15 10 14 11 6 12
REMARK SMILES IDX 7 13 8 14 9 15 13 16 11 17 10 18 12 20 4 22 21 24 18 26
REMARK H PARENT 10 19 12 21 4 23 21 25 18 27
REMARK Flexibility Score: inf
ROOT
ATOM      1  C   UNL     1      25.863  37.406  23.892  1.00  0.00     0.180 A 
ATOM      2  C   UNL     1      26.107  38.146  22.721  1.00  0.00     0.208 A 
ATOM      3  C   UNL     1      26.477  37.464  21.550  1.00  0.00     0.238 A 
ATOM      4  O   UNL     1      26.746  38.134  20.520  1.00  0.00    -0.285 OA
ATOM      5  C   UNL     1      26.580  36.052  21.560  1.00  0.00     0.111 A 
ATOM      6  C   UNL     1      26.908  35.255  20.422  1.00  0.00     0.134 A 
ATOM      7  C   UNL     1      27.112  33.878  20.578  1.00  0.00     0.093 A 
ATOM      8  C   UNL     1      26.936  33.261  21.818  1.00  0.00     0.123 A 
ATOM      9  C   UNL     1      26.558  34.020  22.923  1.00  0.00     0.094 A 
ATOM     10  C   UNL     1      26.383  35.401  22.806  1.00  0.00     0.146 A 
ATOM     11  O   UNL     1      26.034  36.090  23.886  1.00  0.00    -0.452 OA
ENDROOT
BRANCH   1  12
ATOM     12  C   UNL     1      25.446  38.051  25.157  1.00  0.00     0.025 A 
ATOM     13  C   UNL     1      24.109  38.421  25.384  1.00  0.00     0.016 A 
ATOM     14  C   UNL     1      23.734  39.007  26.597  1.00  0.00     0.051 A 
ATOM     15  C   UNL     1      24.684  39.220  27.604  1.00  0.00     0.157 A 
ATOM     16  C   UNL     1      26.391  38.248  26.178  1.00  0.00     0.062 A 
ATOM     17  C   UNL     1      26.019  38.834  27.393  1.00  0.00     0.158 A 
BRANCH  15  18
ATOM     18  O   UNL     1      24.308  39.805  28.811  1.00  0.00    -0.504 OA
ATOM     19  H   UNL     1      24.719  40.675  29.131  1.00  0.00     0.293 HD
ENDBRANCH  15  18
BRANCH  17  20
ATOM     20  O   UNL     1      26.988  39.025  28.377  1.00  0.00    -0.504 OA
ATOM     21  H   UNL     1      27.933  38.671  28.279  1.00  0.00     0.293 HD
ENDBRANCH  17  20
ENDBRANCH   1  12
BRANCH   2  22
ATOM     22  O   UNL     1      26.019  39.540  22.739  1.00  0.00    -0.502 OA
ATOM     23  H   UNL     1      26.597  40.113  23.342  1.00  0.00     0.293 HD
ENDBRANCH   2  22
BRANCH   6  24
ATOM     24  O   UNL     1      27.017  35.759  19.122  1.00  0.00    -0.507 OA
ATOM     25  H   UNL     1      26.938  36.734  18.875  1.00  0.00     0.293 HD
ENDBRANCH   6  24
BRANCH   8  26
ATOM     26  O   UNL     1      27.125  31.888  21.961  1.00  0.00    -0.508 OA
ATOM     27  H   UNL     1      28.051  31.478  21.967  1.00  0.00     0.293 HD
ENDBRANCH   8  26
TORSDOF 6
ENDMDL
MODEL 2
REMARK VINA RESULT:    -2.476     12.225     15.264
REMARK INTER + INTRA:          -3.297
REMARK INTER:                  -3.087
REMARK INTRA:                  -0.210
REMARK UNBOUND:                -0.315
REMARK SMILES O=c1c(O)c(-c2ccc(O)c(O)c2)oc2cc(O)cc(O)c12
REMARK SMILES IDX 5 1 3 2 2 3 1 4 22 5 20 6 19 7 17 8 16 9 15 10 14 11 6 12
REMARK SMILES IDX 7 13 8 14 9 15 13 16 11 17 10 18 12 20 4 22 21 24 18 26
REMARK H PARENT 10 19 12 21 4 23 21 25 18 27
REMARK Flexibility Score: inf
ROOT
ATOM      1  C   UNL     1      12.091  39.211  28.947  1.00  0.00     0.180 A 
ATOM      2  C   UNL     1      13.250  39.223  29.742  1.00  0.00     0.208 A 
ATOM      3  C   UNL     1      14.499  39.390  29.123  1.00  0.00     0.238 A 
ATOM      4  O   UNL     1      15.537  39.346  29.834  1.00  0.00    -0.285 OA
ATOM      5  C   UNL     1      14.572  39.560  27.719  1.00  0.00     0.111 A 
ATOM      6  C   UNL     1      15.781  39.778  26.991  1.00  0.00     0.134 A 
ATOM      7  C   UNL     1      15.749  39.802  25.591  1.00  0.00     0.093 A 
ATOM      8  C   UNL     1      14.544  39.682  24.896  1.00  0.00     0.123 A 
ATOM      9  C   UNL     1      13.351  39.528  25.600  1.00  0.00     0.094 A 
ATOM     10  C   UNL     1      13.356  39.464  26.995  1.00  0.00     0.146 A 
ATOM     11  O   UNL     1      12.198  39.306  27.627  1.00  0.00    -0.452 OA
ENDROOT
BRANCH   1  12
ATOM     12  C   UNL     1      10.738  39.064  29.529  1.00  0.00     0.025 A 
ATOM     13  C   UNL     1       9.815  40.125  29.512  1.00  0.00     0.016 A 
ATOM     14  C   UNL     1       8.535  39.956  30.046  1.00  0.00     0.051 A 
ATOM     15  C   UNL     1       8.153  38.723  30.592  1.00  0.00     0.157 A 
ATOM     16  C   UNL     1      10.343  37.824  30.059  1.00  0.00     0.062 A 
ATOM     17  C   UNL     1       9.062  37.652  30.594  1.00  0.00     0.158 A 
BRANCH  15  18
ATOM     18  O   UNL     1       6.876  38.558  31.125  1.00  0.00    -0.504 OA
ATOM     19  H   UNL     1       6.203  37.925  30.705  1.00  0.00     0.293 HD
ENDBRANCH  15  18
BRANCH  17  20
ATOM     20  O   UNL     1       8.711  36.410  31.123  1.00  0.00    -0.504 OA
ATOM     21  H   UNL     1       9.394  35.676  31.272  1.00  0.00     0.293 HD
ENDBRANCH  17  20
ENDBRANCH   1  12
BRANCH   2  22
ATOM     22  O   UNL     1      13.157  39.032  31.123  1.00  0.00    -0.502 OA
ATOM     23  H   UNL     1      13.838  38.494  31.645  1.00  0.00     0.293 HD
ENDBRANCH   2  22
BRANCH   6  24
ATOM     24  O   UNL     1      17.024  40.002  27.591  1.00  0.00    -0.507 OA
ATOM     25  H   UNL     1      17.724  40.639  27.242  1.00  0.00     0.293 HD
ENDBRANCH   6  24
BRANCH   8  26
ATOM     26  O   UNL     1      14.519  39.723  23.504  1.00  0.00    -0.508 OA
ATOM     27  H   UNL     1      13.730  39.366  22.977  1.00  0.00     0.293 HD
ENDBRANCH   8  26
TORSDOF 6
ENDMDL
MODEL 3
REMARK VINA RESULT:    -1.330      1.692      6.870
REMARK INTER + INTRA:          -1.917
REMARK INTER:                  -1.687
REMARK INTRA:                  -0.230
REMARK UNBOUND:                -0.315
REMARK SMILES O=c1c(O)c(-c2ccc(O)c(O)c2)oc2cc(O)cc(O)c12
REMARK SMILES IDX 5 1 3 2 2 3 1 4 22 5 20 6 19 7 17 8 16 9 15 10 14 11 6 12
REMARK SMILES IDX 7 13 8 14 9 15 13 16 11 17 10 18 12 20 4 22 21 24 18 26
REMARK H PARENT 10 19 12 21 4 23 21 25 18 27
REMARK Flexibility Score: inf
ROOT
ATOM      1  C   UNL     1      25.705  37.842  24.756  1.00  0.00     0.180 A 
ATOM      2  C   UNL     1      24.767  38.863  24.991  1.00  0.00     0.208 A 
ATOM      3  C   UNL     1      24.497  39.248  26.313  1.00  0.00     0.238 A 
ATOM      4  O   UNL     1      23.617  40.124  26.520  1.00  0.00    -0.285 OA
ATOM      5  C   UNL     1      25.182  38.622  27.383  1.00  0.00     0.111 A 
ATOM      6  C   UNL     1      25.017  38.962  28.760  1.00  0.00     0.134 A 
ATOM      7  C   UNL     1      25.647  38.188  29.743  1.00  0.00     0.093 A 
ATOM      8  C   UNL     1      26.487  37.128  29.395  1.00  0.00     0.123 A 
ATOM      9  C   UNL     1      26.701  36.825  28.052  1.00  0.00     0.094 A 
ATOM     10  C   UNL     1      26.057  37.557  27.051  1.00  0.00     0.146 A 
ATOM     11  O   UNL     1      26.280  37.228  25.783  1.00  0.00    -0.452 OA
ENDROOT
BRANCH   1  12
ATOM     12  C   UNL     1      26.060  37.397  23.389  1.00  0.00     0.025 A 
ATOM     13  C   UNL     1      26.778  38.229  22.512  1.00  0.00     0.016 A 
ATOM     14  C   UNL     1      27.122  37.779  21.235  1.00  0.00     0.051 A 
ATOM     15  C   UNL     1      26.767  36.489  20.819  1.00  0.00     0.157 A 
ATOM     16  C   UNL     1      25.724  36.097  22.975  1.00  0.00     0.062 A 
ATOM     17  C   UNL     1      26.067  35.644  21.697  1.00  0.00     0.158 A 
BRANCH  15  18
ATOM     18  O   UNL     1      27.111  36.044  19.545  1.00  0.00    -0.504 OA
ATOM     19  H   UNL     1      26.513  36.214  18.743  1.00  0.00     0.293 HD
ENDBRANCH  15  18
BRANCH  17  20
ATOM     20  O   UNL     1      25.705  34.352  21.317  1.00  0.00    -0.504 OA
ATOM     21  H   UNL     1      26.022  33.937  20.449  1.00  0.00     0.293 HD
ENDBRANCH  17  20
ENDBRANCH   1  12
BRANCH   2  22
ATOM     22  O   UNL     1      24.087  39.452  23.921  1.00  0.00    -0.502 OA
ATOM     23  H   UNL     1      23.311  38.999  23.455  1.00  0.00     0.293 HD
ENDBRANCH   2  22
BRANCH   6  24
ATOM     24  O   UNL     1      24.275  40.058  29.210  1.00  0.00    -0.507 OA
ATOM     25  H   UNL     1      23.945  40.180  30.156  1.00  0.00     0.293 HD
ENDBRANCH   6  24
BRANCH   8  26
ATOM     26  O   UNL     1      27.123  36.373  30.378  1.00  0.00    -0.508 OA
ATOM     27  H   UNL     1      26.805  36.381  31.341  1.00  0.00     0.293 HD
ENDBRANCH   8  26
TORSDOF 6
ENDMDL
