MODEL 1
REMARK VINA RESULT:    -3.299      0.000      0.000
REMARK INTER + INTRA:          -8.906
REMARK INTER:                  -6.193
REMARK INTRA:                  -2.713
REMARK UNBOUND:                -2.713
REMARK SMILES CCCCCCCCC=CCCCCCCCC(=O)[O-]
REMARK SMILES IDX 10 1 9 2 11 3 12 4 13 5 14 6 15 7 16 8 17 9 18 10 19 11
REMARK SMILES IDX 20 12 8 13 7 14 6 15 5 16 4 17 3 18 2 19 1 20
REMARK H PARENT
REMARK Flexibility Score: inf
ROOT
ATOM      1  C   UNL     1       9.498   7.900  30.529  1.00  0.00    -0.031 C 
ATOM      2  C   UNL     1      10.437   8.166  31.457  1.00  0.00    -0.031 C 
ENDROOT
BRANCH   1   3
ATOM      3  C   UNL     1       8.065   7.526  30.817  1.00  0.00     0.027 C 
BRANCH   3   4
ATOM      4  C   UNL     1       7.888   6.003  30.917  1.00  0.00     0.004 C 
BRANCH   4   5
ATOM      5  C   UNL     1       8.517   5.254  29.730  1.00  0.00     0.000 C 
BRANCH   5   6
ATOM      6  C   UNL     1       9.216   3.954  30.160  1.00  0.00     0.000 C 
BRANCH   6   7
ATOM      7  C   UNL     1      10.601   4.202  30.781  1.00  0.00     0.000 C 
BRANCH   7   8
ATOM      8  C   UNL     1      11.701   4.154  29.708  1.00  0.00     0.006 C 
BRANCH   8   9
ATOM      9  C   UNL     1      12.242   5.550  29.365  1.00  0.00     0.053 C 
BRANCH   9  10
ATOM     10  C   UNL     1      13.080   5.540  28.124  1.00  0.00     0.041 C 
ATOM     11  O   UNL     1      14.108   6.263  28.045  1.00  0.00    -0.550 OA
ATOM     12  O   UNL     1      12.698   4.766  27.037  1.00  0.00    -0.550 OA
ENDBRANCH   9  10
ENDBRANCH   8   9
ENDBRANCH   7   8
ENDBRANCH   6   7
ENDBRANCH   5   6
ENDBRANCH   4   5
ENDBRANCH   3   4
ENDBRANCH   1   3
BRANCH   2  13
ATOM     13  C   UNL     1      10.219   8.195  32.954  1.00  0.00     0.027 C 
BRANCH  13  14
ATOM     14  C   UNL     1      11.376   7.588  33.769  1.00  0.00     0.004 C 
BRANCH  14  15
ATOM     15  C   UNL     1      12.063   6.410  33.052  1.00  0.00     0.000 C 
BRANCH  15  16
ATOM     16  C   UNL     1      12.721   5.426  34.031  1.00  0.00     0.000 C 
BRANCH  16  17
ATOM     17  C   UNL     1      11.824   4.222  34.361  1.00  0.00    -0.000 C 
BRANCH  17  18
ATOM     18  C   UNL     1      11.040   4.428  35.674  1.00  0.00    -0.000 C 
BRANCH  18  19
ATOM     19  C   UNL     1       9.553   4.752  35.458  1.00  0.00    -0.003 C 
ATOM     20  C   UNL     1       9.023   4.263  34.115  1.00  0.00     0.004 C 
ENDBRANCH  18  19
ENDBRANCH  17  18
ENDBRANCH  16  17
ENDBRANCH  15  16
ENDBRANCH  14  15
ENDBRANCH  13  14
ENDBRANCH   2  13
TORSDOF 15
ENDMDL
MODEL 2
REMARK VINA RESULT:    -3.258      3.752      5.844
REMARK INTER + INTRA:          -8.828
REMARK INTER:                  -6.210
REMARK INTRA:                  -2.618
REMARK UNBOUND:                -2.713
REMARK SMILES CCCCCCCCC=CCCCCCCCC(=O)[O-]
REMARK SMILES IDX 10 1 9 2 11 3 12 4 13 5 14 6 15 7 16 8 17 9 18 10 19 11
REMARK SMILES IDX 20 12 8 13 7 14 6 15 5 16 4 17 3 18 2 19 1 20
REMARK H PARENT
REMARK Flexibility Score: inf
ROOT
ATOM      1  C   UNL     1       8.967   7.965  30.989  1.00  0.00    -0.031 C 
ATOM      2  C   UNL     1       8.087   6.948  31.063  1.00  0.00    -0.031 C 
ENDROOT
BRANCH   1   3
ATOM      3  C   UNL     1      10.453   7.852  31.227  1.00  0.00     0.027 C 
BRANCH   3   4
ATOM      4  C   UNL     1      10.843   8.376  32.617  1.00  0.00     0.004 C 
BRANCH   4   5
ATOM      5  C   UNL     1      10.780   7.286  33.701  1.00  0.00     0.000 C 
BRANCH   5   6
ATOM      6  C   UNL     1      11.787   6.150  33.450  1.00  0.00     0.000 C 
BRANCH   6   7
ATOM      7  C   UNL     1      11.220   4.766  33.805  1.00  0.00     0.000 C 
BRANCH   7   8
ATOM      8  C   UNL     1       9.875   4.894  34.539  1.00  0.00     0.006 C 
BRANCH   8   9
ATOM      9  C   UNL     1       9.967   4.454  36.007  1.00  0.00     0.053 C 
BRANCH   9  10
ATOM     10  C   UNL     1       8.645   4.544  36.706  1.00  0.00     0.041 C 
ATOM     11  O   UNL     1       7.875   3.549  36.738  1.00  0.00    -0.550 OA
ATOM     12  O   UNL     1       8.246   5.742  37.281  1.00  0.00    -0.550 OA
ENDBRANCH   9  10
ENDBRANCH   8   9
ENDBRANCH   7   8
ENDBRANCH   6   7
ENDBRANCH   5   6
ENDBRANCH   4   5
ENDBRANCH   3   4
ENDBRANCH   1   3
BRANCH   2  13
ATOM     13  C   UNL     1       8.426   5.501  31.340  1.00  0.00     0.027 C 
BRANCH  13  14
ATOM     14  C   UNL     1       8.907   4.720  30.104  1.00  0.00     0.004 C 
BRANCH  14  15
ATOM     15  C   UNL     1      10.341   4.178  30.256  1.00  0.00     0.000 C 
BRANCH  15  16
ATOM     16  C   UNL     1      10.401   2.644  30.202  1.00  0.00     0.000 C 
BRANCH  16  17
ATOM     17  C   UNL     1       9.009   1.993  30.163  1.00  0.00    -0.000 C 
BRANCH  17  18
ATOM     18  C   UNL     1       8.717   1.176  31.439  1.00  0.00    -0.000 C 
BRANCH  18  19
ATOM     19  C   UNL     1       8.287   2.039  32.637  1.00  0.00    -0.003 C 
ATOM     20  C   UNL     1       8.162   1.244  33.933  1.00  0.00     0.004 C 
ENDBRANCH  18  19
ENDBRANCH  17  18
ENDBRANCH  16  17
ENDBRANCH  15  16
ENDBRANCH  14  15
ENDBRANCH  13  14
ENDBRANCH   2  13
TORSDOF 15
ENDMDL
MODEL 3
REMARK VINA RESULT:    -3.237      2.633      5.550
REMARK INTER + INTRA:          -8.789
REMARK INTER:                  -6.031
REMARK INTRA:                  -2.758
REMARK UNBOUND:                -2.713
REMARK SMILES CCCCCCCCC=CCCCCCCCC(=O)[O-]
REMARK SMILES IDX 10 1 9 2 11 3 12 4 13 5 14 6 15 7 16 8 17 9 18 10 19 11
REMARK SMILES IDX 20 12 8 13 7 14 6 15 5 16 4 17 3 18 2 19 1 20
REMARK H PARENT
REMARK Flexibility Score: inf
ROOT
ATOM      1  C   UNL     1       8.738   7.952  31.523  1.00  0.00    -0.031 C 
ATOM      2  C   UNL     1       7.917   7.283  30.692  1.00  0.00    -0.031 C 
ENDROOT
BRANCH   1   3
ATOM      3  C   UNL     1      10.231   8.090  31.352  1.00  0.00     0.027 C 
BRANCH   3   4
ATOM      4  C   UNL     1      10.927   8.394  32.687  1.00  0.00     0.004 C 
BRANCH   4   5
ATOM      5  C   UNL     1      11.119   7.139  33.555  1.00  0.00     0.000 C 
BRANCH   5   6
ATOM      6  C   UNL     1      11.737   5.970  32.769  1.00  0.00     0.000 C 
BRANCH   6   7
ATOM      7  C   UNL     1      10.934   4.666  32.915  1.00  0.00     0.000 C 
BRANCH   7   8
ATOM      8  C   UNL     1       9.599   4.920  33.632  1.00  0.00     0.006 C 
BRANCH   8   9
ATOM      9  C   UNL     1       8.429   4.179  32.969  1.00  0.00     0.053 C 
BRANCH   9  10
ATOM     10  C   UNL     1       8.717   2.721  32.785  1.00  0.00     0.041 C 
ATOM     11  O   UNL     1       8.720   2.214  31.633  1.00  0.00    -0.550 OA
ATOM     12  O   UNL     1       8.937   1.914  33.892  1.00  0.00    -0.550 OA
ENDBRANCH   9  10
ENDBRANCH   8   9
ENDBRANCH   7   8
ENDBRANCH   6   7
ENDBRANCH   5   6
ENDBRANCH   4   5
ENDBRANCH   3   4
ENDBRANCH   1   3
BRANCH   2  13
ATOM     13  C   UNL     1       8.324   6.596  29.407  1.00  0.00     0.027 C 
BRANCH  13  14
ATOM     14  C   UNL     1       8.934   5.197  29.609  1.00  0.00     0.004 C 
BRANCH  14  15
ATOM     15  C   UNL     1      10.425   5.130  29.229  1.00  0.00     0.000 C 
BRANCH  15  16
ATOM     16  C   UNL     1      11.060   3.772  29.566  1.00  0.00     0.000 C 
BRANCH  16  17
ATOM     17  C   UNL     1      12.596   3.810  29.547  1.00  0.00    -0.000 C 
BRANCH  17  18
ATOM     18  C   UNL     1      13.137   5.241  29.342  1.00  0.00    -0.000 C 
BRANCH  18  19
ATOM     19  C   UNL     1      14.531   5.285  28.696  1.00  0.00    -0.003 C 
ATOM     20  C   UNL     1      14.673   6.390  27.654  1.00  0.00     0.004 C 
ENDBRANCH  18  19
ENDBRANCH  17  18
ENDBRANCH  16  17
ENDBRANCH  15  16
ENDBRANCH  14  15
ENDBRANCH  13  14
ENDBRANCH   2  13
TORSDOF 15
ENDMDL
MODEL 4
REMARK VINA RESULT:    -3.224      1.508      2.721
REMARK INTER + INTRA:          -8.765
REMARK INTER:                  -6.061
REMARK INTRA:                  -2.704
REMARK UNBOUND:                -2.713
REMARK SMILES CCCCCCCCC=CCCCCCCCC(=O)[O-]
REMARK SMILES IDX 10 1 9 2 11 3 12 4 13 5 14 6 15 7 16 8 17 9 18 10 19 11
REMARK SMILES IDX 20 12 8 13 7 14 6 15 5 16 4 17 3 18 2 19 1 20
REMARK H PARENT
REMARK Flexibility Score: inf
ROOT
ATOM      1  C   UNL     1       7.985   6.689  31.039  1.00  0.00    -0.031 C 
ATOM      2  C   UNL     1       8.676   7.845  31.041  1.00  0.00    -0.031 C 
ENDROOT
BRANCH   1   3
ATOM      3  C   UNL     1       8.554   5.331  31.373  1.00  0.00     0.027 C 
BRANCH   3   4
ATOM      4  C   UNL     1       8.997   4.579  30.109  1.00  0.00     0.004 C 
BRANCH   4   5
ATOM      5  C   UNL     1      10.514   4.327  30.070  1.00  0.00     0.000 C 
BRANCH   5   6
ATOM      6  C   UNL     1      11.177   4.930  28.820  1.00  0.00     0.000 C 
BRANCH   6   7
ATOM      7  C   UNL     1      12.407   5.789  29.156  1.00  0.00     0.000 C 
BRANCH   7   8
ATOM      8  C   UNL     1      13.699   5.111  28.673  1.00  0.00     0.006 C 
BRANCH   8   9
ATOM      9  C   UNL     1      14.690   6.111  28.061  1.00  0.00     0.053 C 
BRANCH   9  10
ATOM     10  C   UNL     1      14.467   6.298  26.592  1.00  0.00     0.041 C 
ATOM     11  O   UNL     1      13.819   7.292  26.169  1.00  0.00    -0.550 OA
ATOM     12  O   UNL     1      14.935   5.350  25.694  1.00  0.00    -0.550 OA
ENDBRANCH   9  10
ENDBRANCH   8   9
ENDBRANCH   7   8
ENDBRANCH   6   7
ENDBRANCH   5   6
ENDBRANCH   4   5
ENDBRANCH   3   4
ENDBRANCH   1   3
BRANCH   2  13
ATOM     13  C   UNL     1      10.129   8.009  31.428  1.00  0.00     0.027 C 
BRANCH  13  14
ATOM     14  C   UNL     1      10.352   8.295  32.925  1.00  0.00     0.004 C 
BRANCH  14  15
ATOM     15  C   UNL     1      11.449   7.412  33.549  1.00  0.00     0.000 C 
BRANCH  15  16
ATOM     16  C   UNL     1      10.916   6.048  34.013  1.00  0.00     0.000 C 
BRANCH  16  17
ATOM     17  C   UNL     1      11.755   4.870  33.492  1.00  0.00    -0.000 C 
BRANCH  17  18
ATOM     18  C   UNL     1      12.973   5.347  32.672  1.00  0.00    -0.000 C 
BRANCH  18  19
ATOM     19  C   UNL     1      14.041   4.260  32.470  1.00  0.00    -0.003 C 
ATOM     20  C   UNL     1      13.491   2.993  31.823  1.00  0.00     0.004 C 
ENDBRANCH  18  19
ENDBRANCH  17  18
ENDBRANCH  16  17
ENDBRANCH  15  16
ENDBRANCH  14  15
ENDBRANCH  13  14
ENDBRANCH   2  13
TORSDOF 15
ENDMDL
MODEL 5
REMARK VINA RESULT:    -3.221      1.791      4.279
REMARK INTER + INTRA:          -8.759
REMARK INTER:                  -6.236
REMARK INTRA:                  -2.523
REMARK UNBOUND:                -2.713
REMARK SMILES CCCCCCCCC=CCCCCCCCC(=O)[O-]
REMARK SMILES IDX 10 1 9 2 11 3 12 4 13 5 14 6 15 7 16 8 17 9 18 10 19 11
REMARK SMILES IDX 20 12 8 13 7 14 6 15 5 16 4 17 3 18 2 19 1 20
REMARK H PARENT
REMARK Flexibility Score: inf
ROOT
ATOM      1  C   UNL     1      11.633   5.263  33.188  1.00  0.00    -0.031 C 
ATOM      2  C   UNL     1      10.857   6.299  33.559  1.00  0.00    -0.031 C 
ENDROOT
BRANCH   1   3
ATOM      3  C   UNL     1      12.956   5.374  32.471  1.00  0.00     0.027 C 
BRANCH   3   4
ATOM      4  C   UNL     1      12.882   4.785  31.054  1.00  0.00     0.004 C 
BRANCH   4   5
ATOM      5  C   UNL     1      12.227   5.744  30.046  1.00  0.00     0.000 C 
BRANCH   5   6
ATOM      6  C   UNL     1      12.817   5.604  28.633  1.00  0.00     0.000 C 
BRANCH   6   7
ATOM      7  C   UNL     1      14.343   5.414  28.642  1.00  0.00     0.000 C 
BRANCH   7   8
ATOM      8  C   UNL     1      14.958   5.840  27.300  1.00  0.00     0.006 C 
BRANCH   8   9
ATOM      9  C   UNL     1      14.161   6.964  26.623  1.00  0.00     0.053 C 
BRANCH   9  10
ATOM     10  C   UNL     1      13.958   6.710  25.161  1.00  0.00     0.041 C 
ATOM     11  O   UNL     1      13.962   5.533  24.714  1.00  0.00    -0.550 OA
ATOM     12  O   UNL     1      13.810   7.777  24.287  1.00  0.00    -0.550 OA
ENDBRANCH   9  10
ENDBRANCH   8   9
ENDBRANCH   7   8
ENDBRANCH   6   7
ENDBRANCH   5   6
ENDBRANCH   4   5
ENDBRANCH   3   4
ENDBRANCH   1   3
BRANCH   2  13
ATOM     13  C   UNL     1      11.190   7.764  33.379  1.00  0.00     0.027 C 
BRANCH  13  14
ATOM     14  C   UNL     1      10.627   8.381  32.086  1.00  0.00     0.004 C 
BRANCH  14  15
ATOM     15  C   UNL     1       9.210   7.880  31.748  1.00  0.00     0.000 C 
BRANCH  15  16
ATOM     16  C   UNL     1       8.918   7.910  30.241  1.00  0.00     0.000 C 
BRANCH  16  17
ATOM     17  C   UNL     1       8.641   6.514  29.658  1.00  0.00    -0.000 C 
BRANCH  17  18
ATOM     18  C   UNL     1       8.568   5.434  30.757  1.00  0.00    -0.000 C 
BRANCH  18  19
ATOM     19  C   UNL     1       9.111   4.066  30.313  1.00  0.00    -0.003 C 
ATOM     20  C   UNL     1       9.258   3.078  31.465  1.00  0.00     0.004 C 
ENDBRANCH  18  19
ENDBRANCH  17  18
ENDBRANCH  16  17
ENDBRANCH  15  16
ENDBRANCH  14  15
ENDBRANCH  13  14
ENDBRANCH   2  13
TORSDOF 15
ENDMDL
MODEL 6
REMARK VINA RESULT:    -3.190      1.242      1.655
REMARK INTER + INTRA:          -8.700
REMARK INTER:                  -5.773
REMARK INTRA:                  -2.927
REMARK UNBOUND:                -2.713
REMARK SMILES CCCCCCCCC=CCCCCCCCC(=O)[O-]
REMARK SMILES IDX 10 1 9 2 11 3 12 4 13 5 14 6 15 7 16 8 17 9 18 10 19 11
REMARK SMILES IDX 20 12 8 13 7 14 6 15 5 16 4 17 3 18 2 19 1 20
REMARK H PARENT
REMARK Flexibility Score: inf
ROOT
ATOM      1  C   UNL     1       9.664   7.932  30.838  1.00  0.00    -0.031 C 
ATOM      2  C   UNL     1      10.565   8.209  31.800  1.00  0.00    -0.031 C 
ENDROOT
BRANCH   1   3
ATOM      3  C   UNL     1       8.218   7.568  31.074  1.00  0.00     0.027 C 
BRANCH   3   4
ATOM      4  C   UNL     1       7.994   6.052  30.970  1.00  0.00     0.004 C 
BRANCH   4   5
ATOM      5  C   UNL     1       8.727   5.425  29.772  1.00  0.00     0.000 C 
BRANCH   5   6
ATOM      6  C   UNL     1       9.194   3.987  30.056  1.00  0.00     0.000 C 
BRANCH   6   7
ATOM      7  C   UNL     1      10.688   3.778  29.757  1.00  0.00     0.000 C 
BRANCH   7   8
ATOM      8  C   UNL     1      11.392   5.121  29.510  1.00  0.00     0.006 C 
BRANCH   8   9
ATOM      9  C   UNL     1      12.857   5.106  29.972  1.00  0.00     0.053 C 
BRANCH   9  10
ATOM     10  C   UNL     1      13.811   5.218  28.823  1.00  0.00     0.041 C 
ATOM     11  O   UNL     1      14.770   4.410  28.712  1.00  0.00    -0.550 OA
ATOM     12  O   UNL     1      13.667   6.245  27.901  1.00  0.00    -0.550 OA
ENDBRANCH   9  10
ENDBRANCH   8   9
ENDBRANCH   7   8
ENDBRANCH   6   7
ENDBRANCH   5   6
ENDBRANCH   4   5
ENDBRANCH   3   4
ENDBRANCH   1   3
BRANCH   2  13
ATOM     13  C   UNL     1      10.287   8.261  33.286  1.00  0.00     0.027 C 
BRANCH  13  14
ATOM     14  C   UNL     1      10.482   6.916  34.009  1.00  0.00     0.004 C 
BRANCH  14  15
ATOM     15  C   UNL     1      11.509   6.002  33.313  1.00  0.00     0.000 C 
BRANCH  15  16
ATOM     16  C   UNL     1      11.044   4.540  33.240  1.00  0.00     0.000 C 
BRANCH  16  17
ATOM     17  C   UNL     1       9.973   4.201  34.289  1.00  0.00    -0.000 C 
BRANCH  17  18
ATOM     18  C   UNL     1       8.684   3.651  33.642  1.00  0.00    -0.000 C 
BRANCH  18  19
ATOM     19  C   UNL     1       8.494   2.139  33.840  1.00  0.00    -0.003 C 
ATOM     20  C   UNL     1       8.445   1.365  32.526  1.00  0.00     0.004 C 
ENDBRANCH  18  19
ENDBRANCH  17  18
ENDBRANCH  16  17
ENDBRANCH  15  16
ENDBRANCH  14  15
ENDBRANCH  13  14
ENDBRANCH   2  13
TORSDOF 15
ENDMDL
MODEL 7
REMARK VINA RESULT:    -3.179      2.439      4.880
REMARK INTER + INTRA:          -8.680
REMARK INTER:                  -6.085
REMARK INTRA:                  -2.595
REMARK UNBOUND:                -2.713
REMARK SMILES CCCCCCCCC=CCCCCCCCC(=O)[O-]
REMARK SMILES IDX 10 1 9 2 11 3 12 4 13 5 14 6 15 7 16 8 17 9 18 10 19 11
REMARK SMILES IDX 20 12 8 13 7 14 6 15 5 16 4 17 3 18 2 19 1 20
REMARK H PARENT
REMARK Flexibility Score: inf
ROOT
ATOM      1  C   UNL     1      11.489   5.679  33.924  1.00  0.00    -0.031 C 
ATOM      2  C   UNL     1      11.610   6.870  33.309  1.00  0.00    -0.031 C 
ENDROOT
BRANCH   1   3
ATOM      3  C   UNL     1      10.255   5.187  34.641  1.00  0.00     0.027 C 
BRANCH   3   4
ATOM      4  C   UNL     1       9.251   4.553  33.667  1.00  0.00     0.004 C 
BRANCH   4   5
ATOM      5  C   UNL     1       8.208   3.674  34.378  1.00  0.00     0.000 C 
BRANCH   5   6
ATOM      6  C   UNL     1       7.892   2.388  33.595  1.00  0.00     0.000 C 
BRANCH   6   7
ATOM      7  C   UNL     1       8.864   2.150  32.427  1.00  0.00     0.000 C 
BRANCH   7   8
ATOM      8  C   UNL     1       8.298   1.112  31.445  1.00  0.00     0.006 C 
BRANCH   8   9
ATOM      9  C   UNL     1       8.761   1.361  30.002  1.00  0.00     0.053 C 
BRANCH   9  10
ATOM     10  C   UNL     1       9.983   0.567  29.657  1.00  0.00     0.041 C 
ATOM     11  O   UNL     1      10.450   0.594  28.488  1.00  0.00    -0.550 OA
ATOM     12  O   UNL     1      10.579  -0.239  30.617  1.00  0.00    -0.550 OA
ENDBRANCH   9  10
ENDBRANCH   8   9
ENDBRANCH   7   8
ENDBRANCH   6   7
ENDBRANCH   5   6
ENDBRANCH   4   5
ENDBRANCH   3   4
ENDBRANCH   1   3
BRANCH   2  13
ATOM     13  C   UNL     1      10.521   7.911  33.171  1.00  0.00     0.027 C 
BRANCH  13  14
ATOM     14  C   UNL     1      10.126   8.219  31.715  1.00  0.00     0.004 C 
BRANCH  14  15
ATOM     15  C   UNL     1       8.602   8.208  31.491  1.00  0.00     0.000 C 
BRANCH  15  16
ATOM     16  C   UNL     1       8.090   6.853  30.981  1.00  0.00     0.000 C 
BRANCH  16  17
ATOM     17  C   UNL     1       8.877   6.336  29.767  1.00  0.00    -0.000 C 
BRANCH  17  18
ATOM     18  C   UNL     1       9.284   4.857  29.930  1.00  0.00    -0.000 C 
BRANCH  18  19
ATOM     19  C   UNL     1      10.759   4.664  30.320  1.00  0.00    -0.003 C 
ATOM     20  C   UNL     1      11.691   5.667  29.649  1.00  0.00     0.004 C 
ENDBRANCH  18  19
ENDBRANCH  17  18
ENDBRANCH  16  17
ENDBRANCH  15  16
ENDBRANCH  14  15
ENDBRANCH  13  14
ENDBRANCH   2  13
TORSDOF 15
ENDMDL
MODEL 8
REMARK VINA RESULT:    -3.167      1.355      4.166
REMARK INTER + INTRA:          -8.658
REMARK INTER:                  -5.844
REMARK INTRA:                  -2.814
REMARK UNBOUND:                -2.713
REMARK SMILES CCCCCCCCC=CCCCCCCCC(=O)[O-]
REMARK SMILES IDX 10 1 9 2 11 3 12 4 13 5 14 6 15 7 16 8 17 9 18 10 19 11
REMARK SMILES IDX 20 12 8 13 7 14 6 15 5 16 4 17 3 18 2 19 1 20
REMARK H PARENT
REMARK Flexibility Score: inf
ROOT
ATOM      1  C   UNL     1      10.284   3.094  35.015  1.00  0.00    -0.031 C 
ATOM      2  C   UNL     1      11.220   4.050  35.171  1.00  0.00    -0.031 C 
ENDROOT
BRANCH   1   3
ATOM      3  C   UNL     1      10.185   2.153  33.839  1.00  0.00     0.027 C 
BRANCH   3   4
ATOM      4  C   UNL     1       8.866   2.342  33.074  1.00  0.00     0.004 C 
BRANCH   4   5
ATOM      5  C   UNL     1       8.224   3.716  33.330  1.00  0.00     0.000 C 
BRANCH   5   6
ATOM      6  C   UNL     1       8.545   4.730  32.220  1.00  0.00     0.000 C 
BRANCH   6   7
ATOM      7  C   UNL     1       9.161   4.072  30.974  1.00  0.00     0.000 C 
BRANCH   7   8
ATOM      8  C   UNL     1      10.655   4.412  30.853  1.00  0.00     0.006 C 
BRANCH   8   9
ATOM      9  C   UNL     1      11.012   4.991  29.477  1.00  0.00     0.053 C 
BRANCH   9  10
ATOM     10  C   UNL     1      12.441   5.436  29.407  1.00  0.00     0.041 C 
ATOM     11  O   UNL     1      12.842   6.135  28.440  1.00  0.00    -0.550 OA
ATOM     12  O   UNL     1      13.339   5.037  30.386  1.00  0.00    -0.550 OA
ENDBRANCH   9  10
ENDBRANCH   8   9
ENDBRANCH   7   8
ENDBRANCH   6   7
ENDBRANCH   5   6
ENDBRANCH   4   5
ENDBRANCH   3   4
ENDBRANCH   1   3
BRANCH   2  13
ATOM     13  C   UNL     1      12.374   4.321  34.233  1.00  0.00     0.027 C 
BRANCH  13  14
ATOM     14  C   UNL     1      12.452   5.777  33.738  1.00  0.00     0.004 C 
BRANCH  14  15
ATOM     15  C   UNL     1      11.118   6.534  33.882  1.00  0.00     0.000 C 
BRANCH  15  16
ATOM     16  C   UNL     1      11.168   7.941  33.269  1.00  0.00     0.000 C 
BRANCH  16  17
ATOM     17  C   UNL     1       9.829   8.368  32.646  1.00  0.00    -0.000 C 
BRANCH  17  18
ATOM     18  C   UNL     1       9.751   8.014  31.146  1.00  0.00    -0.000 C 
BRANCH  18  19
ATOM     19  C   UNL     1       8.323   8.048  30.579  1.00  0.00    -0.003 C 
ATOM     20  C   UNL     1       8.231   7.506  29.156  1.00  0.00     0.004 C 
ENDBRANCH  18  19
ENDBRANCH  17  18
ENDBRANCH  16  17
ENDBRANCH  15  16
ENDBRANCH  14  15
ENDBRANCH  13  14
ENDBRANCH   2  13
TORSDOF 15
ENDMDL
MODEL 9
REMARK VINA RESULT:    -3.137      1.984      4.131
REMARK INTER + INTRA:          -8.600
REMARK INTER:                  -5.838
REMARK INTRA:                  -2.763
REMARK UNBOUND:                -2.713
REMARK SMILES CCCCCCCCC=CCCCCCCCC(=O)[O-]
REMARK SMILES IDX 10 1 9 2 11 3 12 4 13 5 14 6 15 7 16 8 17 9 18 10 19 11
REMARK SMILES IDX 20 12 8 13 7 14 6 15 5 16 4 17 3 18 2 19 1 20
REMARK H PARENT
REMARK Flexibility Score: inf
ROOT
ATOM      1  C   UNL     1       7.875   5.911  31.501  1.00  0.00    -0.031 C 
ATOM      2  C   UNL     1       8.546   4.749  31.385  1.00  0.00    -0.031 C 
ENDROOT
BRANCH   1   3
ATOM      3  C   UNL     1       8.005   7.091  30.569  1.00  0.00     0.027 C 
BRANCH   3   4
ATOM      4  C   UNL     1       8.775   8.247  31.226  1.00  0.00     0.004 C 
BRANCH   4   5
ATOM      5  C   UNL     1      10.279   7.953  31.367  1.00  0.00     0.000 C 
BRANCH   5   6
ATOM      6  C   UNL     1      10.787   8.168  32.802  1.00  0.00     0.000 C 
BRANCH   6   7
ATOM      7  C   UNL     1      10.680   6.901  33.667  1.00  0.00     0.000 C 
BRANCH   7   8
ATOM      8  C   UNL     1      12.033   6.177  33.751  1.00  0.00     0.006 C 
BRANCH   8   9
ATOM      9  C   UNL     1      12.057   4.886  32.921  1.00  0.00     0.053 C 
BRANCH   9  10
ATOM     10  C   UNL     1      13.126   4.908  31.873  1.00  0.00     0.041 C 
ATOM     11  O   UNL     1      12.860   5.285  30.701  1.00  0.00    -0.550 OA
ATOM     12  O   UNL     1      14.406   4.470  32.180  1.00  0.00    -0.550 OA
ENDBRANCH   9  10
ENDBRANCH   8   9
ENDBRANCH   7   8
ENDBRANCH   6   7
ENDBRANCH   5   6
ENDBRANCH   4   5
ENDBRANCH   3   4
ENDBRANCH   1   3
BRANCH   2  13
ATOM     13  C   UNL     1       9.508   4.388  30.275  1.00  0.00     0.027 C 
BRANCH  13  14
ATOM     14  C   UNL     1      10.077   2.961  30.377  1.00  0.00     0.004 C 
BRANCH  14  15
ATOM     15  C   UNL     1       8.992   1.872  30.273  1.00  0.00     0.000 C 
BRANCH  15  16
ATOM     16  C   UNL     1       8.947   0.965  31.512  1.00  0.00     0.000 C 
BRANCH  16  17
ATOM     17  C   UNL     1       9.703   1.556  32.713  1.00  0.00    -0.000 C 
BRANCH  17  18
ATOM     18  C   UNL     1       8.743   2.036  33.821  1.00  0.00    -0.000 C 
BRANCH  18  19
ATOM     19  C   UNL     1       9.309   3.186  34.670  1.00  0.00    -0.003 C 
ATOM     20  C   UNL     1       8.232   3.962  35.421  1.00  0.00     0.004 C 
ENDBRANCH  18  19
ENDBRANCH  17  18
ENDBRANCH  16  17
ENDBRANCH  15  16
ENDBRANCH  14  15
ENDBRANCH  13  14
ENDBRANCH   2  13
TORSDOF 15
ENDMDL
