MODEL 1
REMARK VINA RESULT:    -6.776      0.000      0.000
REMARK INTER + INTRA:          -8.212
REMARK INTER:                  -7.964
REMARK INTRA:                  -0.248
REMARK UNBOUND:                -0.248
REMARK SMILES O=c1c(O)c(-c2ccc(O)cc2)oc2cc(O)cc(O)c12
REMARK SMILES IDX 5 1 3 2 2 3 1 4 21 5 19 6 18 7 16 8 15 9 14 10 13 11 6 12
REMARK SMILES IDX 7 13 8 14 9 15 12 16 11 17 10 18 4 20 20 22 17 24
REMARK H PARENT 10 19 4 21 20 23 17 25
REMARK Flexibility Score: inf
ROOT
ATOM      1  C   UNL     1       8.917  16.570 -19.144  1.00  0.00     0.180 A 
ATOM      2  C   UNL     1       8.807  16.169 -20.487  1.00  0.00     0.208 A 
ATOM      3  C   UNL     1       8.963  14.811 -20.807  1.00  0.00     0.238 A 
ATOM      4  O   UNL     1       8.810  14.452 -22.004  1.00  0.00    -0.285 OA
ATOM      5  C   UNL     1       9.242  13.874 -19.784  1.00  0.00     0.111 A 
ATOM      6  C   UNL     1       9.458  12.480 -20.000  1.00  0.00     0.134 A 
ATOM      7  C   UNL     1       9.596  11.624 -18.901  1.00  0.00     0.093 A 
ATOM      8  C   UNL     1       9.591  12.119 -17.598  1.00  0.00     0.123 A 
ATOM      9  C   UNL     1       9.440  13.489 -17.378  1.00  0.00     0.094 A 
ATOM     10  C   UNL     1       9.264  14.363 -18.452  1.00  0.00     0.146 A 
ATOM     11  O   UNL     1       9.113  15.657 -18.199  1.00  0.00    -0.452 OA
ENDROOT
BRANCH   1  12
ATOM     12  C   UNL     1       8.791  17.986 -18.730  1.00  0.00     0.021 A 
ATOM     13  C   UNL     1       7.636  18.408 -18.051  1.00  0.00     0.016 A 
ATOM     14  C   UNL     1       7.507  19.736 -17.631  1.00  0.00     0.047 A 
ATOM     15  C   UNL     1       8.536  20.654 -17.875  1.00  0.00     0.115 A 
ATOM     16  C   UNL     1       9.829  18.910 -18.953  1.00  0.00     0.016 A 
ATOM     17  C   UNL     1       9.696  20.236 -18.532  1.00  0.00     0.047 A 
BRANCH  15  18
ATOM     18  O   UNL     1       8.417  21.980 -17.462  1.00  0.00    -0.508 OA
ATOM     19  H   UNL     1       9.199  22.623 -17.514  1.00  0.00     0.293 HD
ENDBRANCH  15  18
ENDBRANCH   1  12
BRANCH   2  20
ATOM     20  O   UNL     1       8.510  17.109 -21.478  1.00  0.00    -0.502 OA
ATOM     21  H   UNL     1       7.560  17.331 -21.749  1.00  0.00     0.293 HD
ENDBRANCH   2  20
BRANCH   6  22
ATOM     22  O   UNL     1       9.571  11.893 -21.265  1.00  0.00    -0.507 OA
ATOM     23  H   UNL     1      10.363  12.006 -21.881  1.00  0.00     0.293 HD
ENDBRANCH   6  22
BRANCH   8  24
ATOM     24  O   UNL     1       9.747  11.240 -16.528  1.00  0.00    -0.508 OA
ATOM     25  H   UNL     1       9.165  11.303 -15.701  1.00  0.00     0.293 HD
ENDBRANCH   8  24
TORSDOF 5
ENDMDL
MODEL 2
REMARK VINA RESULT:    -6.415      2.894      4.770
REMARK INTER + INTRA:          -7.789
REMARK INTER:                  -7.918
REMARK INTRA:                   0.130
REMARK UNBOUND:                -0.248
REMARK SMILES O=c1c(O)c(-c2ccc(O)cc2)oc2cc(O)cc(O)c12
REMARK SMILES IDX 5 1 3 2 2 3 1 4 21 5 19 6 18 7 16 8 15 9 14 10 13 11 6 12
REMARK SMILES IDX 7 13 8 14 9 15 12 16 11 17 10 18 4 20 20 22 17 24
REMARK H PARENT 10 19 4 21 20 23 17 25
REMARK Flexibility Score: inf
ROOT
ATOM      1  C   UNL     1       9.105  13.126 -18.858  1.00  0.00     0.180 A 
ATOM      2  C   UNL     1       9.535  11.825 -19.176  1.00  0.00     0.208 A 
ATOM      3  C   UNL     1       9.600  10.862 -18.157  1.00  0.00     0.238 A 
ATOM      4  O   UNL     1       9.934   9.686 -18.458  1.00  0.00    -0.285 OA
ATOM      5  C   UNL     1       9.251  11.215 -16.831  1.00  0.00     0.111 A 
ATOM      6  C   UNL     1       9.319  10.330 -15.713  1.00  0.00     0.134 A 
ATOM      7  C   UNL     1       8.825  10.747 -14.471  1.00  0.00     0.093 A 
ATOM      8  C   UNL     1       8.327  12.036 -14.291  1.00  0.00     0.123 A 
ATOM      9  C   UNL     1       8.311  12.929 -15.363  1.00  0.00     0.094 A 
ATOM     10  C   UNL     1       8.764  12.531 -16.623  1.00  0.00     0.146 A 
ATOM     11  O   UNL     1       8.722  13.407 -17.619  1.00  0.00    -0.452 OA
ENDROOT
BRANCH   1  12
ATOM     12  C   UNL     1       9.034  14.203 -19.872  1.00  0.00     0.021 A 
ATOM     13  C   UNL     1       8.430  13.945 -21.114  1.00  0.00     0.016 A 
ATOM     14  C   UNL     1       8.332  14.954 -22.078  1.00  0.00     0.047 A 
ATOM     15  C   UNL     1       8.825  16.236 -21.806  1.00  0.00     0.115 A 
ATOM     16  C   UNL     1       9.509  15.499 -19.599  1.00  0.00     0.016 A 
ATOM     17  C   UNL     1       9.409  16.505 -20.565  1.00  0.00     0.047 A 
BRANCH  15  18
ATOM     18  O   UNL     1       8.734  17.249 -22.759  1.00  0.00    -0.508 OA
ATOM     19  H   UNL     1       8.968  17.085 -23.730  1.00  0.00     0.293 HD
ENDBRANCH  15  18
ENDBRANCH   1  12
BRANCH   2  20
ATOM     20  O   UNL     1       9.854  11.494 -20.496  1.00  0.00    -0.502 OA
ATOM     21  H   UNL     1      10.649  11.893 -20.980  1.00  0.00     0.293 HD
ENDBRANCH   2  20
BRANCH   6  22
ATOM     22  O   UNL     1       9.883   9.051 -15.762  1.00  0.00    -0.507 OA
ATOM     23  H   UNL     1       9.922   8.410 -14.984  1.00  0.00     0.293 HD
ENDBRANCH   6  22
BRANCH   8  24
ATOM     24  O   UNL     1       7.859  12.423 -13.037  1.00  0.00    -0.508 OA
ATOM     25  H   UNL     1       7.575  11.741 -12.343  1.00  0.00     0.293 HD
ENDBRANCH   8  24
TORSDOF 5
ENDMDL
MODEL 3
REMARK VINA RESULT:    -6.364      3.127      7.405
REMARK INTER + INTRA:          -7.728
REMARK INTER:                  -7.428
REMARK INTRA:                  -0.300
REMARK UNBOUND:                -0.248
REMARK SMILES O=c1c(O)c(-c2ccc(O)cc2)oc2cc(O)cc(O)c12
REMARK SMILES IDX 5 1 3 2 2 3 1 4 21 5 19 6 18 7 16 8 15 9 14 10 13 11 6 12
REMARK SMILES IDX 7 13 8 14 9 15 12 16 11 17 10 18 4 20 20 22 17 24
REMARK H PARENT 10 19 4 21 20 23 17 25
REMARK Flexibility Score: inf
ROOT
ATOM      1  C   UNL     1       9.793  12.091 -17.060  1.00  0.00     0.180 A 
ATOM      2  C   UNL     1      10.532  13.229 -16.693  1.00  0.00     0.208 A 
ATOM      3  C   UNL     1      10.533  14.345 -17.545  1.00  0.00     0.238 A 
ATOM      4  O   UNL     1      11.153  15.380 -17.185  1.00  0.00    -0.285 OA
ATOM      5  C   UNL     1       9.808  14.303 -18.760  1.00  0.00     0.111 A 
ATOM      6  C   UNL     1       9.772  15.361 -19.718  1.00  0.00     0.134 A 
ATOM      7  C   UNL     1       8.918  15.263 -20.823  1.00  0.00     0.093 A 
ATOM      8  C   UNL     1       8.149  14.121 -21.039  1.00  0.00     0.123 A 
ATOM      9  C   UNL     1       8.222  13.056 -20.140  1.00  0.00     0.094 A 
ATOM     10  C   UNL     1       9.037  13.138 -19.010  1.00  0.00     0.146 A 
ATOM     11  O   UNL     1       9.070  12.108 -18.174  1.00  0.00    -0.452 OA
ENDROOT
BRANCH   1  12
ATOM     12  C   UNL     1       9.763  10.868 -16.227  1.00  0.00     0.021 A 
ATOM     13  C   UNL     1       8.724  10.688 -15.299  1.00  0.00     0.016 A 
ATOM     14  C   UNL     1       8.664   9.529 -14.518  1.00  0.00     0.047 A 
ATOM     15  C   UNL     1       9.636   8.531 -14.665  1.00  0.00     0.115 A 
ATOM     16  C   UNL     1      10.723   9.851 -16.383  1.00  0.00     0.016 A 
ATOM     17  C   UNL     1      10.660   8.694 -15.601  1.00  0.00     0.047 A 
BRANCH  15  18
ATOM     18  O   UNL     1       9.586   7.372 -13.892  1.00  0.00    -0.508 OA
ATOM     19  H   UNL     1      10.430   6.881 -13.621  1.00  0.00     0.293 HD
ENDBRANCH  15  18
ENDBRANCH   1  12
BRANCH   2  20
ATOM     20  O   UNL     1      11.223  13.257 -15.477  1.00  0.00    -0.502 OA
ATOM     21  H   UNL     1      11.464  12.414 -14.971  1.00  0.00     0.293 HD
ENDBRANCH   2  20
BRANCH   6  22
ATOM     22  O   UNL     1      10.569  16.508 -19.646  1.00  0.00    -0.507 OA
ATOM     23  H   UNL     1      10.369  17.377 -20.119  1.00  0.00     0.293 HD
ENDBRANCH   6  22
BRANCH   8  24
ATOM     24  O   UNL     1       7.321  14.050 -22.158  1.00  0.00    -0.508 OA
ATOM     25  H   UNL     1       7.297  14.793 -22.847  1.00  0.00     0.293 HD
ENDBRANCH   8  24
TORSDOF 5
ENDMDL
MODEL 4
REMARK VINA RESULT:    -6.316      2.784      7.243
REMARK INTER + INTRA:          -7.672
REMARK INTER:                  -7.389
REMARK INTRA:                  -0.283
REMARK UNBOUND:                -0.248
REMARK SMILES O=c1c(O)c(-c2ccc(O)cc2)oc2cc(O)cc(O)c12
REMARK SMILES IDX 5 1 3 2 2 3 1 4 21 5 19 6 18 7 16 8 15 9 14 10 13 11 6 12
REMARK SMILES IDX 7 13 8 14 9 15 12 16 11 17 10 18 4 20 20 22 17 24
REMARK H PARENT 10 19 4 21 20 23 17 25
REMARK Flexibility Score: inf
ROOT
ATOM      1  C   UNL     1       9.065  11.467 -17.785  1.00  0.00     0.180 A 
ATOM      2  C   UNL     1       8.298  11.163 -18.924  1.00  0.00     0.208 A 
ATOM      3  C   UNL     1       8.103  12.154 -19.899  1.00  0.00     0.238 A 
ATOM      4  O   UNL     1       7.461  11.859 -20.941  1.00  0.00    -0.285 OA
ATOM      5  C   UNL     1       8.664  13.441 -19.716  1.00  0.00     0.111 A 
ATOM      6  C   UNL     1       8.498  14.533 -20.620  1.00  0.00     0.134 A 
ATOM      7  C   UNL     1       9.206  15.722 -20.405  1.00  0.00     0.093 A 
ATOM      8  C   UNL     1      10.022  15.881 -19.286  1.00  0.00     0.123 A 
ATOM      9  C   UNL     1      10.145  14.841 -18.364  1.00  0.00     0.094 A 
ATOM     10  C   UNL     1       9.480  13.630 -18.570  1.00  0.00     0.146 A 
ATOM     11  O   UNL     1       9.632  12.662 -17.675  1.00  0.00    -0.452 OA
ENDROOT
BRANCH   1  12
ATOM     12  C   UNL     1       9.293  10.483 -16.702  1.00  0.00     0.021 A 
ATOM     13  C   UNL     1       8.328  10.331 -15.692  1.00  0.00     0.016 A 
ATOM     14  C   UNL     1       8.513   9.392 -14.672  1.00  0.00     0.047 A 
ATOM     15  C   UNL     1       9.658   8.585 -14.658  1.00  0.00     0.115 A 
ATOM     16  C   UNL     1      10.430   9.655 -16.692  1.00  0.00     0.016 A 
ATOM     17  C   UNL     1      10.611   8.717 -15.671  1.00  0.00     0.047 A 
BRANCH  15  18
ATOM     18  O   UNL     1       9.853   7.646 -13.646  1.00  0.00    -0.508 OA
ATOM     19  H   UNL     1      10.623   6.989 -13.675  1.00  0.00     0.293 HD
ENDBRANCH  15  18
ENDBRANCH   1  12
BRANCH   2  20
ATOM     20  O   UNL     1       7.771   9.879 -19.094  1.00  0.00    -0.502 OA
ATOM     21  H   UNL     1       6.867   9.609 -18.727  1.00  0.00     0.293 HD
ENDBRANCH   2  20
BRANCH   6  22
ATOM     22  O   UNL     1       7.635  14.512 -21.720  1.00  0.00    -0.507 OA
ATOM     23  H   UNL     1       7.134  13.697 -22.041  1.00  0.00     0.293 HD
ENDBRANCH   6  22
BRANCH   8  24
ATOM     24  O   UNL     1      10.699  17.084 -19.095  1.00  0.00    -0.508 OA
ATOM     25  H   UNL     1      10.216  17.922 -18.793  1.00  0.00     0.293 HD
ENDBRANCH   8  24
TORSDOF 5
ENDMDL
MODEL 5
REMARK VINA RESULT:    -6.101      2.484      6.906
REMARK INTER + INTRA:          -7.420
REMARK INTER:                  -7.446
REMARK INTRA:                   0.027
REMARK UNBOUND:                -0.248
REMARK SMILES O=c1c(O)c(-c2ccc(O)cc2)oc2cc(O)cc(O)c12
REMARK SMILES IDX 5 1 3 2 2 3 1 4 21 5 19 6 18 7 16 8 15 9 14 10 13 11 6 12
REMARK SMILES IDX 7 13 8 14 9 15 12 16 11 17 10 18 4 20 20 22 17 24
REMARK H PARENT 10 19 4 21 20 23 17 25
REMARK Flexibility Score: inf
ROOT
ATOM      1  C   UNL     1       9.543  13.463 -18.491  1.00  0.00     0.180 A 
ATOM      2  C   UNL     1       9.154  14.577 -17.726  1.00  0.00     0.208 A 
ATOM      3  C   UNL     1       8.790  15.762 -18.386  1.00  0.00     0.238 A 
ATOM      4  O   UNL     1       8.392  16.738 -17.698  1.00  0.00    -0.285 OA
ATOM      5  C   UNL     1       8.835  15.824 -19.799  1.00  0.00     0.111 A 
ATOM      6  C   UNL     1       8.527  16.985 -20.569  1.00  0.00     0.134 A 
ATOM      7  C   UNL     1       8.477  16.895 -21.966  1.00  0.00     0.093 A 
ATOM      8  C   UNL     1       8.788  15.705 -22.621  1.00  0.00     0.123 A 
ATOM      9  C   UNL     1       9.149  14.579 -21.880  1.00  0.00     0.094 A 
ATOM     10  C   UNL     1       9.172  14.628 -20.484  1.00  0.00     0.146 A 
ATOM     11  O   UNL     1       9.511  13.532 -19.816  1.00  0.00    -0.452 OA
ENDROOT
BRANCH   1  12
ATOM     12  C   UNL     1       9.965  12.187 -17.868  1.00  0.00     0.021 A 
ATOM     13  C   UNL     1       9.454  10.975 -18.361  1.00  0.00     0.016 A 
ATOM     14  C   UNL     1       9.857   9.757 -17.802  1.00  0.00     0.047 A 
ATOM     15  C   UNL     1      10.784   9.738 -16.753  1.00  0.00     0.115 A 
ATOM     16  C   UNL     1      10.910  12.158 -16.827  1.00  0.00     0.016 A 
ATOM     17  C   UNL     1      11.311  10.939 -16.271  1.00  0.00     0.047 A 
BRANCH  15  18
ATOM     18  O   UNL     1      11.191   8.530 -16.188  1.00  0.00    -0.508 OA
ATOM     19  H   UNL     1      12.170   8.277 -16.130  1.00  0.00     0.293 HD
ENDBRANCH  15  18
ENDBRANCH   1  12
BRANCH   2  20
ATOM     20  O   UNL     1       9.097  14.487 -16.332  1.00  0.00    -0.502 OA
ATOM     21  H   UNL     1       8.832  15.271 -15.748  1.00  0.00     0.293 HD
ENDBRANCH   2  20
BRANCH   6  22
ATOM     22  O   UNL     1       8.290  18.248 -20.017  1.00  0.00    -0.507 OA
ATOM     23  H   UNL     1       7.804  18.413 -19.149  1.00  0.00     0.293 HD
ENDBRANCH   6  22
BRANCH   8  24
ATOM     24  O   UNL     1       8.745  15.655 -24.013  1.00  0.00    -0.508 OA
ATOM     25  H   UNL     1       9.589  15.696 -24.572  1.00  0.00     0.293 HD
ENDBRANCH   8  24
TORSDOF 5
ENDMDL
MODEL 6
REMARK VINA RESULT:    -6.089      1.502      2.280
REMARK INTER + INTRA:          -7.405
REMARK INTER:                  -7.231
REMARK INTRA:                  -0.174
REMARK UNBOUND:                -0.248
REMARK SMILES O=c1c(O)c(-c2ccc(O)cc2)oc2cc(O)cc(O)c12
REMARK SMILES IDX 5 1 3 2 2 3 1 4 21 5 19 6 18 7 16 8 15 9 14 10 13 11 6 12
REMARK SMILES IDX 7 13 8 14 9 15 12 16 11 17 10 18 4 20 20 22 17 24
REMARK H PARENT 10 19 4 21 20 23 17 25
REMARK Flexibility Score: inf
ROOT
ATOM      1  C   UNL     1       8.938  14.778 -18.451  1.00  0.00     0.180 A 
ATOM      2  C   UNL     1       9.192  14.009 -19.601  1.00  0.00     0.208 A 
ATOM      3  C   UNL     1       9.375  12.623 -19.467  1.00  0.00     0.238 A 
ATOM      4  O   UNL     1       9.548  11.933 -20.506  1.00  0.00    -0.285 OA
ATOM      5  C   UNL     1       9.317  12.026 -18.185  1.00  0.00     0.111 A 
ATOM      6  C   UNL     1       9.527  10.638 -17.928  1.00  0.00     0.134 A 
ATOM      7  C   UNL     1       9.317  10.135 -16.638  1.00  0.00     0.093 A 
ATOM      8  C   UNL     1       8.968  10.978 -15.585  1.00  0.00     0.123 A 
ATOM      9  C   UNL     1       8.818  12.347 -15.812  1.00  0.00     0.094 A 
ATOM     10  C   UNL     1       8.986  12.873 -17.095  1.00  0.00     0.146 A 
ATOM     11  O   UNL     1       8.824  14.179 -17.272  1.00  0.00    -0.452 OA
ENDROOT
BRANCH   1  12
ATOM     12  C   UNL     1       8.760  16.247 -18.508  1.00  0.00     0.021 A 
ATOM     13  C   UNL     1       7.528  16.809 -18.133  1.00  0.00     0.016 A 
ATOM     14  C   UNL     1       7.346  18.196 -18.158  1.00  0.00     0.047 A 
ATOM     15  C   UNL     1       8.397  19.036 -18.546  1.00  0.00     0.115 A 
ATOM     16  C   UNL     1       9.817  17.099 -18.878  1.00  0.00     0.016 A 
ATOM     17  C   UNL     1       9.631  18.485 -18.901  1.00  0.00     0.047 A 
BRANCH  15  18
ATOM     18  O   UNL     1       8.227  20.420 -18.575  1.00  0.00    -0.508 OA
ATOM     19  H   UNL     1       8.534  20.974 -19.365  1.00  0.00     0.293 HD
ENDBRANCH  15  18
ENDBRANCH   1  12
BRANCH   2  20
ATOM     20  O   UNL     1       9.223  14.616 -20.860  1.00  0.00    -0.502 OA
ATOM     21  H   UNL     1       9.703  15.492 -21.029  1.00  0.00     0.293 HD
ENDBRANCH   2  20
BRANCH   6  22
ATOM     22  O   UNL     1       9.966   9.723 -18.890  1.00  0.00    -0.507 OA
ATOM     23  H   UNL     1      10.226   9.964 -19.835  1.00  0.00     0.293 HD
ENDBRANCH   6  22
BRANCH   8  24
ATOM     24  O   UNL     1       8.783  10.446 -14.310  1.00  0.00    -0.508 OA
ATOM     25  H   UNL     1       9.332  10.761 -13.519  1.00  0.00     0.293 HD
ENDBRANCH   8  24
TORSDOF 5
ENDMDL
MODEL 7
REMARK VINA RESULT:    -5.997      1.727      6.721
REMARK INTER + INTRA:          -7.297
REMARK INTER:                  -6.999
REMARK INTRA:                  -0.298
REMARK UNBOUND:                -0.248
REMARK SMILES O=c1c(O)c(-c2ccc(O)cc2)oc2cc(O)cc(O)c12
REMARK SMILES IDX 5 1 3 2 2 3 1 4 21 5 19 6 18 7 16 8 15 9 14 10 13 11 6 12
REMARK SMILES IDX 7 13 8 14 9 15 12 16 11 17 10 18 4 20 20 22 17 24
REMARK H PARENT 10 19 4 21 20 23 17 25
REMARK Flexibility Score: inf
ROOT
ATOM      1  C   UNL     1       9.245  12.917 -18.576  1.00  0.00     0.180 A 
ATOM      2  C   UNL     1       9.309  12.818 -19.977  1.00  0.00     0.208 A 
ATOM      3  C   UNL     1       9.107  13.972 -20.752  1.00  0.00     0.238 A 
ATOM      4  O   UNL     1       9.219  13.887 -22.003  1.00  0.00    -0.285 OA
ATOM      5  C   UNL     1       8.826  15.205 -20.117  1.00  0.00     0.111 A 
ATOM      6  C   UNL     1       8.565  16.429 -20.804  1.00  0.00     0.134 A 
ATOM      7  C   UNL     1       8.430  17.616 -20.074  1.00  0.00     0.093 A 
ATOM      8  C   UNL     1       8.482  17.614 -18.681  1.00  0.00     0.123 A 
ATOM      9  C   UNL     1       8.677  16.414 -17.996  1.00  0.00     0.094 A 
ATOM     10  C   UNL     1       8.852  15.219 -18.698  1.00  0.00     0.146 A 
ATOM     11  O   UNL     1       9.046  14.101 -18.009  1.00  0.00    -0.452 OA
ENDROOT
BRANCH   1  12
ATOM     12  C   UNL     1       9.422  11.741 -17.694  1.00  0.00     0.021 A 
ATOM     13  C   UNL     1      10.686  11.477 -17.139  1.00  0.00     0.016 A 
ATOM     14  C   UNL     1      10.870  10.384 -16.285  1.00  0.00     0.047 A 
ATOM     15  C   UNL     1       9.790   9.552 -15.965  1.00  0.00     0.115 A 
ATOM     16  C   UNL     1       8.338  10.912 -17.351  1.00  0.00     0.016 A 
ATOM     17  C   UNL     1       8.526   9.822 -16.496  1.00  0.00     0.047 A 
BRANCH  15  18
ATOM     18  O   UNL     1       9.962   8.461 -15.115  1.00  0.00    -0.508 OA
ATOM     19  H   UNL     1       9.425   8.365 -14.261  1.00  0.00     0.293 HD
ENDBRANCH  15  18
ENDBRANCH   1  12
BRANCH   2  20
ATOM     20  O   UNL     1       9.609  11.594 -20.582  1.00  0.00    -0.502 OA
ATOM     21  H   UNL     1      10.526  11.169 -20.524  1.00  0.00     0.293 HD
ENDBRANCH   2  20
BRANCH   6  22
ATOM     22  O   UNL     1       8.403  16.527 -22.189  1.00  0.00    -0.507 OA
ATOM     23  H   UNL     1       7.776  17.170 -22.650  1.00  0.00     0.293 HD
ENDBRANCH   6  22
BRANCH   8  24
ATOM     24  O   UNL     1       8.326  18.812 -17.986  1.00  0.00    -0.508 OA
ATOM     25  H   UNL     1       7.536  19.424 -18.153  1.00  0.00     0.293 HD
ENDBRANCH   8  24
TORSDOF 5
ENDMDL
MODEL 8
REMARK VINA RESULT:    -5.883      3.726      8.110
REMARK INTER + INTRA:          -7.164
REMARK INTER:                  -7.252
REMARK INTRA:                   0.088
REMARK UNBOUND:                -0.248
REMARK SMILES O=c1c(O)c(-c2ccc(O)cc2)oc2cc(O)cc(O)c12
REMARK SMILES IDX 5 1 3 2 2 3 1 4 21 5 19 6 18 7 16 8 15 9 14 10 13 11 6 12
REMARK SMILES IDX 7 13 8 14 9 15 12 16 11 17 10 18 4 20 20 22 17 24
REMARK H PARENT 10 19 4 21 20 23 17 25
REMARK Flexibility Score: inf
ROOT
ATOM      1  C   UNL     1       8.577  11.291 -15.222  1.00  0.00     0.180 A 
ATOM      2  C   UNL     1       8.974  12.582 -14.833  1.00  0.00     0.208 A 
ATOM      3  C   UNL     1       9.343  13.508 -15.821  1.00  0.00     0.238 A 
ATOM      4  O   UNL     1       9.645  14.679 -15.469  1.00  0.00    -0.285 OA
ATOM      5  C   UNL     1       9.326  13.128 -17.184  1.00  0.00     0.111 A 
ATOM      6  C   UNL     1       9.718  13.972 -18.266  1.00  0.00     0.134 A 
ATOM      7  C   UNL     1       9.536  13.536 -19.584  1.00  0.00     0.093 A 
ATOM      8  C   UNL     1       9.039  12.263 -19.859  1.00  0.00     0.123 A 
ATOM      9  C   UNL     1       8.708  11.407 -18.808  1.00  0.00     0.094 A 
ATOM     10  C   UNL     1       8.844  11.826 -17.483  1.00  0.00     0.146 A 
ATOM     11  O   UNL     1       8.508  10.985 -16.512  1.00  0.00    -0.452 OA
ENDROOT
BRANCH   1  12
ATOM     12  C   UNL     1       8.198  10.251 -14.238  1.00  0.00     0.021 A 
ATOM     13  C   UNL     1       7.265  10.557 -13.233  1.00  0.00     0.016 A 
ATOM     14  C   UNL     1       6.877   9.584 -12.307  1.00  0.00     0.047 A 
ATOM     15  C   UNL     1       7.407   8.290 -12.383  1.00  0.00     0.115 A 
ATOM     16  C   UNL     1       8.711   8.944 -14.319  1.00  0.00     0.016 A 
ATOM     17  C   UNL     1       8.320   7.973 -13.392  1.00  0.00     0.047 A 
BRANCH  15  18
ATOM     18  O   UNL     1       7.027   7.312 -11.465  1.00  0.00    -0.508 OA
ATOM     19  H   UNL     1       6.166   6.789 -11.573  1.00  0.00     0.293 HD
ENDBRANCH  15  18
ENDBRANCH   1  12
BRANCH   2  20
ATOM     20  O   UNL     1       8.962  12.943 -13.482  1.00  0.00    -0.502 OA
ATOM     21  H   UNL     1       9.617  12.559 -12.811  1.00  0.00     0.293 HD
ENDBRANCH   2  20
BRANCH   6  22
ATOM     22  O   UNL     1      10.312  15.228 -18.101  1.00  0.00    -0.507 OA
ATOM     23  H   UNL     1      10.792  15.736 -18.829  1.00  0.00     0.293 HD
ENDBRANCH   6  22
BRANCH   8  24
ATOM     24  O   UNL     1       8.886  11.855 -21.182  1.00  0.00    -0.508 OA
ATOM     25  H   UNL     1       9.461  11.122 -21.580  1.00  0.00     0.293 HD
ENDBRANCH   8  24
TORSDOF 5
ENDMDL
MODEL 9
REMARK VINA RESULT:    -5.827      2.989      4.997
REMARK INTER + INTRA:          -7.097
REMARK INTER:                  -6.882
REMARK INTRA:                  -0.215
REMARK UNBOUND:                -0.248
REMARK SMILES O=c1c(O)c(-c2ccc(O)cc2)oc2cc(O)cc(O)c12
REMARK SMILES IDX 5 1 3 2 2 3 1 4 21 5 19 6 18 7 16 8 15 9 14 10 13 11 6 12
REMARK SMILES IDX 7 13 8 14 9 15 12 16 11 17 10 18 4 20 20 22 17 24
REMARK H PARENT 10 19 4 21 20 23 17 25
REMARK Flexibility Score: inf
ROOT
ATOM      1  C   UNL     1       8.889  13.268 -18.214  1.00  0.00     0.180 A 
ATOM      2  C   UNL     1       7.990  13.452 -17.149  1.00  0.00     0.208 A 
ATOM      3  C   UNL     1       7.963  12.511 -16.108  1.00  0.00     0.238 A 
ATOM      4  O   UNL     1       7.194  12.711 -15.132  1.00  0.00    -0.285 OA
ATOM      5  C   UNL     1       8.824  11.388 -16.153  1.00  0.00     0.111 A 
ATOM      6  C   UNL     1       8.854  10.351 -15.173  1.00  0.00     0.134 A 
ATOM      7  C   UNL     1       9.836   9.356 -15.249  1.00  0.00     0.093 A 
ATOM      8  C   UNL     1      10.748   9.324 -16.303  1.00  0.00     0.123 A 
ATOM      9  C   UNL     1      10.690  10.300 -17.299  1.00  0.00     0.094 A 
ATOM     10  C   UNL     1       9.744  11.325 -17.232  1.00  0.00     0.146 A 
ATOM     11  O   UNL     1       9.730  12.240 -18.194  1.00  0.00    -0.452 OA
ENDROOT
BRANCH   1  12
ATOM     12  C   UNL     1       8.958  14.203 -19.360  1.00  0.00     0.021 A 
ATOM     13  C   UNL     1       8.381  13.837 -20.588  1.00  0.00     0.016 A 
ATOM     14  C   UNL     1       8.416  14.715 -21.676  1.00  0.00     0.047 A 
ATOM     15  C   UNL     1       9.015  15.973 -21.546  1.00  0.00     0.115 A 
ATOM     16  C   UNL     1       9.541  15.477 -19.231  1.00  0.00     0.016 A 
ATOM     17  C   UNL     1       9.573  16.352 -20.322  1.00  0.00     0.047 A 
BRANCH  15  18
ATOM     18  O   UNL     1       9.056  16.856 -22.624  1.00  0.00    -0.508 OA
ATOM     19  H   UNL     1       9.208  17.848 -22.490  1.00  0.00     0.293 HD
ENDBRANCH  15  18
ENDBRANCH   1  12
BRANCH   2  20
ATOM     20  O   UNL     1       7.164  14.580 -17.115  1.00  0.00    -0.502 OA
ATOM     21  H   UNL     1       6.301  14.606 -16.585  1.00  0.00     0.293 HD
ENDBRANCH   2  20
BRANCH   6  22
ATOM     22  O   UNL     1       7.931  10.236 -14.129  1.00  0.00    -0.507 OA
ATOM     23  H   UNL     1       8.097  10.536 -13.180  1.00  0.00     0.293 HD
ENDBRANCH   6  22
BRANCH   8  24
ATOM     24  O   UNL     1      11.702   8.310 -16.356  1.00  0.00    -0.508 OA
ATOM     25  H   UNL     1      11.523   7.438 -16.841  1.00  0.00     0.293 HD
ENDBRANCH   8  24
TORSDOF 5
ENDMDL
