MODEL 1
REMARK VINA RESULT:    -4.254      0.000      0.000
REMARK INTER + INTRA:          -9.408
REMARK INTER:                  -7.238
REMARK INTRA:                  -2.170
REMARK UNBOUND:                -2.170
REMARK SMILES CCCCCCCCCCCCCC(=O)[O-]
REMARK SMILES IDX 8 1 9 2 10 3 11 4 12 5 13 6 14 7 15 8 16 9 7 10 6 11 5 12
REMARK SMILES IDX 4 13 3 14 2 15 1 16
REMARK H PARENT
REMARK Flexibility Score: inf
ROOT
ATOM      1  C   UNL     1      -6.849 -27.864  30.786  1.00  0.00     0.000 C 
ENDROOT
BRANCH   1   2
ATOM      2  C   UNL     1      -6.500 -27.245  29.424  1.00  0.00     0.000 C 
BRANCH   2   3
ATOM      3  C   UNL     1      -7.749 -26.906  28.592  1.00  0.00     0.000 C 
BRANCH   3   4
ATOM      4  C   UNL     1      -9.055 -27.275  29.312  1.00  0.00     0.000 C 
BRANCH   4   5
ATOM      5  C   UNL     1     -10.254 -26.443  28.824  1.00  0.00     0.006 C 
BRANCH   5   6
ATOM      6  C   UNL     1      -9.814 -25.150  28.124  1.00  0.00     0.053 C 
BRANCH   6   7
ATOM      7  C   UNL     1     -10.370 -25.053  26.736  1.00  0.00     0.041 C 
ATOM      8  O   UNL     1     -10.698 -26.094  26.110  1.00  0.00    -0.550 OA
ATOM      9  O   UNL     1     -10.559 -23.807  26.148  1.00  0.00    -0.550 OA
ENDBRANCH   6   7
ENDBRANCH   5   6
ENDBRANCH   4   5
ENDBRANCH   3   4
ENDBRANCH   2   3
ENDBRANCH   1   2
BRANCH   1  10
ATOM     10  C   UNL     1      -5.952 -27.337  31.921  1.00  0.00     0.000 C 
BRANCH  10  11
ATOM     11  C   UNL     1      -5.523 -25.877  31.706  1.00  0.00    -0.000 C 
BRANCH  11  12
ATOM     12  C   UNL     1      -6.480 -24.876  32.372  1.00  0.00    -0.000 C 
BRANCH  12  13
ATOM     13  C   UNL     1      -7.412 -24.235  31.332  1.00  0.00    -0.000 C 
BRANCH  13  14
ATOM     14  C   UNL     1      -8.899 -24.438  31.666  1.00  0.00    -0.000 C 
BRANCH  14  15
ATOM     15  C   UNL     1      -9.129 -25.570  32.679  1.00  0.00    -0.003 C 
ATOM     16  C   UNL     1     -10.542 -26.134  32.560  1.00  0.00     0.004 C 
ENDBRANCH  14  15
ENDBRANCH  13  14
ENDBRANCH  12  13
ENDBRANCH  11  12
ENDBRANCH  10  11
ENDBRANCH   1  10
TORSDOF 12
ENDMDL
MODEL 2
REMARK VINA RESULT:    -4.253      2.975      5.847
REMARK INTER + INTRA:          -9.407
REMARK INTER:                  -8.108
REMARK INTRA:                  -1.299
REMARK UNBOUND:                -2.170
REMARK SMILES CCCCCCCCCCCCCC(=O)[O-]
REMARK SMILES IDX 8 1 9 2 10 3 11 4 12 5 13 6 14 7 15 8 16 9 7 10 6 11 5 12
REMARK SMILES IDX 4 13 3 14 2 15 1 16
REMARK H PARENT
REMARK Flexibility Score: inf
ROOT
ATOM      1  C   UNL     1     -10.049 -25.138  29.857  1.00  0.00     0.000 C 
ENDROOT
BRANCH   1   2
ATOM      2  C   UNL     1     -10.622 -26.398  30.524  1.00  0.00     0.000 C 
BRANCH   2   3
ATOM      3  C   UNL     1      -9.813 -26.832  31.759  1.00  0.00     0.000 C 
BRANCH   3   4
ATOM      4  C   UNL     1      -8.783 -27.926  31.436  1.00  0.00     0.000 C 
BRANCH   4   5
ATOM      5  C   UNL     1      -7.363 -27.554  31.895  1.00  0.00     0.006 C 
BRANCH   5   6
ATOM      6  C   UNL     1      -6.619 -26.710  30.851  1.00  0.00     0.053 C 
BRANCH   6   7
ATOM      7  C   UNL     1      -6.292 -25.344  31.371  1.00  0.00     0.041 C 
ATOM      8  O   UNL     1      -5.126 -24.885  31.255  1.00  0.00    -0.550 OA
ATOM      9  O   UNL     1      -7.285 -24.564  31.950  1.00  0.00    -0.550 OA
ENDBRANCH   6   7
ENDBRANCH   5   6
ENDBRANCH   4   5
ENDBRANCH   3   4
ENDBRANCH   2   3
ENDBRANCH   1   2
BRANCH   1  10
ATOM     10  C   UNL     1      -9.176 -25.465  28.631  1.00  0.00     0.000 C 
BRANCH  10  11
ATOM     11  C   UNL     1      -9.644 -26.729  27.892  1.00  0.00    -0.000 C 
BRANCH  11  12
ATOM     12  C   UNL     1     -10.441 -26.408  26.619  1.00  0.00    -0.000 C 
BRANCH  12  13
ATOM     13  C   UNL     1     -10.430 -24.898  26.332  1.00  0.00    -0.000 C 
BRANCH  13  14
ATOM     14  C   UNL     1     -11.482 -24.487  25.290  1.00  0.00    -0.000 C 
BRANCH  14  15
ATOM     15  C   UNL     1     -11.972 -23.043  25.481  1.00  0.00    -0.003 C 
ATOM     16  C   UNL     1     -11.058 -22.274  26.432  1.00  0.00     0.004 C 
ENDBRANCH  14  15
ENDBRANCH  13  14
ENDBRANCH  12  13
ENDBRANCH  11  12
ENDBRANCH  10  11
ENDBRANCH   1  10
TORSDOF 12
ENDMDL
MODEL 3
REMARK VINA RESULT:    -4.158      1.825      3.585
REMARK INTER + INTRA:          -9.245
REMARK INTER:                  -7.502
REMARK INTRA:                  -1.743
REMARK UNBOUND:                -2.170
REMARK SMILES CCCCCCCCCCCCCC(=O)[O-]
REMARK SMILES IDX 8 1 9 2 10 3 11 4 12 5 13 6 14 7 15 8 16 9 7 10 6 11 5 12
REMARK SMILES IDX 4 13 3 14 2 15 1 16
REMARK H PARENT
REMARK Flexibility Score: inf
ROOT
ATOM      1  C   UNL     1     -10.458 -26.376  30.202  1.00  0.00     0.000 C 
ENDROOT
BRANCH   1   2
ATOM      2  C   UNL     1      -9.781 -25.250  29.405  1.00  0.00     0.000 C 
BRANCH   2   3
ATOM      3  C   UNL     1      -9.303 -25.713  28.018  1.00  0.00     0.000 C 
BRANCH   3   4
ATOM      4  C   UNL     1      -9.024 -27.223  27.964  1.00  0.00     0.000 C 
BRANCH   4   5
ATOM      5  C   UNL     1      -9.706 -27.906  26.766  1.00  0.00     0.006 C 
BRANCH   5   6
ATOM      6  C   UNL     1     -10.981 -28.656  27.176  1.00  0.00     0.053 C 
BRANCH   6   7
ATOM      7  C   UNL     1     -12.165 -27.742  27.246  1.00  0.00     0.041 C 
ATOM      8  O   UNL     1     -12.904 -27.739  28.265  1.00  0.00    -0.550 OA
ATOM      9  O   UNL     1     -12.431 -26.867  26.200  1.00  0.00    -0.550 OA
ENDBRANCH   6   7
ENDBRANCH   5   6
ENDBRANCH   4   5
ENDBRANCH   3   4
ENDBRANCH   2   3
ENDBRANCH   1   2
BRANCH   1  10
ATOM     10  C   UNL     1     -10.399 -26.141  31.722  1.00  0.00     0.000 C 
BRANCH  10  11
ATOM     11  C   UNL     1      -9.127 -26.722  32.361  1.00  0.00    -0.000 C 
BRANCH  11  12
ATOM     12  C   UNL     1      -8.565 -27.917  31.576  1.00  0.00    -0.000 C 
BRANCH  12  13
ATOM     13  C   UNL     1      -7.029 -27.889  31.563  1.00  0.00    -0.000 C 
BRANCH  13  14
ATOM     14  C   UNL     1      -6.463 -27.017  30.431  1.00  0.00    -0.000 C 
BRANCH  14  15
ATOM     15  C   UNL     1      -5.647 -25.825  30.953  1.00  0.00    -0.003 C 
ATOM     16  C   UNL     1      -6.549 -24.634  31.262  1.00  0.00     0.004 C 
ENDBRANCH  14  15
ENDBRANCH  13  14
ENDBRANCH  12  13
ENDBRANCH  11  12
ENDBRANCH  10  11
ENDBRANCH   1  10
TORSDOF 12
ENDMDL
MODEL 4
REMARK VINA RESULT:    -4.149      1.296      2.332
REMARK INTER + INTRA:          -9.230
REMARK INTER:                  -7.517
REMARK INTRA:                  -1.712
REMARK UNBOUND:                -2.170
REMARK SMILES CCCCCCCCCCCCCC(=O)[O-]
REMARK SMILES IDX 8 1 9 2 10 3 11 4 12 5 13 6 14 7 15 8 16 9 7 10 6 11 5 12
REMARK SMILES IDX 4 13 3 14 2 15 1 16
REMARK H PARENT
REMARK Flexibility Score: inf
ROOT
ATOM      1  C   UNL     1      -7.463 -26.877  28.995  1.00  0.00     0.000 C 
ENDROOT
BRANCH   1   2
ATOM      2  C   UNL     1      -7.615 -27.749  27.739  1.00  0.00     0.000 C 
BRANCH   2   3
ATOM      3  C   UNL     1      -9.055 -27.754  27.195  1.00  0.00     0.000 C 
BRANCH   3   4
ATOM      4  C   UNL     1     -10.064 -27.161  28.190  1.00  0.00     0.000 C 
BRANCH   4   5
ATOM      5  C   UNL     1     -10.941 -26.066  27.559  1.00  0.00     0.006 C 
BRANCH   5   6
ATOM      6  C   UNL     1     -10.140 -24.798  27.235  1.00  0.00     0.053 C 
BRANCH   6   7
ATOM      7  C   UNL     1     -10.882 -23.897  26.296  1.00  0.00     0.041 C 
ATOM      8  O   UNL     1     -10.816 -22.647  26.432  1.00  0.00    -0.550 OA
ATOM      9  O   UNL     1     -11.617 -24.438  25.248  1.00  0.00    -0.550 OA
ENDBRANCH   6   7
ENDBRANCH   5   6
ENDBRANCH   4   5
ENDBRANCH   3   4
ENDBRANCH   2   3
ENDBRANCH   1   2
BRANCH   1  10
ATOM     10  C   UNL     1      -6.407 -27.429  29.970  1.00  0.00     0.000 C 
BRANCH  10  11
ATOM     11  C   UNL     1      -7.010 -27.837  31.324  1.00  0.00    -0.000 C 
BRANCH  11  12
ATOM     12  C   UNL     1      -8.546 -27.794  31.324  1.00  0.00    -0.000 C 
BRANCH  12  13
ATOM     13  C   UNL     1      -9.064 -26.741  32.315  1.00  0.00    -0.000 C 
BRANCH  13  14
ATOM     14  C   UNL     1     -10.019 -25.732  31.660  1.00  0.00    -0.000 C 
BRANCH  14  15
ATOM     15  C   UNL     1      -9.278 -24.635  30.880  1.00  0.00    -0.003 C 
ATOM     16  C   UNL     1      -8.055 -24.144  31.651  1.00  0.00     0.004 C 
ENDBRANCH  14  15
ENDBRANCH  13  14
ENDBRANCH  12  13
ENDBRANCH  11  12
ENDBRANCH  10  11
ENDBRANCH   1  10
TORSDOF 12
ENDMDL
MODEL 5
REMARK VINA RESULT:    -4.112      3.129      5.682
REMARK INTER + INTRA:          -9.168
REMARK INTER:                  -7.845
REMARK INTRA:                  -1.323
REMARK UNBOUND:                -2.170
REMARK SMILES CCCCCCCCCCCCCC(=O)[O-]
REMARK SMILES IDX 8 1 9 2 10 3 11 4 12 5 13 6 14 7 15 8 16 9 7 10 6 11 5 12
REMARK SMILES IDX 4 13 3 14 2 15 1 16
REMARK H PARENT
REMARK Flexibility Score: inf
ROOT
ATOM      1  C   UNL     1      -8.464 -27.609  30.924  1.00  0.00     0.000 C 
ENDROOT
BRANCH   1   2
ATOM      2  C   UNL     1      -9.742 -26.853  31.319  1.00  0.00     0.000 C 
BRANCH   2   3
ATOM      3  C   UNL     1      -9.450 -25.601  32.164  1.00  0.00     0.000 C 
BRANCH   3   4
ATOM      4  C   UNL     1      -9.004 -24.404  31.311  1.00  0.00     0.000 C 
BRANCH   4   5
ATOM      5  C   UNL     1      -7.614 -23.879  31.711  1.00  0.00     0.006 C 
BRANCH   5   6
ATOM      6  C   UNL     1      -6.926 -24.787  32.740  1.00  0.00     0.053 C 
BRANCH   6   7
ATOM      7  C   UNL     1      -5.659 -25.377  32.202  1.00  0.00     0.041 C 
ATOM      8  O   UNL     1      -5.349 -25.218  30.992  1.00  0.00    -0.550 OA
ATOM      9  O   UNL     1      -4.801 -26.071  33.047  1.00  0.00    -0.550 OA
ENDBRANCH   6   7
ENDBRANCH   5   6
ENDBRANCH   4   5
ENDBRANCH   3   4
ENDBRANCH   2   3
ENDBRANCH   1   2
BRANCH   1  10
ATOM     10  C   UNL     1      -7.982 -27.252  29.507  1.00  0.00     0.000 C 
BRANCH  10  11
ATOM     11  C   UNL     1      -9.143 -27.054  28.519  1.00  0.00    -0.000 C 
BRANCH  11  12
ATOM     12  C   UNL     1      -9.131 -25.664  27.864  1.00  0.00    -0.000 C 
BRANCH  12  13
ATOM     13  C   UNL     1     -10.561 -25.183  27.575  1.00  0.00    -0.000 C 
BRANCH  13  14
ATOM     14  C   UNL     1     -10.867 -25.109  26.070  1.00  0.00    -0.000 C 
BRANCH  14  15
ATOM     15  C   UNL     1     -11.330 -23.713  25.628  1.00  0.00    -0.003 C 
ATOM     16  C   UNL     1     -11.139 -22.691  26.746  1.00  0.00     0.004 C 
ENDBRANCH  14  15
ENDBRANCH  13  14
ENDBRANCH  12  13
ENDBRANCH  11  12
ENDBRANCH  10  11
ENDBRANCH   1  10
TORSDOF 12
ENDMDL
MODEL 6
REMARK VINA RESULT:    -4.081      2.589      4.589
REMARK INTER + INTRA:          -9.114
REMARK INTER:                  -7.435
REMARK INTRA:                  -1.679
REMARK UNBOUND:                -2.170
REMARK SMILES CCCCCCCCCCCCCC(=O)[O-]
REMARK SMILES IDX 8 1 9 2 10 3 11 4 12 5 13 6 14 7 15 8 16 9 7 10 6 11 5 12
REMARK SMILES IDX 4 13 3 14 2 15 1 16
REMARK H PARENT
REMARK Flexibility Score: inf
ROOT
ATOM      1  C   UNL     1      -5.235 -26.648  31.426  1.00  0.00     0.000 C 
ENDROOT
BRANCH   1   2
ATOM      2  C   UNL     1      -5.572 -25.152  31.345  1.00  0.00     0.000 C 
BRANCH   2   3
ATOM      3  C   UNL     1      -6.724 -24.754  32.284  1.00  0.00     0.000 C 
BRANCH   3   4
ATOM      4  C   UNL     1      -7.802 -23.919  31.576  1.00  0.00     0.000 C 
BRANCH   4   5
ATOM      5  C   UNL     1      -9.172 -24.616  31.557  1.00  0.00     0.006 C 
BRANCH   5   6
ATOM      6  C   UNL     1      -9.272 -25.726  32.612  1.00  0.00     0.053 C 
BRANCH   6   7
ATOM      7  C   UNL     1     -10.696 -26.074  32.920  1.00  0.00     0.041 C 
ATOM      8  O   UNL     1     -11.472 -26.444  32.000  1.00  0.00    -0.550 OA
ATOM      9  O   UNL     1     -11.156 -26.025  34.231  1.00  0.00    -0.550 OA
ENDBRANCH   6   7
ENDBRANCH   5   6
ENDBRANCH   4   5
ENDBRANCH   3   4
ENDBRANCH   2   3
ENDBRANCH   1   2
BRANCH   1  10
ATOM     10  C   UNL     1      -6.199 -27.516  30.597  1.00  0.00     0.000 C 
BRANCH  10  11
ATOM     11  C   UNL     1      -5.897 -27.460  29.091  1.00  0.00    -0.000 C 
BRANCH  11  12
ATOM     12  C   UNL     1      -7.168 -27.534  28.230  1.00  0.00    -0.000 C 
BRANCH  12  13
ATOM     13  C   UNL     1      -8.227 -26.540  28.732  1.00  0.00    -0.000 C 
BRANCH  13  14
ATOM     14  C   UNL     1      -9.588 -27.206  28.988  1.00  0.00    -0.000 C 
BRANCH  14  15
ATOM     15  C   UNL     1     -10.752 -26.444  28.336  1.00  0.00    -0.003 C 
ATOM     16  C   UNL     1     -10.363 -24.999  28.036  1.00  0.00     0.004 C 
ENDBRANCH  14  15
ENDBRANCH  13  14
ENDBRANCH  12  13
ENDBRANCH  11  12
ENDBRANCH  10  11
ENDBRANCH   1  10
TORSDOF 12
ENDMDL
MODEL 7
REMARK VINA RESULT:    -4.078      1.482      1.923
REMARK INTER + INTRA:          -9.109
REMARK INTER:                  -7.341
REMARK INTRA:                  -1.768
REMARK UNBOUND:                -2.170
REMARK SMILES CCCCCCCCCCCCCC(=O)[O-]
REMARK SMILES IDX 8 1 9 2 10 3 11 4 12 5 13 6 14 7 15 8 16 9 7 10 6 11 5 12
REMARK SMILES IDX 4 13 3 14 2 15 1 16
REMARK H PARENT
REMARK Flexibility Score: inf
ROOT
ATOM      1  C   UNL     1      -6.993 -27.765  31.060  1.00  0.00     0.000 C 
ENDROOT
BRANCH   1   2
ATOM      2  C   UNL     1      -7.041 -27.081  29.685  1.00  0.00     0.000 C 
BRANCH   2   3
ATOM      3  C   UNL     1      -8.389 -27.281  28.972  1.00  0.00     0.000 C 
BRANCH   3   4
ATOM      4  C   UNL     1      -8.871 -26.012  28.254  1.00  0.00     0.000 C 
BRANCH   4   5
ATOM      5  C   UNL     1     -10.400 -25.849  28.304  1.00  0.00     0.006 C 
BRANCH   5   6
ATOM      6  C   UNL     1     -11.108 -27.151  28.702  1.00  0.00     0.053 C 
BRANCH   6   7
ATOM      7  C   UNL     1     -11.610 -27.900  27.506  1.00  0.00     0.041 C 
ATOM      8  O   UNL     1     -12.645 -27.512  26.904  1.00  0.00    -0.550 OA
ATOM      9  O   UNL     1     -10.912 -29.007  27.035  1.00  0.00    -0.550 OA
ENDBRANCH   6   7
ENDBRANCH   5   6
ENDBRANCH   4   5
ENDBRANCH   3   4
ENDBRANCH   2   3
ENDBRANCH   1   2
BRANCH   1  10
ATOM     10  C   UNL     1      -6.095 -27.016  32.060  1.00  0.00     0.000 C 
BRANCH  10  11
ATOM     11  C   UNL     1      -6.075 -25.498  31.816  1.00  0.00    -0.000 C 
BRANCH  11  12
ATOM     12  C   UNL     1      -7.200 -24.765  32.563  1.00  0.00    -0.000 C 
BRANCH  12  13
ATOM     13  C   UNL     1      -8.223 -24.182  31.577  1.00  0.00    -0.000 C 
BRANCH  13  14
ATOM     14  C   UNL     1      -9.590 -24.879  31.662  1.00  0.00    -0.000 C 
BRANCH  14  15
ATOM     15  C   UNL     1      -9.649 -25.932  32.778  1.00  0.00    -0.003 C 
ATOM     16  C   UNL     1     -11.046 -26.006  33.390  1.00  0.00     0.004 C 
ENDBRANCH  14  15
ENDBRANCH  13  14
ENDBRANCH  12  13
ENDBRANCH  11  12
ENDBRANCH  10  11
ENDBRANCH   1  10
TORSDOF 12
ENDMDL
MODEL 8
REMARK VINA RESULT:    -4.042      1.457      3.289
REMARK INTER + INTRA:          -9.047
REMARK INTER:                  -7.351
REMARK INTRA:                  -1.696
REMARK UNBOUND:                -2.170
REMARK SMILES CCCCCCCCCCCCCC(=O)[O-]
REMARK SMILES IDX 8 1 9 2 10 3 11 4 12 5 13 6 14 7 15 8 16 9 7 10 6 11 5 12
REMARK SMILES IDX 4 13 3 14 2 15 1 16
REMARK H PARENT
REMARK Flexibility Score: inf
ROOT
ATOM      1  C   UNL     1      -8.739 -26.449  32.409  1.00  0.00     0.000 C 
ENDROOT
BRANCH   1   2
ATOM      2  C   UNL     1      -9.863 -25.605  31.789  1.00  0.00     0.000 C 
BRANCH   2   3
ATOM      3  C   UNL     1     -10.331 -26.151  30.429  1.00  0.00     0.000 C 
BRANCH   3   4
ATOM      4  C   UNL     1     -10.046 -25.179  29.274  1.00  0.00     0.000 C 
BRANCH   4   5
ATOM      5  C   UNL     1      -8.974 -25.710  28.307  1.00  0.00     0.006 C 
BRANCH   5   6
ATOM      6  C   UNL     1      -9.113 -27.218  28.060  1.00  0.00     0.053 C 
BRANCH   6   7
ATOM      7  C   UNL     1     -10.120 -27.516  26.991  1.00  0.00     0.041 C 
ATOM      8  O   UNL     1     -10.630 -28.664  26.904  1.00  0.00    -0.550 OA
ATOM      9  O   UNL     1     -10.521 -26.515  26.115  1.00  0.00    -0.550 OA
ENDBRANCH   6   7
ENDBRANCH   5   6
ENDBRANCH   4   5
ENDBRANCH   3   4
ENDBRANCH   2   3
ENDBRANCH   1   2
BRANCH   1  10
ATOM     10  C   UNL     1      -8.415 -27.702  31.575  1.00  0.00     0.000 C 
BRANCH  10  11
ATOM     11  C   UNL     1      -6.908 -28.000  31.516  1.00  0.00    -0.000 C 
BRANCH  11  12
ATOM     12  C   UNL     1      -6.213 -27.299  30.339  1.00  0.00    -0.000 C 
BRANCH  12  13
ATOM     13  C   UNL     1      -5.007 -26.480  30.824  1.00  0.00    -0.000 C 
BRANCH  13  14
ATOM     14  C   UNL     1      -5.406 -25.085  31.332  1.00  0.00    -0.000 C 
BRANCH  14  15
ATOM     15  C   UNL     1      -5.275 -24.951  32.857  1.00  0.00    -0.003 C 
ATOM     16  C   UNL     1      -4.328 -26.006  33.422  1.00  0.00     0.004 C 
ENDBRANCH  14  15
ENDBRANCH  13  14
ENDBRANCH  12  13
ENDBRANCH  11  12
ENDBRANCH  10  11
ENDBRANCH   1  10
TORSDOF 12
ENDMDL
MODEL 9
REMARK VINA RESULT:    -4.029      2.908      5.334
REMARK INTER + INTRA:          -9.026
REMARK INTER:                  -7.064
REMARK INTRA:                  -1.962
REMARK UNBOUND:                -2.170
REMARK SMILES CCCCCCCCCCCCCC(=O)[O-]
REMARK SMILES IDX 8 1 9 2 10 3 11 4 12 5 13 6 14 7 15 8 16 9 7 10 6 11 5 12
REMARK SMILES IDX 4 13 3 14 2 15 1 16
REMARK H PARENT
REMARK Flexibility Score: inf
ROOT
ATOM      1  C   UNL     1      -8.752 -24.324  31.419  1.00  0.00     0.000 C 
ENDROOT
BRANCH   1   2
ATOM      2  C   UNL     1      -7.224 -24.325  31.576  1.00  0.00     0.000 C 
BRANCH   2   3
ATOM      3  C   UNL     1      -6.764 -25.015  32.873  1.00  0.00     0.000 C 
BRANCH   3   4
ATOM      4  C   UNL     1      -5.790 -26.174  32.612  1.00  0.00     0.000 C 
BRANCH   4   5
ATOM      5  C   UNL     1      -5.391 -26.287  31.130  1.00  0.00     0.006 C 
BRANCH   5   6
ATOM      6  C   UNL     1      -5.480 -27.730  30.616  1.00  0.00     0.053 C 
BRANCH   6   7
ATOM      7  C   UNL     1      -4.426 -28.022  29.592  1.00  0.00     0.041 C 
ATOM      8  O   UNL     1      -3.245 -27.622  29.767  1.00  0.00    -0.550 OA
ATOM      9  O   UNL     1      -4.741 -28.768  28.463  1.00  0.00    -0.550 OA
ENDBRANCH   6   7
ENDBRANCH   5   6
ENDBRANCH   4   5
ENDBRANCH   3   4
ENDBRANCH   2   3
ENDBRANCH   1   2
BRANCH   1  10
ATOM     10  C   UNL     1      -9.441 -25.348  32.339  1.00  0.00     0.000 C 
BRANCH  10  11
ATOM     11  C   UNL     1     -10.161 -26.457  31.556  1.00  0.00    -0.000 C 
BRANCH  11  12
ATOM     12  C   UNL     1      -9.188 -27.483  30.955  1.00  0.00    -0.000 C 
BRANCH  12  13
ATOM     13  C   UNL     1      -9.365 -27.580  29.432  1.00  0.00    -0.000 C 
BRANCH  13  14
ATOM     14  C   UNL     1      -8.464 -26.597  28.669  1.00  0.00    -0.000 C 
BRANCH  14  15
ATOM     15  C   UNL     1      -9.261 -25.486  27.967  1.00  0.00    -0.003 C 
ATOM     16  C   UNL     1     -10.736 -25.860  27.849  1.00  0.00     0.004 C 
ENDBRANCH  14  15
ENDBRANCH  13  14
ENDBRANCH  12  13
ENDBRANCH  11  12
ENDBRANCH  10  11
ENDBRANCH   1  10
TORSDOF 12
ENDMDL
