MODEL 1
REMARK VINA RESULT:    -3.978      0.000      0.000
REMARK INTER + INTRA:         -10.445
REMARK INTER:                  -7.698
REMARK INTRA:                  -2.747
REMARK UNBOUND:                -2.747
REMARK SMILES CCCCCCCCCCCCCCCCCC(=O)[O-]
REMARK SMILES IDX 10 1 11 2 12 3 13 4 14 5 15 6 16 7 17 8 18 9 19 10 20 11
REMARK SMILES IDX 9 12 8 13 7 14 6 15 5 16 4 17 3 18 2 19 1 20
REMARK H PARENT
REMARK Flexibility Score: inf
ROOT
ATOM      1  C   UNL     1      45.804   2.798  20.239  1.00  0.00     0.000 C 
ENDROOT
BRANCH   1   2
ATOM      2  C   UNL     1      45.885   3.893  21.319  1.00  0.00     0.000 C 
BRANCH   2   3
ATOM      3  C   UNL     1      47.195   3.920  22.127  1.00  0.00     0.000 C 
BRANCH   3   4
ATOM      4  C   UNL     1      48.097   5.114  21.768  1.00  0.00     0.000 C 
BRANCH   4   5
ATOM      5  C   UNL     1      49.592   4.781  21.897  1.00  0.00     0.000 C 
BRANCH   5   6
ATOM      6  C   UNL     1      49.837   3.331  22.348  1.00  0.00     0.000 C 
BRANCH   6   7
ATOM      7  C   UNL     1      50.837   2.581  21.450  1.00  0.00     0.006 C 
BRANCH   7   8
ATOM      8  C   UNL     1      50.678   2.885  19.950  1.00  0.00     0.053 C 
BRANCH   8   9
ATOM      9  C   UNL     1      51.995   2.989  19.243  1.00  0.00     0.041 C 
ATOM     10  O   UNL     1      52.365   4.088  18.754  1.00  0.00    -0.550 OA
ATOM     11  O   UNL     1      52.797   1.865  19.090  1.00  0.00    -0.550 OA
ENDBRANCH   8   9
ENDBRANCH   7   8
ENDBRANCH   6   7
ENDBRANCH   5   6
ENDBRANCH   4   5
ENDBRANCH   3   4
ENDBRANCH   2   3
ENDBRANCH   1   2
BRANCH   1  12
ATOM     12  C   UNL     1      47.176   2.193  19.894  1.00  0.00     0.000 C 
BRANCH  12  13
ATOM     13  C   UNL     1      47.236   0.672  20.125  1.00  0.00    -0.000 C 
BRANCH  13  14
ATOM     14  C   UNL     1      48.001   0.228  21.385  1.00  0.00    -0.000 C 
BRANCH  14  15
ATOM     15  C   UNL     1      47.132  -0.579  22.361  1.00  0.00    -0.000 C 
BRANCH  15  16
ATOM     16  C   UNL     1      46.818   0.237  23.621  1.00  0.00    -0.000 C 
BRANCH  16  17
ATOM     17  C   UNL     1      45.447   0.914  23.513  1.00  0.00    -0.000 C 
BRANCH  17  18
ATOM     18  C   UNL     1      44.340   0.007  24.073  1.00  0.00    -0.000 C 
BRANCH  18  19
ATOM     19  C   UNL     1      43.155  -0.142  23.107  1.00  0.00    -0.003 C 
ATOM     20  C   UNL     1      43.405   0.529  21.756  1.00  0.00     0.004 C 
ENDBRANCH  18  19
ENDBRANCH  17  18
ENDBRANCH  16  17
ENDBRANCH  15  16
ENDBRANCH  14  15
ENDBRANCH  13  14
ENDBRANCH  12  13
ENDBRANCH   1  12
TORSDOF 16
ENDMDL
MODEL 2
REMARK VINA RESULT:    -3.862      1.573      3.404
REMARK INTER + INTRA:         -10.222
REMARK INTER:                  -7.451
REMARK INTRA:                  -2.770
REMARK UNBOUND:                -2.747
REMARK SMILES CCCCCCCCCCCCCCCCCC(=O)[O-]
REMARK SMILES IDX 10 1 11 2 12 3 13 4 14 5 15 6 16 7 17 8 18 9 19 10 20 11
REMARK SMILES IDX 9 12 8 13 7 14 6 15 5 16 4 17 3 18 2 19 1 20
REMARK H PARENT
REMARK Flexibility Score: inf
ROOT
ATOM      1  C   UNL     1      46.031   2.966  20.740  1.00  0.00     0.000 C 
ENDROOT
BRANCH   1   2
ATOM      2  C   UNL     1      47.097   2.257  19.884  1.00  0.00     0.000 C 
BRANCH   2   3
ATOM      3  C   UNL     1      47.226   0.742  20.121  1.00  0.00     0.000 C 
BRANCH   3   4
ATOM      4  C   UNL     1      46.985   0.341  21.587  1.00  0.00     0.000 C 
BRANCH   4   5
ATOM      5  C   UNL     1      48.103  -0.555  22.143  1.00  0.00     0.000 C 
BRANCH   5   6
ATOM      6  C   UNL     1      49.475   0.141  22.137  1.00  0.00     0.000 C 
BRANCH   6   7
ATOM      7  C   UNL     1      49.515   1.403  23.019  1.00  0.00     0.006 C 
BRANCH   7   8
ATOM      8  C   UNL     1      49.845   2.692  22.248  1.00  0.00     0.053 C 
BRANCH   8   9
ATOM      9  C   UNL     1      50.974   2.509  21.279  1.00  0.00     0.041 C 
ATOM     10  O   UNL     1      50.761   2.568  20.040  1.00  0.00    -0.550 OA
ATOM     11  O   UNL     1      52.256   2.235  21.742  1.00  0.00    -0.550 OA
ENDBRANCH   8   9
ENDBRANCH   7   8
ENDBRANCH   6   7
ENDBRANCH   5   6
ENDBRANCH   4   5
ENDBRANCH   3   4
ENDBRANCH   2   3
ENDBRANCH   1   2
BRANCH   1  12
ATOM     12  C   UNL     1      44.789   3.377  19.930  1.00  0.00     0.000 C 
BRANCH  12  13
ATOM     13  C   UNL     1      43.468   3.001  20.626  1.00  0.00    -0.000 C 
BRANCH  13  14
ATOM     14  C   UNL     1      43.590   1.955  21.749  1.00  0.00    -0.000 C 
BRANCH  14  15
ATOM     15  C   UNL     1      43.090   0.564  21.331  1.00  0.00    -0.000 C 
BRANCH  15  16
ATOM     16  C   UNL     1      43.300  -0.456  22.456  1.00  0.00    -0.000 C 
BRANCH  16  17
ATOM     17  C   UNL     1      43.570   0.244  23.794  1.00  0.00    -0.000 C 
BRANCH  17  18
ATOM     18  C   UNL     1      44.814  -0.340  24.479  1.00  0.00    -0.000 C 
BRANCH  18  19
ATOM     19  C   UNL     1      45.538   0.687  25.363  1.00  0.00    -0.003 C 
ATOM     20  C   UNL     1      45.905   1.963  24.606  1.00  0.00     0.004 C 
ENDBRANCH  18  19
ENDBRANCH  17  18
ENDBRANCH  16  17
ENDBRANCH  15  16
ENDBRANCH  14  15
ENDBRANCH  13  14
ENDBRANCH  12  13
ENDBRANCH   1  12
TORSDOF 16
ENDMDL
MODEL 3
REMARK VINA RESULT:    -3.841      1.309      3.671
REMARK INTER + INTRA:         -10.179
REMARK INTER:                  -7.693
REMARK INTRA:                  -2.487
REMARK UNBOUND:                -2.747
REMARK SMILES CCCCCCCCCCCCCCCCCC(=O)[O-]
REMARK SMILES IDX 10 1 11 2 12 3 13 4 14 5 15 6 16 7 17 8 18 9 19 10 20 11
REMARK SMILES IDX 9 12 8 13 7 14 6 15 5 16 4 17 3 18 2 19 1 20
REMARK H PARENT
REMARK Flexibility Score: inf
ROOT
ATOM      1  C   UNL     1      43.561   1.348  20.975  1.00  0.00     0.000 C 
ENDROOT
BRANCH   1   2
ATOM      2  C   UNL     1      43.921   2.828  20.743  1.00  0.00     0.000 C 
BRANCH   2   3
ATOM      3  C   UNL     1      45.348   3.081  20.225  1.00  0.00     0.000 C 
BRANCH   3   4
ATOM      4  C   UNL     1      46.277   1.869  20.407  1.00  0.00     0.000 C 
BRANCH   4   5
ATOM      5  C   UNL     1      47.756   2.224  20.192  1.00  0.00     0.000 C 
BRANCH   5   6
ATOM      6  C   UNL     1      48.327   3.086  21.330  1.00  0.00     0.000 C 
BRANCH   6   7
ATOM      7  C   UNL     1      49.850   3.289  21.227  1.00  0.00     0.006 C 
BRANCH   7   8
ATOM      8  C   UNL     1      50.525   2.410  20.160  1.00  0.00     0.053 C 
BRANCH   8   9
ATOM      9  C   UNL     1      51.869   2.934  19.751  1.00  0.00     0.041 C 
ATOM     10  O   UNL     1      52.902   2.584  20.379  1.00  0.00    -0.550 OA
ATOM     11  O   UNL     1      51.977   3.838  18.701  1.00  0.00    -0.550 OA
ENDBRANCH   8   9
ENDBRANCH   7   8
ENDBRANCH   6   7
ENDBRANCH   5   6
ENDBRANCH   4   5
ENDBRANCH   3   4
ENDBRANCH   2   3
ENDBRANCH   1   2
BRANCH   1  12
ATOM     12  C   UNL     1      43.276   1.026  22.453  1.00  0.00     0.000 C 
BRANCH  12  13
ATOM     13  C   UNL     1      43.814  -0.351  22.881  1.00  0.00    -0.000 C 
BRANCH  13  14
ATOM     14  C   UNL     1      44.849  -0.327  24.021  1.00  0.00    -0.000 C 
BRANCH  14  15
ATOM     15  C   UNL     1      45.878   0.804  23.873  1.00  0.00    -0.000 C 
BRANCH  15  16
ATOM     16  C   UNL     1      47.289   0.239  23.665  1.00  0.00    -0.000 C 
BRANCH  16  17
ATOM     17  C   UNL     1      47.307  -0.802  22.538  1.00  0.00    -0.000 C 
BRANCH  17  18
ATOM     18  C   UNL     1      48.742  -1.066  22.057  1.00  0.00    -0.000 C 
BRANCH  18  19
ATOM     19  C   UNL     1      49.770  -0.148  22.735  1.00  0.00    -0.003 C 
ATOM     20  C   UNL     1      51.210  -0.494  22.358  1.00  0.00     0.004 C 
ENDBRANCH  18  19
ENDBRANCH  17  18
ENDBRANCH  16  17
ENDBRANCH  15  16
ENDBRANCH  14  15
ENDBRANCH  13  14
ENDBRANCH  12  13
ENDBRANCH   1  12
TORSDOF 16
ENDMDL
MODEL 4
REMARK VINA RESULT:    -3.829      3.633      7.038
REMARK INTER + INTRA:         -10.157
REMARK INTER:                  -8.102
REMARK INTRA:                  -2.055
REMARK UNBOUND:                -2.747
REMARK SMILES CCCCCCCCCCCCCCCCCC(=O)[O-]
REMARK SMILES IDX 10 1 11 2 12 3 13 4 14 5 15 6 16 7 17 8 18 9 19 10 20 11
REMARK SMILES IDX 9 12 8 13 7 14 6 15 5 16 4 17 3 18 2 19 1 20
REMARK H PARENT
REMARK Flexibility Score: inf
ROOT
ATOM      1  C   UNL     1      50.469   6.604  24.750  1.00  0.00     0.000 C 
ENDROOT
BRANCH   1   2
ATOM      2  C   UNL     1      49.645   5.425  25.301  1.00  0.00     0.000 C 
BRANCH   2   3
ATOM      3  C   UNL     1      48.147   5.452  24.948  1.00  0.00     0.000 C 
BRANCH   3   4
ATOM      4  C   UNL     1      47.874   5.132  23.468  1.00  0.00     0.000 C 
BRANCH   4   5
ATOM      5  C   UNL     1      48.681   3.923  22.969  1.00  0.00     0.000 C 
BRANCH   5   6
ATOM      6  C   UNL     1      49.208   4.118  21.537  1.00  0.00     0.000 C 
BRANCH   6   7
ATOM      7  C   UNL     1      50.583   3.465  21.306  1.00  0.00     0.006 C 
BRANCH   7   8
ATOM      8  C   UNL     1      50.773   2.894  19.889  1.00  0.00     0.053 C 
BRANCH   8   9
ATOM      9  C   UNL     1      51.980   3.456  19.202  1.00  0.00     0.041 C 
ATOM     10  O   UNL     1      53.095   2.883  19.313  1.00  0.00    -0.550 OA
ATOM     11  O   UNL     1      51.883   4.632  18.467  1.00  0.00    -0.550 OA
ENDBRANCH   8   9
ENDBRANCH   7   8
ENDBRANCH   6   7
ENDBRANCH   5   6
ENDBRANCH   4   5
ENDBRANCH   3   4
ENDBRANCH   2   3
ENDBRANCH   1   2
BRANCH   1  12
ATOM     12  C   UNL     1      49.992   7.968  25.280  1.00  0.00     0.000 C 
BRANCH  12  13
ATOM     13  C   UNL     1      49.542   8.923  24.159  1.00  0.00    -0.000 C 
BRANCH  13  14
ATOM     14  C   UNL     1      49.526   8.315  22.744  1.00  0.00    -0.000 C 
BRANCH  14  15
ATOM     15  C   UNL     1      48.339   8.799  21.897  1.00  0.00    -0.000 C 
BRANCH  15  16
ATOM     16  C   UNL     1      47.903   7.720  20.897  1.00  0.00    -0.000 C 
BRANCH  16  17
ATOM     17  C   UNL     1      47.985   8.238  19.456  1.00  0.00    -0.000 C 
BRANCH  17  18
ATOM     18  C   UNL     1      49.066   9.321  19.322  1.00  0.00    -0.000 C 
BRANCH  18  19
ATOM     19  C   UNL     1      50.243   8.874  18.442  1.00  0.00    -0.003 C 
ATOM     20  C   UNL     1      51.292   8.078  19.218  1.00  0.00     0.004 C 
ENDBRANCH  18  19
ENDBRANCH  17  18
ENDBRANCH  16  17
ENDBRANCH  15  16
ENDBRANCH  14  15
ENDBRANCH  13  14
ENDBRANCH  12  13
ENDBRANCH   1  12
TORSDOF 16
ENDMDL
MODEL 5
REMARK VINA RESULT:    -3.815      2.229      5.670
REMARK INTER + INTRA:         -10.131
REMARK INTER:                  -8.296
REMARK INTRA:                  -1.835
REMARK UNBOUND:                -2.747
REMARK SMILES CCCCCCCCCCCCCCCCCC(=O)[O-]
REMARK SMILES IDX 10 1 11 2 12 3 13 4 14 5 15 6 16 7 17 8 18 9 19 10 20 11
REMARK SMILES IDX 9 12 8 13 7 14 6 15 5 16 4 17 3 18 2 19 1 20
REMARK H PARENT
REMARK Flexibility Score: inf
ROOT
ATOM      1  C   UNL     1      47.674   2.033  20.357  1.00  0.00     0.000 C 
ENDROOT
BRANCH   1   2
ATOM      2  C   UNL     1      47.928   0.788  21.229  1.00  0.00     0.000 C 
BRANCH   2   3
ATOM      3  C   UNL     1      49.105   0.907  22.213  1.00  0.00     0.000 C 
BRANCH   3   4
ATOM      4  C   UNL     1      49.206   2.297  22.864  1.00  0.00     0.000 C 
BRANCH   4   5
ATOM      5  C   UNL     1      50.567   2.965  22.617  1.00  0.00     0.000 C 
BRANCH   5   6
ATOM      6  C   UNL     1      51.261   2.439  21.349  1.00  0.00     0.000 C 
BRANCH   6   7
ATOM      7  C   UNL     1      51.066   3.356  20.128  1.00  0.00     0.006 C 
BRANCH   7   8
ATOM      8  C   UNL     1      52.237   3.326  19.131  1.00  0.00     0.053 C 
BRANCH   8   9
ATOM      9  C   UNL     1      53.420   2.573  19.659  1.00  0.00     0.041 C 
ATOM     10  O   UNL     1      54.367   3.190  20.213  1.00  0.00    -0.550 OA
ATOM     11  O   UNL     1      53.497   1.194  19.507  1.00  0.00    -0.550 OA
ENDBRANCH   8   9
ENDBRANCH   7   8
ENDBRANCH   6   7
ENDBRANCH   5   6
ENDBRANCH   4   5
ENDBRANCH   3   4
ENDBRANCH   2   3
ENDBRANCH   1   2
BRANCH   1  12
ATOM     12  C   UNL     1      46.183   2.395  20.250  1.00  0.00     0.000 C 
BRANCH  12  13
ATOM     13  C   UNL     1      45.893   3.860  20.625  1.00  0.00    -0.000 C 
BRANCH  13  14
ATOM     14  C   UNL     1      46.936   4.523  21.542  1.00  0.00    -0.000 C 
BRANCH  14  15
ATOM     15  C   UNL     1      47.380   5.907  21.045  1.00  0.00    -0.000 C 
BRANCH  15  16
ATOM     16  C   UNL     1      48.857   6.161  21.370  1.00  0.00    -0.000 C 
BRANCH  16  17
ATOM     17  C   UNL     1      49.380   7.399  20.632  1.00  0.00    -0.000 C 
BRANCH  17  18
ATOM     18  C   UNL     1      50.784   7.148  20.062  1.00  0.00    -0.000 C 
BRANCH  18  19
ATOM     19  C   UNL     1      51.063   7.970  18.795  1.00  0.00    -0.003 C 
ATOM     20  C   UNL     1      50.369   9.332  18.810  1.00  0.00     0.004 C 
ENDBRANCH  18  19
ENDBRANCH  17  18
ENDBRANCH  16  17
ENDBRANCH  15  16
ENDBRANCH  14  15
ENDBRANCH  13  14
ENDBRANCH  12  13
ENDBRANCH   1  12
TORSDOF 16
ENDMDL
MODEL 6
REMARK VINA RESULT:    -3.806      2.554      4.847
REMARK INTER + INTRA:         -10.112
REMARK INTER:                  -7.740
REMARK INTRA:                  -2.372
REMARK UNBOUND:                -2.747
REMARK SMILES CCCCCCCCCCCCCCCCCC(=O)[O-]
REMARK SMILES IDX 10 1 11 2 12 3 13 4 14 5 15 6 16 7 17 8 18 9 19 10 20 11
REMARK SMILES IDX 9 12 8 13 7 14 6 15 5 16 4 17 3 18 2 19 1 20
REMARK H PARENT
REMARK Flexibility Score: inf
ROOT
ATOM      1  C   UNL     1      46.719   1.602  20.034  1.00  0.00     0.000 C 
ENDROOT
BRANCH   1   2
ATOM      2  C   UNL     1      46.230   3.018  20.394  1.00  0.00     0.000 C 
BRANCH   2   3
ATOM      3  C   UNL     1      46.635   3.515  21.794  1.00  0.00     0.000 C 
BRANCH   3   4
ATOM      4  C   UNL     1      47.410   4.843  21.758  1.00  0.00     0.000 C 
BRANCH   4   5
ATOM      5  C   UNL     1      48.548   4.888  22.790  1.00  0.00     0.000 C 
BRANCH   5   6
ATOM      6  C   UNL     1      49.641   5.905  22.419  1.00  0.00     0.000 C 
BRANCH   6   7
ATOM      7  C   UNL     1      49.546   6.386  20.960  1.00  0.00     0.006 C 
BRANCH   7   8
ATOM      8  C   UNL     1      49.847   7.884  20.777  1.00  0.00     0.053 C 
BRANCH   8   9
ATOM      9  C   UNL     1      50.845   8.140  19.689  1.00  0.00     0.041 C 
ATOM     10  O   UNL     1      51.668   7.245  19.362  1.00  0.00    -0.550 OA
ATOM     11  O   UNL     1      50.894   9.379  19.062  1.00  0.00    -0.550 OA
ENDBRANCH   8   9
ENDBRANCH   7   8
ENDBRANCH   6   7
ENDBRANCH   5   6
ENDBRANCH   4   5
ENDBRANCH   3   4
ENDBRANCH   2   3
ENDBRANCH   1   2
BRANCH   1  12
ATOM     12  C   UNL     1      48.112   1.286  20.606  1.00  0.00     0.000 C 
BRANCH  12  13
ATOM     13  C   UNL     1      48.192  -0.107  21.256  1.00  0.00    -0.000 C 
BRANCH  13  14
ATOM     14  C   UNL     1      48.638  -0.121  22.729  1.00  0.00    -0.000 C 
BRANCH  14  15
ATOM     15  C   UNL     1      49.212   1.225  23.195  1.00  0.00    -0.000 C 
BRANCH  15  16
ATOM     16  C   UNL     1      50.745   1.188  23.223  1.00  0.00    -0.000 C 
BRANCH  16  17
ATOM     17  C   UNL     1      51.338   2.519  22.743  1.00  0.00    -0.000 C 
BRANCH  17  18
ATOM     18  C   UNL     1      51.971   2.369  21.352  1.00  0.00    -0.000 C 
BRANCH  18  19
ATOM     19  C   UNL     1      51.234   3.183  20.277  1.00  0.00    -0.003 C 
ATOM     20  C   UNL     1      51.989   3.230  18.949  1.00  0.00     0.004 C 
ENDBRANCH  18  19
ENDBRANCH  17  18
ENDBRANCH  16  17
ENDBRANCH  15  16
ENDBRANCH  14  15
ENDBRANCH  13  14
ENDBRANCH  12  13
ENDBRANCH   1  12
TORSDOF 16
ENDMDL
MODEL 7
REMARK VINA RESULT:    -3.798      2.385      5.815
REMARK INTER + INTRA:         -10.097
REMARK INTER:                  -8.145
REMARK INTRA:                  -1.953
REMARK UNBOUND:                -2.747
REMARK SMILES CCCCCCCCCCCCCCCCCC(=O)[O-]
REMARK SMILES IDX 10 1 11 2 12 3 13 4 14 5 15 6 16 7 17 8 18 9 19 10 20 11
REMARK SMILES IDX 9 12 8 13 7 14 6 15 5 16 4 17 3 18 2 19 1 20
REMARK H PARENT
REMARK Flexibility Score: inf
ROOT
ATOM      1  C   UNL     1      46.885   4.748  21.182  1.00  0.00     0.000 C 
ENDROOT
BRANCH   1   2
ATOM      2  C   UNL     1      45.642   3.838  21.188  1.00  0.00     0.000 C 
BRANCH   2   3
ATOM      3  C   UNL     1      45.733   2.600  20.278  1.00  0.00     0.000 C 
BRANCH   3   4
ATOM      4  C   UNL     1      47.178   2.250  19.882  1.00  0.00     0.000 C 
BRANCH   4   5
ATOM      5  C   UNL     1      47.708   1.012  20.622  1.00  0.00     0.000 C 
BRANCH   5   6
ATOM      6  C   UNL     1      49.042   1.280  21.340  1.00  0.00     0.000 C 
BRANCH   6   7
ATOM      7  C   UNL     1      49.854   2.419  20.697  1.00  0.00     0.006 C 
BRANCH   7   8
ATOM      8  C   UNL     1      51.378   2.232  20.799  1.00  0.00     0.053 C 
BRANCH   8   9
ATOM      9  C   UNL     1      52.066   2.395  19.478  1.00  0.00     0.041 C 
ATOM     10  O   UNL     1      52.896   1.534  19.087  1.00  0.00    -0.550 OA
ATOM     11  O   UNL     1      51.820   3.516  18.695  1.00  0.00    -0.550 OA
ENDBRANCH   8   9
ENDBRANCH   7   8
ENDBRANCH   6   7
ENDBRANCH   5   6
ENDBRANCH   4   5
ENDBRANCH   3   4
ENDBRANCH   2   3
ENDBRANCH   1   2
BRANCH   1  12
ATOM     12  C   UNL     1      47.560   4.850  22.561  1.00  0.00     0.000 C 
BRANCH  12  13
ATOM     13  C   UNL     1      49.003   5.382  22.485  1.00  0.00    -0.000 C 
BRANCH  13  14
ATOM     14  C   UNL     1      49.311   6.277  21.271  1.00  0.00    -0.000 C 
BRANCH  14  15
ATOM     15  C   UNL     1      49.696   7.711  21.664  1.00  0.00    -0.000 C 
BRANCH  15  16
ATOM     16  C   UNL     1      48.836   8.210  22.831  1.00  0.00    -0.000 C 
BRANCH  16  17
ATOM     17  C   UNL     1      49.709   8.772  23.960  1.00  0.00    -0.000 C 
BRANCH  17  18
ATOM     18  C   UNL     1      49.599   7.905  25.223  1.00  0.00    -0.000 C 
BRANCH  18  19
ATOM     19  C   UNL     1      50.608   6.747  25.233  1.00  0.00    -0.003 C 
ATOM     20  C   UNL     1      50.602   5.968  26.548  1.00  0.00     0.004 C 
ENDBRANCH  18  19
ENDBRANCH  17  18
ENDBRANCH  16  17
ENDBRANCH  15  16
ENDBRANCH  14  15
ENDBRANCH  13  14
ENDBRANCH  12  13
ENDBRANCH   1  12
TORSDOF 16
ENDMDL
MODEL 8
REMARK VINA RESULT:    -3.783      1.259      3.006
REMARK INTER + INTRA:         -10.068
REMARK INTER:                  -7.547
REMARK INTRA:                  -2.521
REMARK UNBOUND:                -2.747
REMARK SMILES CCCCCCCCCCCCCCCCCC(=O)[O-]
REMARK SMILES IDX 10 1 11 2 12 3 13 4 14 5 15 6 16 7 17 8 18 9 19 10 20 11
REMARK SMILES IDX 9 12 8 13 7 14 6 15 5 16 4 17 3 18 2 19 1 20
REMARK H PARENT
REMARK Flexibility Score: inf
ROOT
ATOM      1  C   UNL     1      44.902   3.136  20.142  1.00  0.00     0.000 C 
ENDROOT
BRANCH   1   2
ATOM      2  C   UNL     1      45.782   3.883  21.163  1.00  0.00     0.000 C 
BRANCH   2   3
ATOM      3  C   UNL     1      47.283   3.549  21.101  1.00  0.00     0.000 C 
BRANCH   3   4
ATOM      4  C   UNL     1      47.582   2.276  20.291  1.00  0.00     0.000 C 
BRANCH   4   5
ATOM      5  C   UNL     1      49.015   1.764  20.507  1.00  0.00     0.000 C 
BRANCH   5   6
ATOM      6  C   UNL     1      49.587   2.174  21.875  1.00  0.00     0.000 C 
BRANCH   6   7
ATOM      7  C   UNL     1      51.000   2.778  21.781  1.00  0.00     0.006 C 
BRANCH   7   8
ATOM      8  C   UNL     1      52.012   1.884  21.044  1.00  0.00     0.053 C 
BRANCH   8   9
ATOM      9  C   UNL     1      52.654   2.580  19.882  1.00  0.00     0.041 C 
ATOM     10  O   UNL     1      53.908   2.613  19.778  1.00  0.00    -0.550 OA
ATOM     11  O   UNL     1      51.869   3.224  18.933  1.00  0.00    -0.550 OA
ENDBRANCH   8   9
ENDBRANCH   7   8
ENDBRANCH   6   7
ENDBRANCH   5   6
ENDBRANCH   4   5
ENDBRANCH   3   4
ENDBRANCH   2   3
ENDBRANCH   1   2
BRANCH   1  12
ATOM     12  C   UNL     1      43.445   2.978  20.610  1.00  0.00     0.000 C 
BRANCH  12  13
ATOM     13  C   UNL     1      43.316   2.144  21.898  1.00  0.00    -0.000 C 
BRANCH  13  14
ATOM     14  C   UNL     1      43.397   0.618  21.705  1.00  0.00    -0.000 C 
BRANCH  14  15
ATOM     15  C   UNL     1      44.234  -0.080  22.787  1.00  0.00    -0.000 C 
BRANCH  15  16
ATOM     16  C   UNL     1      45.100   0.931  23.549  1.00  0.00    -0.000 C 
BRANCH  16  17
ATOM     17  C   UNL     1      46.589   0.582  23.432  1.00  0.00    -0.000 C 
BRANCH  17  18
ATOM     18  C   UNL     1      46.802  -0.601  22.476  1.00  0.00    -0.000 C 
BRANCH  18  19
ATOM     19  C   UNL     1      47.838  -1.606  23.003  1.00  0.00    -0.003 C 
ATOM     20  C   UNL     1      49.149  -1.570  22.219  1.00  0.00     0.004 C 
ENDBRANCH  18  19
ENDBRANCH  17  18
ENDBRANCH  16  17
ENDBRANCH  15  16
ENDBRANCH  14  15
ENDBRANCH  13  14
ENDBRANCH  12  13
ENDBRANCH   1  12
TORSDOF 16
ENDMDL
MODEL 9
REMARK VINA RESULT:    -3.739      2.408      4.780
REMARK INTER + INTRA:          -9.983
REMARK INTER:                  -7.419
REMARK INTRA:                  -2.564
REMARK UNBOUND:                -2.747
REMARK SMILES CCCCCCCCCCCCCCCCCC(=O)[O-]
REMARK SMILES IDX 10 1 11 2 12 3 13 4 14 5 15 6 16 7 17 8 18 9 19 10 20 11
REMARK SMILES IDX 9 12 8 13 7 14 6 15 5 16 4 17 3 18 2 19 1 20
REMARK H PARENT
REMARK Flexibility Score: inf
ROOT
ATOM      1  C   UNL     1      45.111   3.155  22.763  1.00  0.00     0.000 C 
ENDROOT
BRANCH   1   2
ATOM      2  C   UNL     1      46.309   3.455  23.685  1.00  0.00     0.000 C 
BRANCH   2   3
ATOM      3  C   UNL     1      47.077   4.749  23.361  1.00  0.00     0.000 C 
BRANCH   3   4
ATOM      4  C   UNL     1      48.602   4.551  23.337  1.00  0.00     0.000 C 
BRANCH   4   5
ATOM      5  C   UNL     1      49.288   5.393  22.250  1.00  0.00     0.000 C 
BRANCH   5   6
ATOM      6  C   UNL     1      48.286   5.995  21.250  1.00  0.00     0.000 C 
BRANCH   6   7
ATOM      7  C   UNL     1      48.578   7.469  20.916  1.00  0.00     0.006 C 
BRANCH   7   8
ATOM      8  C   UNL     1      50.077   7.808  20.850  1.00  0.00     0.053 C 
BRANCH   8   9
ATOM      9  C   UNL     1      50.600   7.827  19.446  1.00  0.00     0.041 C 
ATOM     10  O   UNL     1      49.901   8.308  18.517  1.00  0.00    -0.550 OA
ATOM     11  O   UNL     1      51.844   7.280  19.155  1.00  0.00    -0.550 OA
ENDBRANCH   8   9
ENDBRANCH   7   8
ENDBRANCH   6   7
ENDBRANCH   5   6
ENDBRANCH   4   5
ENDBRANCH   3   4
ENDBRANCH   2   3
ENDBRANCH   1   2
BRANCH   1  12
ATOM     12  C   UNL     1      45.162   3.940  21.441  1.00  0.00     0.000 C 
BRANCH  12  13
ATOM     13  C   UNL     1      45.589   3.071  20.244  1.00  0.00    -0.000 C 
BRANCH  13  14
ATOM     14  C   UNL     1      45.978   1.622  20.588  1.00  0.00    -0.000 C 
BRANCH  14  15
ATOM     15  C   UNL     1      47.340   1.212  20.008  1.00  0.00    -0.000 C 
BRANCH  15  16
ATOM     16  C   UNL     1      48.441   2.180  20.456  1.00  0.00    -0.000 C 
BRANCH  16  17
ATOM     17  C   UNL     1      49.407   1.504  21.436  1.00  0.00    -0.000 C 
BRANCH  17  18
ATOM     18  C   UNL     1      50.852   1.963  21.190  1.00  0.00    -0.000 C 
BRANCH  18  19
ATOM     19  C   UNL     1      50.960   2.984  20.047  1.00  0.00    -0.003 C 
ATOM     20  C   UNL     1      52.164   2.730  19.140  1.00  0.00     0.004 C 
ENDBRANCH  18  19
ENDBRANCH  17  18
ENDBRANCH  16  17
ENDBRANCH  15  16
ENDBRANCH  14  15
ENDBRANCH  13  14
ENDBRANCH  12  13
ENDBRANCH   1  12
TORSDOF 16
ENDMDL
