MODEL 1
REMARK VINA RESULT:    -4.142      0.000      0.000
REMARK INTER + INTRA:         -13.796
REMARK INTER:                  -9.469
REMARK INTRA:                  -4.328
REMARK UNBOUND:                -4.328
REMARK SMILES CCCCCCCCCCCCCCCCCCCCCCCC(=O)[O-]
REMARK SMILES IDX 13 1 14 2 15 3 16 4 17 5 18 6 19 7 20 8 21 9 22 10 23 11
REMARK SMILES IDX 24 12 25 13 26 14 12 15 11 16 10 17 9 18 8 19 7 20 6 21 5 22
REMARK SMILES IDX 4 23 3 24 2 25 1 26
REMARK H PARENT
REMARK Flexibility Score: inf
ROOT
ATOM      1  C   UNL     1      84.563 123.412 126.167  1.00  0.00     0.000 C 
ENDROOT
BRANCH   1   2
ATOM      2  C   UNL     1      83.182 124.093 126.181  1.00  0.00     0.000 C 
BRANCH   2   3
ATOM      3  C   UNL     1      82.492 123.979 127.548  1.00  0.00     0.000 C 
BRANCH   3   4
ATOM      4  C   UNL     1      83.331 123.150 128.530  1.00  0.00     0.000 C 
BRANCH   4   5
ATOM      5  C   UNL     1      82.583 122.952 129.855  1.00  0.00     0.000 C 
BRANCH   5   6
ATOM      6  C   UNL     1      83.293 121.931 130.753  1.00  0.00     0.000 C 
BRANCH   6   7
ATOM      7  C   UNL     1      83.902 122.623 131.981  1.00  0.00     0.000 C 
BRANCH   7   8
ATOM      8  C   UNL     1      83.648 124.141 132.004  1.00  0.00     0.000 C 
BRANCH   8   9
ATOM      9  C   UNL     1      84.888 125.008 132.305  1.00  0.00     0.000 C 
BRANCH   9  10
ATOM     10  C   UNL     1      85.988 124.982 131.225  1.00  0.00     0.006 C 
BRANCH  10  11
ATOM     11  C   UNL     1      85.505 125.348 129.814  1.00  0.00     0.053 C 
BRANCH  11  12
ATOM     12  C   UNL     1      86.575 125.152 128.785  1.00  0.00     0.041 C 
ATOM     13  O   UNL     1      86.953 126.118 128.073  1.00  0.00    -0.550 OA
ATOM     14  O   UNL     1      87.134 123.895 128.591  1.00  0.00    -0.550 OA
ENDBRANCH  11  12
ENDBRANCH  10  11
ENDBRANCH   9  10
ENDBRANCH   8   9
ENDBRANCH   7   8
ENDBRANCH   6   7
ENDBRANCH   5   6
ENDBRANCH   4   5
ENDBRANCH   3   4
ENDBRANCH   2   3
ENDBRANCH   1   2
BRANCH   1  15
ATOM     15  C   UNL     1      84.811 122.602 124.881  1.00  0.00     0.000 C 
BRANCH  15  16
ATOM     16  C   UNL     1      83.501 122.169 124.205  1.00  0.00     0.000 C 
BRANCH  16  17
ATOM     17  C   UNL     1      83.131 120.699 124.490  1.00  0.00     0.000 C 
BRANCH  17  18
ATOM     18  C   UNL     1      82.031 120.586 125.561  1.00  0.00    -0.000 C 
BRANCH  18  19
ATOM     19  C   UNL     1      82.606 120.204 126.940  1.00  0.00    -0.000 C 
BRANCH  19  20
ATOM     20  C   UNL     1      83.976 119.516 126.830  1.00  0.00    -0.000 C 
BRANCH  20  21
ATOM     21  C   UNL     1      84.675 119.466 128.197  1.00  0.00    -0.000 C 
BRANCH  21  22
ATOM     22  C   UNL     1      85.765 120.555 128.328  1.00  0.00    -0.000 C 
BRANCH  22  23
ATOM     23  C   UNL     1      86.999 120.068 129.107  1.00  0.00    -0.000 C 
BRANCH  23  24
ATOM     24  C   UNL     1      86.788 120.072 130.635  1.00  0.00    -0.000 C 
BRANCH  24  25
ATOM     25  C   UNL     1      87.242 121.372 131.314  1.00  0.00    -0.003 C 
ATOM     26  C   UNL     1      88.723 121.667 131.100  1.00  0.00     0.004 C 
ENDBRANCH  24  25
ENDBRANCH  23  24
ENDBRANCH  22  23
ENDBRANCH  21  22
ENDBRANCH  20  21
ENDBRANCH  19  20
ENDBRANCH  18  19
ENDBRANCH  17  18
ENDBRANCH  16  17
ENDBRANCH  15  16
ENDBRANCH   1  15
TORSDOF 22
ENDMDL
MODEL 2
REMARK VINA RESULT:    -3.965      1.656      4.551
REMARK INTER + INTRA:         -13.392
REMARK INTER:                  -9.649
REMARK INTRA:                  -3.743
REMARK UNBOUND:                -4.328
REMARK SMILES CCCCCCCCCCCCCCCCCCCCCCCC(=O)[O-]
REMARK SMILES IDX 13 1 14 2 15 3 16 4 17 5 18 6 19 7 20 8 21 9 22 10 23 11
REMARK SMILES IDX 24 12 25 13 26 14 12 15 11 16 10 17 9 18 8 19 7 20 6 21 5 22
REMARK SMILES IDX 4 23 3 24 2 25 1 26
REMARK H PARENT
REMARK Flexibility Score: inf
ROOT
ATOM      1  C   UNL     1      85.640 125.275 128.248  1.00  0.00     0.000 C 
ENDROOT
BRANCH   1   2
ATOM      2  C   UNL     1      84.885 126.037 129.352  1.00  0.00     0.000 C 
BRANCH   2   3
ATOM      3  C   UNL     1      83.447 125.530 129.530  1.00  0.00     0.000 C 
BRANCH   3   4
ATOM      4  C   UNL     1      83.061 125.455 131.014  1.00  0.00     0.000 C 
BRANCH   4   5
ATOM      5  C   UNL     1      84.145 124.731 131.823  1.00  0.00     0.000 C 
BRANCH   5   6
ATOM      6  C   UNL     1      84.746 125.645 132.899  1.00  0.00     0.000 C 
BRANCH   6   7
ATOM      7  C   UNL     1      86.237 125.336 133.099  1.00  0.00     0.000 C 
BRANCH   7   8
ATOM      8  C   UNL     1      86.779 124.308 132.091  1.00  0.00     0.000 C 
BRANCH   8   9
ATOM      9  C   UNL     1      86.994 122.888 132.655  1.00  0.00     0.000 C 
BRANCH   9  10
ATOM     10  C   UNL     1      86.374 121.747 131.824  1.00  0.00     0.006 C 
BRANCH  10  11
ATOM     11  C   UNL     1      87.392 120.753 131.246  1.00  0.00     0.053 C 
BRANCH  11  12
ATOM     12  C   UNL     1      88.655 121.430 130.811  1.00  0.00     0.041 C 
ATOM     13  O   UNL     1      88.676 122.109 129.753  1.00  0.00    -0.550 OA
ATOM     14  O   UNL     1      89.817 121.287 131.560  1.00  0.00    -0.550 OA
ENDBRANCH  11  12
ENDBRANCH  10  11
ENDBRANCH   9  10
ENDBRANCH   8   9
ENDBRANCH   7   8
ENDBRANCH   6   7
ENDBRANCH   5   6
ENDBRANCH   4   5
ENDBRANCH   3   4
ENDBRANCH   2   3
ENDBRANCH   1   2
BRANCH   1  15
ATOM     15  C   UNL     1      86.195 123.924 128.735  1.00  0.00     0.000 C 
BRANCH  15  16
ATOM     16  C   UNL     1      85.720 122.752 127.863  1.00  0.00     0.000 C 
BRANCH  16  17
ATOM     17  C   UNL     1      84.578 121.940 128.509  1.00  0.00     0.000 C 
BRANCH  17  18
ATOM     18  C   UNL     1      84.913 120.439 128.574  1.00  0.00    -0.000 C 
BRANCH  18  19
ATOM     19  C   UNL     1      84.248 119.649 127.429  1.00  0.00    -0.000 C 
BRANCH  19  20
ATOM     20  C   UNL     1      83.094 120.428 126.778  1.00  0.00    -0.000 C 
BRANCH  20  21
ATOM     21  C   UNL     1      82.782 119.876 125.379  1.00  0.00    -0.000 C 
BRANCH  21  22
ATOM     22  C   UNL     1      83.141 120.888 124.266  1.00  0.00    -0.000 C 
BRANCH  22  23
ATOM     23  C   UNL     1      84.238 121.877 124.696  1.00  0.00    -0.000 C 
BRANCH  23  24
ATOM     24  C   UNL     1      83.910 123.339 124.330  1.00  0.00    -0.000 C 
BRANCH  24  25
ATOM     25  C   UNL     1      83.703 124.246 125.551  1.00  0.00    -0.003 C 
ATOM     26  C   UNL     1      82.384 123.982 126.271  1.00  0.00     0.004 C 
ENDBRANCH  24  25
ENDBRANCH  23  24
ENDBRANCH  22  23
ENDBRANCH  21  22
ENDBRANCH  20  21
ENDBRANCH  19  20
ENDBRANCH  18  19
ENDBRANCH  17  18
ENDBRANCH  16  17
ENDBRANCH  15  16
ENDBRANCH   1  15
TORSDOF 22
ENDMDL
MODEL 3
REMARK VINA RESULT:    -3.882      1.477      4.520
REMARK INTER + INTRA:         -13.203
REMARK INTER:                  -9.314
REMARK INTRA:                  -3.890
REMARK UNBOUND:                -4.328
REMARK SMILES CCCCCCCCCCCCCCCCCCCCCCCC(=O)[O-]
REMARK SMILES IDX 13 1 14 2 15 3 16 4 17 5 18 6 19 7 20 8 21 9 22 10 23 11
REMARK SMILES IDX 24 12 25 13 26 14 12 15 11 16 10 17 9 18 8 19 7 20 6 21 5 22
REMARK SMILES IDX 4 23 3 24 2 25 1 26
REMARK H PARENT
REMARK Flexibility Score: inf
ROOT
ATOM      1  C   UNL     1      84.649 125.805 129.656  1.00  0.00     0.000 C 
ENDROOT
BRANCH   1   2
ATOM      2  C   UNL     1      83.263 126.288 130.120  1.00  0.00     0.000 C 
BRANCH   2   3
ATOM      3  C   UNL     1      83.156 126.365 131.649  1.00  0.00     0.000 C 
BRANCH   3   4
ATOM      4  C   UNL     1      81.994 125.509 132.172  1.00  0.00     0.000 C 
BRANCH   4   5
ATOM      5  C   UNL     1      82.514 124.353 133.036  1.00  0.00     0.000 C 
BRANCH   5   6
ATOM      6  C   UNL     1      82.999 123.182 132.173  1.00  0.00     0.000 C 
BRANCH   6   7
ATOM      7  C   UNL     1      84.531 123.078 132.214  1.00  0.00     0.000 C 
BRANCH   7   8
ATOM      8  C   UNL     1      85.053 121.703 131.761  1.00  0.00     0.000 C 
BRANCH   8   9
ATOM      9  C   UNL     1      86.422 121.297 132.346  1.00  0.00     0.000 C 
BRANCH   9  10
ATOM     10  C   UNL     1      87.477 120.858 131.311  1.00  0.00     0.006 C 
BRANCH  10  11
ATOM     11  C   UNL     1      88.645 121.840 131.135  1.00  0.00     0.053 C 
BRANCH  11  12
ATOM     12  C   UNL     1      88.229 123.085 130.415  1.00  0.00     0.041 C 
ATOM     13  O   UNL     1      88.306 123.147 129.162  1.00  0.00    -0.550 OA
ATOM     14  O   UNL     1      87.783 124.190 131.132  1.00  0.00    -0.550 OA
ENDBRANCH  11  12
ENDBRANCH  10  11
ENDBRANCH   9  10
ENDBRANCH   8   9
ENDBRANCH   7   8
ENDBRANCH   6   7
ENDBRANCH   5   6
ENDBRANCH   4   5
ENDBRANCH   3   4
ENDBRANCH   2   3
ENDBRANCH   1   2
BRANCH   1  15
ATOM     15  C   UNL     1      84.566 124.777 128.512  1.00  0.00     0.000 C 
BRANCH  15  16
ATOM     16  C   UNL     1      83.268 123.956 128.562  1.00  0.00     0.000 C 
BRANCH  16  17
ATOM     17  C   UNL     1      83.514 122.433 128.512  1.00  0.00     0.000 C 
BRANCH  17  18
ATOM     18  C   UNL     1      84.976 122.104 128.160  1.00  0.00    -0.000 C 
BRANCH  18  19
ATOM     19  C   UNL     1      85.122 120.690 127.564  1.00  0.00    -0.000 C 
BRANCH  19  20
ATOM     20  C   UNL     1      83.827 119.871 127.683  1.00  0.00    -0.000 C 
BRANCH  20  21
ATOM     21  C   UNL     1      83.352 119.394 126.302  1.00  0.00    -0.000 C 
BRANCH  21  22
ATOM     22  C   UNL     1      82.535 120.481 125.567  1.00  0.00    -0.000 C 
BRANCH  22  23
ATOM     23  C   UNL     1      82.816 120.512 124.055  1.00  0.00    -0.000 C 
BRANCH  23  24
ATOM     24  C   UNL     1      83.325 121.884 123.564  1.00  0.00    -0.000 C 
BRANCH  24  25
ATOM     25  C   UNL     1      84.439 122.475 124.438  1.00  0.00    -0.003 C 
ATOM     26  C   UNL     1      84.105 123.867 124.966  1.00  0.00     0.004 C 
ENDBRANCH  24  25
ENDBRANCH  23  24
ENDBRANCH  22  23
ENDBRANCH  21  22
ENDBRANCH  20  21
ENDBRANCH  19  20
ENDBRANCH  18  19
ENDBRANCH  17  18
ENDBRANCH  16  17
ENDBRANCH  15  16
ENDBRANCH   1  15
TORSDOF 22
ENDMDL
MODEL 4
REMARK VINA RESULT:    -3.829      2.137      5.675
REMARK INTER + INTRA:         -13.082
REMARK INTER:                  -8.854
REMARK INTRA:                  -4.228
REMARK UNBOUND:                -4.328
REMARK SMILES CCCCCCCCCCCCCCCCCCCCCCCC(=O)[O-]
REMARK SMILES IDX 13 1 14 2 15 3 16 4 17 5 18 6 19 7 20 8 21 9 22 10 23 11
REMARK SMILES IDX 24 12 25 13 26 14 12 15 11 16 10 17 9 18 8 19 7 20 6 21 5 22
REMARK SMILES IDX 4 23 3 24 2 25 1 26
REMARK H PARENT
REMARK Flexibility Score: inf
ROOT
ATOM      1  C   UNL     1      85.997 125.612 129.208  1.00  0.00     0.000 C 
ENDROOT
BRANCH   1   2
ATOM      2  C   UNL     1      86.516 124.508 128.269  1.00  0.00     0.000 C 
BRANCH   2   3
ATOM      3  C   UNL     1      85.532 123.336 128.149  1.00  0.00     0.000 C 
BRANCH   3   4
ATOM      4  C   UNL     1      85.242 122.997 126.680  1.00  0.00     0.000 C 
BRANCH   4   5
ATOM      5  C   UNL     1      84.236 123.988 126.080  1.00  0.00     0.000 C 
BRANCH   5   6
ATOM      6  C   UNL     1      83.999 123.712 124.590  1.00  0.00     0.000 C 
BRANCH   6   7
ATOM      7  C   UNL     1      84.218 122.226 124.273  1.00  0.00     0.000 C 
BRANCH   7   8
ATOM      8  C   UNL     1      83.002 121.570 123.594  1.00  0.00     0.000 C 
BRANCH   8   9
ATOM      9  C   UNL     1      82.159 120.654 124.505  1.00  0.00     0.000 C 
BRANCH   9  10
ATOM     10  C   UNL     1      82.663 120.522 125.956  1.00  0.00     0.006 C 
BRANCH  10  11
ATOM     11  C   UNL     1      83.431 119.225 126.250  1.00  0.00     0.053 C 
BRANCH  11  12
ATOM     12  C   UNL     1      84.131 119.273 127.573  1.00  0.00     0.041 C 
ATOM     13  O   UNL     1      85.340 119.613 127.637  1.00  0.00    -0.550 OA
ATOM     14  O   UNL     1      83.455 118.914 128.733  1.00  0.00    -0.550 OA
ENDBRANCH  11  12
ENDBRANCH  10  11
ENDBRANCH   9  10
ENDBRANCH   8   9
ENDBRANCH   7   8
ENDBRANCH   6   7
ENDBRANCH   5   6
ENDBRANCH   4   5
ENDBRANCH   3   4
ENDBRANCH   2   3
ENDBRANCH   1   2
BRANCH   1  15
ATOM     15  C   UNL     1      84.491 125.878 129.033  1.00  0.00     0.000 C 
BRANCH  15  16
ATOM     16  C   UNL     1      83.741 125.877 130.374  1.00  0.00     0.000 C 
BRANCH  16  17
ATOM     17  C   UNL     1      82.327 125.266 130.276  1.00  0.00     0.000 C 
BRANCH  17  18
ATOM     18  C   UNL     1      82.091 124.594 128.911  1.00  0.00    -0.000 C 
BRANCH  18  19
ATOM     19  C   UNL     1      82.026 123.058 129.027  1.00  0.00    -0.000 C 
BRANCH  19  20
ATOM     20  C   UNL     1      82.127 122.579 130.484  1.00  0.00    -0.000 C 
BRANCH  20  21
ATOM     21  C   UNL     1      83.443 121.824 130.721  1.00  0.00    -0.000 C 
BRANCH  21  22
ATOM     22  C   UNL     1      84.119 122.245 132.046  1.00  0.00    -0.000 C 
BRANCH  22  23
ATOM     23  C   UNL     1      85.420 123.034 131.823  1.00  0.00    -0.000 C 
BRANCH  23  24
ATOM     24  C   UNL     1      86.688 122.207 132.123  1.00  0.00    -0.000 C 
BRANCH  24  25
ATOM     25  C   UNL     1      87.823 122.436 131.115  1.00  0.00    -0.003 C 
ATOM     26  C   UNL     1      88.524 123.777 131.305  1.00  0.00     0.004 C 
ENDBRANCH  24  25
ENDBRANCH  23  24
ENDBRANCH  22  23
ENDBRANCH  21  22
ENDBRANCH  20  21
ENDBRANCH  19  20
ENDBRANCH  18  19
ENDBRANCH  17  18
ENDBRANCH  16  17
ENDBRANCH  15  16
ENDBRANCH   1  15
TORSDOF 22
ENDMDL
MODEL 5
REMARK VINA RESULT:    -3.793      1.722      5.509
REMARK INTER + INTRA:         -12.998
REMARK INTER:                  -8.791
REMARK INTRA:                  -4.207
REMARK UNBOUND:                -4.328
REMARK SMILES CCCCCCCCCCCCCCCCCCCCCCCC(=O)[O-]
REMARK SMILES IDX 13 1 14 2 15 3 16 4 17 5 18 6 19 7 20 8 21 9 22 10 23 11
REMARK SMILES IDX 24 12 25 13 26 14 12 15 11 16 10 17 9 18 8 19 7 20 6 21 5 22
REMARK SMILES IDX 4 23 3 24 2 25 1 26
REMARK H PARENT
REMARK Flexibility Score: inf
ROOT
ATOM      1  C   UNL     1      82.624 124.761 129.054  1.00  0.00     0.000 C 
ENDROOT
BRANCH   1   2
ATOM      2  C   UNL     1      82.213 123.278 129.010  1.00  0.00     0.000 C 
BRANCH   2   3
ATOM      3  C   UNL     1      82.246 122.625 130.399  1.00  0.00     0.000 C 
BRANCH   3   4
ATOM      4  C   UNL     1      83.573 121.892 130.640  1.00  0.00     0.000 C 
BRANCH   4   5
ATOM      5  C   UNL     1      84.250 121.537 129.309  1.00  0.00     0.000 C 
BRANCH   5   6
ATOM      6  C   UNL     1      84.422 120.020 129.155  1.00  0.00     0.000 C 
BRANCH   6   7
ATOM      7  C   UNL     1      83.945 119.561 127.769  1.00  0.00     0.000 C 
BRANCH   7   8
ATOM      8  C   UNL     1      82.791 120.416 127.216  1.00  0.00     0.000 C 
BRANCH   8   9
ATOM      9  C   UNL     1      83.054 121.059 125.838  1.00  0.00     0.000 C 
BRANCH   9  10
ATOM     10  C   UNL     1      84.540 121.248 125.472  1.00  0.00     0.006 C 
BRANCH  10  11
ATOM     11  C   UNL     1      84.890 122.640 124.926  1.00  0.00     0.053 C 
BRANCH  11  12
ATOM     12  C   UNL     1      84.533 123.728 125.890  1.00  0.00     0.041 C 
ATOM     13  O   UNL     1      83.580 124.509 125.637  1.00  0.00    -0.550 OA
ATOM     14  O   UNL     1      85.273 123.899 127.054  1.00  0.00    -0.550 OA
ENDBRANCH  11  12
ENDBRANCH  10  11
ENDBRANCH   9  10
ENDBRANCH   8   9
ENDBRANCH   7   8
ENDBRANCH   6   7
ENDBRANCH   5   6
ENDBRANCH   4   5
ENDBRANCH   3   4
ENDBRANCH   2   3
ENDBRANCH   1   2
BRANCH   1  15
ATOM     15  C   UNL     1      81.905 125.542 130.170  1.00  0.00     0.000 C 
BRANCH  15  16
ATOM     16  C   UNL     1      82.655 126.826 130.556  1.00  0.00     0.000 C 
BRANCH  16  17
ATOM     17  C   UNL     1      83.074 126.858 132.040  1.00  0.00     0.000 C 
BRANCH  17  18
ATOM     18  C   UNL     1      83.628 125.499 132.505  1.00  0.00    -0.000 C 
BRANCH  18  19
ATOM     19  C   UNL     1      85.126 125.577 132.860  1.00  0.00    -0.000 C 
BRANCH  19  20
ATOM     20  C   UNL     1      85.943 124.465 132.184  1.00  0.00    -0.000 C 
BRANCH  20  21
ATOM     21  C   UNL     1      86.008 124.679 130.664  1.00  0.00    -0.000 C 
BRANCH  21  22
ATOM     22  C   UNL     1      87.284 124.062 130.048  1.00  0.00    -0.000 C 
BRANCH  22  23
ATOM     23  C   UNL     1      88.323 123.664 131.111  1.00  0.00    -0.000 C 
BRANCH  23  24
ATOM     24  C   UNL     1      88.826 122.214 130.950  1.00  0.00    -0.000 C 
BRANCH  24  25
ATOM     25  C   UNL     1      87.715 121.212 130.608  1.00  0.00    -0.003 C 
ATOM     26  C   UNL     1      86.973 120.704 131.841  1.00  0.00     0.004 C 
ENDBRANCH  24  25
ENDBRANCH  23  24
ENDBRANCH  22  23
ENDBRANCH  21  22
ENDBRANCH  20  21
ENDBRANCH  19  20
ENDBRANCH  18  19
ENDBRANCH  17  18
ENDBRANCH  16  17
ENDBRANCH  15  16
ENDBRANCH   1  15
TORSDOF 22
ENDMDL
MODEL 6
REMARK VINA RESULT:    -3.761      1.939      6.094
REMARK INTER + INTRA:         -12.926
REMARK INTER:                  -9.165
REMARK INTRA:                  -3.760
REMARK UNBOUND:                -4.328
REMARK SMILES CCCCCCCCCCCCCCCCCCCCCCCC(=O)[O-]
REMARK SMILES IDX 13 1 14 2 15 3 16 4 17 5 18 6 19 7 20 8 21 9 22 10 23 11
REMARK SMILES IDX 24 12 25 13 26 14 12 15 11 16 10 17 9 18 8 19 7 20 6 21 5 22
REMARK SMILES IDX 4 23 3 24 2 25 1 26
REMARK H PARENT
REMARK Flexibility Score: inf
ROOT
ATOM      1  C   UNL     1      86.774 124.552 128.267  1.00  0.00     0.000 C 
ENDROOT
BRANCH   1   2
ATOM      2  C   UNL     1      85.482 123.821 127.860  1.00  0.00     0.000 C 
BRANCH   2   3
ATOM      3  C   UNL     1      84.515 124.734 127.093  1.00  0.00     0.000 C 
BRANCH   3   4
ATOM      4  C   UNL     1      83.645 123.931 126.116  1.00  0.00     0.000 C 
BRANCH   4   5
ATOM      5  C   UNL     1      84.481 123.419 124.936  1.00  0.00     0.000 C 
BRANCH   5   6
ATOM      6  C   UNL     1      83.760 122.291 124.186  1.00  0.00     0.000 C 
BRANCH   6   7
ATOM      7  C   UNL     1      82.780 121.562 125.117  1.00  0.00     0.000 C 
BRANCH   7   8
ATOM      8  C   UNL     1      83.035 120.046 125.191  1.00  0.00     0.000 C 
BRANCH   8   9
ATOM      9  C   UNL     1      83.519 119.529 126.562  1.00  0.00     0.000 C 
BRANCH   9  10
ATOM     10  C   UNL     1      84.609 120.382 127.241  1.00  0.00     0.006 C 
BRANCH  10  11
ATOM     11  C   UNL     1      84.727 120.176 128.759  1.00  0.00     0.053 C 
BRANCH  11  12
ATOM     12  C   UNL     1      86.094 119.712 129.158  1.00  0.00     0.041 C 
ATOM     13  O   UNL     1      87.050 119.789 128.345  1.00  0.00    -0.550 OA
ATOM     14  O   UNL     1      86.304 119.165 130.419  1.00  0.00    -0.550 OA
ENDBRANCH  11  12
ENDBRANCH  10  11
ENDBRANCH   9  10
ENDBRANCH   8   9
ENDBRANCH   7   8
ENDBRANCH   6   7
ENDBRANCH   5   6
ENDBRANCH   4   5
ENDBRANCH   3   4
ENDBRANCH   2   3
ENDBRANCH   1   2
BRANCH   1  15
ATOM     15  C   UNL     1      87.114 124.368 129.758  1.00  0.00     0.000 C 
BRANCH  15  16
ATOM     16  C   UNL     1      87.910 123.080 130.018  1.00  0.00     0.000 C 
BRANCH  16  17
ATOM     17  C   UNL     1      87.935 122.675 131.506  1.00  0.00     0.000 C 
BRANCH  17  18
ATOM     18  C   UNL     1      86.624 123.050 132.221  1.00  0.00    -0.000 C 
BRANCH  18  19
ATOM     19  C   UNL     1      85.771 121.809 132.550  1.00  0.00    -0.000 C 
BRANCH  19  20
ATOM     20  C   UNL     1      84.435 121.802 131.791  1.00  0.00    -0.000 C 
BRANCH  20  21
ATOM     21  C   UNL     1      83.318 122.425 132.642  1.00  0.00    -0.000 C 
BRANCH  21  22
ATOM     22  C   UNL     1      82.221 123.076 131.767  1.00  0.00    -0.000 C 
BRANCH  22  23
ATOM     23  C   UNL     1      82.760 123.574 130.415  1.00  0.00    -0.000 C 
BRANCH  23  24
ATOM     24  C   UNL     1      82.249 124.981 130.043  1.00  0.00    -0.000 C 
BRANCH  24  25
ATOM     25  C   UNL     1      83.300 126.085 130.229  1.00  0.00    -0.003 C 
ATOM     26  C   UNL     1      84.265 125.799 131.375  1.00  0.00     0.004 C 
ENDBRANCH  24  25
ENDBRANCH  23  24
ENDBRANCH  22  23
ENDBRANCH  21  22
ENDBRANCH  20  21
ENDBRANCH  19  20
ENDBRANCH  18  19
ENDBRANCH  17  18
ENDBRANCH  16  17
ENDBRANCH  15  16
ENDBRANCH   1  15
TORSDOF 22
ENDMDL
MODEL 7
REMARK VINA RESULT:    -3.736      2.037      5.229
REMARK INTER + INTRA:         -12.870
REMARK INTER:                  -8.332
REMARK INTRA:                  -4.538
REMARK UNBOUND:                -4.328
REMARK SMILES CCCCCCCCCCCCCCCCCCCCCCCC(=O)[O-]
REMARK SMILES IDX 13 1 14 2 15 3 16 4 17 5 18 6 19 7 20 8 21 9 22 10 23 11
REMARK SMILES IDX 24 12 25 13 26 14 12 15 11 16 10 17 9 18 8 19 7 20 6 21 5 22
REMARK SMILES IDX 4 23 3 24 2 25 1 26
REMARK H PARENT
REMARK Flexibility Score: inf
ROOT
ATOM      1  C   UNL     1      86.703 124.502 128.197  1.00  0.00     0.000 C 
ENDROOT
BRANCH   1   2
ATOM      2  C   UNL     1      85.775 123.275 128.269  1.00  0.00     0.000 C 
BRANCH   2   3
ATOM      3  C   UNL     1      85.115 122.966 126.918  1.00  0.00     0.000 C 
BRANCH   3   4
ATOM      4  C   UNL     1      83.677 123.501 126.864  1.00  0.00     0.000 C 
BRANCH   4   5
ATOM      5  C   UNL     1      82.894 122.847 125.718  1.00  0.00     0.000 C 
BRANCH   5   6
ATOM      6  C   UNL     1      81.940 121.764 126.238  1.00  0.00     0.000 C 
BRANCH   6   7
ATOM      7  C   UNL     1      82.517 120.365 125.975  1.00  0.00     0.000 C 
BRANCH   7   8
ATOM      8  C   UNL     1      82.627 119.510 127.250  1.00  0.00     0.000 C 
BRANCH   8   9
ATOM      9  C   UNL     1      82.772 120.308 128.563  1.00  0.00     0.000 C 
BRANCH   9  10
ATOM     10  C   UNL     1      84.129 120.158 129.278  1.00  0.00     0.006 C 
BRANCH  10  11
ATOM     11  C   UNL     1      85.250 119.576 128.405  1.00  0.00     0.053 C 
BRANCH  11  12
ATOM     12  C   UNL     1      86.473 119.246 129.204  1.00  0.00     0.041 C 
ATOM     13  O   UNL     1      86.365 118.881 130.403  1.00  0.00    -0.550 OA
ATOM     14  O   UNL     1      87.734 119.372 128.634  1.00  0.00    -0.550 OA
ENDBRANCH  11  12
ENDBRANCH  10  11
ENDBRANCH   9  10
ENDBRANCH   8   9
ENDBRANCH   7   8
ENDBRANCH   6   7
ENDBRANCH   5   6
ENDBRANCH   4   5
ENDBRANCH   3   4
ENDBRANCH   2   3
ENDBRANCH   1   2
BRANCH   1  15
ATOM     15  C   UNL     1      86.040 125.778 128.748  1.00  0.00     0.000 C 
BRANCH  15  16
ATOM     16  C   UNL     1      85.200 125.501 130.004  1.00  0.00     0.000 C 
BRANCH  16  17
ATOM     17  C   UNL     1      83.700 125.803 129.807  1.00  0.00     0.000 C 
BRANCH  17  18
ATOM     18  C   UNL     1      82.826 125.021 130.804  1.00  0.00    -0.000 C 
BRANCH  18  19
ATOM     19  C   UNL     1      82.783 123.515 130.476  1.00  0.00    -0.000 C 
BRANCH  19  20
ATOM     20  C   UNL     1      82.730 122.645 131.742  1.00  0.00    -0.000 C 
BRANCH  20  21
ATOM     21  C   UNL     1      83.612 123.237 132.851  1.00  0.00    -0.000 C 
BRANCH  21  22
ATOM     22  C   UNL     1      84.863 122.368 133.119  1.00  0.00    -0.000 C 
BRANCH  22  23
ATOM     23  C   UNL     1      86.114 122.887 132.390  1.00  0.00    -0.000 C 
BRANCH  23  24
ATOM     24  C   UNL     1      87.068 121.758 131.949  1.00  0.00    -0.000 C 
BRANCH  24  25
ATOM     25  C   UNL     1      88.223 122.241 131.061  1.00  0.00    -0.003 C 
ATOM     26  C   UNL     1      88.535 123.723 131.247  1.00  0.00     0.004 C 
ENDBRANCH  24  25
ENDBRANCH  23  24
ENDBRANCH  22  23
ENDBRANCH  21  22
ENDBRANCH  20  21
ENDBRANCH  19  20
ENDBRANCH  18  19
ENDBRANCH  17  18
ENDBRANCH  16  17
ENDBRANCH  15  16
ENDBRANCH   1  15
TORSDOF 22
ENDMDL
MODEL 8
REMARK VINA RESULT:    -3.661      1.237      5.421
REMARK INTER + INTRA:         -12.697
REMARK INTER:                  -9.116
REMARK INTRA:                  -3.581
REMARK UNBOUND:                -4.328
REMARK SMILES CCCCCCCCCCCCCCCCCCCCCCCC(=O)[O-]
REMARK SMILES IDX 13 1 14 2 15 3 16 4 17 5 18 6 19 7 20 8 21 9 22 10 23 11
REMARK SMILES IDX 24 12 25 13 26 14 12 15 11 16 10 17 9 18 8 19 7 20 6 21 5 22
REMARK SMILES IDX 4 23 3 24 2 25 1 26
REMARK H PARENT
REMARK Flexibility Score: inf
ROOT
ATOM      1  C   UNL     1      84.971 120.542 127.687  1.00  0.00     0.000 C 
ENDROOT
BRANCH   1   2
ATOM      2  C   UNL     1      83.482 120.389 127.332  1.00  0.00     0.000 C 
BRANCH   2   3
ATOM      3  C   UNL     1      83.227 119.201 126.393  1.00  0.00     0.000 C 
BRANCH   3   4
ATOM      4  C   UNL     1      82.067 119.490 125.429  1.00  0.00     0.000 C 
BRANCH   4   5
ATOM      5  C   UNL     1      82.573 119.611 123.986  1.00  0.00     0.000 C 
BRANCH   5   6
ATOM      6  C   UNL     1      82.137 120.937 123.349  1.00  0.00     0.000 C 
BRANCH   6   7
ATOM      7  C   UNL     1      82.642 122.127 124.178  1.00  0.00     0.000 C 
BRANCH   7   8
ATOM      8  C   UNL     1      84.177 122.231 124.208  1.00  0.00     0.000 C 
BRANCH   8   9
ATOM      9  C   UNL     1      84.740 123.341 125.121  1.00  0.00     0.000 C 
BRANCH   9  10
ATOM     10  C   UNL     1      83.689 124.118 125.938  1.00  0.00     0.006 C 
BRANCH  10  11
ATOM     11  C   UNL     1      83.934 124.120 127.454  1.00  0.00     0.053 C 
BRANCH  11  12
ATOM     12  C   UNL     1      85.289 124.651 127.804  1.00  0.00     0.041 C 
ATOM     13  O   UNL     1      85.513 125.888 127.767  1.00  0.00    -0.550 OA
ATOM     14  O   UNL     1      86.315 123.776 128.144  1.00  0.00    -0.550 OA
ENDBRANCH  11  12
ENDBRANCH  10  11
ENDBRANCH   9  10
ENDBRANCH   8   9
ENDBRANCH   7   8
ENDBRANCH   6   7
ENDBRANCH   5   6
ENDBRANCH   4   5
ENDBRANCH   3   4
ENDBRANCH   2   3
ENDBRANCH   1   2
BRANCH   1  15
ATOM     15  C   UNL     1      85.223 120.526 129.206  1.00  0.00     0.000 C 
BRANCH  15  16
ATOM     16  C   UNL     1      83.937 120.769 130.010  1.00  0.00     0.000 C 
BRANCH  16  17
ATOM     17  C   UNL     1      83.905 122.148 130.699  1.00  0.00     0.000 C 
BRANCH  17  18
ATOM     18  C   UNL     1      82.465 122.604 130.995  1.00  0.00    -0.000 C 
BRANCH  18  19
ATOM     19  C   UNL     1      82.259 124.101 130.690  1.00  0.00    -0.000 C 
BRANCH  19  20
ATOM     20  C   UNL     1      82.740 125.001 131.839  1.00  0.00    -0.000 C 
BRANCH  20  21
ATOM     21  C   UNL     1      84.021 125.753 131.446  1.00  0.00    -0.000 C 
BRANCH  21  22
ATOM     22  C   UNL     1      85.238 125.295 132.282  1.00  0.00    -0.000 C 
BRANCH  22  23
ATOM     23  C   UNL     1      86.428 124.861 131.409  1.00  0.00    -0.000 C 
BRANCH  23  24
ATOM     24  C   UNL     1      86.990 123.478 131.799  1.00  0.00    -0.000 C 
BRANCH  24  25
ATOM     25  C   UNL     1      88.266 123.096 131.035  1.00  0.00    -0.003 C 
ATOM     26  C   UNL     1      88.607 121.613 131.152  1.00  0.00     0.004 C 
ENDBRANCH  24  25
ENDBRANCH  23  24
ENDBRANCH  22  23
ENDBRANCH  21  22
ENDBRANCH  20  21
ENDBRANCH  19  20
ENDBRANCH  18  19
ENDBRANCH  17  18
ENDBRANCH  16  17
ENDBRANCH  15  16
ENDBRANCH   1  15
TORSDOF 22
ENDMDL
MODEL 9
REMARK VINA RESULT:    -3.653      3.212      3.977
REMARK INTER + INTRA:         -12.678
REMARK INTER:                  -9.510
REMARK INTRA:                  -3.168
REMARK UNBOUND:                -4.328
REMARK SMILES CCCCCCCCCCCCCCCCCCCCCCCC(=O)[O-]
REMARK SMILES IDX 13 1 14 2 15 3 16 4 17 5 18 6 19 7 20 8 21 9 22 10 23 11
REMARK SMILES IDX 24 12 25 13 26 14 12 15 11 16 10 17 9 18 8 19 7 20 6 21 5 22
REMARK SMILES IDX 4 23 3 24 2 25 1 26
REMARK H PARENT
REMARK Flexibility Score: inf
ROOT
ATOM      1  C   UNL     1      84.004 124.168 126.034  1.00  0.00     0.000 C 
ENDROOT
BRANCH   1   2
ATOM      2  C   UNL     1      82.491 124.041 126.283  1.00  0.00     0.000 C 
BRANCH   2   3
ATOM      3  C   UNL     1      82.174 123.512 127.689  1.00  0.00     0.000 C 
BRANCH   3   4
ATOM      4  C   UNL     1      83.039 124.202 128.753  1.00  0.00     0.000 C 
BRANCH   4   5
ATOM      5  C   UNL     1      82.926 123.478 130.101  1.00  0.00     0.000 C 
BRANCH   5   6
ATOM      6  C   UNL     1      83.305 124.401 131.266  1.00  0.00     0.000 C 
BRANCH   6   7
ATOM      7  C   UNL     1      83.289 125.870 130.819  1.00  0.00     0.000 C 
BRANCH   7   8
ATOM      8  C   UNL     1      82.847 126.834 131.935  1.00  0.00     0.000 C 
BRANCH   8   9
ATOM      9  C   UNL     1      82.142 128.118 131.450  1.00  0.00     0.000 C 
BRANCH   9  10
ATOM     10  C   UNL     1      81.875 129.175 132.540  1.00  0.00     0.006 C 
BRANCH  10  11
ATOM     11  C   UNL     1      82.988 130.222 132.700  1.00  0.00     0.053 C 
BRANCH  11  12
ATOM     12  C   UNL     1      82.945 131.257 131.619  1.00  0.00     0.041 C 
ATOM     13  O   UNL     1      82.597 132.436 131.886  1.00  0.00    -0.550 OA
ATOM     14  O   UNL     1      83.261 130.912 130.310  1.00  0.00    -0.550 OA
ENDBRANCH  11  12
ENDBRANCH  10  11
ENDBRANCH   9  10
ENDBRANCH   8   9
ENDBRANCH   7   8
ENDBRANCH   6   7
ENDBRANCH   5   6
ENDBRANCH   4   5
ENDBRANCH   3   4
ENDBRANCH   2   3
ENDBRANCH   1   2
BRANCH   1  15
ATOM     15  C   UNL     1      84.473 123.361 124.809  1.00  0.00     0.000 C 
BRANCH  15  16
ATOM     16  C   UNL     1      84.176 121.861 124.953  1.00  0.00     0.000 C 
BRANCH  16  17
ATOM     17  C   UNL     1      84.924 121.206 126.132  1.00  0.00     0.000 C 
BRANCH  17  18
ATOM     18  C   UNL     1      83.981 120.358 127.004  1.00  0.00    -0.000 C 
BRANCH  18  19
ATOM     19  C   UNL     1      84.358 120.427 128.498  1.00  0.00    -0.000 C 
BRANCH  19  20
ATOM     20  C   UNL     1      85.610 121.283 128.744  1.00  0.00    -0.000 C 
BRANCH  20  21
ATOM     21  C   UNL     1      86.393 120.770 129.961  1.00  0.00    -0.000 C 
BRANCH  21  22
ATOM     22  C   UNL     1      87.910 121.040 129.827  1.00  0.00    -0.000 C 
BRANCH  22  23
ATOM     23  C   UNL     1      88.268 122.522 130.031  1.00  0.00    -0.000 C 
BRANCH  23  24
ATOM     24  C   UNL     1      87.549 123.156 131.240  1.00  0.00    -0.000 C 
BRANCH  24  25
ATOM     25  C   UNL     1      86.990 124.558 130.957  1.00  0.00    -0.003 C 
ATOM     26  C   UNL     1      86.675 124.784 129.481  1.00  0.00     0.004 C 
ENDBRANCH  24  25
ENDBRANCH  23  24
ENDBRANCH  22  23
ENDBRANCH  21  22
ENDBRANCH  20  21
ENDBRANCH  19  20
ENDBRANCH  18  19
ENDBRANCH  17  18
ENDBRANCH  16  17
ENDBRANCH  15  16
ENDBRANCH   1  15
TORSDOF 22
ENDMDL
