MODEL 1
REMARK VINA RESULT:    -5.731      0.000      0.000
REMARK INTER + INTRA:         -12.500
REMARK INTER:                 -11.092
REMARK INTRA:                  -1.409
REMARK UNBOUND:                -1.409
REMARK SMILES CCCCCCCCCCCCCCCCCC(=O)[O-]
REMARK SMILES IDX 10 1 11 2 12 3 13 4 14 5 15 6 16 7 17 8 18 9 19 10 20 11
REMARK SMILES IDX 9 12 8 13 7 14 6 15 5 16 4 17 3 18 2 19 1 20
REMARK H PARENT
REMARK Flexibility Score: inf
ROOT
ATOM      1  C   UNL     1      92.887 121.897 122.215  1.00  0.00     0.000 C 
ENDROOT
BRANCH   1   2
ATOM      2  C   UNL     1      92.730 123.422 122.367  1.00  0.00     0.000 C 
BRANCH   2   3
ATOM      3  C   UNL     1      93.078 123.974 123.762  1.00  0.00     0.000 C 
BRANCH   3   4
ATOM      4  C   UNL     1      93.096 122.898 124.869  1.00  0.00     0.000 C 
BRANCH   4   5
ATOM      5  C   UNL     1      94.499 122.678 125.456  1.00  0.00     0.000 C 
BRANCH   5   6
ATOM      6  C   UNL     1      95.465 123.782 125.000  1.00  0.00     0.000 C 
BRANCH   6   7
ATOM      7  C   UNL     1      96.937 123.336 125.027  1.00  0.00     0.006 C 
BRANCH   7   8
ATOM      8  C   UNL     1      97.804 124.074 126.060  1.00  0.00     0.053 C 
BRANCH   8   9
ATOM      9  C   UNL     1      97.501 125.540 126.102  1.00  0.00     0.041 C 
ATOM     10  O   UNL     1      97.162 126.087 127.185  1.00  0.00    -0.550 OA
ATOM     11  O   UNL     1      97.625 126.309 124.952  1.00  0.00    -0.550 OA
ENDBRANCH   8   9
ENDBRANCH   7   8
ENDBRANCH   6   7
ENDBRANCH   5   6
ENDBRANCH   4   5
ENDBRANCH   3   4
ENDBRANCH   2   3
ENDBRANCH   1   2
BRANCH   1  12
ATOM     12  C   UNL     1      93.575 121.435 120.913  1.00  0.00     0.000 C 
BRANCH  12  13
ATOM     13  C   UNL     1      94.774 122.290 120.462  1.00  0.00    -0.000 C 
BRANCH  13  14
ATOM     14  C   UNL     1      95.019 122.224 118.945  1.00  0.00    -0.000 C 
BRANCH  14  15
ATOM     15  C   UNL     1      94.694 120.844 118.347  1.00  0.00    -0.000 C 
BRANCH  15  16
ATOM     16  C   UNL     1      93.699 120.851 117.168  1.00  0.00    -0.000 C 
BRANCH  16  17
ATOM     17  C   UNL     1      92.234 121.137 117.546  1.00  0.00    -0.000 C 
BRANCH  17  18
ATOM     18  C   UNL     1      91.968 122.625 117.821  1.00  0.00    -0.000 C 
BRANCH  18  19
ATOM     19  C   UNL     1      92.358 123.522 116.637  1.00  0.00    -0.003 C 
ATOM     20  C   UNL     1      92.972 124.852 117.076  1.00  0.00     0.004 C 
ENDBRANCH  18  19
ENDBRANCH  17  18
ENDBRANCH  16  17
ENDBRANCH  15  16
ENDBRANCH  14  15
ENDBRANCH  13  14
ENDBRANCH  12  13
ENDBRANCH   1  12
TORSDOF 16
ENDMDL
MODEL 2
REMARK VINA RESULT:    -5.554      3.164      3.959
REMARK INTER + INTRA:         -12.158
REMARK INTER:                 -11.340
REMARK INTRA:                  -0.819
REMARK UNBOUND:                -1.409
REMARK SMILES CCCCCCCCCCCCCCCCCC(=O)[O-]
REMARK SMILES IDX 10 1 11 2 12 3 13 4 14 5 15 6 16 7 17 8 18 9 19 10 20 11
REMARK SMILES IDX 9 12 8 13 7 14 6 15 5 16 4 17 3 18 2 19 1 20
REMARK H PARENT
REMARK Flexibility Score: inf
ROOT
ATOM      1  C   UNL     1      93.249 122.776 124.487  1.00  0.00     0.000 C 
ENDROOT
BRANCH   1   2
ATOM      2  C   UNL     1      94.597 122.988 125.201  1.00  0.00     0.000 C 
BRANCH   2   3
ATOM      3  C   UNL     1      95.405 124.204 124.712  1.00  0.00     0.000 C 
BRANCH   3   4
ATOM      4  C   UNL     1      96.866 124.222 125.211  1.00  0.00     0.000 C 
BRANCH   4   5
ATOM      5  C   UNL     1      97.240 122.950 125.986  1.00  0.00     0.000 C 
BRANCH   5   6
ATOM      6  C   UNL     1      98.742 122.921 126.304  1.00  0.00     0.000 C 
BRANCH   6   7
ATOM      7  C   UNL     1      99.290 121.492 126.476  1.00  0.00     0.006 C 
BRANCH   7   8
ATOM      8  C   UNL     1     100.622 121.234 125.754  1.00  0.00     0.053 C 
BRANCH   8   9
ATOM      9  C   UNL     1     100.918 119.772 125.629  1.00  0.00     0.041 C 
ATOM     10  O   UNL     1     100.143 118.921 126.141  1.00  0.00    -0.550 OA
ATOM     11  O   UNL     1     102.031 119.346 124.915  1.00  0.00    -0.550 OA
ENDBRANCH   8   9
ENDBRANCH   7   8
ENDBRANCH   6   7
ENDBRANCH   5   6
ENDBRANCH   4   5
ENDBRANCH   3   4
ENDBRANCH   2   3
ENDBRANCH   1   2
BRANCH   1  12
ATOM     12  C   UNL     1      93.193 123.277 123.028  1.00  0.00     0.000 C 
BRANCH  12  13
ATOM     13  C   UNL     1      93.256 122.178 121.951  1.00  0.00    -0.000 C 
BRANCH  13  14
ATOM     14  C   UNL     1      94.501 122.288 121.056  1.00  0.00    -0.000 C 
BRANCH  14  15
ATOM     15  C   UNL     1      94.596 121.151 120.022  1.00  0.00    -0.000 C 
BRANCH  15  16
ATOM     16  C   UNL     1      94.276 121.552 118.568  1.00  0.00    -0.000 C 
BRANCH  16  17
ATOM     17  C   UNL     1      93.082 122.509 118.397  1.00  0.00    -0.000 C 
BRANCH  17  18
ATOM     18  C   UNL     1      91.971 121.924 117.509  1.00  0.00    -0.000 C 
BRANCH  18  19
ATOM     19  C   UNL     1      92.329 121.959 116.016  1.00  0.00    -0.003 C 
ATOM     20  C   UNL     1      92.691 120.582 115.460  1.00  0.00     0.004 C 
ENDBRANCH  18  19
ENDBRANCH  17  18
ENDBRANCH  16  17
ENDBRANCH  15  16
ENDBRANCH  14  15
ENDBRANCH  13  14
ENDBRANCH  12  13
ENDBRANCH   1  12
TORSDOF 16
ENDMDL
MODEL 3
REMARK VINA RESULT:    -5.538      0.996      1.827
REMARK INTER + INTRA:         -12.127
REMARK INTER:                 -11.143
REMARK INTRA:                  -0.984
REMARK UNBOUND:                -1.409
REMARK SMILES CCCCCCCCCCCCCCCCCC(=O)[O-]
REMARK SMILES IDX 10 1 11 2 12 3 13 4 14 5 15 6 16 7 17 8 18 9 19 10 20 11
REMARK SMILES IDX 9 12 8 13 7 14 6 15 5 16 4 17 3 18 2 19 1 20
REMARK H PARENT
REMARK Flexibility Score: inf
ROOT
ATOM      1  C   UNL     1      92.769 122.218 121.874  1.00  0.00     0.000 C 
ENDROOT
BRANCH   1   2
ATOM      2  C   UNL     1      92.735 122.626 123.359  1.00  0.00     0.000 C 
BRANCH   2   3
ATOM      3  C   UNL     1      93.319 124.018 123.662  1.00  0.00     0.000 C 
BRANCH   3   4
ATOM      4  C   UNL     1      94.618 123.980 124.495  1.00  0.00     0.000 C 
BRANCH   4   5
ATOM      5  C   UNL     1      94.630 122.833 125.516  1.00  0.00     0.000 C 
BRANCH   5   6
ATOM      6  C   UNL     1      96.039 122.623 126.091  1.00  0.00     0.000 C 
BRANCH   6   7
ATOM      7  C   UNL     1      97.131 123.334 125.273  1.00  0.00     0.006 C 
BRANCH   7   8
ATOM      8  C   UNL     1      98.046 124.251 126.100  1.00  0.00     0.053 C 
BRANCH   8   9
ATOM      9  C   UNL     1      97.578 125.673 126.084  1.00  0.00     0.041 C 
ATOM     10  O   UNL     1      97.503 126.305 124.997  1.00  0.00    -0.550 OA
ATOM     11  O   UNL     1      97.191 126.291 127.266  1.00  0.00    -0.550 OA
ENDBRANCH   8   9
ENDBRANCH   7   8
ENDBRANCH   6   7
ENDBRANCH   5   6
ENDBRANCH   4   5
ENDBRANCH   3   4
ENDBRANCH   2   3
ENDBRANCH   1   2
BRANCH   1  12
ATOM     12  C   UNL     1      94.177 121.958 121.298  1.00  0.00     0.000 C 
BRANCH  12  13
ATOM     13  C   UNL     1      94.255 120.862 120.219  1.00  0.00    -0.000 C 
BRANCH  13  14
ATOM     14  C   UNL     1      94.707 121.401 118.851  1.00  0.00    -0.000 C 
BRANCH  14  15
ATOM     15  C   UNL     1      94.487 122.917 118.704  1.00  0.00    -0.000 C 
BRANCH  15  16
ATOM     16  C   UNL     1      93.136 123.333 118.088  1.00  0.00    -0.000 C 
BRANCH  16  17
ATOM     17  C   UNL     1      91.987 122.327 118.281  1.00  0.00    -0.000 C 
BRANCH  17  18
ATOM     18  C   UNL     1      92.033 121.168 117.273  1.00  0.00    -0.000 C 
BRANCH  18  19
ATOM     19  C   UNL     1      92.439 121.627 115.865  1.00  0.00    -0.003 C 
ATOM     20  C   UNL     1      93.021 120.497 115.016  1.00  0.00     0.004 C 
ENDBRANCH  18  19
ENDBRANCH  17  18
ENDBRANCH  16  17
ENDBRANCH  15  16
ENDBRANCH  14  15
ENDBRANCH  13  14
ENDBRANCH  12  13
ENDBRANCH   1  12
TORSDOF 16
ENDMDL
MODEL 4
REMARK VINA RESULT:    -5.488      4.357      8.979
REMARK INTER + INTRA:         -12.030
REMARK INTER:                 -11.168
REMARK INTRA:                  -0.862
REMARK UNBOUND:                -1.409
REMARK SMILES CCCCCCCCCCCCCCCCCC(=O)[O-]
REMARK SMILES IDX 10 1 11 2 12 3 13 4 14 5 15 6 16 7 17 8 18 9 19 10 20 11
REMARK SMILES IDX 9 12 8 13 7 14 6 15 5 16 4 17 3 18 2 19 1 20
REMARK H PARENT
REMARK Flexibility Score: inf
ROOT
ATOM      1  C   UNL     1      94.062 124.225 124.124  1.00  0.00     0.000 C 
ENDROOT
BRANCH   1   2
ATOM      2  C   UNL     1      92.821 123.461 123.621  1.00  0.00     0.000 C 
BRANCH   2   3
ATOM      3  C   UNL     1      93.128 122.219 122.764  1.00  0.00     0.000 C 
BRANCH   3   4
ATOM      4  C   UNL     1      93.279 122.524 121.258  1.00  0.00     0.000 C 
BRANCH   4   5
ATOM      5  C   UNL     1      94.611 122.016 120.685  1.00  0.00     0.000 C 
BRANCH   5   6
ATOM      6  C   UNL     1      94.559 121.947 119.151  1.00  0.00     0.000 C 
BRANCH   6   7
ATOM      7  C   UNL     1      93.243 122.497 118.573  1.00  0.00     0.006 C 
BRANCH   7   8
ATOM      8  C   UNL     1      92.424 121.469 117.775  1.00  0.00     0.053 C 
BRANCH   8   9
ATOM      9  C   UNL     1      92.356 121.813 116.320  1.00  0.00     0.041 C 
ATOM     10  O   UNL     1      91.886 122.922 115.951  1.00  0.00    -0.550 OA
ATOM     11  O   UNL     1      92.844 120.923 115.371  1.00  0.00    -0.550 OA
ENDBRANCH   8   9
ENDBRANCH   7   8
ENDBRANCH   6   7
ENDBRANCH   5   6
ENDBRANCH   4   5
ENDBRANCH   3   4
ENDBRANCH   2   3
ENDBRANCH   1   2
BRANCH   1  12
ATOM     12  C   UNL     1      95.048 123.390 124.968  1.00  0.00     0.000 C 
BRANCH  12  13
ATOM     13  C   UNL     1      96.532 123.545 124.591  1.00  0.00    -0.000 C 
BRANCH  13  14
ATOM     14  C   UNL     1      97.276 124.549 125.487  1.00  0.00    -0.000 C 
BRANCH  14  15
ATOM     15  C   UNL     1      98.404 123.897 126.307  1.00  0.00    -0.000 C 
BRANCH  15  16
ATOM     16  C   UNL     1      98.422 122.355 126.297  1.00  0.00    -0.000 C 
BRANCH  16  17
ATOM     17  C   UNL     1      99.783 121.716 125.967  1.00  0.00    -0.000 C 
BRANCH  17  18
ATOM     18  C   UNL     1      99.998 120.370 126.679  1.00  0.00    -0.000 C 
BRANCH  18  19
ATOM     19  C   UNL     1     100.674 119.328 125.776  1.00  0.00    -0.003 C 
ATOM     20  C   UNL     1     102.103 119.714 125.390  1.00  0.00     0.004 C 
ENDBRANCH  18  19
ENDBRANCH  17  18
ENDBRANCH  16  17
ENDBRANCH  15  16
ENDBRANCH  14  15
ENDBRANCH  13  14
ENDBRANCH  12  13
ENDBRANCH   1  12
TORSDOF 16
ENDMDL
MODEL 5
REMARK VINA RESULT:    -5.424      3.082      8.125
REMARK INTER + INTRA:         -11.905
REMARK INTER:                 -10.632
REMARK INTRA:                  -1.274
REMARK UNBOUND:                -1.409
REMARK SMILES CCCCCCCCCCCCCCCCCC(=O)[O-]
REMARK SMILES IDX 10 1 11 2 12 3 13 4 14 5 15 6 16 7 17 8 18 9 19 10 20 11
REMARK SMILES IDX 9 12 8 13 7 14 6 15 5 16 4 17 3 18 2 19 1 20
REMARK H PARENT
REMARK Flexibility Score: inf
ROOT
ATOM      1  C   UNL     1      93.053 121.901 122.341  1.00  0.00     0.000 C 
ENDROOT
BRANCH   1   2
ATOM      2  C   UNL     1      93.618 121.442 120.984  1.00  0.00     0.000 C 
BRANCH   2   3
ATOM      3  C   UNL     1      94.796 122.282 120.455  1.00  0.00     0.000 C 
BRANCH   3   4
ATOM      4  C   UNL     1      95.149 121.998 118.979  1.00  0.00     0.000 C 
BRANCH   4   5
ATOM      5  C   UNL     1      94.673 120.613 118.514  1.00  0.00     0.000 C 
BRANCH   5   6
ATOM      6  C   UNL     1      93.860 120.717 117.216  1.00  0.00     0.000 C 
BRANCH   6   7
ATOM      7  C   UNL     1      92.450 121.293 117.438  1.00  0.00     0.006 C 
BRANCH   7   8
ATOM      8  C   UNL     1      92.060 122.409 116.454  1.00  0.00     0.053 C 
BRANCH   8   9
ATOM      9  C   UNL     1      92.436 123.764 116.965  1.00  0.00     0.041 C 
ATOM     10  O   UNL     1      92.803 123.913 118.162  1.00  0.00    -0.550 OA
ATOM     11  O   UNL     1      92.417 124.860 116.112  1.00  0.00    -0.550 OA
ENDBRANCH   8   9
ENDBRANCH   7   8
ENDBRANCH   6   7
ENDBRANCH   5   6
ENDBRANCH   4   5
ENDBRANCH   3   4
ENDBRANCH   2   3
ENDBRANCH   1   2
BRANCH   1  12
ATOM     12  C   UNL     1      93.084 123.425 122.583  1.00  0.00     0.000 C 
BRANCH  12  13
ATOM     13  C   UNL     1      93.328 123.855 124.041  1.00  0.00    -0.000 C 
BRANCH  13  14
ATOM     14  C   UNL     1      93.479 122.663 125.000  1.00  0.00    -0.000 C 
BRANCH  14  15
ATOM     15  C   UNL     1      94.823 122.667 125.752  1.00  0.00    -0.000 C 
BRANCH  15  16
ATOM     16  C   UNL     1      96.021 123.231 124.961  1.00  0.00    -0.000 C 
BRANCH  16  17
ATOM     17  C   UNL     1      97.384 123.126 125.669  1.00  0.00    -0.000 C 
BRANCH  17  18
ATOM     18  C   UNL     1      97.944 124.493 126.092  1.00  0.00    -0.000 C 
BRANCH  18  19
ATOM     19  C   UNL     1      97.128 125.665 125.526  1.00  0.00    -0.003 C 
ATOM     20  C   UNL     1      98.003 126.836 125.079  1.00  0.00     0.004 C 
ENDBRANCH  18  19
ENDBRANCH  17  18
ENDBRANCH  16  17
ENDBRANCH  15  16
ENDBRANCH  14  15
ENDBRANCH  13  14
ENDBRANCH  12  13
ENDBRANCH   1  12
TORSDOF 16
ENDMDL
MODEL 6
REMARK VINA RESULT:    -5.333      3.974      8.673
REMARK INTER + INTRA:         -11.730
REMARK INTER:                 -10.611
REMARK INTRA:                  -1.119
REMARK UNBOUND:                -1.409
REMARK SMILES CCCCCCCCCCCCCCCCCC(=O)[O-]
REMARK SMILES IDX 10 1 11 2 12 3 13 4 14 5 15 6 16 7 17 8 18 9 19 10 20 11
REMARK SMILES IDX 9 12 8 13 7 14 6 15 5 16 4 17 3 18 2 19 1 20
REMARK H PARENT
REMARK Flexibility Score: inf
ROOT
ATOM      1  C   UNL     1      93.215 123.845 123.801  1.00  0.00     0.000 C 
ENDROOT
BRANCH   1   2
ATOM      2  C   UNL     1      93.091 123.378 122.338  1.00  0.00     0.000 C 
BRANCH   2   3
ATOM      3  C   UNL     1      93.030 121.851 122.148  1.00  0.00     0.000 C 
BRANCH   3   4
ATOM      4  C   UNL     1      93.553 121.373 120.777  1.00  0.00     0.000 C 
BRANCH   4   5
ATOM      5  C   UNL     1      94.770 122.179 120.296  1.00  0.00     0.000 C 
BRANCH   5   6
ATOM      6  C   UNL     1      94.585 122.639 118.843  1.00  0.00     0.000 C 
BRANCH   6   7
ATOM      7  C   UNL     1      93.199 123.255 118.582  1.00  0.00     0.006 C 
BRANCH   7   8
ATOM      8  C   UNL     1      92.652 123.009 117.167  1.00  0.00     0.053 C 
BRANCH   8   9
ATOM      9  C   UNL     1      92.431 121.554 116.896  1.00  0.00     0.041 C 
ATOM     10  O   UNL     1      92.945 121.011 115.881  1.00  0.00    -0.550 OA
ATOM     11  O   UNL     1      91.687 120.786 117.783  1.00  0.00    -0.550 OA
ENDBRANCH   8   9
ENDBRANCH   7   8
ENDBRANCH   6   7
ENDBRANCH   5   6
ENDBRANCH   4   5
ENDBRANCH   3   4
ENDBRANCH   2   3
ENDBRANCH   1   2
BRANCH   1  12
ATOM     12  C   UNL     1      93.652 122.756 124.802  1.00  0.00     0.000 C 
BRANCH  12  13
ATOM     13  C   UNL     1      94.998 123.010 125.506  1.00  0.00    -0.000 C 
BRANCH  13  14
ATOM     14  C   UNL     1      96.048 123.644 124.579  1.00  0.00    -0.000 C 
BRANCH  14  15
ATOM     15  C   UNL     1      97.070 124.509 125.337  1.00  0.00    -0.000 C 
BRANCH  15  16
ATOM     16  C   UNL     1      97.997 123.744 126.304  1.00  0.00    -0.000 C 
BRANCH  16  17
ATOM     17  C   UNL     1      98.280 122.279 125.922  1.00  0.00    -0.000 C 
BRANCH  17  18
ATOM     18  C   UNL     1      99.754 121.886 126.114  1.00  0.00    -0.000 C 
BRANCH  18  19
ATOM     19  C   UNL     1      99.917 120.457 126.653  1.00  0.00    -0.003 C 
ATOM     20  C   UNL     1     100.886 119.616 125.821  1.00  0.00     0.004 C 
ENDBRANCH  18  19
ENDBRANCH  17  18
ENDBRANCH  16  17
ENDBRANCH  15  16
ENDBRANCH  14  15
ENDBRANCH  13  14
ENDBRANCH  12  13
ENDBRANCH   1  12
TORSDOF 16
ENDMDL
MODEL 7
REMARK VINA RESULT:    -5.146      4.084      8.582
REMARK INTER + INTRA:         -11.368
REMARK INTER:                 -10.071
REMARK INTRA:                  -1.298
REMARK UNBOUND:                -1.409
REMARK SMILES CCCCCCCCCCCCCCCCCC(=O)[O-]
REMARK SMILES IDX 10 1 11 2 12 3 13 4 14 5 15 6 16 7 17 8 18 9 19 10 20 11
REMARK SMILES IDX 9 12 8 13 7 14 6 15 5 16 4 17 3 18 2 19 1 20
REMARK H PARENT
REMARK Flexibility Score: inf
ROOT
ATOM      1  C   UNL     1      92.755 121.507 121.139  1.00  0.00     0.000 C 
ENDROOT
BRANCH   1   2
ATOM      2  C   UNL     1      93.814 120.581 120.510  1.00  0.00     0.000 C 
BRANCH   2   3
ATOM      3  C   UNL     1      95.010 121.308 119.868  1.00  0.00     0.000 C 
BRANCH   3   4
ATOM      4  C   UNL     1      94.690 121.940 118.496  1.00  0.00     0.000 C 
BRANCH   4   5
ATOM      5  C   UNL     1      94.059 123.334 118.622  1.00  0.00     0.000 C 
BRANCH   5   6
ATOM      6  C   UNL     1      92.685 123.381 117.937  1.00  0.00     0.000 C 
BRANCH   6   7
ATOM      7  C   UNL     1      92.233 122.007 117.410  1.00  0.00     0.006 C 
BRANCH   7   8
ATOM      8  C   UNL     1      92.272 121.871 115.880  1.00  0.00     0.053 C 
BRANCH   8   9
ATOM      9  C   UNL     1      92.822 120.547 115.448  1.00  0.00     0.041 C 
ATOM     10  O   UNL     1      93.983 120.199 115.792  1.00  0.00    -0.550 OA
ATOM     11  O   UNL     1      92.039 119.682 114.694  1.00  0.00    -0.550 OA
ENDBRANCH   8   9
ENDBRANCH   7   8
ENDBRANCH   6   7
ENDBRANCH   5   6
ENDBRANCH   4   5
ENDBRANCH   3   4
ENDBRANCH   2   3
ENDBRANCH   1   2
BRANCH   1  12
ATOM     12  C   UNL     1      93.101 122.041 122.544  1.00  0.00     0.000 C 
BRANCH  12  13
ATOM     13  C   UNL     1      93.035 123.571 122.702  1.00  0.00    -0.000 C 
BRANCH  13  14
ATOM     14  C   UNL     1      93.570 124.056 124.061  1.00  0.00    -0.000 C 
BRANCH  14  15
ATOM     15  C   UNL     1      93.647 122.931 125.108  1.00  0.00    -0.000 C 
BRANCH  15  16
ATOM     16  C   UNL     1      95.067 122.571 125.589  1.00  0.00    -0.000 C 
BRANCH  16  17
ATOM     17  C   UNL     1      96.212 123.304 124.866  1.00  0.00    -0.000 C 
BRANCH  17  18
ATOM     18  C   UNL     1      97.456 123.488 125.751  1.00  0.00    -0.000 C 
BRANCH  18  19
ATOM     19  C   UNL     1      97.625 124.934 126.238  1.00  0.00    -0.003 C 
ATOM     20  C   UNL     1      97.483 125.960 125.112  1.00  0.00     0.004 C 
ENDBRANCH  18  19
ENDBRANCH  17  18
ENDBRANCH  16  17
ENDBRANCH  15  16
ENDBRANCH  14  15
ENDBRANCH  13  14
ENDBRANCH  12  13
ENDBRANCH   1  12
TORSDOF 16
ENDMDL
MODEL 8
REMARK VINA RESULT:    -4.797     11.420     13.936
REMARK INTER + INTRA:         -10.693
REMARK INTER:                  -8.234
REMARK INTRA:                  -2.458
REMARK UNBOUND:                -1.409
REMARK SMILES CCCCCCCCCCCCCCCCCC(=O)[O-]
REMARK SMILES IDX 10 1 11 2 12 3 13 4 14 5 15 6 16 7 17 8 18 9 19 10 20 11
REMARK SMILES IDX 9 12 8 13 7 14 6 15 5 16 4 17 3 18 2 19 1 20
REMARK H PARENT
REMARK Flexibility Score: inf
ROOT
ATOM      1  C   UNL     1      85.367 126.815 129.482  1.00  0.00     0.000 C 
ENDROOT
BRANCH   1   2
ATOM      2  C   UNL     1      85.862 126.061 128.233  1.00  0.00     0.000 C 
BRANCH   2   3
ATOM      3  C   UNL     1      84.783 125.243 127.500  1.00  0.00     0.000 C 
BRANCH   3   4
ATOM      4  C   UNL     1      85.102 123.735 127.408  1.00  0.00     0.000 C 
BRANCH   4   5
ATOM      5  C   UNL     1      83.971 122.858 127.967  1.00  0.00     0.000 C 
BRANCH   5   6
ATOM      6  C   UNL     1      84.109 121.407 127.483  1.00  0.00     0.000 C 
BRANCH   6   7
ATOM      7  C   UNL     1      84.438 121.305 125.983  1.00  0.00     0.006 C 
BRANCH   7   8
ATOM      8  C   UNL     1      83.249 120.895 125.100  1.00  0.00     0.053 C 
BRANCH   8   9
ATOM      9  C   UNL     1      82.717 122.046 124.305  1.00  0.00     0.041 C 
ATOM     10  O   UNL     1      83.026 123.227 124.614  1.00  0.00    -0.550 OA
ATOM     11  O   UNL     1      81.908 121.813 123.200  1.00  0.00    -0.550 OA
ENDBRANCH   8   9
ENDBRANCH   7   8
ENDBRANCH   6   7
ENDBRANCH   5   6
ENDBRANCH   4   5
ENDBRANCH   3   4
ENDBRANCH   2   3
ENDBRANCH   1   2
BRANCH   1  12
ATOM     12  C   UNL     1      83.956 126.422 129.969  1.00  0.00     0.000 C 
BRANCH  12  13
ATOM     13  C   UNL     1      83.918 125.442 131.155  1.00  0.00    -0.000 C 
BRANCH  13  14
ATOM     14  C   UNL     1      85.077 125.654 132.144  1.00  0.00    -0.000 C 
BRANCH  14  15
ATOM     15  C   UNL     1      85.969 124.409 132.294  1.00  0.00    -0.000 C 
BRANCH  15  16
ATOM     16  C   UNL     1      85.870 123.382 131.148  1.00  0.00    -0.000 C 
BRANCH  16  17
ATOM     17  C   UNL     1      87.184 123.108 130.394  1.00  0.00    -0.000 C 
BRANCH  17  18
ATOM     18  C   UNL     1      87.618 121.635 130.467  1.00  0.00    -0.000 C 
BRANCH  18  19
ATOM     19  C   UNL     1      86.483 120.668 130.098  1.00  0.00    -0.003 C 
ATOM     20  C   UNL     1      86.063 119.773 131.264  1.00  0.00     0.004 C 
ENDBRANCH  18  19
ENDBRANCH  17  18
ENDBRANCH  16  17
ENDBRANCH  15  16
ENDBRANCH  14  15
ENDBRANCH  13  14
ENDBRANCH  12  13
ENDBRANCH   1  12
TORSDOF 16
ENDMDL
MODEL 9
REMARK VINA RESULT:    -4.731     10.825     12.369
REMARK INTER + INTRA:         -10.564
REMARK INTER:                  -7.873
REMARK INTRA:                  -2.691
REMARK UNBOUND:                -1.409
REMARK SMILES CCCCCCCCCCCCCCCCCC(=O)[O-]
REMARK SMILES IDX 10 1 11 2 12 3 13 4 14 5 15 6 16 7 17 8 18 9 19 10 20 11
REMARK SMILES IDX 9 12 8 13 7 14 6 15 5 16 4 17 3 18 2 19 1 20
REMARK H PARENT
REMARK Flexibility Score: inf
ROOT
ATOM      1  C   UNL     1      85.350 126.023 128.251  1.00  0.00     0.000 C 
ENDROOT
BRANCH   1   2
ATOM      2  C   UNL     1      84.307 126.563 129.248  1.00  0.00     0.000 C 
BRANCH   2   3
ATOM      3  C   UNL     1      84.827 126.768 130.683  1.00  0.00     0.000 C 
BRANCH   3   4
ATOM      4  C   UNL     1      84.261 125.754 131.701  1.00  0.00     0.000 C 
BRANCH   4   5
ATOM      5  C   UNL     1      84.865 124.352 131.534  1.00  0.00     0.000 C 
BRANCH   5   6
ATOM      6  C   UNL     1      86.350 124.342 131.923  1.00  0.00     0.000 C 
BRANCH   6   7
ATOM      7  C   UNL     1      87.268 123.903 130.768  1.00  0.00     0.006 C 
BRANCH   7   8
ATOM      8  C   UNL     1      86.793 122.643 130.026  1.00  0.00     0.053 C 
BRANCH   8   9
ATOM      9  C   UNL     1      87.357 121.393 130.626  1.00  0.00     0.041 C 
ATOM     10  O   UNL     1      86.589 120.523 131.119  1.00  0.00    -0.550 OA
ATOM     11  O   UNL     1      88.728 121.170 130.611  1.00  0.00    -0.550 OA
ENDBRANCH   8   9
ENDBRANCH   7   8
ENDBRANCH   6   7
ENDBRANCH   5   6
ENDBRANCH   4   5
ENDBRANCH   3   4
ENDBRANCH   2   3
ENDBRANCH   1   2
BRANCH   1  12
ATOM     12  C   UNL     1      84.972 124.695 127.562  1.00  0.00     0.000 C 
BRANCH  12  13
ATOM     13  C   UNL     1      83.541 124.196 127.832  1.00  0.00    -0.000 C 
BRANCH  13  14
ATOM     14  C   UNL     1      82.581 124.468 126.660  1.00  0.00    -0.000 C 
BRANCH  14  15
ATOM     15  C   UNL     1      82.361 123.232 125.770  1.00  0.00    -0.000 C 
BRANCH  15  16
ATOM     16  C   UNL     1      83.510 122.907 124.793  1.00  0.00    -0.000 C 
BRANCH  16  17
ATOM     17  C   UNL     1      84.300 121.625 125.112  1.00  0.00    -0.000 C 
BRANCH  17  18
ATOM     18  C   UNL     1      83.684 120.814 126.262  1.00  0.00    -0.000 C 
BRANCH  18  19
ATOM     19  C   UNL     1      84.629 120.688 127.466  1.00  0.00    -0.003 C 
ATOM     20  C   UNL     1      83.885 120.529 128.792  1.00  0.00     0.004 C 
ENDBRANCH  18  19
ENDBRANCH  17  18
ENDBRANCH  16  17
ENDBRANCH  15  16
ENDBRANCH  14  15
ENDBRANCH  13  14
ENDBRANCH  12  13
ENDBRANCH   1  12
TORSDOF 16
ENDMDL
