MODEL 1
REMARK VINA RESULT:    -3.156      0.000      0.000
REMARK INTER + INTRA:          -3.249
REMARK INTER:                  -3.249
REMARK INTRA:                   0.000
REMARK UNBOUND:                 0.000
REMARK SMILES CC1(C)[C@H]2CC[C@](C)(C2)[C@H]1O
REMARK SMILES IDX 1 1 2 2 4 3 5 4 6 5 7 6 9 7 10 8 8 9 3 10 11 11
REMARK H PARENT 11 12
REMARK Flexibility Score: inf
ROOT
ATOM      1  C   UNL     1     226.742 230.036 236.043  1.00  0.00     0.014 C 
ATOM      2  C   UNL     1     227.024 230.610 234.629  1.00  0.00    -0.006 C 
ATOM      3  C   UNL     1     226.980 232.176 234.578  1.00  0.00    -0.002 C 
ATOM      4  C   UNL     1     227.830 232.796 235.708  1.00  0.00     0.005 C 
ATOM      5  C   UNL     1     229.263 232.425 235.298  1.00  0.00     0.010 C 
ATOM      6  C   UNL     1     229.059 231.740 233.925  1.00  0.00    -0.006 C 
ATOM      7  C   UNL     1     227.865 232.495 233.384  1.00  0.00     0.013 C 
ATOM      8  C   UNL     1     228.472 230.317 234.110  1.00  0.00     0.126 C 
ATOM      9  C   UNL     1     230.293 231.790 233.017  1.00  0.00     0.014 C 
ATOM     10  C   UNL     1     225.963 230.016 233.671  1.00  0.00     0.014 C 
ENDROOT
BRANCH   8  11
ATOM     11  O   UNL     1     229.248 229.556 235.001  1.00  0.00    -0.392 OA
ATOM     12  H   UNL     1     229.528 228.743 234.505  1.00  0.00     0.211 HD
ENDBRANCH   8  11
TORSDOF 1
ENDMDL
MODEL 2
REMARK VINA RESULT:    -3.151      8.752      9.997
REMARK INTER + INTRA:          -3.243
REMARK INTER:                  -3.243
REMARK INTRA:                   0.000
REMARK UNBOUND:                 0.000
REMARK SMILES CC1(C)[C@H]2CC[C@](C)(C2)[C@H]1O
REMARK SMILES IDX 1 1 2 2 4 3 5 4 6 5 7 6 9 7 10 8 8 9 3 10 11 11
REMARK H PARENT 11 12
REMARK Flexibility Score: inf
ROOT
ATOM      1  C   UNL     1     238.460 226.694 236.043  1.00  0.00     0.014 C 
ATOM      2  C   UNL     1     237.871 226.982 234.637  1.00  0.00    -0.006 C 
ATOM      3  C   UNL     1     236.303 226.959 234.606  1.00  0.00    -0.002 C 
ATOM      4  C   UNL     1     235.710 227.818 235.743  1.00  0.00     0.005 C 
ATOM      5  C   UNL     1     236.095 229.246 235.326  1.00  0.00     0.010 C 
ATOM      6  C   UNL     1     236.759 229.031 233.945  1.00  0.00    -0.006 C 
ATOM      7  C   UNL     1     235.981 227.847 233.415  1.00  0.00     0.013 C 
ATOM      8  C   UNL     1     238.176 228.426 234.112  1.00  0.00     0.126 C 
ATOM      9  C   UNL     1     236.713 230.265 233.036  1.00  0.00     0.014 C 
ATOM     10  C   UNL     1     238.438 225.912 233.672  1.00  0.00     0.014 C 
ENDROOT
BRANCH   8  11
ATOM     11  O   UNL     1     238.959 229.193 234.991  1.00  0.00    -0.392 OA
ATOM     12  H   UNL     1     238.451 230.027 235.165  1.00  0.00     0.211 HD
ENDBRANCH   8  11
TORSDOF 1
ENDMDL
MODEL 3
REMARK VINA RESULT:    -3.148     11.961     14.123
REMARK INTER + INTRA:          -3.240
REMARK INTER:                  -3.240
REMARK INTRA:                   0.000
REMARK UNBOUND:                 0.000
REMARK SMILES CC1(C)[C@H]2CC[C@](C)(C2)[C@H]1O
REMARK SMILES IDX 1 1 2 2 4 3 5 4 6 5 7 6 9 7 10 8 8 9 3 10 11 11
REMARK H PARENT 11 12
REMARK Flexibility Score: inf
ROOT
ATOM      1  C   UNL     1     241.735 238.443 236.080  1.00  0.00     0.014 C 
ATOM      2  C   UNL     1     241.469 237.869 234.663  1.00  0.00    -0.006 C 
ATOM      3  C   UNL     1     241.512 236.302 234.613  1.00  0.00    -0.002 C 
ATOM      4  C   UNL     1     240.649 235.684 235.733  1.00  0.00     0.005 C 
ATOM      5  C   UNL     1     239.220 236.056 235.306  1.00  0.00     0.010 C 
ATOM      6  C   UNL     1     239.441 236.740 233.936  1.00  0.00    -0.006 C 
ATOM      7  C   UNL     1     240.641 235.984 233.409  1.00  0.00     0.013 C 
ATOM      8  C   UNL     1     240.028 238.162 234.127  1.00  0.00     0.126 C 
ATOM      9  C   UNL     1     238.218 236.691 233.013  1.00  0.00     0.014 C 
ATOM     10  C   UNL     1     242.542 238.461 233.717  1.00  0.00     0.014 C 
ENDROOT
BRANCH   8  11
ATOM     11  O   UNL     1     239.242 238.925 235.008  1.00  0.00    -0.392 OA
ATOM     12  H   UNL     1     239.840 239.616 235.392  1.00  0.00     0.211 HD
ENDBRANCH   8  11
TORSDOF 1
ENDMDL
MODEL 4
REMARK VINA RESULT:    -3.146      8.717      9.986
REMARK INTER + INTRA:          -3.238
REMARK INTER:                  -3.238
REMARK INTRA:                   0.000
REMARK UNBOUND:                 0.000
REMARK SMILES CC1(C)[C@H]2CC[C@](C)(C2)[C@H]1O
REMARK SMILES IDX 1 1 2 2 4 3 5 4 6 5 7 6 9 7 10 8 8 9 3 10 11 11
REMARK H PARENT 11 12
REMARK Flexibility Score: inf
ROOT
ATOM      1  C   UNL     1     230.075 241.749 236.088  1.00  0.00     0.014 C 
ATOM      2  C   UNL     1     230.626 241.467 234.665  1.00  0.00    -0.006 C 
ATOM      3  C   UNL     1     232.192 241.494 234.592  1.00  0.00    -0.002 C 
ATOM      4  C   UNL     1     232.818 240.633 235.710  1.00  0.00     0.005 C 
ATOM      5  C   UNL     1     232.426 239.206 235.299  1.00  0.00     0.010 C 
ATOM      6  C   UNL     1     231.724 239.423 233.937  1.00  0.00    -0.006 C 
ATOM      7  C   UNL     1     232.484 240.611 233.390  1.00  0.00     0.013 C 
ATOM      8  C   UNL     1     230.311 240.024 234.145  1.00  0.00     0.126 C 
ATOM      9  C   UNL     1     231.749 238.192 233.024  1.00  0.00     0.014 C 
ATOM     10  C   UNL     1     230.030 242.538 233.719  1.00  0.00     0.014 C 
ENDROOT
BRANCH   8  11
ATOM     11  O   UNL     1     229.554 239.252 235.042  1.00  0.00    -0.392 OA
ATOM     12  H   UNL     1     228.815 239.834 235.360  1.00  0.00     0.211 HD
ENDBRANCH   8  11
TORSDOF 1
ENDMDL
MODEL 5
REMARK VINA RESULT:    -3.110      8.431      9.575
REMARK INTER + INTRA:          -3.201
REMARK INTER:                  -3.201
REMARK INTRA:                   0.000
REMARK UNBOUND:                 0.000
REMARK SMILES CC1(C)[C@H]2CC[C@](C)(C2)[C@H]1O
REMARK SMILES IDX 1 1 2 2 4 3 5 4 6 5 7 6 9 7 10 8 8 9 3 10 11 11
REMARK H PARENT 11 12
REMARK Flexibility Score: inf
ROOT
ATOM      1  C   UNL     1     236.179 227.202 233.465  1.00  0.00     0.014 C 
ATOM      2  C   UNL     1     236.389 228.634 234.025  1.00  0.00    -0.006 C 
ATOM      3  C   UNL     1     235.634 228.887 235.375  1.00  0.00    -0.002 C 
ATOM      4  C   UNL     1     235.904 227.752 236.386  1.00  0.00     0.005 C 
ATOM      5  C   UNL     1     237.391 227.942 236.722  1.00  0.00     0.010 C 
ATOM      6  C   UNL     1     237.754 229.231 235.947  1.00  0.00    -0.006 C 
ATOM      7  C   UNL     1     236.453 230.000 236.010  1.00  0.00     0.013 C 
ATOM      8  C   UNL     1     237.871 228.938 234.429  1.00  0.00     0.126 C 
ATOM      9  C   UNL     1     238.954 229.987 236.529  1.00  0.00     0.014 C 
ATOM     10  C   UNL     1     235.896 229.628 232.945  1.00  0.00     0.014 C 
ENDROOT
BRANCH   8  11
ATOM     11  O   UNL     1     238.755 227.874 234.181  1.00  0.00    -0.392 OA
ATOM     12  H   UNL     1     239.666 228.266 234.154  1.00  0.00     0.211 HD
ENDBRANCH   8  11
TORSDOF 1
ENDMDL
MODEL 6
REMARK VINA RESULT:    -3.107      1.409      2.814
REMARK INTER + INTRA:          -3.198
REMARK INTER:                  -3.198
REMARK INTRA:                   0.000
REMARK UNBOUND:                 0.000
REMARK SMILES CC1(C)[C@H]2CC[C@](C)(C2)[C@H]1O
REMARK SMILES IDX 1 1 2 2 4 3 5 4 6 5 7 6 9 7 10 8 8 9 3 10 11 11
REMARK H PARENT 11 12
REMARK Flexibility Score: inf
ROOT
ATOM      1  C   UNL     1     227.226 232.318 233.449  1.00  0.00     0.014 C 
ATOM      2  C   UNL     1     228.642 232.049 234.025  1.00  0.00    -0.006 C 
ATOM      3  C   UNL     1     228.907 232.784 235.384  1.00  0.00    -0.002 C 
ATOM      4  C   UNL     1     227.750 232.551 236.379  1.00  0.00     0.005 C 
ATOM      5  C   UNL     1     227.877 231.055 236.705  1.00  0.00     0.010 C 
ATOM      6  C   UNL     1     229.161 230.648 235.944  1.00  0.00    -0.006 C 
ATOM      7  C   UNL     1     229.979 231.918 236.027  1.00  0.00     0.013 C 
ATOM      8  C   UNL     1     228.884 230.554 234.422  1.00  0.00     0.126 C 
ATOM      9  C   UNL     1     229.863 229.416 236.526  1.00  0.00     0.014 C 
ATOM     10  C   UNL     1     229.668 232.510 232.961  1.00  0.00     0.014 C 
ENDROOT
BRANCH   8  11
ATOM     11  O   UNL     1     227.790 229.713 234.153  1.00  0.00    -0.392 OA
ATOM     12  H   UNL     1     227.424 229.438 235.034  1.00  0.00     0.211 HD
ENDBRANCH   8  11
TORSDOF 1
ENDMDL
MODEL 7
REMARK VINA RESULT:    -3.102      8.215      9.712
REMARK INTER + INTRA:          -3.193
REMARK INTER:                  -3.193
REMARK INTRA:                   0.000
REMARK UNBOUND:                 0.000
REMARK SMILES CC1(C)[C@H]2CC[C@](C)(C2)[C@H]1O
REMARK SMILES IDX 1 1 2 2 4 3 5 4 6 5 7 6 9 7 10 8 8 9 3 10 11 11
REMARK H PARENT 11 12
REMARK Flexibility Score: inf
ROOT
ATOM      1  C   UNL     1     232.449 241.156 233.341  1.00  0.00     0.014 C 
ATOM      2  C   UNL     1     232.116 239.759 233.928  1.00  0.00    -0.006 C 
ATOM      3  C   UNL     1     232.849 239.468 235.284  1.00  0.00    -0.002 C 
ATOM      4  C   UNL     1     232.680 240.641 236.272  1.00  0.00     0.005 C 
ATOM      5  C   UNL     1     231.183 240.589 236.611  1.00  0.00     0.010 C 
ATOM      6  C   UNL     1     230.708 239.321 235.862  1.00  0.00    -0.006 C 
ATOM      7  C   UNL     1     231.938 238.443 235.940  1.00  0.00     0.013 C 
ATOM      8  C   UNL     1     230.614 239.593 234.339  1.00  0.00     0.126 C 
ATOM      9  C   UNL     1     229.448 238.683 236.458  1.00  0.00     0.014 C 
ATOM     10  C   UNL     1     232.519 238.705 232.868  1.00  0.00     0.014 C 
ENDROOT
BRANCH   8  11
ATOM     11  O   UNL     1     229.826 240.724 234.069  1.00  0.00    -0.392 OA
ATOM     12  H   UNL     1     229.156 240.780 234.798  1.00  0.00     0.211 HD
ENDBRANCH   8  11
TORSDOF 1
ENDMDL
MODEL 8
REMARK VINA RESULT:    -3.097     12.130     13.352
REMARK INTER + INTRA:          -3.187
REMARK INTER:                  -3.187
REMARK INTRA:                   0.000
REMARK UNBOUND:                 0.000
REMARK SMILES CC1(C)[C@H]2CC[C@](C)(C2)[C@H]1O
REMARK SMILES IDX 1 1 2 2 4 3 5 4 6 5 7 6 9 7 10 8 8 9 3 10 11 11
REMARK H PARENT 11 12
REMARK Flexibility Score: inf
ROOT
ATOM      1  C   UNL     1     241.210 236.169 233.406  1.00  0.00     0.014 C 
ATOM      2  C   UNL     1     239.796 236.432 233.990  1.00  0.00    -0.006 C 
ATOM      3  C   UNL     1     239.525 235.657 235.326  1.00  0.00    -0.002 C 
ATOM      4  C   UNL     1     240.683 235.850 236.327  1.00  0.00     0.005 C 
ATOM      5  C   UNL     1     240.567 237.337 236.699  1.00  0.00     0.010 C 
ATOM      6  C   UNL     1     239.287 237.777 235.951  1.00  0.00    -0.006 C 
ATOM      7  C   UNL     1     238.459 236.511 235.994  1.00  0.00     0.013 C 
ATOM      8  C   UNL     1     239.566 237.916 234.432  1.00  0.00     0.126 C 
ATOM      9  C   UNL     1     238.594 238.996 236.570  1.00  0.00     0.014 C 
ATOM     10  C   UNL     1     238.767 236.010 232.912  1.00  0.00     0.014 C 
ENDROOT
BRANCH   8  11
ATOM     11  O   UNL     1     240.667 238.755 234.190  1.00  0.00    -0.392 OA
ATOM     12  H   UNL     1     240.834 238.724 233.213  1.00  0.00     0.211 HD
ENDBRANCH   8  11
TORSDOF 1
ENDMDL
MODEL 9
REMARK VINA RESULT:    -3.012      9.649     11.408
REMARK INTER + INTRA:          -3.100
REMARK INTER:                  -3.100
REMARK INTRA:                   0.000
REMARK UNBOUND:                 0.000
REMARK SMILES CC1(C)[C@H]2CC[C@](C)(C2)[C@H]1O
REMARK SMILES IDX 1 1 2 2 4 3 5 4 6 5 7 6 9 7 10 8 8 9 3 10 11 11
REMARK H PARENT 11 12
REMARK Flexibility Score: inf
ROOT
ATOM      1  C   UNL     1     237.387 229.422 233.975  1.00  0.00     0.014 C 
ATOM      2  C   UNL     1     237.599 228.554 235.244  1.00  0.00    -0.006 C 
ATOM      3  C   UNL     1     237.180 227.056 235.046  1.00  0.00    -0.002 C 
ATOM      4  C   UNL     1     237.792 226.472 233.755  1.00  0.00     0.005 C 
ATOM      5  C   UNL     1     239.293 226.425 234.081  1.00  0.00     0.010 C 
ATOM      6  C   UNL     1     239.336 226.881 235.559  1.00  0.00    -0.006 C 
ATOM      7  C   UNL     1     238.026 226.335 236.083  1.00  0.00     0.013 C 
ATOM      8  C   UNL     1     239.101 228.410 235.662  1.00  0.00     0.126 C 
ATOM      9  C   UNL     1     240.569 226.388 236.324  1.00  0.00     0.014 C 
ATOM     10  C   UNL     1     236.767 229.193 236.383  1.00  0.00     0.014 C 
ENDROOT
BRANCH   8  11
ATOM     11  O   UNL     1     239.988 229.120 234.836  1.00  0.00    -0.392 OA
ATOM     12  H   UNL     1     239.610 229.083 233.920  1.00  0.00     0.211 HD
ENDBRANCH   8  11
TORSDOF 1
ENDMDL
