MODEL 1
REMARK VINA RESULT:    -4.513      0.000      0.000
REMARK INTER + INTRA:         -10.755
REMARK INTER:                  -8.470
REMARK INTRA:                  -2.285
REMARK UNBOUND:                -2.285
REMARK SMILES CCCCCCCCC=CCCCCCCCC(=O)[O-]
REMARK SMILES IDX 10 1 9 2 11 3 12 4 13 5 14 6 15 7 16 8 17 9 18 10 19 11
REMARK SMILES IDX 20 12 8 13 7 14 6 15 5 16 4 17 3 18 2 19 1 20
REMARK H PARENT
REMARK Flexibility Score: inf
ROOT
ATOM      1  C   UNL     1      19.860  -6.317  47.761  1.00  0.00    -0.031 C 
ATOM      2  C   UNL     1      20.394  -5.534  46.805  1.00  0.00    -0.031 C 
ENDROOT
BRANCH   1   3
ATOM      3  C   UNL     1      20.606  -7.370  48.540  1.00  0.00     0.027 C 
BRANCH   3   4
ATOM      4  C   UNL     1      20.266  -7.311  50.037  1.00  0.00     0.004 C 
BRANCH   4   5
ATOM      5  C   UNL     1      21.478  -6.943  50.910  1.00  0.00     0.000 C 
BRANCH   5   6
ATOM      6  C   UNL     1      22.527  -6.047  50.225  1.00  0.00     0.000 C 
BRANCH   6   7
ATOM      7  C   UNL     1      23.203  -5.067  51.198  1.00  0.00     0.000 C 
BRANCH   7   8
ATOM      8  C   UNL     1      23.253  -3.627  50.645  1.00  0.00     0.006 C 
BRANCH   8   9
ATOM      9  C   UNL     1      22.991  -3.541  49.133  1.00  0.00     0.053 C 
BRANCH   9  10
ATOM     10  C   UNL     1      22.903  -2.128  48.652  1.00  0.00     0.041 C 
ATOM     11  O   UNL     1      22.832  -1.879  47.419  1.00  0.00    -0.550 OA
ATOM     12  O   UNL     1      22.874  -1.084  49.567  1.00  0.00    -0.550 OA
ENDBRANCH   9  10
ENDBRANCH   8   9
ENDBRANCH   7   8
ENDBRANCH   6   7
ENDBRANCH   5   6
ENDBRANCH   4   5
ENDBRANCH   3   4
ENDBRANCH   1   3
BRANCH   2  13
ATOM     13  C   UNL     1      21.831  -5.584  46.334  1.00  0.00     0.027 C 
BRANCH  13  14
ATOM     14  C   UNL     1      21.965  -5.196  44.851  1.00  0.00     0.004 C 
BRANCH  14  15
ATOM     15  C   UNL     1      21.185  -3.931  44.432  1.00  0.00     0.000 C 
BRANCH  15  16
ATOM     16  C   UNL     1      20.093  -4.153  43.370  1.00  0.00     0.000 C 
BRANCH  16  17
ATOM     17  C   UNL     1      19.835  -5.641  43.078  1.00  0.00    -0.000 C 
BRANCH  17  18
ATOM     18  C   UNL     1      18.397  -6.068  43.411  1.00  0.00    -0.000 C 
BRANCH  18  19
ATOM     19  C   UNL     1      18.342  -7.282  44.353  1.00  0.00    -0.003 C 
ATOM     20  C   UNL     1      19.594  -8.141  44.214  1.00  0.00     0.004 C 
ENDBRANCH  18  19
ENDBRANCH  17  18
ENDBRANCH  16  17
ENDBRANCH  15  16
ENDBRANCH  14  15
ENDBRANCH  13  14
ENDBRANCH   2  13
TORSDOF 15
ENDMDL
MODEL 2
REMARK VINA RESULT:    -4.432      1.548      2.354
REMARK INTER + INTRA:         -10.603
REMARK INTER:                  -7.763
REMARK INTRA:                  -2.840
REMARK UNBOUND:                -2.285
REMARK SMILES CCCCCCCCC=CCCCCCCCC(=O)[O-]
REMARK SMILES IDX 10 1 9 2 11 3 12 4 13 5 14 6 15 7 16 8 17 9 18 10 19 11
REMARK SMILES IDX 20 12 8 13 7 14 6 15 5 16 4 17 3 18 2 19 1 20
REMARK H PARENT
REMARK Flexibility Score: inf
ROOT
ATOM      1  C   UNL     1      21.236  -5.256  47.374  1.00  0.00    -0.031 C 
ATOM      2  C   UNL     1      21.156  -4.294  46.434  1.00  0.00    -0.031 C 
ENDROOT
BRANCH   1   3
ATOM      3  C   UNL     1      22.099  -6.488  47.286  1.00  0.00     0.027 C 
BRANCH   3   4
ATOM      4  C   UNL     1      21.483  -7.664  48.058  1.00  0.00     0.004 C 
BRANCH   4   5
ATOM      5  C   UNL     1      20.310  -7.239  48.957  1.00  0.00     0.000 C 
BRANCH   5   6
ATOM      6  C   UNL     1      20.656  -7.081  50.450  1.00  0.00     0.000 C 
BRANCH   6   7
ATOM      7  C   UNL     1      21.970  -7.780  50.836  1.00  0.00     0.000 C 
BRANCH   7   8
ATOM      8  C   UNL     1      22.989  -6.810  51.471  1.00  0.00     0.006 C 
BRANCH   8   9
ATOM      9  C   UNL     1      22.746  -5.338  51.104  1.00  0.00     0.053 C 
BRANCH   9  10
ATOM     10  C   UNL     1      23.794  -4.803  50.181  1.00  0.00     0.041 C 
ATOM     11  O   UNL     1      24.587  -5.588  49.597  1.00  0.00    -0.550 OA
ATOM     12  O   UNL     1      23.880  -3.437  49.945  1.00  0.00    -0.550 OA
ENDBRANCH   9  10
ENDBRANCH   8   9
ENDBRANCH   7   8
ENDBRANCH   6   7
ENDBRANCH   5   6
ENDBRANCH   4   5
ENDBRANCH   3   4
ENDBRANCH   1   3
BRANCH   2  13
ATOM     13  C   UNL     1      21.905  -4.290  45.120  1.00  0.00     0.027 C 
BRANCH  13  14
ATOM     14  C   UNL     1      20.991  -3.925  43.937  1.00  0.00     0.004 C 
BRANCH  14  15
ATOM     15  C   UNL     1      19.483  -3.885  44.263  1.00  0.00     0.000 C 
BRANCH  15  16
ATOM     16  C   UNL     1      18.563  -4.531  43.211  1.00  0.00     0.000 C 
BRANCH  16  17
ATOM     17  C   UNL     1      18.592  -6.068  43.255  1.00  0.00    -0.000 C 
BRANCH  17  18
ATOM     18  C   UNL     1      18.677  -6.618  44.688  1.00  0.00    -0.000 C 
BRANCH  18  19
ATOM     19  C   UNL     1      19.661  -7.791  44.816  1.00  0.00    -0.003 C 
ATOM     20  C   UNL     1      20.765  -7.698  43.768  1.00  0.00     0.004 C 
ENDBRANCH  18  19
ENDBRANCH  17  18
ENDBRANCH  16  17
ENDBRANCH  15  16
ENDBRANCH  14  15
ENDBRANCH  13  14
ENDBRANCH   2  13
TORSDOF 15
ENDMDL
MODEL 3
REMARK VINA RESULT:    -4.421      2.749      6.117
REMARK INTER + INTRA:         -10.582
REMARK INTER:                  -8.085
REMARK INTRA:                  -2.497
REMARK UNBOUND:                -2.285
REMARK SMILES CCCCCCCCC=CCCCCCCCC(=O)[O-]
REMARK SMILES IDX 10 1 9 2 11 3 12 4 13 5 14 6 15 7 16 8 17 9 18 10 19 11
REMARK SMILES IDX 20 12 8 13 7 14 6 15 5 16 4 17 3 18 2 19 1 20
REMARK H PARENT
REMARK Flexibility Score: inf
ROOT
ATOM      1  C   UNL     1      20.192  -7.000  49.579  1.00  0.00    -0.031 C 
ATOM      2  C   UNL     1      20.844  -7.159  50.747  1.00  0.00    -0.031 C 
ENDROOT
BRANCH   1   3
ATOM      3  C   UNL     1      20.708  -7.429  48.229  1.00  0.00     0.027 C 
BRANCH   3   4
ATOM      4  C   UNL     1      19.901  -6.792  47.088  1.00  0.00     0.004 C 
BRANCH   4   5
ATOM      5  C   UNL     1      20.466  -7.128  45.698  1.00  0.00     0.000 C 
BRANCH   5   6
ATOM      6  C   UNL     1      21.733  -6.347  45.302  1.00  0.00     0.000 C 
BRANCH   6   7
ATOM      7  C   UNL     1      21.561  -5.550  43.999  1.00  0.00     0.000 C 
BRANCH   7   8
ATOM      8  C   UNL     1      21.246  -4.061  44.256  1.00  0.00     0.006 C 
BRANCH   8   9
ATOM      9  C   UNL     1      19.750  -3.777  44.461  1.00  0.00     0.053 C 
BRANCH   9  10
ATOM     10  C   UNL     1      18.925  -4.212  43.292  1.00  0.00     0.041 C 
ATOM     11  O   UNL     1      18.965  -3.568  42.211  1.00  0.00    -0.550 OA
ATOM     12  O   UNL     1      18.130  -5.347  43.388  1.00  0.00    -0.550 OA
ENDBRANCH   9  10
ENDBRANCH   8   9
ENDBRANCH   7   8
ENDBRANCH   6   7
ENDBRANCH   5   6
ENDBRANCH   4   5
ENDBRANCH   3   4
ENDBRANCH   1   3
BRANCH   2  13
ATOM     13  C   UNL     1      22.213  -7.781  50.907  1.00  0.00     0.027 C 
BRANCH  13  14
ATOM     14  C   UNL     1      23.337  -6.735  50.802  1.00  0.00     0.004 C 
BRANCH  14  15
ATOM     15  C   UNL     1      22.943  -5.305  51.231  1.00  0.00     0.000 C 
BRANCH  15  16
ATOM     16  C   UNL     1      23.274  -4.198  50.214  1.00  0.00     0.000 C 
BRANCH  16  17
ATOM     17  C   UNL     1      23.177  -4.676  48.755  1.00  0.00    -0.000 C 
BRANCH  17  18
ATOM     18  C   UNL     1      22.173  -3.855  47.929  1.00  0.00    -0.000 C 
BRANCH  18  19
ATOM     19  C   UNL     1      22.836  -2.687  47.181  1.00  0.00    -0.003 C 
ATOM     20  C   UNL     1      24.176  -3.108  46.586  1.00  0.00     0.004 C 
ENDBRANCH  18  19
ENDBRANCH  17  18
ENDBRANCH  16  17
ENDBRANCH  15  16
ENDBRANCH  14  15
ENDBRANCH  13  14
ENDBRANCH   2  13
TORSDOF 15
ENDMDL
MODEL 4
REMARK VINA RESULT:    -4.406      1.343      2.982
REMARK INTER + INTRA:         -10.555
REMARK INTER:                  -8.399
REMARK INTRA:                  -2.156
REMARK UNBOUND:                -2.285
REMARK SMILES CCCCCCCCC=CCCCCCCCC(=O)[O-]
REMARK SMILES IDX 10 1 9 2 11 3 12 4 13 5 14 6 15 7 16 8 17 9 18 10 19 11
REMARK SMILES IDX 20 12 8 13 7 14 6 15 5 16 4 17 3 18 2 19 1 20
REMARK H PARENT
REMARK Flexibility Score: inf
ROOT
ATOM      1  C   UNL     1      20.930  -6.977  50.761  1.00  0.00    -0.031 C 
ATOM      2  C   UNL     1      20.149  -7.164  49.679  1.00  0.00    -0.031 C 
ENDROOT
BRANCH   1   3
ATOM      3  C   UNL     1      22.437  -6.949  50.751  1.00  0.00     0.027 C 
BRANCH   3   4
ATOM      4  C   UNL     1      22.977  -5.551  51.085  1.00  0.00     0.004 C 
BRANCH   4   5
ATOM      5  C   UNL     1      24.019  -5.054  50.068  1.00  0.00     0.000 C 
BRANCH   5   6
ATOM      6  C   UNL     1      23.888  -5.652  48.655  1.00  0.00     0.000 C 
BRANCH   6   7
ATOM      7  C   UNL     1      23.574  -4.593  47.584  1.00  0.00     0.000 C 
BRANCH   7   8
ATOM      8  C   UNL     1      22.344  -3.735  47.946  1.00  0.00     0.006 C 
BRANCH   8   9
ATOM      9  C   UNL     1      22.587  -2.224  47.805  1.00  0.00     0.053 C 
BRANCH   9  10
ATOM     10  C   UNL     1      22.724  -1.546  49.130  1.00  0.00     0.041 C 
ATOM     11  O   UNL     1      21.729  -0.988  49.665  1.00  0.00    -0.550 OA
ATOM     12  O   UNL     1      23.946  -1.551  49.790  1.00  0.00    -0.550 OA
ENDBRANCH   9  10
ENDBRANCH   8   9
ENDBRANCH   7   8
ENDBRANCH   6   7
ENDBRANCH   5   6
ENDBRANCH   4   5
ENDBRANCH   3   4
ENDBRANCH   1   3
BRANCH   2  13
ATOM     13  C   UNL     1      20.647  -7.395  48.270  1.00  0.00     0.027 C 
BRANCH  13  14
ATOM     14  C   UNL     1      19.907  -6.517  47.246  1.00  0.00     0.004 C 
BRANCH  14  15
ATOM     15  C   UNL     1      19.780  -7.124  45.833  1.00  0.00     0.000 C 
BRANCH  15  16
ATOM     16  C   UNL     1      18.358  -7.129  45.243  1.00  0.00     0.000 C 
BRANCH  16  17
ATOM     17  C   UNL     1      18.302  -6.565  43.813  1.00  0.00    -0.000 C 
BRANCH  17  18
ATOM     18  C   UNL     1      19.492  -5.646  43.492  1.00  0.00    -0.000 C 
BRANCH  18  19
ATOM     19  C   UNL     1      19.191  -4.165  43.774  1.00  0.00    -0.003 C 
ATOM     20  C   UNL     1      20.147  -3.601  44.821  1.00  0.00     0.004 C 
ENDBRANCH  18  19
ENDBRANCH  17  18
ENDBRANCH  16  17
ENDBRANCH  15  16
ENDBRANCH  14  15
ENDBRANCH  13  14
ENDBRANCH   2  13
TORSDOF 15
ENDMDL
MODEL 5
REMARK VINA RESULT:    -4.393      1.589      6.159
REMARK INTER + INTRA:         -10.530
REMARK INTER:                  -8.350
REMARK INTRA:                  -2.180
REMARK UNBOUND:                -2.285
REMARK SMILES CCCCCCCCC=CCCCCCCCC(=O)[O-]
REMARK SMILES IDX 10 1 9 2 11 3 12 4 13 5 14 6 15 7 16 8 17 9 18 10 19 11
REMARK SMILES IDX 20 12 8 13 7 14 6 15 5 16 4 17 3 18 2 19 1 20
REMARK H PARENT
REMARK Flexibility Score: inf
ROOT
ATOM      1  C   UNL     1      21.355  -8.786  45.836  1.00  0.00    -0.031 C 
ATOM      2  C   UNL     1      21.815  -7.974  46.807  1.00  0.00    -0.031 C 
ENDROOT
BRANCH   1   3
ATOM      3  C   UNL     1      20.353  -8.397  44.779  1.00  0.00     0.027 C 
BRANCH   3   4
ATOM      4  C   UNL     1      21.042  -8.045  43.452  1.00  0.00     0.004 C 
BRANCH   4   5
ATOM      5  C   UNL     1      21.096  -6.530  43.191  1.00  0.00     0.000 C 
BRANCH   5   6
ATOM      6  C   UNL     1      19.783  -5.774  43.465  1.00  0.00     0.000 C 
BRANCH   6   7
ATOM      7  C   UNL     1      19.957  -4.246  43.447  1.00  0.00     0.000 C 
BRANCH   7   8
ATOM      8  C   UNL     1      20.293  -3.674  44.840  1.00  0.00     0.006 C 
BRANCH   8   9
ATOM      9  C   UNL     1      21.790  -3.391  45.042  1.00  0.00     0.053 C 
BRANCH   9  10
ATOM     10  C   UNL     1      22.128  -1.951  44.830  1.00  0.00     0.041 C 
ATOM     11  O   UNL     1      22.207  -1.481  43.664  1.00  0.00    -0.550 OA
ATOM     12  O   UNL     1      22.332  -1.117  45.922  1.00  0.00    -0.550 OA
ENDBRANCH   9  10
ENDBRANCH   8   9
ENDBRANCH   7   8
ENDBRANCH   6   7
ENDBRANCH   5   6
ENDBRANCH   4   5
ENDBRANCH   3   4
ENDBRANCH   1   3
BRANCH   2  13
ATOM     13  C   UNL     1      21.396  -6.536  47.016  1.00  0.00     0.027 C 
BRANCH  13  14
ATOM     14  C   UNL     1      20.216  -6.417  47.997  1.00  0.00     0.004 C 
BRANCH  14  15
ATOM     15  C   UNL     1      20.162  -7.503  49.092  1.00  0.00     0.000 C 
BRANCH  15  16
ATOM     16  C   UNL     1      20.696  -7.076  50.471  1.00  0.00     0.000 C 
BRANCH  16  17
ATOM     17  C   UNL     1      22.046  -7.726  50.818  1.00  0.00    -0.000 C 
BRANCH  17  18
ATOM     18  C   UNL     1      23.051  -6.724  51.409  1.00  0.00    -0.000 C 
BRANCH  18  19
ATOM     19  C   UNL     1      22.747  -5.272  51.007  1.00  0.00    -0.003 C 
ATOM     20  C   UNL     1      23.502  -4.884  49.739  1.00  0.00     0.004 C 
ENDBRANCH  18  19
ENDBRANCH  17  18
ENDBRANCH  16  17
ENDBRANCH  15  16
ENDBRANCH  14  15
ENDBRANCH  13  14
ENDBRANCH   2  13
TORSDOF 15
ENDMDL
MODEL 6
REMARK VINA RESULT:    -4.385      2.763      7.247
REMARK INTER + INTRA:         -10.515
REMARK INTER:                  -8.186
REMARK INTRA:                  -2.328
REMARK UNBOUND:                -2.285
REMARK SMILES CCCCCCCCC=CCCCCCCCC(=O)[O-]
REMARK SMILES IDX 10 1 9 2 11 3 12 4 13 5 14 6 15 7 16 8 17 9 18 10 19 11
REMARK SMILES IDX 20 12 8 13 7 14 6 15 5 16 4 17 3 18 2 19 1 20
REMARK H PARENT
REMARK Flexibility Score: inf
ROOT
ATOM      1  C   UNL     1      21.227  -4.614  44.515  1.00  0.00    -0.031 C 
ATOM      2  C   UNL     1      21.747  -5.232  45.593  1.00  0.00    -0.031 C 
ENDROOT
BRANCH   1   3
ATOM      3  C   UNL     1      20.007  -3.728  44.526  1.00  0.00     0.027 C 
BRANCH   3   4
ATOM      4  C   UNL     1      19.132  -3.960  43.285  1.00  0.00     0.004 C 
BRANCH   4   5
ATOM      5  C   UNL     1      19.037  -5.444  42.891  1.00  0.00     0.000 C 
BRANCH   5   6
ATOM      6  C   UNL     1      17.927  -6.239  43.604  1.00  0.00     0.000 C 
BRANCH   6   7
ATOM      7  C   UNL     1      18.463  -7.456  44.375  1.00  0.00     0.000 C 
BRANCH   7   8
ATOM      8  C   UNL     1      19.824  -7.943  43.835  1.00  0.00     0.006 C 
BRANCH   8   9
ATOM      9  C   UNL     1      20.317  -9.240  44.496  1.00  0.00     0.053 C 
BRANCH   9  10
ATOM     10  C   UNL     1      21.809  -9.344  44.496  1.00  0.00     0.041 C 
ATOM     11  O   UNL     1      22.479  -8.873  45.453  1.00  0.00    -0.550 OA
ATOM     12  O   UNL     1      22.460  -9.986  43.451  1.00  0.00    -0.550 OA
ENDBRANCH   9  10
ENDBRANCH   8   9
ENDBRANCH   7   8
ENDBRANCH   6   7
ENDBRANCH   5   6
ENDBRANCH   4   5
ENDBRANCH   3   4
ENDBRANCH   1   3
BRANCH   2  13
ATOM     13  C   UNL     1      21.191  -5.159  46.997  1.00  0.00     0.027 C 
BRANCH  13  14
ATOM     14  C   UNL     1      20.083  -6.200  47.233  1.00  0.00     0.004 C 
BRANCH  14  15
ATOM     15  C   UNL     1      20.491  -7.404  48.109  1.00  0.00     0.000 C 
BRANCH  15  16
ATOM     16  C   UNL     1      21.765  -7.205  48.949  1.00  0.00     0.000 C 
BRANCH  16  17
ATOM     17  C   UNL     1      21.468  -6.752  50.389  1.00  0.00    -0.000 C 
BRANCH  17  18
ATOM     18  C   UNL     1      22.638  -5.980  51.019  1.00  0.00    -0.000 C 
BRANCH  18  19
ATOM     19  C   UNL     1      23.208  -4.900  50.086  1.00  0.00    -0.003 C 
ATOM     20  C   UNL     1      23.223  -3.537  50.771  1.00  0.00     0.004 C 
ENDBRANCH  18  19
ENDBRANCH  17  18
ENDBRANCH  16  17
ENDBRANCH  15  16
ENDBRANCH  14  15
ENDBRANCH  13  14
ENDBRANCH   2  13
TORSDOF 15
ENDMDL
MODEL 7
REMARK VINA RESULT:    -4.377      2.716      6.273
REMARK INTER + INTRA:         -10.500
REMARK INTER:                  -7.782
REMARK INTRA:                  -2.718
REMARK UNBOUND:                -2.285
REMARK SMILES CCCCCCCCC=CCCCCCCCC(=O)[O-]
REMARK SMILES IDX 10 1 9 2 11 3 12 4 13 5 14 6 15 7 16 8 17 9 18 10 19 11
REMARK SMILES IDX 20 12 8 13 7 14 6 15 5 16 4 17 3 18 2 19 1 20
REMARK H PARENT
REMARK Flexibility Score: inf
ROOT
ATOM      1  C   UNL     1      20.255  -7.147  49.949  1.00  0.00    -0.031 C 
ATOM      2  C   UNL     1      21.276  -7.102  50.827  1.00  0.00    -0.031 C 
ENDROOT
BRANCH   1   3
ATOM      3  C   UNL     1      20.384  -7.462  48.480  1.00  0.00     0.027 C 
BRANCH   3   4
ATOM      4  C   UNL     1      19.916  -6.287  47.609  1.00  0.00     0.004 C 
BRANCH   4   5
ATOM      5  C   UNL     1      21.065  -5.347  47.207  1.00  0.00     0.000 C 
BRANCH   5   6
ATOM      6  C   UNL     1      22.346  -6.052  46.722  1.00  0.00     0.000 C 
BRANCH   6   7
ATOM      7  C   UNL     1      22.616  -5.837  45.224  1.00  0.00     0.000 C 
BRANCH   7   8
ATOM      8  C   UNL     1      21.530  -4.975  44.546  1.00  0.00     0.006 C 
BRANCH   8   9
ATOM      9  C   UNL     1      20.879  -5.654  43.331  1.00  0.00     0.053 C 
BRANCH   9  10
ATOM     10  C   UNL     1      20.265  -6.972  43.679  1.00  0.00     0.041 C 
ATOM     11  O   UNL     1      19.155  -7.019  44.273  1.00  0.00    -0.550 OA
ATOM     12  O   UNL     1      20.906  -8.152  43.325  1.00  0.00    -0.550 OA
ENDBRANCH   9  10
ENDBRANCH   8   9
ENDBRANCH   7   8
ENDBRANCH   6   7
ENDBRANCH   5   6
ENDBRANCH   4   5
ENDBRANCH   3   4
ENDBRANCH   1   3
BRANCH   2  13
ATOM     13  C   UNL     1      22.731  -7.343  50.490  1.00  0.00     0.027 C 
BRANCH  13  14
ATOM     14  C   UNL     1      23.515  -6.026  50.348  1.00  0.00     0.004 C 
BRANCH  14  15
ATOM     15  C   UNL     1      22.926  -4.827  51.120  1.00  0.00     0.000 C 
BRANCH  15  16
ATOM     16  C   UNL     1      23.481  -3.448  50.719  1.00  0.00     0.000 C 
BRANCH  16  17
ATOM     17  C   UNL     1      23.091  -3.039  49.288  1.00  0.00    -0.000 C 
BRANCH  17  18
ATOM     18  C   UNL     1      24.305  -2.943  48.349  1.00  0.00    -0.000 C 
BRANCH  18  19
ATOM     19  C   UNL     1      23.905  -2.697  46.886  1.00  0.00    -0.003 C 
ATOM     20  C   UNL     1      22.608  -1.899  46.799  1.00  0.00     0.004 C 
ENDBRANCH  18  19
ENDBRANCH  17  18
ENDBRANCH  16  17
ENDBRANCH  15  16
ENDBRANCH  14  15
ENDBRANCH  13  14
ENDBRANCH   2  13
TORSDOF 15
ENDMDL
MODEL 8
REMARK VINA RESULT:    -4.373      2.195      6.894
REMARK INTER + INTRA:         -10.493
REMARK INTER:                  -8.429
REMARK INTRA:                  -2.064
REMARK UNBOUND:                -2.285
REMARK SMILES CCCCCCCCC=CCCCCCCCC(=O)[O-]
REMARK SMILES IDX 10 1 9 2 11 3 12 4 13 5 14 6 15 7 16 8 17 9 18 10 19 11
REMARK SMILES IDX 20 12 8 13 7 14 6 15 5 16 4 17 3 18 2 19 1 20
REMARK H PARENT
REMARK Flexibility Score: inf
ROOT
ATOM      1  C   UNL     1      20.993  -5.553  47.097  1.00  0.00    -0.031 C 
ATOM      2  C   UNL     1      20.125  -6.233  47.871  1.00  0.00    -0.031 C 
ENDROOT
BRANCH   1   3
ATOM      3  C   UNL     1      22.450  -5.896  46.918  1.00  0.00     0.027 C 
BRANCH   3   4
ATOM      4  C   UNL     1      22.738  -6.409  45.499  1.00  0.00     0.004 C 
BRANCH   4   5
ATOM      5  C   UNL     1      22.077  -7.768  45.211  1.00  0.00     0.000 C 
BRANCH   5   6
ATOM      6  C   UNL     1      21.589  -7.963  43.763  1.00  0.00     0.000 C 
BRANCH   6   7
ATOM      7  C   UNL     1      20.758  -6.777  43.248  1.00  0.00     0.000 C 
BRANCH   7   8
ATOM      8  C   UNL     1      19.418  -6.625  43.998  1.00  0.00     0.006 C 
BRANCH   8   9
ATOM      9  C   UNL     1      18.427  -5.683  43.297  1.00  0.00     0.053 C 
BRANCH   9  10
ATOM     10  C   UNL     1      18.873  -4.256  43.340  1.00  0.00     0.041 C 
ATOM     11  O   UNL     1      19.419  -3.792  44.376  1.00  0.00    -0.550 OA
ATOM     12  O   UNL     1      18.709  -3.444  42.226  1.00  0.00    -0.550 OA
ENDBRANCH   9  10
ENDBRANCH   8   9
ENDBRANCH   7   8
ENDBRANCH   6   7
ENDBRANCH   5   6
ENDBRANCH   4   5
ENDBRANCH   3   4
ENDBRANCH   1   3
BRANCH   2  13
ATOM     13  C   UNL     1      20.462  -7.447  48.707  1.00  0.00     0.027 C 
BRANCH  13  14
ATOM     14  C   UNL     1      20.264  -7.185  50.210  1.00  0.00     0.004 C 
BRANCH  14  15
ATOM     15  C   UNL     1      21.358  -7.771  51.127  1.00  0.00     0.000 C 
BRANCH  15  16
ATOM     16  C   UNL     1      22.758  -7.152  50.960  1.00  0.00     0.000 C 
BRANCH  16  17
ATOM     17  C   UNL     1      22.751  -5.617  51.070  1.00  0.00    -0.000 C 
BRANCH  17  18
ATOM     18  C   UNL     1      23.872  -4.961  50.248  1.00  0.00    -0.000 C 
BRANCH  18  19
ATOM     19  C   UNL     1      23.450  -3.615  49.638  1.00  0.00    -0.003 C 
ATOM     20  C   UNL     1      22.947  -2.658  50.715  1.00  0.00     0.004 C 
ENDBRANCH  18  19
ENDBRANCH  17  18
ENDBRANCH  16  17
ENDBRANCH  15  16
ENDBRANCH  14  15
ENDBRANCH  13  14
ENDBRANCH   2  13
TORSDOF 15
ENDMDL
MODEL 9
REMARK VINA RESULT:    -4.368      1.533      3.139
REMARK INTER + INTRA:         -10.482
REMARK INTER:                  -8.168
REMARK INTRA:                  -2.314
REMARK UNBOUND:                -2.285
REMARK SMILES CCCCCCCCC=CCCCCCCCC(=O)[O-]
REMARK SMILES IDX 10 1 9 2 11 3 12 4 13 5 14 6 15 7 16 8 17 9 18 10 19 11
REMARK SMILES IDX 20 12 8 13 7 14 6 15 5 16 4 17 3 18 2 19 1 20
REMARK H PARENT
REMARK Flexibility Score: inf
ROOT
ATOM      1  C   UNL     1      20.963  -7.265  50.750  1.00  0.00    -0.031 C 
ATOM      2  C   UNL     1      20.234  -7.356  49.621  1.00  0.00    -0.031 C 
ENDROOT
BRANCH   1   3
ATOM      3  C   UNL     1      22.440  -6.967  50.809  1.00  0.00     0.027 C 
BRANCH   3   4
ATOM      4  C   UNL     1      22.708  -5.558  51.359  1.00  0.00     0.004 C 
BRANCH   4   5
ATOM      5  C   UNL     1      23.370  -4.630  50.326  1.00  0.00     0.000 C 
BRANCH   5   6
ATOM      6  C   UNL     1      23.915  -5.336  49.070  1.00  0.00     0.000 C 
BRANCH   6   7
ATOM      7  C   UNL     1      23.486  -4.648  47.763  1.00  0.00     0.000 C 
BRANCH   7   8
ATOM      8  C   UNL     1      22.657  -3.371  48.014  1.00  0.00     0.006 C 
BRANCH   8   9
ATOM      9  C   UNL     1      23.344  -2.088  47.520  1.00  0.00     0.053 C 
BRANCH   9  10
ATOM     10  C   UNL     1      22.949  -1.736  46.121  1.00  0.00     0.041 C 
ATOM     11  O   UNL     1      23.633  -2.144  45.146  1.00  0.00    -0.550 OA
ATOM     12  O   UNL     1      21.808  -0.978  45.892  1.00  0.00    -0.550 OA
ENDBRANCH   9  10
ENDBRANCH   8   9
ENDBRANCH   7   8
ENDBRANCH   6   7
ENDBRANCH   5   6
ENDBRANCH   4   5
ENDBRANCH   3   4
ENDBRANCH   1   3
BRANCH   2  13
ATOM     13  C   UNL     1      20.770  -7.191  48.217  1.00  0.00     0.027 C 
BRANCH  13  14
ATOM     14  C   UNL     1      19.933  -6.197  47.393  1.00  0.00     0.004 C 
BRANCH  14  15
ATOM     15  C   UNL     1      19.510  -6.699  45.996  1.00  0.00     0.000 C 
BRANCH  15  16
ATOM     16  C   UNL     1      20.500  -6.391  44.858  1.00  0.00     0.000 C 
BRANCH  16  17
ATOM     17  C   UNL     1      21.190  -5.025  45.017  1.00  0.00    -0.000 C 
BRANCH  17  18
ATOM     18  C   UNL     1      20.279  -3.853  44.617  1.00  0.00    -0.000 C 
BRANCH  18  19
ATOM     19  C   UNL     1      19.889  -3.884  43.131  1.00  0.00    -0.003 C 
ATOM     20  C   UNL     1      18.374  -3.962  42.963  1.00  0.00     0.004 C 
ENDBRANCH  18  19
ENDBRANCH  17  18
ENDBRANCH  16  17
ENDBRANCH  15  16
ENDBRANCH  14  15
ENDBRANCH  13  14
ENDBRANCH   2  13
TORSDOF 15
ENDMDL
