MODEL 1
REMARK VINA RESULT:    -0.632      0.000      0.000
REMARK INTER + INTRA:          -2.306
REMARK INTER:                  -1.445
REMARK INTRA:                  -0.861
REMARK UNBOUND:                -0.861
REMARK SMILES CCCCCCCCCCCCCCCCCCCCCCCC(=O)[O-]
REMARK SMILES IDX 13 1 14 2 15 3 16 4 17 5 18 6 19 7 20 8 21 9 22 10 23 11
REMARK SMILES IDX 24 12 25 13 26 14 12 15 11 16 10 17 9 18 8 19 7 20 6 21 5 22
REMARK SMILES IDX 4 23 3 24 2 25 1 26
REMARK H PARENT
REMARK Flexibility Score: inf
ROOT
ATOM      1  C   UNL     1     -16.125  14.593  -6.861  1.00  0.00     0.000 C 
ENDROOT
BRANCH   1   2
ATOM      2  C   UNL     1     -15.630  13.644  -5.754  1.00  0.00     0.000 C 
BRANCH   2   3
ATOM      3  C   UNL     1     -14.937  12.386  -6.307  1.00  0.00     0.000 C 
BRANCH   3   4
ATOM      4  C   UNL     1     -13.837  12.735  -7.334  1.00  0.00     0.000 C 
BRANCH   4   5
ATOM      5  C   UNL     1     -14.379  13.296  -8.663  1.00  0.00     0.000 C 
BRANCH   5   6
ATOM      6  C   UNL     1     -15.251  12.324  -9.476  1.00  0.00     0.000 C 
BRANCH   6   7
ATOM      7  C   UNL     1     -16.673  12.859  -9.718  1.00  0.00     0.000 C 
BRANCH   7   8
ATOM      8  C   UNL     1     -17.123  12.688 -11.179  1.00  0.00     0.000 C 
BRANCH   8   9
ATOM      9  C   UNL     1     -16.897  11.261 -11.704  1.00  0.00     0.000 C 
BRANCH   9  10
ATOM     10  C   UNL     1     -15.891  11.254 -12.868  1.00  0.00     0.006 C 
BRANCH  10  11
ATOM     11  C   UNL     1     -14.463  11.579 -12.405  1.00  0.00     0.053 C 
BRANCH  11  12
ATOM     12  C   UNL     1     -14.056  12.969 -12.795  1.00  0.00     0.041 C 
ATOM     13  O   UNL     1     -14.924  13.879 -12.894  1.00  0.00    -0.550 OA
ATOM     14  O   UNL     1     -12.716  13.270 -13.011  1.00  0.00    -0.550 OA
ENDBRANCH  11  12
ENDBRANCH  10  11
ENDBRANCH   9  10
ENDBRANCH   8   9
ENDBRANCH   7   8
ENDBRANCH   6   7
ENDBRANCH   5   6
ENDBRANCH   4   5
ENDBRANCH   3   4
ENDBRANCH   2   3
ENDBRANCH   1   2
BRANCH   1  15
ATOM     15  C   UNL     1     -15.771  16.076  -6.646  1.00  0.00     0.000 C 
BRANCH  15  16
ATOM     16  C   UNL     1     -15.794  16.891  -7.949  1.00  0.00     0.000 C 
BRANCH  16  17
ATOM     17  C   UNL     1     -16.962  16.457  -8.847  1.00  0.00     0.000 C 
BRANCH  17  18
ATOM     18  C   UNL     1     -17.093  17.327 -10.107  1.00  0.00    -0.000 C 
BRANCH  18  19
ATOM     19  C   UNL     1     -15.801  18.091 -10.435  1.00  0.00    -0.000 C 
BRANCH  19  20
ATOM     20  C   UNL     1     -16.037  19.607 -10.399  1.00  0.00    -0.000 C 
BRANCH  20  21
ATOM     21  C   UNL     1     -17.124  20.068 -11.387  1.00  0.00    -0.000 C 
BRANCH  21  22
ATOM     22  C   UNL     1     -16.601  20.826 -12.626  1.00  0.00    -0.000 C 
BRANCH  22  23
ATOM     23  C   UNL     1     -15.788  22.100 -12.319  1.00  0.00    -0.000 C 
BRANCH  23  24
ATOM     24  C   UNL     1     -14.302  22.037 -12.729  1.00  0.00    -0.000 C 
BRANCH  24  25
ATOM     25  C   UNL     1     -13.486  20.934 -12.031  1.00  0.00    -0.003 C 
ATOM     26  C   UNL     1     -13.228  19.726 -12.932  1.00  0.00     0.004 C 
ENDBRANCH  24  25
ENDBRANCH  23  24
ENDBRANCH  22  23
ENDBRANCH  21  22
ENDBRANCH  20  21
ENDBRANCH  19  20
ENDBRANCH  18  19
ENDBRANCH  17  18
ENDBRANCH  16  17
ENDBRANCH  15  16
ENDBRANCH   1  15
TORSDOF 22
ENDMDL
MODEL 2
REMARK VINA RESULT:    -0.080      2.502      7.358
REMARK INTER + INTRA:          -1.044
REMARK INTER:                   0.464
REMARK INTRA:                  -1.508
REMARK UNBOUND:                -0.861
REMARK SMILES CCCCCCCCCCCCCCCCCCCCCCCC(=O)[O-]
REMARK SMILES IDX 13 1 14 2 15 3 16 4 17 5 18 6 19 7 20 8 21 9 22 10 23 11
REMARK SMILES IDX 24 12 25 13 26 14 12 15 11 16 10 17 9 18 8 19 7 20 6 21 5 22
REMARK SMILES IDX 4 23 3 24 2 25 1 26
REMARK H PARENT
REMARK Flexibility Score: inf
ROOT
ATOM      1  C   UNL     1     -15.316  15.338  -8.562  1.00  0.00     0.000 C 
ENDROOT
BRANCH   1   2
ATOM      2  C   UNL     1     -16.437  16.382  -8.407  1.00  0.00     0.000 C 
BRANCH   2   3
ATOM      3  C   UNL     1     -15.916  17.830  -8.411  1.00  0.00     0.000 C 
BRANCH   3   4
ATOM      4  C   UNL     1     -17.060  18.857  -8.556  1.00  0.00     0.000 C 
BRANCH   4   5
ATOM      5  C   UNL     1     -17.096  19.561  -9.927  1.00  0.00     0.000 C 
BRANCH   5   6
ATOM      6  C   UNL     1     -15.806  19.443 -10.757  1.00  0.00     0.000 C 
BRANCH   6   7
ATOM      7  C   UNL     1     -16.078  19.126 -12.239  1.00  0.00     0.000 C 
BRANCH   7   8
ATOM      8  C   UNL     1     -17.049  20.130 -12.883  1.00  0.00     0.000 C 
BRANCH   8   9
ATOM      9  C   UNL     1     -16.780  21.578 -12.444  1.00  0.00     0.000 C 
BRANCH   9  10
ATOM     10  C   UNL     1     -15.493  22.120 -13.089  1.00  0.00     0.006 C 
BRANCH  10  11
ATOM     11  C   UNL     1     -14.292  22.057 -12.133  1.00  0.00     0.053 C 
BRANCH  11  12
ATOM     12  C   UNL     1     -13.155  21.276 -12.722  1.00  0.00     0.041 C 
ATOM     13  O   UNL     1     -12.024  21.814 -12.864  1.00  0.00    -0.550 OA
ATOM     14  O   UNL     1     -13.333  19.944 -13.076  1.00  0.00    -0.550 OA
ENDBRANCH  11  12
ENDBRANCH  10  11
ENDBRANCH   9  10
ENDBRANCH   8   9
ENDBRANCH   7   8
ENDBRANCH   6   7
ENDBRANCH   5   6
ENDBRANCH   4   5
ENDBRANCH   3   4
ENDBRANCH   2   3
ENDBRANCH   1   2
BRANCH   1  15
ATOM     15  C   UNL     1     -15.313  14.228  -7.494  1.00  0.00     0.000 C 
BRANCH  15  16
ATOM     16  C   UNL     1     -16.662  13.501  -7.383  1.00  0.00     0.000 C 
BRANCH  16  17
ATOM     17  C   UNL     1     -17.124  12.991  -8.756  1.00  0.00     0.000 C 
BRANCH  17  18
ATOM     18  C   UNL     1     -16.212  11.887  -9.314  1.00  0.00    -0.000 C 
BRANCH  18  19
ATOM     19  C   UNL     1     -17.004  10.724  -9.933  1.00  0.00    -0.000 C 
BRANCH  19  20
ATOM     20  C   UNL     1     -17.034  10.837 -11.464  1.00  0.00    -0.000 C 
BRANCH  20  21
ATOM     21  C   UNL     1     -15.629  10.830 -12.094  1.00  0.00    -0.000 C 
BRANCH  21  22
ATOM     22  C   UNL     1     -15.369  11.948 -13.125  1.00  0.00    -0.000 C 
BRANCH  22  23
ATOM     23  C   UNL     1     -16.319  13.160 -13.029  1.00  0.00    -0.000 C 
BRANCH  23  24
ATOM     24  C   UNL     1     -15.884  14.249 -12.026  1.00  0.00    -0.000 C 
BRANCH  24  25
ATOM     25  C   UNL     1     -16.919  15.366 -11.800  1.00  0.00    -0.003 C 
ATOM     26  C   UNL     1     -17.068  16.291 -13.007  1.00  0.00     0.004 C 
ENDBRANCH  24  25
ENDBRANCH  23  24
ENDBRANCH  22  23
ENDBRANCH  21  22
ENDBRANCH  20  21
ENDBRANCH  19  20
ENDBRANCH  18  19
ENDBRANCH  17  18
ENDBRANCH  16  17
ENDBRANCH  15  16
ENDBRANCH   1  15
TORSDOF 22
ENDMDL
MODEL 3
REMARK VINA RESULT:     0.277      2.456      7.503
REMARK INTER + INTRA:          -0.227
REMARK INTER:                  -1.506
REMARK INTRA:                   1.279
REMARK UNBOUND:                -0.861
REMARK SMILES CCCCCCCCCCCCCCCCCCCCCCCC(=O)[O-]
REMARK SMILES IDX 13 1 14 2 15 3 16 4 17 5 18 6 19 7 20 8 21 9 22 10 23 11
REMARK SMILES IDX 24 12 25 13 26 14 12 15 11 16 10 17 9 18 8 19 7 20 6 21 5 22
REMARK SMILES IDX 4 23 3 24 2 25 1 26
REMARK H PARENT
REMARK Flexibility Score: inf
ROOT
ATOM      1  C   UNL     1     -14.638  15.351  -8.155  1.00  0.00     0.000 C 
ENDROOT
BRANCH   1   2
ATOM      2  C   UNL     1     -14.916  16.760  -8.710  1.00  0.00     0.000 C 
BRANCH   2   3
ATOM      3  C   UNL     1     -16.288  17.314  -8.286  1.00  0.00     0.000 C 
BRANCH   3   4
ATOM      4  C   UNL     1     -17.125  17.779  -9.497  1.00  0.00     0.000 C 
BRANCH   4   5
ATOM      5  C   UNL     1     -16.288  18.077 -10.757  1.00  0.00     0.000 C 
BRANCH   5   6
ATOM      6  C   UNL     1     -17.099  18.266 -12.050  1.00  0.00     0.000 C 
BRANCH   6   7
ATOM      7  C   UNL     1     -17.125  19.729 -12.528  1.00  0.00     0.000 C 
BRANCH   7   8
ATOM      8  C   UNL     1     -16.908  20.725 -11.376  1.00  0.00     0.000 C 
BRANCH   8   9
ATOM      9  C   UNL     1     -16.502  22.123 -11.872  1.00  0.00     0.000 C 
BRANCH   9  10
ATOM     10  C   UNL     1     -15.507  22.025 -13.041  1.00  0.00     0.006 C 
BRANCH  10  11
ATOM     11  C   UNL     1     -14.712  20.711 -13.020  1.00  0.00     0.053 C 
BRANCH  11  12
ATOM     12  C   UNL     1     -13.293  20.928 -12.584  1.00  0.00     0.041 C 
ATOM     13  O   UNL     1     -12.991  21.938 -11.893  1.00  0.00    -0.550 OA
ATOM     14  O   UNL     1     -12.313  19.998 -12.908  1.00  0.00    -0.550 OA
ENDBRANCH  11  12
ENDBRANCH  10  11
ENDBRANCH   9  10
ENDBRANCH   8   9
ENDBRANCH   7   8
ENDBRANCH   6   7
ENDBRANCH   5   6
ENDBRANCH   4   5
ENDBRANCH   3   4
ENDBRANCH   2   3
ENDBRANCH   1   2
BRANCH   1  15
ATOM     15  C   UNL     1     -15.837  14.682  -7.458  1.00  0.00     0.000 C 
BRANCH  15  16
ATOM     16  C   UNL     1     -16.635  13.760  -8.394  1.00  0.00     0.000 C 
BRANCH  16  17
ATOM     17  C   UNL     1     -17.108  14.521  -9.641  1.00  0.00     0.000 C 
BRANCH  17  18
ATOM     18  C   UNL     1     -16.027  14.598 -10.732  1.00  0.00    -0.000 C 
BRANCH  18  19
ATOM     19  C   UNL     1     -16.620  14.642 -12.149  1.00  0.00    -0.000 C 
BRANCH  19  20
ATOM     20  C   UNL     1     -16.014  13.540 -13.030  1.00  0.00    -0.000 C 
BRANCH  20  21
ATOM     21  C   UNL     1     -14.489  13.408 -12.861  1.00  0.00    -0.000 C 
BRANCH  21  22
ATOM     22  C   UNL     1     -14.007  12.045 -12.322  1.00  0.00    -0.000 C 
BRANCH  22  23
ATOM     23  C   UNL     1     -14.496  11.693 -10.903  1.00  0.00    -0.000 C 
BRANCH  23  24
ATOM     24  C   UNL     1     -15.810  10.886 -10.849  1.00  0.00    -0.000 C 
BRANCH  24  25
ATOM     25  C   UNL     1     -16.817  11.220 -11.966  1.00  0.00    -0.003 C 
ATOM     26  C   UNL     1     -16.870  10.150 -13.056  1.00  0.00     0.004 C 
ENDBRANCH  24  25
ENDBRANCH  23  24
ENDBRANCH  22  23
ENDBRANCH  21  22
ENDBRANCH  20  21
ENDBRANCH  19  20
ENDBRANCH  18  19
ENDBRANCH  17  18
ENDBRANCH  16  17
ENDBRANCH  15  16
ENDBRANCH   1  15
TORSDOF 22
ENDMDL
MODEL 4
REMARK VINA RESULT:     0.367      2.205      4.332
REMARK INTER + INTRA:          -0.022
REMARK INTER:                  -3.818
REMARK INTRA:                   3.796
REMARK UNBOUND:                -0.861
REMARK SMILES CCCCCCCCCCCCCCCCCCCCCCCC(=O)[O-]
REMARK SMILES IDX 13 1 14 2 15 3 16 4 17 5 18 6 19 7 20 8 21 9 22 10 23 11
REMARK SMILES IDX 24 12 25 13 26 14 12 15 11 16 10 17 9 18 8 19 7 20 6 21 5 22
REMARK SMILES IDX 4 23 3 24 2 25 1 26
REMARK H PARENT
REMARK Flexibility Score: inf
ROOT
ATOM      1  C   UNL     1     -16.048  13.359 -11.102  1.00  0.00     0.000 C 
ENDROOT
BRANCH   1   2
ATOM      2  C   UNL     1     -15.210  12.722 -12.226  1.00  0.00     0.000 C 
BRANCH   2   3
ATOM      3  C   UNL     1     -13.734  12.526 -11.837  1.00  0.00     0.000 C 
BRANCH   3   4
ATOM      4  C   UNL     1     -13.581  11.968 -10.405  1.00  0.00     0.000 C 
BRANCH   4   5
ATOM      5  C   UNL     1     -14.807  12.216  -9.505  1.00  0.00     0.000 C 
BRANCH   5   6
ATOM      6  C   UNL     1     -14.711  13.452  -8.595  1.00  0.00     0.000 C 
BRANCH   6   7
ATOM      7  C   UNL     1     -14.647  13.089  -7.101  1.00  0.00     0.000 C 
BRANCH   7   8
ATOM      8  C   UNL     1     -16.041  13.032  -6.452  1.00  0.00     0.000 C 
BRANCH   8   9
ATOM      9  C   UNL     1     -17.012  14.065  -7.045  1.00  0.00     0.000 C 
BRANCH   9  10
ATOM     10  C   UNL     1     -16.246  15.216  -7.722  1.00  0.00     0.006 C 
BRANCH  10  11
ATOM     11  C   UNL     1     -17.076  16.507  -7.787  1.00  0.00     0.053 C 
BRANCH  11  12
ATOM     12  C   UNL     1     -16.373  17.579  -8.567  1.00  0.00     0.041 C 
ATOM     13  O   UNL     1     -16.916  18.706  -8.724  1.00  0.00    -0.550 OA
ATOM     14  O   UNL     1     -15.105  17.347  -9.085  1.00  0.00    -0.550 OA
ENDBRANCH  11  12
ENDBRANCH  10  11
ENDBRANCH   9  10
ENDBRANCH   8   9
ENDBRANCH   7   8
ENDBRANCH   6   7
ENDBRANCH   5   6
ENDBRANCH   4   5
ENDBRANCH   3   4
ENDBRANCH   2   3
ENDBRANCH   1   2
BRANCH   1  15
ATOM     15  C   UNL     1     -16.880  14.582 -11.531  1.00  0.00     0.000 C 
BRANCH  15  16
ATOM     16  C   UNL     1     -16.194  15.420 -12.620  1.00  0.00     0.000 C 
BRANCH  16  17
ATOM     17  C   UNL     1     -17.125  16.532 -13.125  1.00  0.00     0.000 C 
BRANCH  17  18
ATOM     18  C   UNL     1     -16.975  17.837 -12.327  1.00  0.00    -0.000 C 
BRANCH  18  19
ATOM     19  C   UNL     1     -15.518  18.126 -11.935  1.00  0.00    -0.000 C 
BRANCH  19  20
ATOM     20  C   UNL     1     -15.316  19.619 -11.640  1.00  0.00    -0.000 C 
BRANCH  20  21
ATOM     21  C   UNL     1     -16.593  20.451 -11.855  1.00  0.00    -0.000 C 
BRANCH  21  22
ATOM     22  C   UNL     1     -16.373  21.826 -12.519  1.00  0.00    -0.000 C 
BRANCH  22  23
ATOM     23  C   UNL     1     -14.936  22.094 -13.009  1.00  0.00    -0.000 C 
BRANCH  23  24
ATOM     24  C   UNL     1     -13.992  20.874 -12.954  1.00  0.00    -0.000 C 
BRANCH  24  25
ATOM     25  C   UNL     1     -12.527  21.208 -12.621  1.00  0.00    -0.003 C 
ATOM     26  C   UNL     1     -12.355  21.794 -11.219  1.00  0.00     0.004 C 
ENDBRANCH  24  25
ENDBRANCH  23  24
ENDBRANCH  22  23
ENDBRANCH  21  22
ENDBRANCH  20  21
ENDBRANCH  19  20
ENDBRANCH  18  19
ENDBRANCH  17  18
ENDBRANCH  16  17
ENDBRANCH  15  16
ENDBRANCH   1  15
TORSDOF 22
ENDMDL
MODEL 5
REMARK VINA RESULT:     1.230      1.669      7.536
REMARK INTER + INTRA:           1.950
REMARK INTER:                   2.395
REMARK INTRA:                  -0.445
REMARK UNBOUND:                -0.861
REMARK SMILES CCCCCCCCCCCCCCCCCCCCCCCC(=O)[O-]
REMARK SMILES IDX 13 1 14 2 15 3 16 4 17 5 18 6 19 7 20 8 21 9 22 10 23 11
REMARK SMILES IDX 24 12 25 13 26 14 12 15 11 16 10 17 9 18 8 19 7 20 6 21 5 22
REMARK SMILES IDX 4 23 3 24 2 25 1 26
REMARK H PARENT
REMARK Flexibility Score: inf
ROOT
ATOM      1  C   UNL     1     -17.122  15.661  -8.822  1.00  0.00     0.000 C 
ENDROOT
BRANCH   1   2
ATOM      2  C   UNL     1     -16.122  16.744  -9.265  1.00  0.00     0.000 C 
BRANCH   2   3
ATOM      3  C   UNL     1     -16.577  18.168  -8.898  1.00  0.00     0.000 C 
BRANCH   3   4
ATOM      4  C   UNL     1     -17.089  18.948 -10.128  1.00  0.00     0.000 C 
BRANCH   4   5
ATOM      5  C   UNL     1     -17.072  20.479  -9.948  1.00  0.00     0.000 C 
BRANCH   5   6
ATOM      6  C   UNL     1     -17.124  21.292 -11.253  1.00  0.00     0.000 C 
BRANCH   6   7
ATOM      7  C   UNL     1     -15.823  22.068 -11.524  1.00  0.00     0.000 C 
BRANCH   7   8
ATOM      8  C   UNL     1     -15.209  21.724 -12.892  1.00  0.00     0.000 C 
BRANCH   8   9
ATOM      9  C   UNL     1     -13.874  20.972 -12.768  1.00  0.00     0.000 C 
BRANCH   9  10
ATOM     10  C   UNL     1     -14.052  19.476 -13.080  1.00  0.00     0.006 C 
BRANCH  10  11
ATOM     11  C   UNL     1     -15.530  19.060 -13.106  1.00  0.00     0.053 C 
BRANCH  11  12
ATOM     12  C   UNL     1     -15.694  17.583 -12.897  1.00  0.00     0.041 C 
ATOM     13  O   UNL     1     -14.690  16.822 -12.945  1.00  0.00    -0.550 OA
ATOM     14  O   UNL     1     -16.947  17.053 -12.611  1.00  0.00    -0.550 OA
ENDBRANCH  11  12
ENDBRANCH  10  11
ENDBRANCH   9  10
ENDBRANCH   8   9
ENDBRANCH   7   8
ENDBRANCH   6   7
ENDBRANCH   5   6
ENDBRANCH   4   5
ENDBRANCH   3   4
ENDBRANCH   2   3
ENDBRANCH   1   2
BRANCH   1  15
ATOM     15  C   UNL     1     -17.124  14.388  -9.690  1.00  0.00     0.000 C 
BRANCH  15  16
ATOM     16  C   UNL     1     -17.018  13.099  -8.861  1.00  0.00     0.000 C 
BRANCH  16  17
ATOM     17  C   UNL     1     -16.039  13.278  -7.691  1.00  0.00     0.000 C 
BRANCH  17  18
ATOM     18  C   UNL     1     -14.596  13.523  -8.161  1.00  0.00    -0.000 C 
BRANCH  18  19
ATOM     19  C   UNL     1     -13.954  12.269  -8.775  1.00  0.00    -0.000 C 
BRANCH  19  20
ATOM     20  C   UNL     1     -14.548  11.971 -10.159  1.00  0.00    -0.000 C 
BRANCH  20  21
ATOM     21  C   UNL     1     -14.610  10.466 -10.474  1.00  0.00    -0.000 C 
BRANCH  21  22
ATOM     22  C   UNL     1     -15.967   9.967 -11.015  1.00  0.00    -0.000 C 
BRANCH  22  23
ATOM     23  C   UNL     1     -16.915  11.073 -11.522  1.00  0.00    -0.000 C 
BRANCH  23  24
ATOM     24  C   UNL     1     -16.446  11.796 -12.801  1.00  0.00    -0.000 C 
BRANCH  24  25
ATOM     25  C   UNL     1     -16.600  13.328 -12.768  1.00  0.00    -0.003 C 
ATOM     26  C   UNL     1     -15.265  14.061 -12.891  1.00  0.00     0.004 C 
ENDBRANCH  24  25
ENDBRANCH  23  24
ENDBRANCH  22  23
ENDBRANCH  21  22
ENDBRANCH  20  21
ENDBRANCH  19  20
ENDBRANCH  18  19
ENDBRANCH  17  18
ENDBRANCH  16  17
ENDBRANCH  15  16
ENDBRANCH   1  15
TORSDOF 22
ENDMDL
MODEL 6
REMARK VINA RESULT:     1.356      2.709      8.233
REMARK INTER + INTRA:           2.238
REMARK INTER:                   0.886
REMARK INTRA:                   1.352
REMARK UNBOUND:                -0.861
REMARK SMILES CCCCCCCCCCCCCCCCCCCCCCCC(=O)[O-]
REMARK SMILES IDX 13 1 14 2 15 3 16 4 17 5 18 6 19 7 20 8 21 9 22 10 23 11
REMARK SMILES IDX 24 12 25 13 26 14 12 15 11 16 10 17 9 18 8 19 7 20 6 21 5 22
REMARK SMILES IDX 4 23 3 24 2 25 1 26
REMARK H PARENT
REMARK Flexibility Score: inf
ROOT
ATOM      1  C   UNL     1     -15.124  13.983 -11.034  1.00  0.00     0.000 C 
ENDROOT
BRANCH   1   2
ATOM      2  C   UNL     1     -16.398  14.848 -11.062  1.00  0.00     0.000 C 
BRANCH   2   3
ATOM      3  C   UNL     1     -16.457  15.871  -9.914  1.00  0.00     0.000 C 
BRANCH   3   4
ATOM      4  C   UNL     1     -16.989  17.241 -10.386  1.00  0.00     0.000 C 
BRANCH   4   5
ATOM      5  C   UNL     1     -16.781  17.507 -11.891  1.00  0.00     0.000 C 
BRANCH   5   6
ATOM      6  C   UNL     1     -16.939  18.974 -12.323  1.00  0.00     0.000 C 
BRANCH   6   7
ATOM      7  C   UNL     1     -17.124  19.930 -11.131  1.00  0.00     0.000 C 
BRANCH   7   8
ATOM      8  C   UNL     1     -16.884  21.400 -11.516  1.00  0.00     0.000 C 
BRANCH   8   9
ATOM      9  C   UNL     1     -16.459  21.564 -12.985  1.00  0.00     0.000 C 
BRANCH   9  10
ATOM     10  C   UNL     1     -14.928  21.512 -13.124  1.00  0.00     0.006 C 
BRANCH  10  11
ATOM     11  C   UNL     1     -14.224  21.378 -11.766  1.00  0.00     0.053 C 
BRANCH  11  12
ATOM     12  C   UNL     1     -12.788  21.805 -11.840  1.00  0.00     0.041 C 
ATOM     13  O   UNL     1     -12.260  22.057 -12.957  1.00  0.00    -0.550 OA
ATOM     14  O   UNL     1     -12.045  21.962 -10.677  1.00  0.00    -0.550 OA
ENDBRANCH  11  12
ENDBRANCH  10  11
ENDBRANCH   9  10
ENDBRANCH   8   9
ENDBRANCH   7   8
ENDBRANCH   6   7
ENDBRANCH   5   6
ENDBRANCH   4   5
ENDBRANCH   3   4
ENDBRANCH   2   3
ENDBRANCH   1   2
BRANCH   1  15
ATOM     15  C   UNL     1     -14.342  13.940 -12.359  1.00  0.00     0.000 C 
BRANCH  15  16
ATOM     16  C   UNL     1     -14.532  12.621 -13.123  1.00  0.00     0.000 C 
BRANCH  16  17
ATOM     17  C   UNL     1     -15.982  12.127 -13.012  1.00  0.00     0.000 C 
BRANCH  17  18
ATOM     18  C   UNL     1     -16.075  10.605 -12.822  1.00  0.00    -0.000 C 
BRANCH  18  19
ATOM     19  C   UNL     1     -17.105  10.204 -11.755  1.00  0.00    -0.000 C 
BRANCH  19  20
ATOM     20  C   UNL     1     -16.619  10.595 -10.352  1.00  0.00    -0.000 C 
BRANCH  20  21
ATOM     21  C   UNL     1     -15.118  10.930 -10.309  1.00  0.00    -0.000 C 
BRANCH  21  22
ATOM     22  C   UNL     1     -14.760  12.232  -9.560  1.00  0.00    -0.000 C 
BRANCH  22  23
ATOM     23  C   UNL     1     -13.903  12.043  -8.293  1.00  0.00    -0.000 C 
BRANCH  23  24
ATOM     24  C   UNL     1     -14.166  13.069  -7.170  1.00  0.00    -0.000 C 
BRANCH  24  25
ATOM     25  C   UNL     1     -15.650  13.416  -6.950  1.00  0.00    -0.003 C 
ATOM     26  C   UNL     1     -15.949  14.900  -7.157  1.00  0.00     0.004 C 
ENDBRANCH  24  25
ENDBRANCH  23  24
ENDBRANCH  22  23
ENDBRANCH  21  22
ENDBRANCH  20  21
ENDBRANCH  19  20
ENDBRANCH  18  19
ENDBRANCH  17  18
ENDBRANCH  16  17
ENDBRANCH  15  16
ENDBRANCH   1  15
TORSDOF 22
ENDMDL
MODEL 7
REMARK VINA RESULT:     1.583      2.329      3.983
REMARK INTER + INTRA:           2.758
REMARK INTER:                   2.662
REMARK INTRA:                   0.097
REMARK UNBOUND:                -0.861
REMARK SMILES CCCCCCCCCCCCCCCCCCCCCCCC(=O)[O-]
REMARK SMILES IDX 13 1 14 2 15 3 16 4 17 5 18 6 19 7 20 8 21 9 22 10 23 11
REMARK SMILES IDX 24 12 25 13 26 14 12 15 11 16 10 17 9 18 8 19 7 20 6 21 5 22
REMARK SMILES IDX 4 23 3 24 2 25 1 26
REMARK H PARENT
REMARK Flexibility Score: inf
ROOT
ATOM      1  C   UNL     1     -15.681  15.485  -9.918  1.00  0.00     0.000 C 
ENDROOT
BRANCH   1   2
ATOM      2  C   UNL     1     -14.764  14.300 -10.269  1.00  0.00     0.000 C 
BRANCH   2   3
ATOM      3  C   UNL     1     -14.872  13.872 -11.744  1.00  0.00     0.000 C 
BRANCH   3   4
ATOM      4  C   UNL     1     -16.340  13.800 -12.219  1.00  0.00     0.000 C 
BRANCH   4   5
ATOM      5  C   UNL     1     -16.648  12.579 -13.108  1.00  0.00     0.000 C 
BRANCH   5   6
ATOM      6  C   UNL     1     -15.937  11.277 -12.701  1.00  0.00     0.000 C 
BRANCH   6   7
ATOM      7  C   UNL     1     -16.900  10.233 -12.109  1.00  0.00     0.000 C 
BRANCH   7   8
ATOM      8  C   UNL     1     -17.121  10.429 -10.600  1.00  0.00     0.000 C 
BRANCH   8   9
ATOM      9  C   UNL     1     -16.037  11.307  -9.953  1.00  0.00     0.000 C 
BRANCH   9  10
ATOM     10  C   UNL     1     -16.665  12.498  -9.208  1.00  0.00     0.006 C 
BRANCH  10  11
ATOM     11  C   UNL     1     -16.834  12.221  -7.707  1.00  0.00     0.053 C 
BRANCH  11  12
ATOM     12  C   UNL     1     -16.284  13.338  -6.871  1.00  0.00     0.041 C 
ATOM     13  O   UNL     1     -17.062  14.192  -6.365  1.00  0.00    -0.550 OA
ATOM     14  O   UNL     1     -14.920  13.415  -6.619  1.00  0.00    -0.550 OA
ENDBRANCH  11  12
ENDBRANCH  10  11
ENDBRANCH   9  10
ENDBRANCH   8   9
ENDBRANCH   7   8
ENDBRANCH   6   7
ENDBRANCH   5   6
ENDBRANCH   4   5
ENDBRANCH   3   4
ENDBRANCH   2   3
ENDBRANCH   1   2
BRANCH   1  15
ATOM     15  C   UNL     1     -15.517  16.028  -8.486  1.00  0.00     0.000 C 
BRANCH  15  16
ATOM     16  C   UNL     1     -16.166  17.407  -8.291  1.00  0.00     0.000 C 
BRANCH  16  17
ATOM     17  C   UNL     1     -16.720  17.945  -9.618  1.00  0.00     0.000 C 
BRANCH  17  18
ATOM     18  C   UNL     1     -16.941  19.466  -9.593  1.00  0.00    -0.000 C 
BRANCH  18  19
ATOM     19  C   UNL     1     -17.005  20.077 -11.002  1.00  0.00    -0.000 C 
BRANCH  19  20
ATOM     20  C   UNL     1     -16.684  21.578 -10.962  1.00  0.00    -0.000 C 
BRANCH  20  21
ATOM     21  C   UNL     1     -15.532  21.970 -11.905  1.00  0.00    -0.000 C 
BRANCH  21  22
ATOM     22  C   UNL     1     -14.167  21.334 -11.568  1.00  0.00    -0.000 C 
BRANCH  22  23
ATOM     23  C   UNL     1     -13.881  19.989 -12.265  1.00  0.00    -0.000 C 
BRANCH  23  24
ATOM     24  C   UNL     1     -15.042  19.442 -13.123  1.00  0.00    -0.000 C 
BRANCH  24  25
ATOM     25  C   UNL     1     -15.211  17.912 -13.078  1.00  0.00    -0.003 C 
ATOM     26  C   UNL     1     -16.676  17.478 -13.029  1.00  0.00     0.004 C 
ENDBRANCH  24  25
ENDBRANCH  23  24
ENDBRANCH  22  23
ENDBRANCH  21  22
ENDBRANCH  20  21
ENDBRANCH  19  20
ENDBRANCH  18  19
ENDBRANCH  17  18
ENDBRANCH  16  17
ENDBRANCH  15  16
ENDBRANCH   1  15
TORSDOF 22
ENDMDL
MODEL 8
REMARK VINA RESULT:     1.759      1.688      2.871
REMARK INTER + INTRA:           3.161
REMARK INTER:                  -0.816
REMARK INTRA:                   3.977
REMARK UNBOUND:                -0.861
REMARK SMILES CCCCCCCCCCCCCCCCCCCCCCCC(=O)[O-]
REMARK SMILES IDX 13 1 14 2 15 3 16 4 17 5 18 6 19 7 20 8 21 9 22 10 23 11
REMARK SMILES IDX 24 12 25 13 26 14 12 15 11 16 10 17 9 18 8 19 7 20 6 21 5 22
REMARK SMILES IDX 4 23 3 24 2 25 1 26
REMARK H PARENT
REMARK Flexibility Score: inf
ROOT
ATOM      1  C   UNL     1     -15.338  15.192  -9.206  1.00  0.00     0.000 C 
ENDROOT
BRANCH   1   2
ATOM      2  C   UNL     1     -15.867  13.821  -9.667  1.00  0.00     0.000 C 
BRANCH   2   3
ATOM      3  C   UNL     1     -17.121  13.928 -10.553  1.00  0.00     0.000 C 
BRANCH   3   4
ATOM      4  C   UNL     1     -17.069  15.157 -11.486  1.00  0.00     0.000 C 
BRANCH   4   5
ATOM      5  C   UNL     1     -16.544  14.844 -12.901  1.00  0.00     0.000 C 
BRANCH   5   6
ATOM      6  C   UNL     1     -15.163  14.169 -12.952  1.00  0.00     0.000 C 
BRANCH   6   7
ATOM      7  C   UNL     1     -15.253  12.642 -13.121  1.00  0.00     0.000 C 
BRANCH   7   8
ATOM      8  C   UNL     1     -16.663  12.102 -12.826  1.00  0.00     0.000 C 
BRANCH   8   9
ATOM      9  C   UNL     1     -16.678  10.582 -12.595  1.00  0.00     0.000 C 
BRANCH   9  10
ATOM     10  C   UNL     1     -16.028  10.224 -11.247  1.00  0.00     0.006 C 
BRANCH  10  11
ATOM     11  C   UNL     1     -15.396  11.446 -10.563  1.00  0.00     0.053 C 
BRANCH  11  12
ATOM     12  C   UNL     1     -13.897  11.390 -10.604  1.00  0.00     0.041 C 
ATOM     13  O   UNL     1     -13.268  10.675  -9.778  1.00  0.00    -0.550 OA
ATOM     14  O   UNL     1     -13.199  12.096 -11.576  1.00  0.00    -0.550 OA
ENDBRANCH  11  12
ENDBRANCH  10  11
ENDBRANCH   9  10
ENDBRANCH   8   9
ENDBRANCH   7   8
ENDBRANCH   6   7
ENDBRANCH   5   6
ENDBRANCH   4   5
ENDBRANCH   3   4
ENDBRANCH   2   3
ENDBRANCH   1   2
BRANCH   1  15
ATOM     15  C   UNL     1     -14.891  15.250  -7.734  1.00  0.00     0.000 C 
BRANCH  15  16
ATOM     16  C   UNL     1     -15.993  15.763  -6.794  1.00  0.00     0.000 C 
BRANCH  16  17
ATOM     17  C   UNL     1     -17.046  16.567  -7.570  1.00  0.00     0.000 C 
BRANCH  17  18
ATOM     18  C   UNL     1     -16.451  17.310  -8.777  1.00  0.00    -0.000 C 
BRANCH  18  19
ATOM     19  C   UNL     1     -16.905  18.776  -8.850  1.00  0.00    -0.000 C 
BRANCH  19  20
ATOM     20  C   UNL     1     -17.044  19.234 -10.309  1.00  0.00    -0.000 C 
BRANCH  20  21
ATOM     21  C   UNL     1     -16.642  20.705 -10.517  1.00  0.00    -0.000 C 
BRANCH  21  22
ATOM     22  C   UNL     1     -16.599  21.169 -11.988  1.00  0.00    -0.000 C 
BRANCH  22  23
ATOM     23  C   UNL     1     -16.206  20.079 -13.006  1.00  0.00    -0.000 C 
BRANCH  23  24
ATOM     24  C   UNL     1     -14.844  19.403 -12.743  1.00  0.00    -0.000 C 
BRANCH  24  25
ATOM     25  C   UNL     1     -13.619  20.260 -13.108  1.00  0.00    -0.003 C 
ATOM     26  C   UNL     1     -13.291  21.310 -12.047  1.00  0.00     0.004 C 
ENDBRANCH  24  25
ENDBRANCH  23  24
ENDBRANCH  22  23
ENDBRANCH  21  22
ENDBRANCH  20  21
ENDBRANCH  19  20
ENDBRANCH  18  19
ENDBRANCH  17  18
ENDBRANCH  16  17
ENDBRANCH  15  16
ENDBRANCH   1  15
TORSDOF 22
ENDMDL
