MODEL 1
REMARK VINA RESULT:    -6.909      0.000      0.000
REMARK INTER + INTRA:          -8.639
REMARK INTER:                  -8.323
REMARK INTRA:                  -0.316
REMARK UNBOUND:                -0.316
REMARK SMILES O=c1c(O)c(-c2ccc(O)c(O)c2)oc2cc(O)cc(O)c12
REMARK SMILES IDX 5 1 3 2 2 3 1 4 22 5 20 6 19 7 17 8 16 9 15 10 14 11 6 12
REMARK SMILES IDX 7 13 8 14 9 15 13 16 11 17 10 18 12 20 4 22 21 24 18 26
REMARK H PARENT 10 19 12 21 4 23 21 25 18 27
REMARK Flexibility Score: inf
ROOT
ATOM      1  C   UNL     1       1.380  -7.159 -32.578  1.00  0.00     0.180 A 
ATOM      2  C   UNL     1       1.569  -6.336 -33.702  1.00  0.00     0.208 A 
ATOM      3  C   UNL     1       2.753  -6.463 -34.446  1.00  0.00     0.238 A 
ATOM      4  O   UNL     1       2.941  -5.686 -35.419  1.00  0.00    -0.285 OA
ATOM      5  C   UNL     1       3.725  -7.420 -34.068  1.00  0.00     0.111 A 
ATOM      6  C   UNL     1       4.942  -7.661 -34.773  1.00  0.00     0.134 A 
ATOM      7  C   UNL     1       5.890  -8.541 -34.234  1.00  0.00     0.093 A 
ATOM      8  C   UNL     1       5.635  -9.238 -33.050  1.00  0.00     0.123 A 
ATOM      9  C   UNL     1       4.424  -9.054 -32.387  1.00  0.00     0.094 A 
ATOM     10  C   UNL     1       3.475  -8.155 -32.880  1.00  0.00     0.146 A 
ATOM     11  O   UNL     1       2.339  -8.001 -32.211  1.00  0.00    -0.452 OA
ENDROOT
BRANCH   1  12
ATOM     12  C   UNL     1       0.148  -7.102 -31.758  1.00  0.00     0.025 A 
ATOM     13  C   UNL     1      -1.026  -7.766 -32.154  1.00  0.00     0.016 A 
ATOM     14  C   UNL     1      -2.169  -7.718 -31.353  1.00  0.00     0.051 A 
ATOM     15  C   UNL     1      -2.154  -7.019 -30.140  1.00  0.00     0.157 A 
ATOM     16  C   UNL     1       0.165  -6.420 -30.531  1.00  0.00     0.062 A 
ATOM     17  C   UNL     1      -0.979  -6.369 -29.725  1.00  0.00     0.158 A 
BRANCH  15  18
ATOM     18  O   UNL     1      -3.296  -6.971 -29.343  1.00  0.00    -0.504 OA
ATOM     19  H   UNL     1      -4.219  -6.846 -29.745  1.00  0.00     0.293 HD
ENDBRANCH  15  18
BRANCH  17  20
ATOM     20  O   UNL     1      -0.928  -5.670 -28.520  1.00  0.00    -0.504 OA
ATOM     21  H   UNL     1      -0.652  -4.696 -28.474  1.00  0.00     0.293 HD
ENDBRANCH  17  20
ENDBRANCH   1  12
BRANCH   2  22
ATOM     22  O   UNL     1       0.607  -5.382 -34.045  1.00  0.00    -0.502 OA
ATOM     23  H   UNL     1       0.075  -5.431 -34.905  1.00  0.00     0.293 HD
ENDBRANCH   2  22
BRANCH   6  24
ATOM     24  O   UNL     1       5.255  -7.088 -36.009  1.00  0.00    -0.507 OA
ATOM     25  H   UNL     1       4.601  -6.591 -36.595  1.00  0.00     0.293 HD
ENDBRANCH   6  24
BRANCH   8  26
ATOM     26  O   UNL     1       6.576 -10.123 -32.531  1.00  0.00    -0.508 OA
ATOM     27  H   UNL     1       7.563  -9.895 -32.506  1.00  0.00     0.293 HD
ENDBRANCH   8  26
TORSDOF 6
ENDMDL
MODEL 2
REMARK VINA RESULT:    -6.731     11.277     14.388
REMARK INTER + INTRA:          -8.424
REMARK INTER:                  -8.232
REMARK INTRA:                  -0.193
REMARK UNBOUND:                -0.316
REMARK SMILES O=c1c(O)c(-c2ccc(O)c(O)c2)oc2cc(O)cc(O)c12
REMARK SMILES IDX 5 1 3 2 2 3 1 4 22 5 20 6 19 7 17 8 16 9 15 10 14 11 6 12
REMARK SMILES IDX 7 13 8 14 9 15 13 16 11 17 10 18 12 20 4 22 21 24 18 26
REMARK H PARENT 10 19 12 21 4 23 21 25 18 27
REMARK Flexibility Score: inf
ROOT
ATOM      1  C   UNL     1      -7.540  -3.022 -39.484  1.00  0.00     0.180 A 
ATOM      2  C   UNL     1      -8.633  -3.297 -40.325  1.00  0.00     0.208 A 
ATOM      3  C   UNL     1      -9.810  -2.545 -40.179  1.00  0.00     0.238 A 
ATOM      4  O   UNL     1     -10.803  -2.832 -40.897  1.00  0.00    -0.285 OA
ATOM      5  C   UNL     1      -9.875  -1.518 -39.206  1.00  0.00     0.111 A 
ATOM      6  C   UNL     1     -11.002  -0.668 -38.999  1.00  0.00     0.134 A 
ATOM      7  C   UNL     1     -11.003   0.227 -37.922  1.00  0.00     0.093 A 
ATOM      8  C   UNL     1      -9.892   0.348 -37.084  1.00  0.00     0.123 A 
ATOM      9  C   UNL     1      -8.763  -0.435 -37.316  1.00  0.00     0.094 A 
ATOM     10  C   UNL     1      -8.746  -1.363 -38.360  1.00  0.00     0.146 A 
ATOM     11  O   UNL     1      -7.655  -2.097 -38.539  1.00  0.00    -0.452 OA
ENDROOT
BRANCH   1  12
ATOM     12  C   UNL     1      -6.258  -3.754 -39.595  1.00  0.00     0.025 A 
ATOM     13  C   UNL     1      -5.837  -4.648 -38.595  1.00  0.00     0.016 A 
ATOM     14  C   UNL     1      -4.635  -5.346 -38.732  1.00  0.00     0.051 A 
ATOM     15  C   UNL     1      -3.842  -5.172 -39.874  1.00  0.00     0.157 A 
ATOM     16  C   UNL     1      -5.470  -3.598 -40.747  1.00  0.00     0.062 A 
ATOM     17  C   UNL     1      -4.264  -4.296 -40.888  1.00  0.00     0.158 A 
BRANCH  15  18
ATOM     18  O   UNL     1      -2.642  -5.868 -40.007  1.00  0.00    -0.504 OA
ATOM     19  H   UNL     1      -1.899  -5.535 -40.610  1.00  0.00     0.293 HD
ENDBRANCH  15  18
BRANCH  17  20
ATOM     20  O   UNL     1      -3.503  -4.105 -42.040  1.00  0.00    -0.504 OA
ATOM     21  H   UNL     1      -3.917  -3.807 -42.915  1.00  0.00     0.293 HD
ENDBRANCH  17  20
ENDBRANCH   1  12
BRANCH   2  22
ATOM     22  O   UNL     1      -8.556  -4.329 -41.264  1.00  0.00    -0.502 OA
ATOM     23  H   UNL     1      -8.975  -4.261 -42.184  1.00  0.00     0.293 HD
ENDBRANCH   2  22
BRANCH   6  24
ATOM     24  O   UNL     1     -12.125  -0.644 -39.831  1.00  0.00    -0.507 OA
ATOM     25  H   UNL     1     -13.071  -0.493 -39.516  1.00  0.00     0.293 HD
ENDBRANCH   6  24
BRANCH   8  26
ATOM     26  O   UNL     1      -9.895   1.253 -36.025  1.00  0.00    -0.508 OA
ATOM     27  H   UNL     1      -9.342   1.096 -35.191  1.00  0.00     0.293 HD
ENDBRANCH   8  26
TORSDOF 6
ENDMDL
MODEL 3
REMARK VINA RESULT:    -6.630     16.161     18.088
REMARK INTER + INTRA:          -8.303
REMARK INTER:                  -8.205
REMARK INTRA:                  -0.098
REMARK UNBOUND:                -0.316
REMARK SMILES O=c1c(O)c(-c2ccc(O)c(O)c2)oc2cc(O)cc(O)c12
REMARK SMILES IDX 5 1 3 2 2 3 1 4 22 5 20 6 19 7 17 8 16 9 15 10 14 11 6 12
REMARK SMILES IDX 7 13 8 14 9 15 13 16 11 17 10 18 12 20 4 22 21 24 18 26
REMARK H PARENT 10 19 12 21 4 23 21 25 18 27
REMARK Flexibility Score: inf
ROOT
ATOM      1  C   UNL     1      -9.775   5.508 -31.410  1.00  0.00     0.180 A 
ATOM      2  C   UNL     1      -9.008   6.686 -31.456  1.00  0.00     0.208 A 
ATOM      3  C   UNL     1      -8.502   7.215 -30.258  1.00  0.00     0.238 A 
ATOM      4  O   UNL     1      -7.863   8.299 -30.298  1.00  0.00    -0.285 OA
ATOM      5  C   UNL     1      -8.754   6.552 -29.032  1.00  0.00     0.111 A 
ATOM      6  C   UNL     1      -8.256   6.977 -27.764  1.00  0.00     0.134 A 
ATOM      7  C   UNL     1      -8.677   6.319 -26.601  1.00  0.00     0.093 A 
ATOM      8  C   UNL     1      -9.525   5.210 -26.667  1.00  0.00     0.123 A 
ATOM      9  C   UNL     1      -9.967   4.752 -27.906  1.00  0.00     0.094 A 
ATOM     10  C   UNL     1      -9.595   5.410 -29.081  1.00  0.00     0.146 A 
ATOM     11  O   UNL     1     -10.048   4.947 -30.239  1.00  0.00    -0.452 OA
ENDROOT
BRANCH   1  12
ATOM     12  C   UNL     1     -10.321   4.876 -32.633  1.00  0.00     0.025 A 
ATOM     13  C   UNL     1     -11.198   5.568 -33.485  1.00  0.00     0.016 A 
ATOM     14  C   UNL     1     -11.682   4.960 -34.646  1.00  0.00     0.051 A 
ATOM     15  C   UNL     1     -11.288   3.659 -34.980  1.00  0.00     0.157 A 
ATOM     16  C   UNL     1      -9.912   3.579 -32.983  1.00  0.00     0.062 A 
ATOM     17  C   UNL     1     -10.395   2.966 -34.145  1.00  0.00     0.158 A 
BRANCH  15  18
ATOM     18  O   UNL     1     -11.773   3.054 -36.138  1.00  0.00    -0.504 OA
ATOM     19  H   UNL     1     -12.757   3.083 -36.380  1.00  0.00     0.293 HD
ENDBRANCH  15  18
BRANCH  17  20
ATOM     20  O   UNL     1      -9.976   1.672 -34.452  1.00  0.00    -0.504 OA
ATOM     21  H   UNL     1      -9.010   1.456 -34.667  1.00  0.00     0.293 HD
ENDBRANCH  17  20
ENDBRANCH   1  12
BRANCH   2  22
ATOM     22  O   UNL     1      -8.790   7.337 -32.673  1.00  0.00    -0.502 OA
ATOM     23  H   UNL     1      -8.099   7.021 -33.343  1.00  0.00     0.293 HD
ENDBRANCH   2  22
BRANCH   6  24
ATOM     24  O   UNL     1      -7.334   8.014 -27.595  1.00  0.00    -0.507 OA
ATOM     25  H   UNL     1      -6.333   7.910 -27.662  1.00  0.00     0.293 HD
ENDBRANCH   6  24
BRANCH   8  26
ATOM     26  O   UNL     1      -9.924   4.551 -25.507  1.00  0.00    -0.508 OA
ATOM     27  H   UNL     1     -10.704   3.904 -25.507  1.00  0.00     0.293 HD
ENDBRANCH   8  26
TORSDOF 6
ENDMDL
MODEL 4
REMARK VINA RESULT:    -6.361      1.912      6.966
REMARK INTER + INTRA:          -7.979
REMARK INTER:                  -7.658
REMARK INTRA:                  -0.320
REMARK UNBOUND:                -0.316
REMARK SMILES O=c1c(O)c(-c2ccc(O)c(O)c2)oc2cc(O)cc(O)c12
REMARK SMILES IDX 5 1 3 2 2 3 1 4 22 5 20 6 19 7 17 8 16 9 15 10 14 11 6 12
REMARK SMILES IDX 7 13 8 14 9 15 13 16 11 17 10 18 12 20 4 22 21 24 18 26
REMARK H PARENT 10 19 12 21 4 23 21 25 18 27
REMARK Flexibility Score: inf
ROOT
ATOM      1  C   UNL     1       1.724  -7.506 -33.545  1.00  0.00     0.180 A 
ATOM      2  C   UNL     1       1.105  -8.658 -34.062  1.00  0.00     0.208 A 
ATOM      3  C   UNL     1      -0.131  -9.063 -33.532  1.00  0.00     0.238 A 
ATOM      4  O   UNL     1      -0.653 -10.125 -33.960  1.00  0.00    -0.285 OA
ATOM      5  C   UNL     1      -0.740  -8.303 -32.504  1.00  0.00     0.111 A 
ATOM      6  C   UNL     1      -2.009  -8.597 -31.923  1.00  0.00     0.134 A 
ATOM      7  C   UNL     1      -2.454  -7.853 -30.823  1.00  0.00     0.093 A 
ATOM      8  C   UNL     1      -1.706  -6.782 -30.327  1.00  0.00     0.123 A 
ATOM      9  C   UNL     1      -0.494  -6.449 -30.928  1.00  0.00     0.094 A 
ATOM     10  C   UNL     1      -0.006  -7.197 -32.002  1.00  0.00     0.146 A 
ATOM     11  O   UNL     1       1.159  -6.853 -32.538  1.00  0.00    -0.452 OA
ENDROOT
BRANCH   1  12
ATOM     12  C   UNL     1       3.014  -7.003 -34.069  1.00  0.00     0.025 A 
ATOM     13  C   UNL     1       4.238  -7.395 -33.501  1.00  0.00     0.016 A 
ATOM     14  C   UNL     1       5.444  -6.926 -34.028  1.00  0.00     0.051 A 
ATOM     15  C   UNL     1       5.447  -6.070 -35.137  1.00  0.00     0.157 A 
ATOM     16  C   UNL     1       3.022  -6.161 -35.193  1.00  0.00     0.062 A 
ATOM     17  C   UNL     1       4.228  -5.688 -35.724  1.00  0.00     0.158 A 
BRANCH  15  18
ATOM     18  O   UNL     1       6.651  -5.602 -35.659  1.00  0.00    -0.504 OA
ATOM     19  H   UNL     1       7.509  -6.136 -35.576  1.00  0.00     0.293 HD
ENDBRANCH  15  18
BRANCH  17  20
ATOM     20  O   UNL     1       4.196  -4.843 -36.833  1.00  0.00    -0.504 OA
ATOM     21  H   UNL     1       5.003  -4.303 -37.120  1.00  0.00     0.293 HD
ENDBRANCH  17  20
ENDBRANCH   1  12
BRANCH   2  22
ATOM     22  O   UNL     1       1.734  -9.407 -35.061  1.00  0.00    -0.502 OA
ATOM     23  H   UNL     1       1.574  -9.242 -36.047  1.00  0.00     0.293 HD
ENDBRANCH   2  22
BRANCH   6  24
ATOM     24  O   UNL     1      -2.876  -9.585 -32.399  1.00  0.00    -0.507 OA
ATOM     25  H   UNL     1      -3.038  -9.786 -33.374  1.00  0.00     0.293 HD
ENDBRANCH   6  24
BRANCH   8  26
ATOM     26  O   UNL     1      -2.164  -6.036 -29.243  1.00  0.00    -0.508 OA
ATOM     27  H   UNL     1      -1.711  -6.081 -28.339  1.00  0.00     0.293 HD
ENDBRANCH   8  26
TORSDOF 6
ENDMDL
MODEL 5
REMARK VINA RESULT:    -6.226      2.789      7.717
REMARK INTER + INTRA:          -7.816
REMARK INTER:                  -7.492
REMARK INTRA:                  -0.323
REMARK UNBOUND:                -0.316
REMARK SMILES O=c1c(O)c(-c2ccc(O)c(O)c2)oc2cc(O)cc(O)c12
REMARK SMILES IDX 5 1 3 2 2 3 1 4 22 5 20 6 19 7 17 8 16 9 15 10 14 11 6 12
REMARK SMILES IDX 7 13 8 14 9 15 13 16 11 17 10 18 12 20 4 22 21 24 18 26
REMARK H PARENT 10 19 12 21 4 23 21 25 18 27
REMARK Flexibility Score: inf
ROOT
ATOM      1  C   UNL     1      -1.021  -7.439 -29.905  1.00  0.00     0.180 A 
ATOM      2  C   UNL     1      -2.415  -7.615 -29.841  1.00  0.00     0.208 A 
ATOM      3  C   UNL     1      -3.059  -7.497 -28.598  1.00  0.00     0.238 A 
ATOM      4  O   UNL     1      -4.297  -7.711 -28.538  1.00  0.00    -0.285 OA
ATOM      5  C   UNL     1      -2.305  -7.189 -27.440  1.00  0.00     0.111 A 
ATOM      6  C   UNL     1      -2.859  -7.007 -26.137  1.00  0.00     0.134 A 
ATOM      7  C   UNL     1      -2.005  -6.833 -25.041  1.00  0.00     0.093 A 
ATOM      8  C   UNL     1      -0.619  -6.771 -25.210  1.00  0.00     0.123 A 
ATOM      9  C   UNL     1      -0.073  -6.887 -26.487  1.00  0.00     0.094 A 
ATOM     10  C   UNL     1      -0.897  -7.098 -27.595  1.00  0.00     0.146 A 
ATOM     11  O   UNL     1      -0.335  -7.215 -28.791  1.00  0.00    -0.452 OA
ENDROOT
BRANCH   1  12
ATOM     12  C   UNL     1      -0.275  -7.522 -31.181  1.00  0.00     0.025 A 
ATOM     13  C   UNL     1       0.264  -8.738 -31.636  1.00  0.00     0.016 A 
ATOM     14  C   UNL     1       0.943  -8.798 -32.856  1.00  0.00     0.051 A 
ATOM     15  C   UNL     1       1.083  -7.648 -33.644  1.00  0.00     0.157 A 
ATOM     16  C   UNL     1      -0.150  -6.377 -31.985  1.00  0.00     0.062 A 
ATOM     17  C   UNL     1       0.530  -6.432 -33.207  1.00  0.00     0.158 A 
BRANCH  15  18
ATOM     18  O   UNL     1       1.763  -7.710 -34.859  1.00  0.00    -0.504 OA
ATOM     19  H   UNL     1       2.747  -7.476 -34.930  1.00  0.00     0.293 HD
ENDBRANCH  15  18
BRANCH  17  20
ATOM     20  O   UNL     1       0.646  -5.272 -33.971  1.00  0.00    -0.504 OA
ATOM     21  H   UNL     1       1.397  -4.607 -33.829  1.00  0.00     0.293 HD
ENDBRANCH  17  20
ENDBRANCH   1  12
BRANCH   2  22
ATOM     22  O   UNL     1      -3.137  -7.941 -30.992  1.00  0.00    -0.502 OA
ATOM     23  H   UNL     1      -3.641  -7.249 -31.532  1.00  0.00     0.293 HD
ENDBRANCH   2  22
BRANCH   6  24
ATOM     24  O   UNL     1      -4.231  -6.961 -25.872  1.00  0.00    -0.507 OA
ATOM     25  H   UNL     1      -4.911  -6.482 -26.443  1.00  0.00     0.293 HD
ENDBRANCH   6  24
BRANCH   8  26
ATOM     26  O   UNL     1       0.222  -6.581 -24.117  1.00  0.00    -0.508 OA
ATOM     27  H   UNL     1      -0.128  -6.237 -23.231  1.00  0.00     0.293 HD
ENDBRANCH   8  26
TORSDOF 6
ENDMDL
MODEL 6
REMARK VINA RESULT:    -6.224      2.731      7.816
REMARK INTER + INTRA:          -7.814
REMARK INTER:                  -7.479
REMARK INTRA:                  -0.335
REMARK UNBOUND:                -0.316
REMARK SMILES O=c1c(O)c(-c2ccc(O)c(O)c2)oc2cc(O)cc(O)c12
REMARK SMILES IDX 5 1 3 2 2 3 1 4 22 5 20 6 19 7 17 8 16 9 15 10 14 11 6 12
REMARK SMILES IDX 7 13 8 14 9 15 13 16 11 17 10 18 12 20 4 22 21 24 18 26
REMARK H PARENT 10 19 12 21 4 23 21 25 18 27
REMARK Flexibility Score: inf
ROOT
ATOM      1  C   UNL     1       0.002  -7.235 -29.803  1.00  0.00     0.180 A 
ATOM      2  C   UNL     1       0.856  -6.923 -28.730  1.00  0.00     0.208 A 
ATOM      3  C   UNL     1       0.306  -6.752 -27.450  1.00  0.00     0.238 A 
ATOM      4  O   UNL     1       1.067  -6.419 -26.504  1.00  0.00    -0.285 OA
ATOM      5  C   UNL     1      -1.088  -6.911 -27.255  1.00  0.00     0.111 A 
ATOM      6  C   UNL     1      -1.747  -6.802 -25.993  1.00  0.00     0.134 A 
ATOM      7  C   UNL     1      -3.146  -6.850 -25.939  1.00  0.00     0.093 A 
ATOM      8  C   UNL     1      -3.905  -7.069 -27.091  1.00  0.00     0.123 A 
ATOM      9  C   UNL     1      -3.266  -7.237 -28.318  1.00  0.00     0.094 A 
ATOM     10  C   UNL     1      -1.874  -7.157 -28.410  1.00  0.00     0.146 A 
ATOM     11  O   UNL     1      -1.307  -7.313 -29.599  1.00  0.00    -0.452 OA
ENDROOT
BRANCH   1  12
ATOM     12  C   UNL     1       0.511  -7.454 -31.176  1.00  0.00     0.025 A 
ATOM     13  C   UNL     1       0.919  -8.727 -31.611  1.00  0.00     0.016 A 
ATOM     14  C   UNL     1       1.374  -8.915 -32.919  1.00  0.00     0.051 A 
ATOM     15  C   UNL     1       1.415  -7.839 -33.815  1.00  0.00     0.157 A 
ATOM     16  C   UNL     1       0.535  -6.383 -32.084  1.00  0.00     0.062 A 
ATOM     17  C   UNL     1       0.989  -6.567 -33.395  1.00  0.00     0.158 A 
BRANCH  15  18
ATOM     18  O   UNL     1       1.870  -8.028 -35.118  1.00  0.00    -0.504 OA
ATOM     19  H   UNL     1       2.855  -7.971 -35.350  1.00  0.00     0.293 HD
ENDBRANCH  15  18
BRANCH  17  20
ATOM     20  O   UNL     1       1.010  -5.476 -34.264  1.00  0.00    -0.504 OA
ATOM     21  H   UNL     1       1.032  -5.591 -35.270  1.00  0.00     0.293 HD
ENDBRANCH  17  20
ENDBRANCH   1  12
BRANCH   2  22
ATOM     22  O   UNL     1       2.226  -6.748 -28.949  1.00  0.00    -0.502 OA
ATOM     23  H   UNL     1       2.588  -6.152 -29.683  1.00  0.00     0.293 HD
ENDBRANCH   2  22
BRANCH   6  24
ATOM     24  O   UNL     1      -1.079  -6.673 -24.772  1.00  0.00    -0.507 OA
ATOM     25  H   UNL     1      -0.809  -5.795 -24.354  1.00  0.00     0.293 HD
ENDBRANCH   6  24
BRANCH   8  26
ATOM     26  O   UNL     1      -5.294  -7.132 -27.025  1.00  0.00    -0.508 OA
ATOM     27  H   UNL     1      -5.796  -6.901 -26.176  1.00  0.00     0.293 HD
ENDBRANCH   8  26
TORSDOF 6
ENDMDL
MODEL 7
REMARK VINA RESULT:    -6.221      1.839      6.929
REMARK INTER + INTRA:          -7.810
REMARK INTER:                  -7.483
REMARK INTRA:                  -0.328
REMARK UNBOUND:                -0.316
REMARK SMILES O=c1c(O)c(-c2ccc(O)c(O)c2)oc2cc(O)cc(O)c12
REMARK SMILES IDX 5 1 3 2 2 3 1 4 22 5 20 6 19 7 17 8 16 9 15 10 14 11 6 12
REMARK SMILES IDX 7 13 8 14 9 15 13 16 11 17 10 18 12 20 4 22 21 24 18 26
REMARK H PARENT 10 19 12 21 4 23 21 25 18 27
REMARK Flexibility Score: inf
ROOT
ATOM      1  C   UNL     1       2.486  -7.275 -32.365  1.00  0.00     0.180 A 
ATOM      2  C   UNL     1       3.326  -7.349 -31.240  1.00  0.00     0.208 A 
ATOM      3  C   UNL     1       2.769  -7.177 -29.963  1.00  0.00     0.238 A 
ATOM      4  O   UNL     1       3.534  -7.189 -28.963  1.00  0.00    -0.285 OA
ATOM      5  C   UNL     1       1.378  -6.949 -29.825  1.00  0.00     0.111 A 
ATOM      6  C   UNL     1       0.701  -6.802 -28.577  1.00  0.00     0.134 A 
ATOM      7  C   UNL     1      -0.655  -6.450 -28.565  1.00  0.00     0.093 A 
ATOM      8  C   UNL     1      -1.373  -6.306 -29.755  1.00  0.00     0.123 A 
ATOM      9  C   UNL     1      -0.734  -6.508 -30.976  1.00  0.00     0.094 A 
ATOM     10  C   UNL     1       0.626  -6.823 -31.022  1.00  0.00     0.146 A 
ATOM     11  O   UNL     1       1.198  -6.996 -32.207  1.00  0.00    -0.452 OA
ENDROOT
BRANCH   1  12
ATOM     12  C   UNL     1       2.995  -7.471 -33.742  1.00  0.00     0.025 A 
ATOM     13  C   UNL     1       3.136  -8.756 -34.294  1.00  0.00     0.016 A 
ATOM     14  C   UNL     1       3.596  -8.915 -35.604  1.00  0.00     0.051 A 
ATOM     15  C   UNL     1       3.909  -7.796 -36.385  1.00  0.00     0.157 A 
ATOM     16  C   UNL     1       3.290  -6.351 -34.536  1.00  0.00     0.062 A 
ATOM     17  C   UNL     1       3.751  -6.506 -35.848  1.00  0.00     0.158 A 
BRANCH  15  18
ATOM     18  O   UNL     1       4.368  -7.958 -37.691  1.00  0.00    -0.504 OA
ATOM     19  H   UNL     1       3.951  -8.634 -38.321  1.00  0.00     0.293 HD
ENDBRANCH  15  18
BRANCH  17  20
ATOM     20  O   UNL     1       4.047  -5.371 -36.601  1.00  0.00    -0.504 OA
ATOM     21  H   UNL     1       4.912  -4.857 -36.483  1.00  0.00     0.293 HD
ENDBRANCH  17  20
ENDBRANCH   1  12
BRANCH   2  22
ATOM     22  O   UNL     1       4.700  -7.552 -31.399  1.00  0.00    -0.502 OA
ATOM     23  H   UNL     1       5.338  -6.800 -31.628  1.00  0.00     0.293 HD
ENDBRANCH   2  22
BRANCH   6  24
ATOM     24  O   UNL     1       1.302  -7.013 -27.333  1.00  0.00    -0.507 OA
ATOM     25  H   UNL     1       1.550  -7.917 -26.960  1.00  0.00     0.293 HD
ENDBRANCH   6  24
BRANCH   8  26
ATOM     26  O   UNL     1      -2.725  -5.973 -29.733  1.00  0.00    -0.508 OA
ATOM     27  H   UNL     1      -3.447  -6.683 -29.770  1.00  0.00     0.293 HD
ENDBRANCH   8  26
TORSDOF 6
ENDMDL
MODEL 8
REMARK VINA RESULT:    -6.138     16.062     18.128
REMARK INTER + INTRA:          -7.709
REMARK INTER:                  -7.530
REMARK INTRA:                  -0.180
REMARK UNBOUND:                -0.316
REMARK SMILES O=c1c(O)c(-c2ccc(O)c(O)c2)oc2cc(O)cc(O)c12
REMARK SMILES IDX 5 1 3 2 2 3 1 4 22 5 20 6 19 7 17 8 16 9 15 10 14 11 6 12
REMARK SMILES IDX 7 13 8 14 9 15 13 16 11 17 10 18 12 20 4 22 21 24 18 26
REMARK H PARENT 10 19 12 21 4 23 21 25 18 27
REMARK Flexibility Score: inf
ROOT
ATOM      1  C   UNL     1      -9.675   6.025 -30.238  1.00  0.00     0.180 A 
ATOM      2  C   UNL     1     -10.307   7.094 -30.898  1.00  0.00     0.208 A 
ATOM      3  C   UNL     1     -10.845   6.881 -32.177  1.00  0.00     0.238 A 
ATOM      4  O   UNL     1     -11.360   7.855 -32.785  1.00  0.00    -0.285 OA
ATOM      5  C   UNL     1     -10.759   5.600 -32.774  1.00  0.00     0.111 A 
ATOM      6  C   UNL     1     -11.306   5.262 -34.049  1.00  0.00     0.134 A 
ATOM      7  C   UNL     1     -11.048   3.999 -34.597  1.00  0.00     0.093 A 
ATOM      8  C   UNL     1     -10.320   3.041 -33.888  1.00  0.00     0.123 A 
ATOM      9  C   UNL     1      -9.834   3.342 -32.618  1.00  0.00     0.094 A 
ATOM     10  C   UNL     1     -10.043   4.605 -32.060  1.00  0.00     0.146 A 
ATOM     11  O   UNL     1      -9.554   4.854 -30.851  1.00  0.00    -0.452 OA
ENDROOT
BRANCH   1  12
ATOM     12  C   UNL     1      -9.106   6.165 -28.878  1.00  0.00     0.025 A 
ATOM     13  C   UNL     1      -7.997   6.991 -28.630  1.00  0.00     0.016 A 
ATOM     14  C   UNL     1      -7.492   7.127 -27.334  1.00  0.00     0.051 A 
ATOM     15  C   UNL     1      -8.095   6.450 -26.266  1.00  0.00     0.157 A 
ATOM     16  C   UNL     1      -9.720   5.505 -27.801  1.00  0.00     0.062 A 
ATOM     17  C   UNL     1      -9.217   5.637 -26.501  1.00  0.00     0.158 A 
BRANCH  15  18
ATOM     18  O   UNL     1      -7.588   6.585 -24.975  1.00  0.00    -0.504 OA
ATOM     19  H   UNL     1      -6.875   5.961 -24.616  1.00  0.00     0.293 HD
ENDBRANCH  15  18
BRANCH  17  20
ATOM     20  O   UNL     1      -9.845   4.955 -25.460  1.00  0.00    -0.504 OA
ATOM     21  H   UNL     1      -9.498   4.070 -25.110  1.00  0.00     0.293 HD
ENDBRANCH  17  20
ENDBRANCH   1  12
BRANCH   2  22
ATOM     22  O   UNL     1     -10.360   8.357 -30.301  1.00  0.00    -0.502 OA
ATOM     23  H   UNL     1      -9.887   9.163 -30.689  1.00  0.00     0.293 HD
ENDBRANCH   2  22
BRANCH   6  24
ATOM     24  O   UNL     1     -12.123   6.113 -34.798  1.00  0.00    -0.507 OA
ATOM     25  H   UNL     1     -12.269   7.091 -34.601  1.00  0.00     0.293 HD
ENDBRANCH   6  24
BRANCH   8  26
ATOM     26  O   UNL     1     -10.083   1.781 -34.434  1.00  0.00    -0.508 OA
ATOM     27  H   UNL     1      -9.788   1.001 -33.860  1.00  0.00     0.293 HD
ENDBRANCH   8  26
TORSDOF 6
ENDMDL
MODEL 9
REMARK VINA RESULT:    -5.562     15.437     18.042
REMARK INTER + INTRA:          -7.017
REMARK INTER:                  -6.702
REMARK INTRA:                  -0.315
REMARK UNBOUND:                -0.316
REMARK SMILES O=c1c(O)c(-c2ccc(O)c(O)c2)oc2cc(O)cc(O)c12
REMARK SMILES IDX 5 1 3 2 2 3 1 4 22 5 20 6 19 7 17 8 16 9 15 10 14 11 6 12
REMARK SMILES IDX 7 13 8 14 9 15 13 16 11 17 10 18 12 20 4 22 21 24 18 26
REMARK H PARENT 10 19 12 21 4 23 21 25 18 27
REMARK Flexibility Score: inf
ROOT
ATOM      1  C   UNL     1     -10.619   4.268 -33.186  1.00  0.00     0.180 A 
ATOM      2  C   UNL     1     -11.279   3.973 -31.980  1.00  0.00     0.208 A 
ATOM      3  C   UNL     1     -11.045   4.786 -30.859  1.00  0.00     0.238 A 
ATOM      4  O   UNL     1     -11.596   4.484 -29.768  1.00  0.00    -0.285 OA
ATOM      5  C   UNL     1     -10.166   5.891 -30.962  1.00  0.00     0.111 A 
ATOM      6  C   UNL     1      -9.887   6.805 -29.901  1.00  0.00     0.134 A 
ATOM      7  C   UNL     1      -8.902   7.785 -30.077  1.00  0.00     0.093 A 
ATOM      8  C   UNL     1      -8.234   7.926 -31.295  1.00  0.00     0.123 A 
ATOM      9  C   UNL     1      -8.544   7.077 -32.355  1.00  0.00     0.094 A 
ATOM     10  C   UNL     1      -9.495   6.066 -32.199  1.00  0.00     0.146 A 
ATOM     11  O   UNL     1      -9.752   5.272 -33.231  1.00  0.00    -0.452 OA
ENDROOT
BRANCH   1  12
ATOM     12  C   UNL     1     -10.834   3.473 -34.416  1.00  0.00     0.025 A 
ATOM     13  C   UNL     1     -11.744   3.886 -35.404  1.00  0.00     0.016 A 
ATOM     14  C   UNL     1     -11.914   3.132 -36.569  1.00  0.00     0.051 A 
ATOM     15  C   UNL     1     -11.168   1.963 -36.769  1.00  0.00     0.157 A 
ATOM     16  C   UNL     1     -10.074   2.312 -34.631  1.00  0.00     0.062 A 
ATOM     17  C   UNL     1     -10.241   1.553 -35.796  1.00  0.00     0.158 A 
BRANCH  15  18
ATOM     18  O   UNL     1     -11.340   1.212 -37.930  1.00  0.00    -0.504 OA
ATOM     19  H   UNL     1     -10.898   1.476 -38.804  1.00  0.00     0.293 HD
ENDBRANCH  15  18
BRANCH  17  20
ATOM     20  O   UNL     1      -9.478   0.399 -35.967  1.00  0.00    -0.504 OA
ATOM     21  H   UNL     1      -8.668   0.376 -36.575  1.00  0.00     0.293 HD
ENDBRANCH  17  20
ENDBRANCH   1  12
BRANCH   2  22
ATOM     22  O   UNL     1     -12.125   2.863 -31.894  1.00  0.00    -0.502 OA
ATOM     23  H   UNL     1     -12.811   2.758 -31.157  1.00  0.00     0.293 HD
ENDBRANCH   2  22
BRANCH   6  24
ATOM     24  O   UNL     1     -10.560   6.809 -28.677  1.00  0.00    -0.507 OA
ATOM     25  H   UNL     1     -10.685   7.622 -28.092  1.00  0.00     0.293 HD
ENDBRANCH   6  24
BRANCH   8  26
ATOM     26  O   UNL     1      -7.268   8.915 -31.466  1.00  0.00    -0.508 OA
ATOM     27  H   UNL     1      -6.374   8.714 -31.899  1.00  0.00     0.293 HD
ENDBRANCH   8  26
TORSDOF 6
ENDMDL
