MODEL 1
REMARK VINA RESULT:    -1.158      0.000      0.000
REMARK INTER + INTRA:          -5.539
REMARK INTER:                  -3.052
REMARK INTRA:                  -2.487
REMARK UNBOUND:                -2.487
REMARK SMILES CCCCCCCCCCCCCCCCCCCCCCCCCCCCCC(=O)[O-]
REMARK SMILES IDX 16 1 17 2 18 3 19 4 20 5 21 6 22 7 23 8 24 9 25 10 26 11
REMARK SMILES IDX 27 12 28 13 29 14 30 15 31 16 32 17 15 18 14 19 13 20 12 21
REMARK SMILES IDX 11 22 10 23 9 24 8 25 7 26 6 27 5 28 4 29 3 30 2 31 1 32
REMARK H PARENT
REMARK Flexibility Score: inf
ROOT
ATOM      1  C   UNL     1      32.307  27.983  61.488  1.00  0.00     0.000 C 
ENDROOT
BRANCH   1   2
ATOM      2  C   UNL     1      32.622  26.584  60.929  1.00  0.00     0.000 C 
BRANCH   2   3
ATOM      3  C   UNL     1      33.994  26.008  61.338  1.00  0.00     0.000 C 
BRANCH   3   4
ATOM      4  C   UNL     1      33.945  24.649  62.060  1.00  0.00     0.000 C 
BRANCH   4   5
ATOM      5  C   UNL     1      32.613  23.889  61.929  1.00  0.00     0.000 C 
BRANCH   5   6
ATOM      6  C   UNL     1      31.774  23.878  63.225  1.00  0.00     0.000 C 
BRANCH   6   7
ATOM      7  C   UNL     1      32.316  24.846  64.287  1.00  0.00     0.000 C 
BRANCH   7   8
ATOM      8  C   UNL     1      31.411  24.869  65.526  1.00  0.00     0.000 C 
BRANCH   8   9
ATOM      9  C   UNL     1      31.963  23.950  66.625  1.00  0.00     0.000 C 
BRANCH   9  10
ATOM     10  C   UNL     1      32.109  24.666  67.977  1.00  0.00     0.000 C 
BRANCH  10  11
ATOM     11  C   UNL     1      30.996  24.293  68.969  1.00  0.00     0.000 C 
BRANCH  11  12
ATOM     12  C   UNL     1      31.324  24.799  70.378  1.00  0.00     0.000 C 
BRANCH  12  13
ATOM     13  C   UNL     1      32.723  25.431  70.426  1.00  0.00     0.006 C 
BRANCH  13  14
ATOM     14  C   UNL     1      33.739  24.540  71.154  1.00  0.00     0.053 C 
BRANCH  14  15
ATOM     15  C   UNL     1      35.133  24.759  70.652  1.00  0.00     0.041 C 
ATOM     16  O   UNL     1      36.083  24.059  71.093  1.00  0.00    -0.550 OA
ATOM     17  O   UNL     1      35.378  25.716  69.675  1.00  0.00    -0.550 OA
ENDBRANCH  14  15
ENDBRANCH  13  14
ENDBRANCH  12  13
ENDBRANCH  11  12
ENDBRANCH  10  11
ENDBRANCH   9  10
ENDBRANCH   8   9
ENDBRANCH   7   8
ENDBRANCH   6   7
ENDBRANCH   5   6
ENDBRANCH   4   5
ENDBRANCH   3   4
ENDBRANCH   2   3
ENDBRANCH   1   2
BRANCH   1  18
ATOM     18  C   UNL     1      32.030  27.976  63.002  1.00  0.00     0.000 C 
BRANCH  18  19
ATOM     19  C   UNL     1      30.520  28.064  63.315  1.00  0.00     0.000 C 
BRANCH  19  20
ATOM     20  C   UNL     1      29.650  27.158  62.430  1.00  0.00     0.000 C 
BRANCH  20  21
ATOM     21  C   UNL     1      28.835  26.140  63.242  1.00  0.00     0.000 C 
BRANCH  21  22
ATOM     22  C   UNL     1      28.748  24.760  62.565  1.00  0.00     0.000 C 
BRANCH  22  23
ATOM     23  C   UNL     1      27.576  24.579  61.583  1.00  0.00     0.000 C 
BRANCH  23  24
ATOM     24  C   UNL     1      26.302  24.049  62.262  1.00  0.00    -0.000 C 
BRANCH  24  25
ATOM     25  C   UNL     1      25.468  25.168  62.908  1.00  0.00    -0.000 C 
BRANCH  25  26
ATOM     26  C   UNL     1      24.031  25.227  62.367  1.00  0.00    -0.000 C 
BRANCH  26  27
ATOM     27  C   UNL     1      24.025  25.207  60.831  1.00  0.00    -0.000 C 
BRANCH  27  28
ATOM     28  C   UNL     1      24.700  26.445  60.220  1.00  0.00    -0.000 C 
BRANCH  28  29
ATOM     29  C   UNL     1      23.692  27.549  59.853  1.00  0.00    -0.000 C 
BRANCH  29  30
ATOM     30  C   UNL     1      24.128  28.362  58.624  1.00  0.00    -0.000 C 
BRANCH  30  31
ATOM     31  C   UNL     1      23.444  29.735  58.552  1.00  0.00    -0.003 C 
ATOM     32  C   UNL     1      24.436  30.824  58.155  1.00  0.00     0.004 C 
ENDBRANCH  30  31
ENDBRANCH  29  30
ENDBRANCH  28  29
ENDBRANCH  27  28
ENDBRANCH  26  27
ENDBRANCH  25  26
ENDBRANCH  24  25
ENDBRANCH  23  24
ENDBRANCH  22  23
ENDBRANCH  21  22
ENDBRANCH  20  21
ENDBRANCH  19  20
ENDBRANCH  18  19
ENDBRANCH   1  18
TORSDOF 28
ENDMDL
MODEL 2
REMARK VINA RESULT:    -0.994      4.752     13.376
REMARK INTER + INTRA:          -5.107
REMARK INTER:                  -3.577
REMARK INTRA:                  -1.530
REMARK UNBOUND:                -2.487
REMARK SMILES CCCCCCCCCCCCCCCCCCCCCCCCCCCCCC(=O)[O-]
REMARK SMILES IDX 16 1 17 2 18 3 19 4 20 5 21 6 22 7 23 8 24 9 25 10 26 11
REMARK SMILES IDX 27 12 28 13 29 14 30 15 31 16 32 17 15 18 14 19 13 20 12 21
REMARK SMILES IDX 11 22 10 23 9 24 8 25 7 26 6 27 5 28 4 29 3 30 2 31 1 32
REMARK H PARENT
REMARK Flexibility Score: inf
ROOT
ATOM      1  C   UNL     1      31.650  26.061  72.310  1.00  0.00     0.000 C 
ENDROOT
BRANCH   1   2
ATOM      2  C   UNL     1      30.568  25.210  71.621  1.00  0.00     0.000 C 
BRANCH   2   3
ATOM      3  C   UNL     1      31.098  24.153  70.629  1.00  0.00     0.000 C 
BRANCH   3   4
ATOM      4  C   UNL     1      31.070  24.574  69.148  1.00  0.00     0.000 C 
BRANCH   4   5
ATOM      5  C   UNL     1      32.324  24.196  68.339  1.00  0.00     0.000 C 
BRANCH   5   6
ATOM      6  C   UNL     1      32.069  24.063  66.823  1.00  0.00     0.000 C 
BRANCH   6   7
ATOM      7  C   UNL     1      30.575  24.109  66.470  1.00  0.00     0.000 C 
BRANCH   7   8
ATOM      8  C   UNL     1      30.367  24.099  64.950  1.00  0.00     0.000 C 
BRANCH   8   9
ATOM      9  C   UNL     1      30.120  25.520  64.420  1.00  0.00     0.000 C 
BRANCH   9  10
ATOM     10  C   UNL     1      29.655  25.533  62.956  1.00  0.00     0.000 C 
BRANCH  10  11
ATOM     11  C   UNL     1      29.274  24.137  62.442  1.00  0.00     0.000 C 
BRANCH  11  12
ATOM     12  C   UNL     1      28.013  24.197  61.572  1.00  0.00     0.000 C 
BRANCH  12  13
ATOM     13  C   UNL     1      26.747  24.014  62.423  1.00  0.00     0.006 C 
BRANCH  13  14
ATOM     14  C   UNL     1      25.484  23.875  61.563  1.00  0.00     0.053 C 
BRANCH  14  15
ATOM     15  C   UNL     1      24.588  25.068  61.693  1.00  0.00     0.041 C 
ATOM     16  O   UNL     1      24.718  26.048  60.912  1.00  0.00    -0.550 OA
ATOM     17  O   UNL     1      23.589  25.086  62.658  1.00  0.00    -0.550 OA
ENDBRANCH  14  15
ENDBRANCH  13  14
ENDBRANCH  12  13
ENDBRANCH  11  12
ENDBRANCH  10  11
ENDBRANCH   9  10
ENDBRANCH   8   9
ENDBRANCH   7   8
ENDBRANCH   6   7
ENDBRANCH   5   6
ENDBRANCH   4   5
ENDBRANCH   3   4
ENDBRANCH   2   3
ENDBRANCH   1   2
BRANCH   1  18
ATOM     18  C   UNL     1      33.041  25.402  72.281  1.00  0.00     0.000 C 
BRANCH  18  19
ATOM     19  C   UNL     1      34.080  26.274  71.543  1.00  0.00     0.000 C 
BRANCH  19  20
ATOM     20  C   UNL     1      33.862  26.345  70.023  1.00  0.00     0.000 C 
BRANCH  20  21
ATOM     21  C   UNL     1      35.174  26.524  69.243  1.00  0.00     0.000 C 
BRANCH  21  22
ATOM     22  C   UNL     1      35.659  25.225  68.575  1.00  0.00     0.000 C 
BRANCH  22  23
ATOM     23  C   UNL     1      36.713  24.428  69.366  1.00  0.00     0.000 C 
BRANCH  23  24
ATOM     24  C   UNL     1      36.300  24.173  70.825  1.00  0.00    -0.000 C 
BRANCH  24  25
ATOM     25  C   UNL     1      37.502  23.875  71.737  1.00  0.00    -0.000 C 
BRANCH  25  26
ATOM     26  C   UNL     1      38.769  24.637  71.317  1.00  0.00    -0.000 C 
BRANCH  26  27
ATOM     27  C   UNL     1      39.743  24.771  72.497  1.00  0.00    -0.000 C 
BRANCH  27  28
ATOM     28  C   UNL     1      39.079  25.375  73.746  1.00  0.00    -0.000 C 
BRANCH  28  29
ATOM     29  C   UNL     1      40.092  25.684  74.862  1.00  0.00    -0.000 C 
BRANCH  29  30
ATOM     30  C   UNL     1      39.546  26.682  75.896  1.00  0.00    -0.000 C 
BRANCH  30  31
ATOM     31  C   UNL     1      39.971  28.128  75.602  1.00  0.00    -0.003 C 
ATOM     32  C   UNL     1      39.531  29.069  76.720  1.00  0.00     0.004 C 
ENDBRANCH  30  31
ENDBRANCH  29  30
ENDBRANCH  28  29
ENDBRANCH  27  28
ENDBRANCH  26  27
ENDBRANCH  25  26
ENDBRANCH  24  25
ENDBRANCH  23  24
ENDBRANCH  22  23
ENDBRANCH  21  22
ENDBRANCH  20  21
ENDBRANCH  19  20
ENDBRANCH  18  19
ENDBRANCH   1  18
TORSDOF 28
ENDMDL
MODEL 3
REMARK VINA RESULT:    -0.825      4.559     13.137
REMARK INTER + INTRA:          -4.662
REMARK INTER:                  -6.728
REMARK INTRA:                   2.066
REMARK UNBOUND:                -2.487
REMARK SMILES CCCCCCCCCCCCCCCCCCCCCCCCCCCCCC(=O)[O-]
REMARK SMILES IDX 16 1 17 2 18 3 19 4 20 5 21 6 22 7 23 8 24 9 25 10 26 11
REMARK SMILES IDX 27 12 28 13 29 14 30 15 31 16 32 17 15 18 14 19 13 20 12 21
REMARK SMILES IDX 11 22 10 23 9 24 8 25 7 26 6 27 5 28 4 29 3 30 2 31 1 32
REMARK H PARENT
REMARK Flexibility Score: inf
ROOT
ATOM      1  C   UNL     1      31.537  24.006  68.145  1.00  0.00     0.000 C 
ENDROOT
BRANCH   1   2
ATOM      2  C   UNL     1      33.055  23.875  68.363  1.00  0.00     0.000 C 
BRANCH   2   3
ATOM      3  C   UNL     1      33.928  24.251  67.147  1.00  0.00     0.000 C 
BRANCH   3   4
ATOM      4  C   UNL     1      33.153  24.754  65.916  1.00  0.00     0.000 C 
BRANCH   4   5
ATOM      5  C   UNL     1      31.619  24.730  66.056  1.00  0.00     0.000 C 
BRANCH   5   6
ATOM      6  C   UNL     1      30.873  24.617  64.709  1.00  0.00     0.000 C 
BRANCH   6   7
ATOM      7  C   UNL     1      30.864  25.940  63.928  1.00  0.00     0.000 C 
BRANCH   7   8
ATOM      8  C   UNL     1      29.853  25.891  62.774  1.00  0.00     0.000 C 
BRANCH   8   9
ATOM      9  C   UNL     1      28.413  25.974  63.303  1.00  0.00     0.000 C 
BRANCH   9  10
ATOM     10  C   UNL     1      27.365  25.740  62.203  1.00  0.00     0.000 C 
BRANCH  10  11
ATOM     11  C   UNL     1      27.038  24.253  62.002  1.00  0.00     0.000 C 
BRANCH  11  12
ATOM     12  C   UNL     1      25.546  23.983  62.228  1.00  0.00     0.000 C 
BRANCH  12  13
ATOM     13  C   UNL     1      24.682  24.848  61.297  1.00  0.00     0.006 C 
BRANCH  13  14
ATOM     14  C   UNL     1      23.375  25.295  61.966  1.00  0.00     0.053 C 
BRANCH  14  15
ATOM     15  C   UNL     1      23.302  24.856  63.395  1.00  0.00     0.041 C 
ATOM     16  O   UNL     1      22.325  24.169  63.799  1.00  0.00    -0.550 OA
ATOM     17  O   UNL     1      24.327  25.179  64.276  1.00  0.00    -0.550 OA
ENDBRANCH  14  15
ENDBRANCH  13  14
ENDBRANCH  12  13
ENDBRANCH  11  12
ENDBRANCH  10  11
ENDBRANCH   9  10
ENDBRANCH   8   9
ENDBRANCH   7   8
ENDBRANCH   6   7
ENDBRANCH   5   6
ENDBRANCH   4   5
ENDBRANCH   3   4
ENDBRANCH   2   3
ENDBRANCH   1   2
BRANCH   1  18
ATOM     18  C   UNL     1      30.798  24.553  69.378  1.00  0.00     0.000 C 
BRANCH  18  19
ATOM     19  C   UNL     1      31.618  24.371  70.674  1.00  0.00     0.000 C 
BRANCH  19  20
ATOM     20  C   UNL     1      32.394  25.628  71.099  1.00  0.00     0.000 C 
BRANCH  20  21
ATOM     21  C   UNL     1      33.713  25.799  70.330  1.00  0.00     0.000 C 
BRANCH  21  22
ATOM     22  C   UNL     1      34.955  25.519  71.194  1.00  0.00     0.000 C 
BRANCH  22  23
ATOM     23  C   UNL     1      35.394  24.044  71.261  1.00  0.00     0.000 C 
BRANCH  23  24
ATOM     24  C   UNL     1      36.888  23.878  71.590  1.00  0.00    -0.000 C 
BRANCH  24  25
ATOM     25  C   UNL     1      37.798  24.242  70.405  1.00  0.00    -0.000 C 
BRANCH  25  26
ATOM     26  C   UNL     1      39.291  24.137  70.749  1.00  0.00    -0.000 C 
BRANCH  26  27
ATOM     27  C   UNL     1      39.505  24.150  72.270  1.00  0.00    -0.000 C 
BRANCH  27  28
ATOM     28  C   UNL     1      39.265  25.536  72.890  1.00  0.00    -0.000 C 
BRANCH  28  29
ATOM     29  C   UNL     1      39.799  25.640  74.330  1.00  0.00    -0.000 C 
BRANCH  29  30
ATOM     30  C   UNL     1      39.870  27.092  74.829  1.00  0.00    -0.000 C 
BRANCH  30  31
ATOM     31  C   UNL     1      39.112  27.300  76.148  1.00  0.00    -0.003 C 
ATOM     32  C   UNL     1      39.500  28.621  76.804  1.00  0.00     0.004 C 
ENDBRANCH  30  31
ENDBRANCH  29  30
ENDBRANCH  28  29
ENDBRANCH  27  28
ENDBRANCH  26  27
ENDBRANCH  25  26
ENDBRANCH  24  25
ENDBRANCH  23  24
ENDBRANCH  22  23
ENDBRANCH  21  22
ENDBRANCH  20  21
ENDBRANCH  19  20
ENDBRANCH  18  19
ENDBRANCH   1  18
TORSDOF 28
ENDMDL
MODEL 4
REMARK VINA RESULT:    -0.331      4.529      9.289
REMARK INTER + INTRA:          -3.359
REMARK INTER:                  -2.098
REMARK INTRA:                  -1.261
REMARK UNBOUND:                -2.487
REMARK SMILES CCCCCCCCCCCCCCCCCCCCCCCCCCCCCC(=O)[O-]
REMARK SMILES IDX 16 1 17 2 18 3 19 4 20 5 21 6 22 7 23 8 24 9 25 10 26 11
REMARK SMILES IDX 27 12 28 13 29 14 30 15 31 16 32 17 15 18 14 19 13 20 12 21
REMARK SMILES IDX 11 22 10 23 9 24 8 25 7 26 6 27 5 28 4 29 3 30 2 31 1 32
REMARK H PARENT
REMARK Flexibility Score: inf
ROOT
ATOM      1  C   UNL     1      33.082  23.876  62.681  1.00  0.00     0.000 C 
ENDROOT
BRANCH   1   2
ATOM      2  C   UNL     1      31.548  23.980  62.762  1.00  0.00     0.000 C 
BRANCH   2   3
ATOM      3  C   UNL     1      31.011  25.277  63.403  1.00  0.00     0.000 C 
BRANCH   3   4
ATOM      4  C   UNL     1      31.244  25.403  64.919  1.00  0.00     0.000 C 
BRANCH   4   5
ATOM      5  C   UNL     1      31.690  24.106  65.620  1.00  0.00     0.000 C 
BRANCH   5   6
ATOM      6  C   UNL     1      32.848  24.307  66.621  1.00  0.00     0.000 C 
BRANCH   6   7
ATOM      7  C   UNL     1      32.475  23.875  68.047  1.00  0.00     0.000 C 
BRANCH   7   8
ATOM      8  C   UNL     1      31.111  24.446  68.458  1.00  0.00     0.000 C 
BRANCH   8   9
ATOM      9  C   UNL     1      31.240  25.329  69.708  1.00  0.00     0.000 C 
BRANCH   9  10
ATOM     10  C   UNL     1      32.374  24.873  70.640  1.00  0.00     0.000 C 
BRANCH  10  11
ATOM     11  C   UNL     1      33.195  26.047  71.193  1.00  0.00     0.000 C 
BRANCH  11  12
ATOM     12  C   UNL     1      34.699  25.766  71.083  1.00  0.00     0.000 C 
BRANCH  12  13
ATOM     13  C   UNL     1      35.145  25.722  69.614  1.00  0.00     0.006 C 
BRANCH  13  14
ATOM     14  C   UNL     1      35.967  24.467  69.293  1.00  0.00     0.053 C 
BRANCH  14  15
ATOM     15  C   UNL     1      37.123  24.304  70.230  1.00  0.00     0.041 C 
ATOM     16  O   UNL     1      36.922  24.080  71.453  1.00  0.00    -0.550 OA
ATOM     17  O   UNL     1      38.425  24.370  69.748  1.00  0.00    -0.550 OA
ENDBRANCH  14  15
ENDBRANCH  13  14
ENDBRANCH  12  13
ENDBRANCH  11  12
ENDBRANCH  10  11
ENDBRANCH   9  10
ENDBRANCH   8   9
ENDBRANCH   7   8
ENDBRANCH   6   7
ENDBRANCH   5   6
ENDBRANCH   4   5
ENDBRANCH   3   4
ENDBRANCH   2   3
ENDBRANCH   1   2
BRANCH   1  18
ATOM     18  C   UNL     1      33.660  24.508  61.403  1.00  0.00     0.000 C 
BRANCH  18  19
ATOM     19  C   UNL     1      35.081  23.989  61.091  1.00  0.00     0.000 C 
BRANCH  19  20
ATOM     20  C   UNL     1      35.831  24.829  60.045  1.00  0.00     0.000 C 
BRANCH  20  21
ATOM     21  C   UNL     1      36.531  23.966  58.983  1.00  0.00     0.000 C 
BRANCH  21  22
ATOM     22  C   UNL     1      38.064  24.104  59.010  1.00  0.00     0.000 C 
BRANCH  22  23
ATOM     23  C   UNL     1      38.615  25.452  58.506  1.00  0.00     0.000 C 
BRANCH  23  24
ATOM     24  C   UNL     1      40.095  25.666  58.865  1.00  0.00    -0.000 C 
BRANCH  24  25
ATOM     25  C   UNL     1      40.340  26.996  59.597  1.00  0.00    -0.000 C 
BRANCH  25  26
ATOM     26  C   UNL     1      39.088  27.885  59.647  1.00  0.00    -0.000 C 
BRANCH  26  27
ATOM     27  C   UNL     1      39.474  29.372  59.664  1.00  0.00    -0.000 C 
BRANCH  27  28
ATOM     28  C   UNL     1      38.356  30.279  59.126  1.00  0.00    -0.000 C 
BRANCH  28  29
ATOM     29  C   UNL     1      38.707  31.775  59.230  1.00  0.00    -0.000 C 
BRANCH  29  30
ATOM     30  C   UNL     1      38.486  32.336  60.643  1.00  0.00    -0.000 C 
BRANCH  30  31
ATOM     31  C   UNL     1      39.790  32.437  61.448  1.00  0.00    -0.003 C 
ATOM     32  C   UNL     1      39.857  31.359  62.526  1.00  0.00     0.004 C 
ENDBRANCH  30  31
ENDBRANCH  29  30
ENDBRANCH  28  29
ENDBRANCH  27  28
ENDBRANCH  26  27
ENDBRANCH  25  26
ENDBRANCH  24  25
ENDBRANCH  23  24
ENDBRANCH  22  23
ENDBRANCH  21  22
ENDBRANCH  20  21
ENDBRANCH  19  20
ENDBRANCH  18  19
ENDBRANCH   1  18
TORSDOF 28
ENDMDL
MODEL 5
REMARK VINA RESULT:    -0.330      3.854      7.827
REMARK INTER + INTRA:          -3.356
REMARK INTER:                  -2.837
REMARK INTRA:                  -0.519
REMARK UNBOUND:                -2.487
REMARK SMILES CCCCCCCCCCCCCCCCCCCCCCCCCCCCCC(=O)[O-]
REMARK SMILES IDX 16 1 17 2 18 3 19 4 20 5 21 6 22 7 23 8 24 9 25 10 26 11
REMARK SMILES IDX 27 12 28 13 29 14 30 15 31 16 32 17 15 18 14 19 13 20 12 21
REMARK SMILES IDX 11 22 10 23 9 24 8 25 7 26 6 27 5 28 4 29 3 30 2 31 1 32
REMARK H PARENT
REMARK Flexibility Score: inf
ROOT
ATOM      1  C   UNL     1      31.508  23.961  65.311  1.00  0.00     0.000 C 
ENDROOT
BRANCH   1   2
ATOM      2  C   UNL     1      32.498  23.875  66.487  1.00  0.00     0.000 C 
BRANCH   2   3
ATOM      3  C   UNL     1      33.621  24.934  66.478  1.00  0.00     0.000 C 
BRANCH   3   4
ATOM      4  C   UNL     1      35.053  24.369  66.480  1.00  0.00     0.000 C 
BRANCH   4   5
ATOM      5  C   UNL     1      35.574  23.918  67.857  1.00  0.00     0.000 C 
BRANCH   5   6
ATOM      6  C   UNL     1      36.591  24.894  68.487  1.00  0.00     0.000 C 
BRANCH   6   7
ATOM      7  C   UNL     1      37.512  24.207  69.507  1.00  0.00     0.000 C 
BRANCH   7   8
ATOM      8  C   UNL     1      36.884  24.211  70.907  1.00  0.00     0.000 C 
BRANCH   8   9
ATOM      9  C   UNL     1      35.358  24.053  70.824  1.00  0.00     0.000 C 
BRANCH   9  10
ATOM     10  C   UNL     1      34.635  25.393  70.613  1.00  0.00     0.000 C 
BRANCH  10  11
ATOM     11  C   UNL     1      33.437  25.575  71.556  1.00  0.00     0.000 C 
BRANCH  11  12
ATOM     12  C   UNL     1      32.174  25.952  70.774  1.00  0.00     0.000 C 
BRANCH  12  13
ATOM     13  C   UNL     1      31.858  24.904  69.698  1.00  0.00     0.006 C 
BRANCH  13  14
ATOM     14  C   UNL     1      30.381  24.484  69.711  1.00  0.00     0.053 C 
BRANCH  14  15
ATOM     15  C   UNL     1      29.918  24.119  71.087  1.00  0.00     0.041 C 
ATOM     16  O   UNL     1      30.756  23.909  72.004  1.00  0.00    -0.550 OA
ATOM     17  O   UNL     1      28.559  24.040  71.365  1.00  0.00    -0.550 OA
ENDBRANCH  14  15
ENDBRANCH  13  14
ENDBRANCH  12  13
ENDBRANCH  11  12
ENDBRANCH  10  11
ENDBRANCH   9  10
ENDBRANCH   8   9
ENDBRANCH   7   8
ENDBRANCH   6   7
ENDBRANCH   5   6
ENDBRANCH   4   5
ENDBRANCH   3   4
ENDBRANCH   2   3
ENDBRANCH   1   2
BRANCH   1  18
ATOM     18  C   UNL     1      30.840  25.341  65.188  1.00  0.00     0.000 C 
BRANCH  18  19
ATOM     19  C   UNL     1      29.911  25.428  63.957  1.00  0.00     0.000 C 
BRANCH  19  20
ATOM     20  C   UNL     1      29.428  26.854  63.645  1.00  0.00     0.000 C 
BRANCH  20  21
ATOM     21  C   UNL     1      30.207  27.505  62.492  1.00  0.00     0.000 C 
BRANCH  21  22
ATOM     22  C   UNL     1      31.577  28.056  62.927  1.00  0.00     0.000 C 
BRANCH  22  23
ATOM     23  C   UNL     1      32.752  27.065  62.821  1.00  0.00     0.000 C 
BRANCH  23  24
ATOM     24  C   UNL     1      32.452  25.876  61.892  1.00  0.00    -0.000 C 
BRANCH  24  25
ATOM     25  C   UNL     1      33.432  24.709  62.091  1.00  0.00    -0.000 C 
BRANCH  25  26
ATOM     26  C   UNL     1      33.630  23.875  60.816  1.00  0.00    -0.000 C 
BRANCH  26  27
ATOM     27  C   UNL     1      35.083  23.962  60.326  1.00  0.00    -0.000 C 
BRANCH  27  28
ATOM     28  C   UNL     1      35.453  25.364  59.816  1.00  0.00    -0.000 C 
BRANCH  28  29
ATOM     29  C   UNL     1      36.882  25.429  59.248  1.00  0.00    -0.000 C 
BRANCH  29  30
ATOM     30  C   UNL     1      37.825  24.409  59.904  1.00  0.00    -0.000 C 
BRANCH  30  31
ATOM     31  C   UNL     1      39.125  24.213  59.111  1.00  0.00    -0.003 C 
ATOM     32  C   UNL     1      39.823  25.546  58.858  1.00  0.00     0.004 C 
ENDBRANCH  30  31
ENDBRANCH  29  30
ENDBRANCH  28  29
ENDBRANCH  27  28
ENDBRANCH  26  27
ENDBRANCH  25  26
ENDBRANCH  24  25
ENDBRANCH  23  24
ENDBRANCH  22  23
ENDBRANCH  21  22
ENDBRANCH  20  21
ENDBRANCH  19  20
ENDBRANCH  18  19
ENDBRANCH   1  18
TORSDOF 28
ENDMDL
MODEL 6
REMARK VINA RESULT:    -0.183      4.403      9.563
REMARK INTER + INTRA:          -2.970
REMARK INTER:                  -0.365
REMARK INTRA:                  -2.605
REMARK UNBOUND:                -2.487
REMARK SMILES CCCCCCCCCCCCCCCCCCCCCCCCCCCCCC(=O)[O-]
REMARK SMILES IDX 16 1 17 2 18 3 19 4 20 5 21 6 22 7 23 8 24 9 25 10 26 11
REMARK SMILES IDX 27 12 28 13 29 14 30 15 31 16 32 17 15 18 14 19 13 20 12 21
REMARK SMILES IDX 11 22 10 23 9 24 8 25 7 26 6 27 5 28 4 29 3 30 2 31 1 32
REMARK H PARENT
REMARK Flexibility Score: inf
ROOT
ATOM      1  C   UNL     1      31.568  27.162  63.156  1.00  0.00     0.000 C 
ENDROOT
BRANCH   1   2
ATOM      2  C   UNL     1      32.823  27.500  62.331  1.00  0.00     0.000 C 
BRANCH   2   3
ATOM      3  C   UNL     1      33.248  26.422  61.312  1.00  0.00     0.000 C 
BRANCH   3   4
ATOM      4  C   UNL     1      34.047  25.244  61.899  1.00  0.00     0.000 C 
BRANCH   4   5
ATOM      5  C   UNL     1      33.928  23.922  61.119  1.00  0.00     0.000 C 
BRANCH   5   6
ATOM      6  C   UNL     1      34.787  23.876  59.837  1.00  0.00     0.000 C 
BRANCH   6   7
ATOM      7  C   UNL     1      36.266  24.193  60.108  1.00  0.00     0.000 C 
BRANCH   7   8
ATOM      8  C   UNL     1      37.088  24.132  58.813  1.00  0.00     0.000 C 
BRANCH   8   9
ATOM      9  C   UNL     1      38.585  24.313  59.106  1.00  0.00     0.000 C 
BRANCH   9  10
ATOM     10  C   UNL     1      39.108  25.696  58.685  1.00  0.00     0.000 C 
BRANCH  10  11
ATOM     11  C   UNL     1      38.872  26.770  59.757  1.00  0.00     0.000 C 
BRANCH  11  12
ATOM     12  C   UNL     1      39.883  27.914  59.620  1.00  0.00     0.000 C 
BRANCH  12  13
ATOM     13  C   UNL     1      39.169  29.270  59.506  1.00  0.00     0.006 C 
BRANCH  13  14
ATOM     14  C   UNL     1      39.203  30.057  60.823  1.00  0.00     0.053 C 
BRANCH  14  15
ATOM     15  C   UNL     1      39.189  31.536  60.589  1.00  0.00     0.041 C 
ATOM     16  O   UNL     1      39.725  32.315  61.421  1.00  0.00    -0.550 OA
ATOM     17  O   UNL     1      38.610  32.052  59.436  1.00  0.00    -0.550 OA
ENDBRANCH  14  15
ENDBRANCH  13  14
ENDBRANCH  12  13
ENDBRANCH  11  12
ENDBRANCH  10  11
ENDBRANCH   9  10
ENDBRANCH   8   9
ENDBRANCH   7   8
ENDBRANCH   6   7
ENDBRANCH   5   6
ENDBRANCH   4   5
ENDBRANCH   3   4
ENDBRANCH   2   3
ENDBRANCH   1   2
BRANCH   1  18
ATOM     18  C   UNL     1      30.260  27.557  62.448  1.00  0.00     0.000 C 
BRANCH  18  19
ATOM     19  C   UNL     1      29.017  27.242  63.308  1.00  0.00     0.000 C 
BRANCH  19  20
ATOM     20  C   UNL     1      27.926  26.461  62.558  1.00  0.00     0.000 C 
BRANCH  20  21
ATOM     21  C   UNL     1      27.961  24.955  62.859  1.00  0.00     0.000 C 
BRANCH  21  22
ATOM     22  C   UNL     1      28.880  24.171  61.905  1.00  0.00     0.000 C 
BRANCH  22  23
ATOM     23  C   UNL     1      30.312  23.927  62.417  1.00  0.00     0.000 C 
BRANCH  23  24
ATOM     24  C   UNL     1      30.414  23.966  63.952  1.00  0.00    -0.000 C 
BRANCH  24  25
ATOM     25  C   UNL     1      31.866  23.879  64.450  1.00  0.00    -0.000 C 
BRANCH  25  26
ATOM     26  C   UNL     1      32.032  24.388  65.890  1.00  0.00    -0.000 C 
BRANCH  26  27
ATOM     27  C   UNL     1      33.447  24.099  66.412  1.00  0.00    -0.000 C 
BRANCH  27  28
ATOM     28  C   UNL     1      33.624  24.488  67.889  1.00  0.00    -0.000 C 
BRANCH  28  29
ATOM     29  C   UNL     1      32.290  24.840  68.571  1.00  0.00    -0.000 C 
BRANCH  29  30
ATOM     30  C   UNL     1      32.474  25.307  70.023  1.00  0.00    -0.000 C 
BRANCH  30  31
ATOM     31  C   UNL     1      33.948  25.325  70.455  1.00  0.00    -0.003 C 
ATOM     32  C   UNL     1      34.192  26.373  71.537  1.00  0.00     0.004 C 
ENDBRANCH  30  31
ENDBRANCH  29  30
ENDBRANCH  28  29
ENDBRANCH  27  28
ENDBRANCH  26  27
ENDBRANCH  25  26
ENDBRANCH  24  25
ENDBRANCH  23  24
ENDBRANCH  22  23
ENDBRANCH  21  22
ENDBRANCH  20  21
ENDBRANCH  19  20
ENDBRANCH  18  19
ENDBRANCH   1  18
TORSDOF 28
ENDMDL
MODEL 7
REMARK VINA RESULT:     0.106      4.155      9.580
REMARK INTER + INTRA:          -2.207
REMARK INTER:                  -3.072
REMARK INTRA:                   0.864
REMARK UNBOUND:                -2.487
REMARK SMILES CCCCCCCCCCCCCCCCCCCCCCCCCCCCCC(=O)[O-]
REMARK SMILES IDX 16 1 17 2 18 3 19 4 20 5 21 6 22 7 23 8 24 9 25 10 26 11
REMARK SMILES IDX 27 12 28 13 29 14 30 15 31 16 32 17 15 18 14 19 13 20 12 21
REMARK SMILES IDX 11 22 10 23 9 24 8 25 7 26 6 27 5 28 4 29 3 30 2 31 1 32
REMARK H PARENT
REMARK Flexibility Score: inf
ROOT
ATOM      1  C   UNL     1      28.882  27.520  64.071  1.00  0.00     0.000 C 
ENDROOT
BRANCH   1   2
ATOM      2  C   UNL     1      30.250  27.918  63.488  1.00  0.00     0.000 C 
BRANCH   2   3
ATOM      3  C   UNL     1      30.787  26.986  62.381  1.00  0.00     0.000 C 
BRANCH   3   4
ATOM      4  C   UNL     1      32.242  27.250  61.953  1.00  0.00     0.000 C 
BRANCH   4   5
ATOM      5  C   UNL     1      33.314  26.632  62.869  1.00  0.00     0.000 C 
BRANCH   5   6
ATOM      6  C   UNL     1      32.789  25.480  63.751  1.00  0.00     0.000 C 
BRANCH   6   7
ATOM      7  C   UNL     1      33.272  24.103  63.271  1.00  0.00     0.000 C 
BRANCH   7   8
ATOM      8  C   UNL     1      34.560  24.228  62.446  1.00  0.00     0.000 C 
BRANCH   8   9
ATOM      9  C   UNL     1      34.326  25.079  61.189  1.00  0.00     0.000 C 
BRANCH   9  10
ATOM     10  C   UNL     1      34.273  24.236  59.905  1.00  0.00     0.000 C 
BRANCH  10  11
ATOM     11  C   UNL     1      35.669  23.876  59.375  1.00  0.00     0.000 C 
BRANCH  11  12
ATOM     12  C   UNL     1      36.710  24.909  59.824  1.00  0.00     0.000 C 
BRANCH  12  13
ATOM     13  C   UNL     1      38.110  24.281  59.905  1.00  0.00     0.006 C 
BRANCH  13  14
ATOM     14  C   UNL     1      38.775  24.164  58.527  1.00  0.00     0.053 C 
BRANCH  14  15
ATOM     15  C   UNL     1      40.098  24.864  58.486  1.00  0.00     0.041 C 
ATOM     16  O   UNL     1      41.130  24.248  58.106  1.00  0.00    -0.550 OA
ATOM     17  O   UNL     1      40.187  26.205  58.838  1.00  0.00    -0.550 OA
ENDBRANCH  14  15
ENDBRANCH  13  14
ENDBRANCH  12  13
ENDBRANCH  11  12
ENDBRANCH  10  11
ENDBRANCH   9  10
ENDBRANCH   8   9
ENDBRANCH   7   8
ENDBRANCH   6   7
ENDBRANCH   5   6
ENDBRANCH   4   5
ENDBRANCH   3   4
ENDBRANCH   2   3
ENDBRANCH   1   2
BRANCH   1  18
ATOM     18  C   UNL     1      27.871  27.092  62.993  1.00  0.00     0.000 C 
BRANCH  18  19
ATOM     19  C   UNL     1      27.674  25.560  62.958  1.00  0.00     0.000 C 
BRANCH  19  20
ATOM     20  C   UNL     1      28.636  24.833  62.005  1.00  0.00     0.000 C 
BRANCH  20  21
ATOM     21  C   UNL     1      29.838  24.214  62.734  1.00  0.00     0.000 C 
BRANCH  21  22
ATOM     22  C   UNL     1      29.554  23.913  64.216  1.00  0.00     0.000 C 
BRANCH  22  23
ATOM     23  C   UNL     1      30.723  24.185  65.182  1.00  0.00     0.000 C 
BRANCH  23  24
ATOM     24  C   UNL     1      30.276  24.286  66.650  1.00  0.00    -0.000 C 
BRANCH  24  25
ATOM     25  C   UNL     1      31.443  24.112  67.636  1.00  0.00    -0.000 C 
BRANCH  25  26
ATOM     26  C   UNL     1      31.140  24.694  69.025  1.00  0.00    -0.000 C 
BRANCH  26  27
ATOM     27  C   UNL     1      32.305  24.435  69.993  1.00  0.00    -0.000 C 
BRANCH  27  28
ATOM     28  C   UNL     1      32.639  25.662  70.856  1.00  0.00    -0.000 C 
BRANCH  28  29
ATOM     29  C   UNL     1      34.098  25.659  71.348  1.00  0.00    -0.000 C 
BRANCH  29  30
ATOM     30  C   UNL     1      35.105  25.888  70.211  1.00  0.00    -0.000 C 
BRANCH  30  31
ATOM     31  C   UNL     1      35.661  24.575  69.642  1.00  0.00    -0.003 C 
ATOM     32  C   UNL     1      35.184  24.349  68.210  1.00  0.00     0.004 C 
ENDBRANCH  30  31
ENDBRANCH  29  30
ENDBRANCH  28  29
ENDBRANCH  27  28
ENDBRANCH  26  27
ENDBRANCH  25  26
ENDBRANCH  24  25
ENDBRANCH  23  24
ENDBRANCH  22  23
ENDBRANCH  21  22
ENDBRANCH  20  21
ENDBRANCH  19  20
ENDBRANCH  18  19
ENDBRANCH   1  18
TORSDOF 28
ENDMDL
MODEL 8
REMARK VINA RESULT:     0.239      1.724      3.087
REMARK INTER + INTRA:          -1.856
REMARK INTER:                  -3.573
REMARK INTRA:                   1.717
REMARK UNBOUND:                -2.487
REMARK SMILES CCCCCCCCCCCCCCCCCCCCCCCCCCCCCC(=O)[O-]
REMARK SMILES IDX 16 1 17 2 18 3 19 4 20 5 21 6 22 7 23 8 24 9 25 10 26 11
REMARK SMILES IDX 27 12 28 13 29 14 30 15 31 16 32 17 15 18 14 19 13 20 12 21
REMARK SMILES IDX 11 22 10 23 9 24 8 25 7 26 6 27 5 28 4 29 3 30 2 31 1 32
REMARK H PARENT
REMARK Flexibility Score: inf
ROOT
ATOM      1  C   UNL     1      32.397  26.476  62.666  1.00  0.00     0.000 C 
ENDROOT
BRANCH   1   2
ATOM      2  C   UNL     1      31.756  25.079  62.588  1.00  0.00     0.000 C 
BRANCH   2   3
ATOM      3  C   UNL     1      31.978  24.186  63.827  1.00  0.00     0.000 C 
BRANCH   3   4
ATOM      4  C   UNL     1      32.934  24.762  64.887  1.00  0.00     0.000 C 
BRANCH   4   5
ATOM      5  C   UNL     1      33.143  23.875  66.128  1.00  0.00     0.000 C 
BRANCH   5   6
ATOM      6  C   UNL     1      34.341  24.301  67.002  1.00  0.00     0.000 C 
BRANCH   6   7
ATOM      7  C   UNL     1      34.069  24.121  68.503  1.00  0.00     0.000 C 
BRANCH   7   8
ATOM      8  C   UNL     1      32.750  24.792  68.909  1.00  0.00     0.000 C 
BRANCH   8   9
ATOM      9  C   UNL     1      32.813  25.295  70.359  1.00  0.00     0.000 C 
BRANCH   9  10
ATOM     10  C   UNL     1      33.781  26.476  70.534  1.00  0.00     0.000 C 
BRANCH  10  11
ATOM     11  C   UNL     1      35.200  26.029  70.915  1.00  0.00     0.000 C 
BRANCH  11  12
ATOM     12  C   UNL     1      35.325  24.501  70.871  1.00  0.00     0.000 C 
BRANCH  12  13
ATOM     13  C   UNL     1      36.627  24.035  71.539  1.00  0.00     0.006 C 
BRANCH  13  14
ATOM     14  C   UNL     1      37.866  24.381  70.701  1.00  0.00     0.053 C 
BRANCH  14  15
ATOM     15  C   UNL     1      39.134  24.158  71.464  1.00  0.00     0.041 C 
ATOM     16  O   UNL     1      39.107  24.034  72.718  1.00  0.00    -0.550 OA
ATOM     17  O   UNL     1      40.344  24.056  70.788  1.00  0.00    -0.550 OA
ENDBRANCH  14  15
ENDBRANCH  13  14
ENDBRANCH  12  13
ENDBRANCH  11  12
ENDBRANCH  10  11
ENDBRANCH   9  10
ENDBRANCH   8   9
ENDBRANCH   7   8
ENDBRANCH   6   7
ENDBRANCH   5   6
ENDBRANCH   4   5
ENDBRANCH   3   4
ENDBRANCH   2   3
ENDBRANCH   1   2
BRANCH   1  18
ATOM     18  C   UNL     1      31.501  27.582  62.082  1.00  0.00     0.000 C 
BRANCH  18  19
ATOM     19  C   UNL     1      30.251  27.836  62.954  1.00  0.00     0.000 C 
BRANCH  19  20
ATOM     20  C   UNL     1      29.450  26.564  63.273  1.00  0.00     0.000 C 
BRANCH  20  21
ATOM     21  C   UNL     1      27.946  26.835  63.438  1.00  0.00     0.000 C 
BRANCH  21  22
ATOM     22  C   UNL     1      27.067  25.851  62.646  1.00  0.00     0.000 C 
BRANCH  22  23
ATOM     23  C   UNL     1      25.632  25.673  63.177  1.00  0.00     0.000 C 
BRANCH  23  24
ATOM     24  C   UNL     1      24.914  24.457  62.566  1.00  0.00    -0.000 C 
BRANCH  24  25
ATOM     25  C   UNL     1      25.552  23.996  61.246  1.00  0.00    -0.000 C 
BRANCH  25  26
ATOM     26  C   UNL     1      25.378  25.018  60.112  1.00  0.00    -0.000 C 
BRANCH  26  27
ATOM     27  C   UNL     1      24.682  26.288  60.624  1.00  0.00    -0.000 C 
BRANCH  27  28
ATOM     28  C   UNL     1      23.664  26.850  59.619  1.00  0.00    -0.000 C 
BRANCH  28  29
ATOM     29  C   UNL     1      24.209  28.059  58.837  1.00  0.00    -0.000 C 
BRANCH  29  30
ATOM     30  C   UNL     1      23.406  29.343  59.100  1.00  0.00    -0.000 C 
BRANCH  30  31
ATOM     31  C   UNL     1      23.511  30.351  57.947  1.00  0.00    -0.003 C 
ATOM     32  C   UNL     1      24.840  31.100  57.990  1.00  0.00     0.004 C 
ENDBRANCH  30  31
ENDBRANCH  29  30
ENDBRANCH  28  29
ENDBRANCH  27  28
ENDBRANCH  26  27
ENDBRANCH  25  26
ENDBRANCH  24  25
ENDBRANCH  23  24
ENDBRANCH  22  23
ENDBRANCH  21  22
ENDBRANCH  20  21
ENDBRANCH  19  20
ENDBRANCH  18  19
ENDBRANCH   1  18
TORSDOF 28
ENDMDL
MODEL 9
REMARK VINA RESULT:     0.241      2.131      4.626
REMARK INTER + INTRA:          -1.851
REMARK INTER:                  -1.138
REMARK INTRA:                  -0.712
REMARK UNBOUND:                -2.487
REMARK SMILES CCCCCCCCCCCCCCCCCCCCCCCCCCCCCC(=O)[O-]
REMARK SMILES IDX 16 1 17 2 18 3 19 4 20 5 21 6 22 7 23 8 24 9 25 10 26 11
REMARK SMILES IDX 27 12 28 13 29 14 30 15 31 16 32 17 15 18 14 19 13 20 12 21
REMARK SMILES IDX 11 22 10 23 9 24 8 25 7 26 6 27 5 28 4 29 3 30 2 31 1 32
REMARK H PARENT
REMARK Flexibility Score: inf
ROOT
ATOM      1  C   UNL     1      32.390  25.246  65.426  1.00  0.00     0.000 C 
ENDROOT
BRANCH   1   2
ATOM      2  C   UNL     1      32.107  24.047  66.349  1.00  0.00     0.000 C 
BRANCH   2   3
ATOM      3  C   UNL     1      30.678  23.991  66.932  1.00  0.00     0.000 C 
BRANCH   3   4
ATOM      4  C   UNL     1      30.572  24.297  68.436  1.00  0.00     0.000 C 
BRANCH   4   5
ATOM      5  C   UNL     1      31.917  24.527  69.151  1.00  0.00     0.000 C 
BRANCH   5   6
ATOM      6  C   UNL     1      31.777  24.812  70.662  1.00  0.00     0.000 C 
BRANCH   6   7
ATOM      7  C   UNL     1      33.016  25.506  71.248  1.00  0.00     0.000 C 
BRANCH   7   8
ATOM      8  C   UNL     1      33.647  26.462  70.226  1.00  0.00     0.000 C 
BRANCH   8   9
ATOM      9  C   UNL     1      34.970  25.895  69.689  1.00  0.00     0.000 C 
BRANCH   9  10
ATOM     10  C   UNL     1      35.323  24.532  70.306  1.00  0.00     0.000 C 
BRANCH  10  11
ATOM     11  C   UNL     1      36.539  23.875  69.636  1.00  0.00     0.000 C 
BRANCH  11  12
ATOM     12  C   UNL     1      37.848  24.406  70.232  1.00  0.00     0.000 C 
BRANCH  12  13
ATOM     13  C   UNL     1      38.017  23.947  71.688  1.00  0.00     0.006 C 
BRANCH  13  14
ATOM     14  C   UNL     1      39.478  24.010  72.152  1.00  0.00     0.053 C 
BRANCH  14  15
ATOM     15  C   UNL     1      39.667  24.990  73.268  1.00  0.00     0.041 C 
ATOM     16  O   UNL     1      38.718  25.739  73.622  1.00  0.00    -0.550 OA
ATOM     17  O   UNL     1      40.882  25.056  73.938  1.00  0.00    -0.550 OA
ENDBRANCH  14  15
ENDBRANCH  13  14
ENDBRANCH  12  13
ENDBRANCH  11  12
ENDBRANCH  10  11
ENDBRANCH   9  10
ENDBRANCH   8   9
ENDBRANCH   7   8
ENDBRANCH   6   7
ENDBRANCH   5   6
ENDBRANCH   4   5
ENDBRANCH   3   4
ENDBRANCH   2   3
ENDBRANCH   1   2
BRANCH   1  18
ATOM     18  C   UNL     1      32.729  24.826  63.985  1.00  0.00     0.000 C 
BRANCH  18  19
ATOM     19  C   UNL     1      31.553  24.093  63.302  1.00  0.00     0.000 C 
BRANCH  19  20
ATOM     20  C   UNL     1      30.344  24.997  63.013  1.00  0.00     0.000 C 
BRANCH  20  21
ATOM     21  C   UNL     1      29.840  25.733  64.265  1.00  0.00     0.000 C 
BRANCH  21  22
ATOM     22  C   UNL     1      28.733  26.756  63.956  1.00  0.00     0.000 C 
BRANCH  22  23
ATOM     23  C   UNL     1      28.522  27.073  62.464  1.00  0.00     0.000 C 
BRANCH  23  24
ATOM     24  C   UNL     1      27.496  26.144  61.793  1.00  0.00    -0.000 C 
BRANCH  24  25
ATOM     25  C   UNL     1      26.884  25.132  62.776  1.00  0.00    -0.000 C 
BRANCH  25  26
ATOM     26  C   UNL     1      25.402  24.846  62.489  1.00  0.00    -0.000 C 
BRANCH  26  27
ATOM     27  C   UNL     1      25.132  24.826  60.977  1.00  0.00    -0.000 C 
BRANCH  27  28
ATOM     28  C   UNL     1      23.959  25.734  60.574  1.00  0.00    -0.000 C 
BRANCH  28  29
ATOM     29  C   UNL     1      24.410  27.163  60.221  1.00  0.00    -0.000 C 
BRANCH  29  30
ATOM     30  C   UNL     1      24.002  27.577  58.798  1.00  0.00    -0.000 C 
BRANCH  30  31
ATOM     31  C   UNL     1      24.290  29.057  58.509  1.00  0.00    -0.003 C 
ATOM     32  C   UNL     1      23.546  29.963  59.485  1.00  0.00     0.004 C 
ENDBRANCH  30  31
ENDBRANCH  29  30
ENDBRANCH  28  29
ENDBRANCH  27  28
ENDBRANCH  26  27
ENDBRANCH  25  26
ENDBRANCH  24  25
ENDBRANCH  23  24
ENDBRANCH  22  23
ENDBRANCH  21  22
ENDBRANCH  20  21
ENDBRANCH  19  20
ENDBRANCH  18  19
ENDBRANCH   1  18
TORSDOF 28
ENDMDL
