MODEL 1
REMARK VINA RESULT:    -7.553      0.000      0.000
REMARK INTER + INTRA:          -9.162
REMARK INTER:                  -8.878
REMARK INTRA:                  -0.285
REMARK UNBOUND:                -0.285
REMARK SMILES O=c1c(O)c(-c2ccc(O)cc2)oc2cc(O)cc(O)c12
REMARK SMILES IDX 5 1 3 2 2 3 1 4 21 5 19 6 18 7 16 8 15 9 14 10 13 11 6 12
REMARK SMILES IDX 7 13 8 14 9 15 12 16 11 17 10 18 4 20 20 22 17 24
REMARK H PARENT 10 19 4 21 20 23 17 25
REMARK Flexibility Score: inf
ROOT
ATOM      1  C   UNL     1     -25.119 -19.176 -13.466  1.00  0.00     0.180 A 
ATOM      2  C   UNL     1     -25.792 -19.417 -12.256  1.00  0.00     0.208 A 
ATOM      3  C   UNL     1     -26.227 -20.721 -11.968  1.00  0.00     0.238 A 
ATOM      4  O   UNL     1     -26.782 -20.941 -10.858  1.00  0.00    -0.285 OA
ATOM      5  C   UNL     1     -25.997 -21.763 -12.898  1.00  0.00     0.111 A 
ATOM      6  C   UNL     1     -26.429 -23.112 -12.725  1.00  0.00     0.134 A 
ATOM      7  C   UNL     1     -26.033 -24.087 -13.649  1.00  0.00     0.093 A 
ATOM      8  C   UNL     1     -25.276 -23.749 -14.773  1.00  0.00     0.123 A 
ATOM      9  C   UNL     1     -24.899 -22.424 -14.981  1.00  0.00     0.094 A 
ATOM     10  C   UNL     1     -25.249 -21.435 -14.058  1.00  0.00     0.146 A 
ATOM     11  O   UNL     1     -24.860 -20.187 -14.288  1.00  0.00    -0.452 OA
ENDROOT
BRANCH   1  12
ATOM     12  C   UNL     1     -24.653 -17.825 -13.853  1.00  0.00     0.021 A 
ATOM     13  C   UNL     1     -23.404 -17.332 -13.434  1.00  0.00     0.016 A 
ATOM     14  C   UNL     1     -22.996 -16.043 -13.792  1.00  0.00     0.047 A 
ATOM     15  C   UNL     1     -23.836 -15.227 -14.561  1.00  0.00     0.115 A 
ATOM     16  C   UNL     1     -25.498 -16.991 -14.606  1.00  0.00     0.016 A 
ATOM     17  C   UNL     1     -25.087 -15.704 -14.964  1.00  0.00     0.047 A 
BRANCH  15  18
ATOM     18  O   UNL     1     -23.440 -13.942 -14.925  1.00  0.00    -0.508 OA
ATOM     19  H   UNL     1     -24.062 -13.147 -14.826  1.00  0.00     0.293 HD
ENDBRANCH  15  18
ENDBRANCH   1  12
BRANCH   2  20
ATOM     20  O   UNL     1     -25.989 -18.378 -11.343  1.00  0.00    -0.502 OA
ATOM     21  H   UNL     1     -25.663 -17.434 -11.514  1.00  0.00     0.293 HD
ENDBRANCH   2  20
BRANCH   6  22
ATOM     22  O   UNL     1     -27.265 -23.538 -11.688  1.00  0.00    -0.507 OA
ATOM     23  H   UNL     1     -28.251 -23.339 -11.627  1.00  0.00     0.293 HD
ENDBRANCH   6  22
BRANCH   8  24
ATOM     24  O   UNL     1     -24.898 -24.723 -15.696  1.00  0.00    -0.508 OA
ATOM     25  H   UNL     1     -25.149 -24.651 -16.675  1.00  0.00     0.293 HD
ENDBRANCH   8  24
TORSDOF 5
ENDMDL
MODEL 2
REMARK VINA RESULT:    -7.356      2.117      7.080
REMARK INTER + INTRA:          -8.931
REMARK INTER:                  -9.227
REMARK INTRA:                   0.296
REMARK UNBOUND:                -0.285
REMARK SMILES O=c1c(O)c(-c2ccc(O)cc2)oc2cc(O)cc(O)c12
REMARK SMILES IDX 5 1 3 2 2 3 1 4 21 5 19 6 18 7 16 8 15 9 14 10 13 11 6 12
REMARK SMILES IDX 7 13 8 14 9 15 12 16 11 17 10 18 4 20 20 22 17 24
REMARK H PARENT 10 19 4 21 20 23 17 25
REMARK Flexibility Score: inf
ROOT
ATOM      1  C   UNL     1     -24.007 -18.797 -13.685  1.00  0.00     0.180 A 
ATOM      2  C   UNL     1     -25.138 -18.215 -14.283  1.00  0.00     0.208 A 
ATOM      3  C   UNL     1     -25.103 -16.853 -14.622  1.00  0.00     0.238 A 
ATOM      4  O   UNL     1     -26.100 -16.350 -15.206  1.00  0.00    -0.285 OA
ATOM      5  C   UNL     1     -23.946 -16.087 -14.346  1.00  0.00     0.111 A 
ATOM      6  C   UNL     1     -23.816 -14.691 -14.611  1.00  0.00     0.134 A 
ATOM      7  C   UNL     1     -22.579 -14.063 -14.416  1.00  0.00     0.093 A 
ATOM      8  C   UNL     1     -21.487 -14.767 -13.905  1.00  0.00     0.123 A 
ATOM      9  C   UNL     1     -21.620 -16.117 -13.589  1.00  0.00     0.094 A 
ATOM     10  C   UNL     1     -22.831 -16.779 -13.805  1.00  0.00     0.146 A 
ATOM     11  O   UNL     1     -22.913 -18.068 -13.499  1.00  0.00    -0.452 OA
ENDROOT
BRANCH   1  12
ATOM     12  C   UNL     1     -23.977 -20.220 -13.276  1.00  0.00     0.021 A 
ATOM     13  C   UNL     1     -22.804 -20.989 -13.385  1.00  0.00     0.016 A 
ATOM     14  C   UNL     1     -22.806 -22.338 -13.015  1.00  0.00     0.047 A 
ATOM     15  C   UNL     1     -23.982 -22.937 -12.544  1.00  0.00     0.115 A 
ATOM     16  C   UNL     1     -25.156 -20.835 -12.823  1.00  0.00     0.016 A 
ATOM     17  C   UNL     1     -25.155 -22.183 -12.452  1.00  0.00     0.047 A 
BRANCH  15  18
ATOM     18  O   UNL     1     -23.995 -24.279 -12.171  1.00  0.00    -0.508 OA
ATOM     19  H   UNL     1     -24.863 -24.769 -11.986  1.00  0.00     0.293 HD
ENDBRANCH  15  18
ENDBRANCH   1  12
BRANCH   2  20
ATOM     20  O   UNL     1     -26.263 -18.995 -14.567  1.00  0.00    -0.502 OA
ATOM     21  H   UNL     1     -26.329 -19.971 -14.302  1.00  0.00     0.293 HD
ENDBRANCH   2  20
BRANCH   6  22
ATOM     22  O   UNL     1     -24.870 -13.875 -15.035  1.00  0.00    -0.507 OA
ATOM     23  H   UNL     1     -25.785 -14.209 -15.297  1.00  0.00     0.293 HD
ENDBRANCH   6  22
BRANCH   8  24
ATOM     24  O   UNL     1     -20.263 -14.132 -13.701  1.00  0.00    -0.508 OA
ATOM     25  H   UNL     1     -20.106 -13.530 -12.901  1.00  0.00     0.293 HD
ENDBRANCH   8  24
TORSDOF 5
ENDMDL
MODEL 3
REMARK VINA RESULT:    -7.055      1.619      2.664
REMARK INTER + INTRA:          -8.576
REMARK INTER:                  -8.724
REMARK INTRA:                   0.148
REMARK UNBOUND:                -0.285
REMARK SMILES O=c1c(O)c(-c2ccc(O)cc2)oc2cc(O)cc(O)c12
REMARK SMILES IDX 5 1 3 2 2 3 1 4 21 5 19 6 18 7 16 8 15 9 14 10 13 11 6 12
REMARK SMILES IDX 7 13 8 14 9 15 12 16 11 17 10 18 4 20 20 22 17 24
REMARK H PARENT 10 19 4 21 20 23 17 25
REMARK Flexibility Score: inf
ROOT
ATOM      1  C   UNL     1     -24.380 -19.404 -13.526  1.00  0.00     0.180 A 
ATOM      2  C   UNL     1     -23.260 -20.252 -13.566  1.00  0.00     0.208 A 
ATOM      3  C   UNL     1     -23.411 -21.597 -13.190  1.00  0.00     0.238 A 
ATOM      4  O   UNL     1     -22.416 -22.364 -13.280  1.00  0.00    -0.285 OA
ATOM      5  C   UNL     1     -24.675 -22.073 -12.767  1.00  0.00     0.111 A 
ATOM      6  C   UNL     1     -24.933 -23.405 -12.327  1.00  0.00     0.134 A 
ATOM      7  C   UNL     1     -26.248 -23.800 -12.054  1.00  0.00     0.093 A 
ATOM      8  C   UNL     1     -27.306 -22.892 -12.143  1.00  0.00     0.123 A 
ATOM      9  C   UNL     1     -27.056 -21.573 -12.515  1.00  0.00     0.094 A 
ATOM     10  C   UNL     1     -25.759 -21.159 -12.827  1.00  0.00     0.146 A 
ATOM     11  O   UNL     1     -25.566 -19.896 -13.187  1.00  0.00    -0.452 OA
ENDROOT
BRANCH   1  12
ATOM     12  C   UNL     1     -24.294 -17.969 -13.882  1.00  0.00     0.021 A 
ATOM     13  C   UNL     1     -23.193 -17.183 -13.498  1.00  0.00     0.016 A 
ATOM     14  C   UNL     1     -23.146 -15.823 -13.825  1.00  0.00     0.047 A 
ATOM     15  C   UNL     1     -24.204 -15.231 -14.526  1.00  0.00     0.115 A 
ATOM     16  C   UNL     1     -25.361 -17.361 -14.567  1.00  0.00     0.016 A 
ATOM     17  C   UNL     1     -25.310 -16.003 -14.893  1.00  0.00     0.047 A 
BRANCH  15  18
ATOM     18  O   UNL     1     -24.168 -13.879 -14.858  1.00  0.00    -0.508 OA
ATOM     19  H   UNL     1     -24.828 -13.476 -15.512  1.00  0.00     0.293 HD
ENDBRANCH  15  18
ENDBRANCH   1  12
BRANCH   2  20
ATOM     20  O   UNL     1     -22.026 -19.767 -14.008  1.00  0.00    -0.502 OA
ATOM     21  H   UNL     1     -21.624 -20.034 -14.899  1.00  0.00     0.293 HD
ENDBRANCH   2  20
BRANCH   6  22
ATOM     22  O   UNL     1     -23.937 -24.364 -12.116  1.00  0.00    -0.507 OA
ATOM     23  H   UNL     1     -24.086 -25.260 -11.678  1.00  0.00     0.293 HD
ENDBRANCH   6  22
BRANCH   8  24
ATOM     24  O   UNL     1     -28.611 -23.289 -11.855  1.00  0.00    -0.508 OA
ATOM     25  H   UNL     1     -28.803 -24.087 -11.262  1.00  0.00     0.293 HD
ENDBRANCH   8  24
TORSDOF 5
ENDMDL
MODEL 4
REMARK VINA RESULT:    -6.774      2.140      2.901
REMARK INTER + INTRA:          -8.246
REMARK INTER:                  -8.682
REMARK INTRA:                   0.435
REMARK UNBOUND:                -0.285
REMARK SMILES O=c1c(O)c(-c2ccc(O)cc2)oc2cc(O)cc(O)c12
REMARK SMILES IDX 5 1 3 2 2 3 1 4 21 5 19 6 18 7 16 8 15 9 14 10 13 11 6 12
REMARK SMILES IDX 7 13 8 14 9 15 12 16 11 17 10 18 4 20 20 22 17 24
REMARK H PARENT 10 19 4 21 20 23 17 25
REMARK Flexibility Score: inf
ROOT
ATOM      1  C   UNL     1     -24.413 -20.685 -13.973  1.00  0.00     0.180 A 
ATOM      2  C   UNL     1     -23.278 -21.339 -13.465  1.00  0.00     0.208 A 
ATOM      3  C   UNL     1     -23.264 -22.743 -13.423  1.00  0.00     0.238 A 
ATOM      4  O   UNL     1     -22.223 -23.324 -13.017  1.00  0.00    -0.285 OA
ATOM      5  C   UNL     1     -24.389 -23.473 -13.876  1.00  0.00     0.111 A 
ATOM      6  C   UNL     1     -24.498 -24.895 -13.842  1.00  0.00     0.134 A 
ATOM      7  C   UNL     1     -25.604 -25.517 -14.436  1.00  0.00     0.093 A 
ATOM      8  C   UNL     1     -26.635 -24.765 -15.003  1.00  0.00     0.123 A 
ATOM      9  C   UNL     1     -26.565 -23.374 -14.988  1.00  0.00     0.094 A 
ATOM     10  C   UNL     1     -25.458 -22.726 -14.435  1.00  0.00     0.146 A 
ATOM     11  O   UNL     1     -25.426 -21.399 -14.451  1.00  0.00    -0.452 OA
ENDROOT
BRANCH   1  12
ATOM     12  C   UNL     1     -24.514 -19.208 -14.026  1.00  0.00     0.021 A 
ATOM     13  C   UNL     1     -25.761 -18.561 -14.096  1.00  0.00     0.016 A 
ATOM     14  C   UNL     1     -25.830 -17.165 -14.169  1.00  0.00     0.047 A 
ATOM     15  C   UNL     1     -24.655 -16.403 -14.187  1.00  0.00     0.115 A 
ATOM     16  C   UNL     1     -23.341 -18.435 -14.066  1.00  0.00     0.016 A 
ATOM     17  C   UNL     1     -23.413 -17.042 -14.137  1.00  0.00     0.047 A 
BRANCH  15  18
ATOM     18  O   UNL     1     -24.712 -15.012 -14.258  1.00  0.00    -0.508 OA
ATOM     19  H   UNL     1     -25.596 -14.517 -14.254  1.00  0.00     0.293 HD
ENDBRANCH  15  18
ENDBRANCH   1  12
BRANCH   2  20
ATOM     20  O   UNL     1     -22.170 -20.599 -13.044  1.00  0.00    -0.502 OA
ATOM     21  H   UNL     1     -21.364 -20.441 -13.638  1.00  0.00     0.293 HD
ENDBRANCH   2  20
BRANCH   6  22
ATOM     22  O   UNL     1     -23.570 -25.736 -13.219  1.00  0.00    -0.507 OA
ATOM     23  H   UNL     1     -23.808 -26.497 -12.602  1.00  0.00     0.293 HD
ENDBRANCH   6  22
BRANCH   8  24
ATOM     24  O   UNL     1     -27.739 -25.391 -15.579  1.00  0.00    -0.508 OA
ATOM     25  H   UNL     1     -28.034 -25.180 -16.525  1.00  0.00     0.293 HD
ENDBRANCH   8  24
TORSDOF 5
ENDMDL
MODEL 5
REMARK VINA RESULT:    -6.278      2.281      6.954
REMARK INTER + INTRA:          -7.664
REMARK INTER:                  -8.043
REMARK INTRA:                   0.379
REMARK UNBOUND:                -0.285
REMARK SMILES O=c1c(O)c(-c2ccc(O)cc2)oc2cc(O)cc(O)c12
REMARK SMILES IDX 5 1 3 2 2 3 1 4 21 5 19 6 18 7 16 8 15 9 14 10 13 11 6 12
REMARK SMILES IDX 7 13 8 14 9 15 12 16 11 17 10 18 4 20 20 22 17 24
REMARK H PARENT 10 19 4 21 20 23 17 25
REMARK Flexibility Score: inf
ROOT
ATOM      1  C   UNL     1     -24.764 -21.819 -14.295  1.00  0.00     0.180 A 
ATOM      2  C   UNL     1     -23.458 -21.712 -13.788  1.00  0.00     0.208 A 
ATOM      3  C   UNL     1     -22.898 -20.436 -13.613  1.00  0.00     0.238 A 
ATOM      4  O   UNL     1     -21.748 -20.345 -13.108  1.00  0.00    -0.285 OA
ATOM      5  C   UNL     1     -23.645 -19.284 -13.960  1.00  0.00     0.111 A 
ATOM      6  C   UNL     1     -23.163 -17.946 -13.861  1.00  0.00     0.134 A 
ATOM      7  C   UNL     1     -24.034 -16.877 -14.109  1.00  0.00     0.093 A 
ATOM      8  C   UNL     1     -25.351 -17.102 -14.515  1.00  0.00     0.123 A 
ATOM      9  C   UNL     1     -25.814 -18.406 -14.671  1.00  0.00     0.094 A 
ATOM     10  C   UNL     1     -24.980 -19.492 -14.397  1.00  0.00     0.146 A 
ATOM     11  O   UNL     1     -25.464 -20.719 -14.549  1.00  0.00    -0.452 OA
ENDROOT
BRANCH   1  12
ATOM     12  C   UNL     1     -25.413 -23.129 -14.532  1.00  0.00     0.021 A 
ATOM     13  C   UNL     1     -24.656 -24.305 -14.682  1.00  0.00     0.016 A 
ATOM     14  C   UNL     1     -25.290 -25.527 -14.930  1.00  0.00     0.047 A 
ATOM     15  C   UNL     1     -26.685 -25.586 -15.043  1.00  0.00     0.115 A 
ATOM     16  C   UNL     1     -26.810 -23.195 -14.669  1.00  0.00     0.016 A 
ATOM     17  C   UNL     1     -27.441 -24.417 -14.914  1.00  0.00     0.047 A 
BRANCH  15  18
ATOM     18  O   UNL     1     -27.327 -26.798 -15.288  1.00  0.00    -0.508 OA
ATOM     19  H   UNL     1     -27.159 -27.613 -14.709  1.00  0.00     0.293 HD
ENDBRANCH  15  18
ENDBRANCH   1  12
BRANCH   2  20
ATOM     20  O   UNL     1     -22.746 -22.860 -13.432  1.00  0.00    -0.502 OA
ATOM     21  H   UNL     1     -23.116 -23.794 -13.568  1.00  0.00     0.293 HD
ENDBRANCH   2  20
BRANCH   6  22
ATOM     22  O   UNL     1     -21.840 -17.613 -13.552  1.00  0.00    -0.507 OA
ATOM     23  H   UNL     1     -21.405 -17.758 -12.654  1.00  0.00     0.293 HD
ENDBRANCH   6  22
BRANCH   8  24
ATOM     24  O   UNL     1     -26.208 -16.033 -14.774  1.00  0.00    -0.508 OA
ATOM     25  H   UNL     1     -26.005 -15.356 -15.500  1.00  0.00     0.293 HD
ENDBRANCH   8  24
TORSDOF 5
ENDMDL
MODEL 6
REMARK VINA RESULT:    -6.102      1.794      6.990
REMARK INTER + INTRA:          -7.456
REMARK INTER:                  -7.218
REMARK INTRA:                  -0.238
REMARK UNBOUND:                -0.285
REMARK SMILES O=c1c(O)c(-c2ccc(O)cc2)oc2cc(O)cc(O)c12
REMARK SMILES IDX 5 1 3 2 2 3 1 4 21 5 19 6 18 7 16 8 15 9 14 10 13 11 6 12
REMARK SMILES IDX 7 13 8 14 9 15 12 16 11 17 10 18 4 20 20 22 17 24
REMARK H PARENT 10 19 4 21 20 23 17 25
REMARK Flexibility Score: inf
ROOT
ATOM      1  C   UNL     1     -24.621 -19.586 -14.125  1.00  0.00     0.180 A 
ATOM      2  C   UNL     1     -23.264 -19.443 -13.791  1.00  0.00     0.208 A 
ATOM      3  C   UNL     1     -22.682 -18.166 -13.840  1.00  0.00     0.238 A 
ATOM      4  O   UNL     1     -21.480 -18.036 -13.488  1.00  0.00    -0.285 OA
ATOM      5  C   UNL     1     -23.460 -17.052 -14.237  1.00  0.00     0.111 A 
ATOM      6  C   UNL     1     -22.963 -15.720 -14.360  1.00  0.00     0.134 A 
ATOM      7  C   UNL     1     -23.852 -14.674 -14.635  1.00  0.00     0.093 A 
ATOM      8  C   UNL     1     -25.209 -14.921 -14.854  1.00  0.00     0.123 A 
ATOM      9  C   UNL     1     -25.693 -16.225 -14.794  1.00  0.00     0.094 A 
ATOM     10  C   UNL     1     -24.837 -17.285 -14.487  1.00  0.00     0.146 A 
ATOM     11  O   UNL     1     -25.341 -18.512 -14.429  1.00  0.00    -0.452 OA
ENDROOT
BRANCH   1  12
ATOM     12  C   UNL     1     -25.299 -20.903 -14.122  1.00  0.00     0.021 A 
ATOM     13  C   UNL     1     -26.140 -21.292 -13.063  1.00  0.00     0.016 A 
ATOM     14  C   UNL     1     -26.750 -22.551 -13.070  1.00  0.00     0.047 A 
ATOM     15  C   UNL     1     -26.517 -23.440 -14.128  1.00  0.00     0.115 A 
ATOM     16  C   UNL     1     -25.054 -21.810 -15.167  1.00  0.00     0.016 A 
ATOM     17  C   UNL     1     -25.667 -23.066 -15.173  1.00  0.00     0.047 A 
BRANCH  15  18
ATOM     18  O   UNL     1     -27.120 -24.695 -14.146  1.00  0.00    -0.508 OA
ATOM     19  H   UNL     1     -28.040 -24.847 -13.748  1.00  0.00     0.293 HD
ENDBRANCH  15  18
ENDBRANCH   1  12
BRANCH   2  20
ATOM     20  O   UNL     1     -22.520 -20.553 -13.381  1.00  0.00    -0.502 OA
ATOM     21  H   UNL     1     -22.922 -21.304 -12.832  1.00  0.00     0.293 HD
ENDBRANCH   2  20
BRANCH   6  22
ATOM     22  O   UNL     1     -21.611 -15.378 -14.251  1.00  0.00    -0.507 OA
ATOM     23  H   UNL     1     -21.266 -14.524 -13.839  1.00  0.00     0.293 HD
ENDBRANCH   6  22
BRANCH   8  24
ATOM     24  O   UNL     1     -26.085 -13.875 -15.142  1.00  0.00    -0.508 OA
ATOM     25  H   UNL     1     -25.748 -12.969 -15.443  1.00  0.00     0.293 HD
ENDBRANCH   8  24
TORSDOF 5
ENDMDL
MODEL 7
REMARK VINA RESULT:    -5.962      1.563      6.551
REMARK INTER + INTRA:          -7.292
REMARK INTER:                  -7.074
REMARK INTRA:                  -0.218
REMARK UNBOUND:                -0.285
REMARK SMILES O=c1c(O)c(-c2ccc(O)cc2)oc2cc(O)cc(O)c12
REMARK SMILES IDX 5 1 3 2 2 3 1 4 21 5 19 6 18 7 16 8 15 9 14 10 13 11 6 12
REMARK SMILES IDX 7 13 8 14 9 15 12 16 11 17 10 18 4 20 20 22 17 24
REMARK H PARENT 10 19 4 21 20 23 17 25
REMARK Flexibility Score: inf
ROOT
ATOM      1  C   UNL     1     -25.908 -22.115 -13.558  1.00  0.00     0.180 A 
ATOM      2  C   UNL     1     -26.342 -21.876 -12.243  1.00  0.00     0.208 A 
ATOM      3  C   UNL     1     -26.068 -20.632 -11.651  1.00  0.00     0.238 A 
ATOM      4  O   UNL     1     -26.506 -20.404 -10.493  1.00  0.00    -0.285 OA
ATOM      5  C   UNL     1     -25.351 -19.649 -12.375  1.00  0.00     0.111 A 
ATOM      6  C   UNL     1     -24.983 -18.371 -11.860  1.00  0.00     0.134 A 
ATOM      7  C   UNL     1     -24.388 -17.429 -12.709  1.00  0.00     0.093 A 
ATOM      8  C   UNL     1     -24.088 -17.744 -14.036  1.00  0.00     0.123 A 
ATOM      9  C   UNL     1     -24.390 -19.010 -14.532  1.00  0.00     0.094 A 
ATOM     10  C   UNL     1     -25.016 -19.958 -13.720  1.00  0.00     0.146 A 
ATOM     11  O   UNL     1     -25.295 -21.150 -14.235  1.00  0.00    -0.452 OA
ENDROOT
BRANCH   1  12
ATOM     12  C   UNL     1     -26.137 -23.409 -14.241  1.00  0.00     0.021 A 
ATOM     13  C   UNL     1     -25.085 -24.316 -14.463  1.00  0.00     0.016 A 
ATOM     14  C   UNL     1     -25.320 -25.522 -15.132  1.00  0.00     0.047 A 
ATOM     15  C   UNL     1     -26.605 -25.829 -15.597  1.00  0.00     0.115 A 
ATOM     16  C   UNL     1     -27.418 -23.717 -14.729  1.00  0.00     0.016 A 
ATOM     17  C   UNL     1     -27.650 -24.923 -15.395  1.00  0.00     0.047 A 
BRANCH  15  18
ATOM     18  O   UNL     1     -26.852 -27.028 -16.262  1.00  0.00    -0.508 OA
ATOM     19  H   UNL     1     -26.946 -27.065 -17.271  1.00  0.00     0.293 HD
ENDBRANCH  15  18
ENDBRANCH   1  12
BRANCH   2  20
ATOM     20  O   UNL     1     -27.068 -22.851 -11.554  1.00  0.00    -0.502 OA
ATOM     21  H   UNL     1     -26.661 -23.410 -10.813  1.00  0.00     0.293 HD
ENDBRANCH   2  20
BRANCH   6  22
ATOM     22  O   UNL     1     -25.154 -17.988 -10.526  1.00  0.00    -0.507 OA
ATOM     23  H   UNL     1     -24.503 -18.191  -9.783  1.00  0.00     0.293 HD
ENDBRANCH   6  22
BRANCH   8  24
ATOM     24  O   UNL     1     -23.482 -16.806 -14.870  1.00  0.00    -0.508 OA
ATOM     25  H   UNL     1     -24.011 -16.050 -15.290  1.00  0.00     0.293 HD
ENDBRANCH   8  24
TORSDOF 5
ENDMDL
MODEL 8
REMARK VINA RESULT:    -5.919      2.289      6.949
REMARK INTER + INTRA:          -7.242
REMARK INTER:                  -6.985
REMARK INTRA:                  -0.257
REMARK UNBOUND:                -0.285
REMARK SMILES O=c1c(O)c(-c2ccc(O)cc2)oc2cc(O)cc(O)c12
REMARK SMILES IDX 5 1 3 2 2 3 1 4 21 5 19 6 18 7 16 8 15 9 14 10 13 11 6 12
REMARK SMILES IDX 7 13 8 14 9 15 12 16 11 17 10 18 4 20 20 22 17 24
REMARK H PARENT 10 19 4 21 20 23 17 25
REMARK Flexibility Score: inf
ROOT
ATOM      1  C   UNL     1     -25.758 -22.010 -13.862  1.00  0.00     0.180 A 
ATOM      2  C   UNL     1     -25.097 -21.080 -14.684  1.00  0.00     0.208 A 
ATOM      3  C   UNL     1     -24.774 -19.818 -14.159  1.00  0.00     0.238 A 
ATOM      4  O   UNL     1     -24.135 -19.009 -14.883  1.00  0.00    -0.285 OA
ATOM      5  C   UNL     1     -25.128 -19.496 -12.827  1.00  0.00     0.111 A 
ATOM      6  C   UNL     1     -24.885 -18.234 -12.207  1.00  0.00     0.134 A 
ATOM      7  C   UNL     1     -25.161 -18.070 -10.844  1.00  0.00     0.093 A 
ATOM      8  C   UNL     1     -25.731 -19.102 -10.095  1.00  0.00     0.123 A 
ATOM      9  C   UNL     1     -26.026 -20.319 -10.706  1.00  0.00     0.094 A 
ATOM     10  C   UNL     1     -25.730 -20.524 -12.056  1.00  0.00     0.146 A 
ATOM     11  O   UNL     1     -26.018 -21.702 -12.597  1.00  0.00    -0.452 OA
ENDROOT
BRANCH   1  12
ATOM     12  C   UNL     1     -26.155 -23.350 -14.350  1.00  0.00     0.021 A 
ATOM     13  C   UNL     1     -25.224 -24.400 -14.447  1.00  0.00     0.016 A 
ATOM     14  C   UNL     1     -25.617 -25.651 -14.934  1.00  0.00     0.047 A 
ATOM     15  C   UNL     1     -26.940 -25.863 -15.343  1.00  0.00     0.115 A 
ATOM     16  C   UNL     1     -27.474 -23.567 -14.783  1.00  0.00     0.016 A 
ATOM     17  C   UNL     1     -27.865 -24.818 -15.267  1.00  0.00     0.047 A 
BRANCH  15  18
ATOM     18  O   UNL     1     -27.343 -27.106 -15.828  1.00  0.00    -0.508 OA
ATOM     19  H   UNL     1     -27.901 -27.190 -16.670  1.00  0.00     0.293 HD
ENDBRANCH  15  18
ENDBRANCH   1  12
BRANCH   2  20
ATOM     20  O   UNL     1     -24.738 -21.426 -15.989  1.00  0.00    -0.502 OA
ATOM     21  H   UNL     1     -23.785 -21.652 -16.248  1.00  0.00     0.293 HD
ENDBRANCH   2  20
BRANCH   6  22
ATOM     22  O   UNL     1     -24.404 -17.110 -12.886  1.00  0.00    -0.507 OA
ATOM     23  H   UNL     1     -24.270 -16.202 -12.469  1.00  0.00     0.293 HD
ENDBRANCH   6  22
BRANCH   8  24
ATOM     24  O   UNL     1     -26.016 -18.926  -8.742  1.00  0.00    -0.508 OA
ATOM     25  H   UNL     1     -26.504 -18.104  -8.406  1.00  0.00     0.293 HD
ENDBRANCH   8  24
TORSDOF 5
ENDMDL
MODEL 9
REMARK VINA RESULT:    -5.670      3.195      6.137
REMARK INTER + INTRA:          -6.949
REMARK INTER:                  -7.009
REMARK INTRA:                   0.060
REMARK UNBOUND:                -0.285
REMARK SMILES O=c1c(O)c(-c2ccc(O)cc2)oc2cc(O)cc(O)c12
REMARK SMILES IDX 5 1 3 2 2 3 1 4 21 5 19 6 18 7 16 8 15 9 14 10 13 11 6 12
REMARK SMILES IDX 7 13 8 14 9 15 12 16 11 17 10 18 4 20 20 22 17 24
REMARK H PARENT 10 19 4 21 20 23 17 25
REMARK Flexibility Score: inf
ROOT
ATOM      1  C   UNL     1     -21.812 -15.754 -13.722  1.00  0.00     0.180 A 
ATOM      2  C   UNL     1     -22.520 -14.988 -14.664  1.00  0.00     0.208 A 
ATOM      3  C   UNL     1     -23.846 -15.336 -14.966  1.00  0.00     0.238 A 
ATOM      4  O   UNL     1     -24.492 -14.613 -15.770  1.00  0.00    -0.285 OA
ATOM      5  C   UNL     1     -24.443 -16.454 -14.335  1.00  0.00     0.111 A 
ATOM      6  C   UNL     1     -25.766 -16.920 -14.595  1.00  0.00     0.134 A 
ATOM      7  C   UNL     1     -26.298 -17.956 -13.818  1.00  0.00     0.093 A 
ATOM      8  C   UNL     1     -25.532 -18.586 -12.835  1.00  0.00     0.123 A 
ATOM      9  C   UNL     1     -24.219 -18.177 -12.613  1.00  0.00     0.094 A 
ATOM     10  C   UNL     1     -23.672 -17.122 -13.348  1.00  0.00     0.146 A 
ATOM     11  O   UNL     1     -22.420 -16.757 -13.099  1.00  0.00    -0.452 OA
ENDROOT
BRANCH   1  12
ATOM     12  C   UNL     1     -20.403 -15.466 -13.370  1.00  0.00     0.021 A 
ATOM     13  C   UNL     1     -19.428 -16.479 -13.358  1.00  0.00     0.016 A 
ATOM     14  C   UNL     1     -18.108 -16.187 -12.999  1.00  0.00     0.047 A 
ATOM     15  C   UNL     1     -17.750 -14.883 -12.634  1.00  0.00     0.115 A 
ATOM     16  C   UNL     1     -20.039 -14.165 -12.983  1.00  0.00     0.016 A 
ATOM     17  C   UNL     1     -18.719 -13.875 -12.626  1.00  0.00     0.047 A 
BRANCH  15  18
ATOM     18  O   UNL     1     -16.438 -14.580 -12.276  1.00  0.00    -0.508 OA
ATOM     19  H   UNL     1     -15.667 -14.721 -12.919  1.00  0.00     0.293 HD
ENDBRANCH  15  18
ENDBRANCH   1  12
BRANCH   2  20
ATOM     20  O   UNL     1     -21.919 -13.875 -15.258  1.00  0.00    -0.502 OA
ATOM     21  H   UNL     1     -21.047 -13.937 -15.772  1.00  0.00     0.293 HD
ENDBRANCH   2  20
BRANCH   6  22
ATOM     22  O   UNL     1     -26.583 -16.422 -15.615  1.00  0.00    -0.507 OA
ATOM     23  H   UNL     1     -27.463 -15.954 -15.469  1.00  0.00     0.293 HD
ENDBRANCH   6  22
BRANCH   8  24
ATOM     24  O   UNL     1     -26.064 -19.627 -12.076  1.00  0.00    -0.508 OA
ATOM     25  H   UNL     1     -26.081 -20.580 -12.421  1.00  0.00     0.293 HD
ENDBRANCH   8  24
TORSDOF 5
ENDMDL
