MODEL 1
REMARK VINA RESULT:    -3.985      0.000      0.000
REMARK INTER + INTRA:         -10.252
REMARK INTER:                  -7.712
REMARK INTRA:                  -2.540
REMARK UNBOUND:                -2.540
REMARK SMILES CCCCCCCCCCCCCCCCCC(=O)[O-]
REMARK SMILES IDX 10 1 11 2 12 3 13 4 14 5 15 6 16 7 17 8 18 9 19 10 20 11
REMARK SMILES IDX 9 12 8 13 7 14 6 15 5 16 4 17 3 18 2 19 1 20
REMARK H PARENT
REMARK Flexibility Score: inf
ROOT
ATOM      1  C   UNL     1       4.365   0.884  -4.078  1.00  0.00     0.000 C 
ENDROOT
BRANCH   1   2
ATOM      2  C   UNL     1       4.296   0.265  -5.486  1.00  0.00     0.000 C 
BRANCH   2   3
ATOM      3  C   UNL     1       3.217   0.864  -6.406  1.00  0.00     0.000 C 
BRANCH   3   4
ATOM      4  C   UNL     1       2.313   1.879  -5.690  1.00  0.00     0.000 C 
BRANCH   4   5
ATOM      5  C   UNL     1       0.915   1.911  -6.323  1.00  0.00     0.000 C 
BRANCH   5   6
ATOM      6  C   UNL     1      -0.207   1.591  -5.318  1.00  0.00     0.000 C 
BRANCH   6   7
ATOM      7  C   UNL     1       0.194   0.636  -4.179  1.00  0.00     0.006 C 
BRANCH   7   8
ATOM      8  C   UNL     1      -0.215  -0.818  -4.448  1.00  0.00     0.053 C 
BRANCH   8   9
ATOM      9  C   UNL     1       0.959  -1.610  -4.930  1.00  0.00     0.041 C 
ATOM     10  O   UNL     1       1.003  -2.016  -6.121  1.00  0.00    -0.550 OA
ATOM     11  O   UNL     1       1.984  -1.940  -4.051  1.00  0.00    -0.550 OA
ENDBRANCH   8   9
ENDBRANCH   7   8
ENDBRANCH   6   7
ENDBRANCH   5   6
ENDBRANCH   4   5
ENDBRANCH   3   4
ENDBRANCH   2   3
ENDBRANCH   1   2
BRANCH   1  12
ATOM     12  C   UNL     1       5.772   1.374  -3.705  1.00  0.00     0.000 C 
BRANCH  12  13
ATOM     13  C   UNL     1       6.521   1.884  -4.945  1.00  0.00    -0.000 C 
BRANCH  13  14
ATOM     14  C   UNL     1       7.354   3.149  -4.664  1.00  0.00    -0.000 C 
BRANCH  14  15
ATOM     15  C   UNL     1       6.682   4.472  -5.074  1.00  0.00    -0.000 C 
BRANCH  15  16
ATOM     16  C   UNL     1       5.456   4.324  -5.992  1.00  0.00    -0.000 C 
BRANCH  16  17
ATOM     17  C   UNL     1       4.161   4.926  -5.403  1.00  0.00    -0.000 C 
BRANCH  17  18
ATOM     18  C   UNL     1       4.135   4.871  -3.865  1.00  0.00    -0.000 C 
BRANCH  18  19
ATOM     19  C   UNL     1       3.865   6.244  -3.232  1.00  0.00    -0.003 C 
ATOM     20  C   UNL     1       2.722   6.994  -3.915  1.00  0.00     0.004 C 
ENDBRANCH  18  19
ENDBRANCH  17  18
ENDBRANCH  16  17
ENDBRANCH  15  16
ENDBRANCH  14  15
ENDBRANCH  13  14
ENDBRANCH  12  13
ENDBRANCH   1  12
TORSDOF 16
ENDMDL
MODEL 2
REMARK VINA RESULT:    -3.961      0.802      1.207
REMARK INTER + INTRA:         -10.207
REMARK INTER:                  -7.921
REMARK INTRA:                  -2.286
REMARK UNBOUND:                -2.540
REMARK SMILES CCCCCCCCCCCCCCCCCC(=O)[O-]
REMARK SMILES IDX 10 1 11 2 12 3 13 4 14 5 15 6 16 7 17 8 18 9 19 10 20 11
REMARK SMILES IDX 9 12 8 13 7 14 6 15 5 16 4 17 3 18 2 19 1 20
REMARK H PARENT
REMARK Flexibility Score: inf
ROOT
ATOM      1  C   UNL     1       4.215   0.023  -4.135  1.00  0.00     0.000 C 
ENDROOT
BRANCH   1   2
ATOM      2  C   UNL     1       3.465   1.344  -4.385  1.00  0.00     0.000 C 
BRANCH   2   3
ATOM      3  C   UNL     1       3.170   1.651  -5.864  1.00  0.00     0.000 C 
BRANCH   3   4
ATOM      4  C   UNL     1       1.938   2.549  -6.056  1.00  0.00     0.000 C 
BRANCH   4   5
ATOM      5  C   UNL     1       0.721   1.724  -6.497  1.00  0.00     0.000 C 
BRANCH   5   6
ATOM      6  C   UNL     1      -0.321   1.545  -5.377  1.00  0.00     0.000 C 
BRANCH   6   7
ATOM      7  C   UNL     1       0.151   0.700  -4.180  1.00  0.00     0.006 C 
BRANCH   7   8
ATOM      8  C   UNL     1      -0.263  -0.773  -4.288  1.00  0.00     0.053 C 
BRANCH   8   9
ATOM      9  C   UNL     1       0.900  -1.613  -4.713  1.00  0.00     0.041 C 
ATOM     10  O   UNL     1       1.245  -1.650  -5.924  1.00  0.00    -0.550 OA
ATOM     11  O   UNL     1       1.575  -2.389  -3.780  1.00  0.00    -0.550 OA
ENDBRANCH   8   9
ENDBRANCH   7   8
ENDBRANCH   6   7
ENDBRANCH   5   6
ENDBRANCH   4   5
ENDBRANCH   3   4
ENDBRANCH   2   3
ENDBRANCH   1   2
BRANCH   1  12
ATOM     12  C   UNL     1       5.542   0.218  -3.385  1.00  0.00     0.000 C 
BRANCH  12  13
ATOM     13  C   UNL     1       5.887   1.709  -3.260  1.00  0.00    -0.000 C 
BRANCH  13  14
ATOM     14  C   UNL     1       7.067   2.129  -4.157  1.00  0.00    -0.000 C 
BRANCH  14  15
ATOM     15  C   UNL     1       6.672   2.882  -5.440  1.00  0.00    -0.000 C 
BRANCH  15  16
ATOM     16  C   UNL     1       7.158   4.341  -5.515  1.00  0.00    -0.000 C 
BRANCH  16  17
ATOM     17  C   UNL     1       6.171   5.358  -4.900  1.00  0.00    -0.000 C 
BRANCH  17  18
ATOM     18  C   UNL     1       4.702   4.948  -5.106  1.00  0.00    -0.000 C 
BRANCH  18  19
ATOM     19  C   UNL     1       3.892   4.985  -3.801  1.00  0.00    -0.003 C 
ATOM     20  C   UNL     1       3.950   6.346  -3.110  1.00  0.00     0.004 C 
ENDBRANCH  18  19
ENDBRANCH  17  18
ENDBRANCH  16  17
ENDBRANCH  15  16
ENDBRANCH  14  15
ENDBRANCH  13  14
ENDBRANCH  12  13
ENDBRANCH   1  12
TORSDOF 16
ENDMDL
MODEL 3
REMARK VINA RESULT:    -3.933      1.073      3.397
REMARK INTER + INTRA:         -10.151
REMARK INTER:                  -8.056
REMARK INTRA:                  -2.095
REMARK UNBOUND:                -2.540
REMARK SMILES CCCCCCCCCCCCCCCCCC(=O)[O-]
REMARK SMILES IDX 10 1 11 2 12 3 13 4 14 5 15 6 16 7 17 8 18 9 19 10 20 11
REMARK SMILES IDX 9 12 8 13 7 14 6 15 5 16 4 17 3 18 2 19 1 20
REMARK H PARENT
REMARK Flexibility Score: inf
ROOT
ATOM      1  C   UNL     1       3.520   5.396  -3.755  1.00  0.00     0.000 C 
ENDROOT
BRANCH   1   2
ATOM      2  C   UNL     1       3.284   3.876  -3.812  1.00  0.00     0.000 C 
BRANCH   2   3
ATOM      3  C   UNL     1       2.967   3.321  -5.212  1.00  0.00     0.000 C 
BRANCH   3   4
ATOM      4  C   UNL     1       2.635   1.821  -5.202  1.00  0.00     0.000 C 
BRANCH   4   5
ATOM      5  C   UNL     1       1.426   1.521  -6.100  1.00  0.00     0.000 C 
BRANCH   5   6
ATOM      6  C   UNL     1       0.100   1.453  -5.320  1.00  0.00     0.000 C 
BRANCH   6   7
ATOM      7  C   UNL     1       0.139   0.588  -4.047  1.00  0.00     0.006 C 
BRANCH   7   8
ATOM      8  C   UNL     1      -0.227  -0.879  -4.311  1.00  0.00     0.053 C 
BRANCH   8   9
ATOM      9  C   UNL     1       0.950  -1.619  -4.864  1.00  0.00     0.041 C 
ATOM     10  O   UNL     1       1.942  -1.869  -4.131  1.00  0.00    -0.550 OA
ATOM     11  O   UNL     1       0.971  -1.990  -6.203  1.00  0.00    -0.550 OA
ENDBRANCH   8   9
ENDBRANCH   7   8
ENDBRANCH   6   7
ENDBRANCH   5   6
ENDBRANCH   4   5
ENDBRANCH   3   4
ENDBRANCH   2   3
ENDBRANCH   1   2
BRANCH   1  12
ATOM     12  C   UNL     1       5.000   5.781  -3.893  1.00  0.00     0.000 C 
BRANCH  12  13
ATOM     13  C   UNL     1       5.444   5.737  -5.363  1.00  0.00    -0.000 C 
BRANCH  13  14
ATOM     14  C   UNL     1       6.903   5.275  -5.536  1.00  0.00    -0.000 C 
BRANCH  14  15
ATOM     15  C   UNL     1       7.238   3.923  -4.881  1.00  0.00    -0.000 C 
BRANCH  15  16
ATOM     16  C   UNL     1       6.943   2.687  -5.750  1.00  0.00    -0.000 C 
BRANCH  16  17
ATOM     17  C   UNL     1       6.285   1.524  -4.975  1.00  0.00    -0.000 C 
BRANCH  17  18
ATOM     18  C   UNL     1       6.108   1.842  -3.480  1.00  0.00    -0.000 C 
BRANCH  18  19
ATOM     19  C   UNL     1       5.755   0.597  -2.652  1.00  0.00    -0.003 C 
ATOM     20  C   UNL     1       5.024  -0.467  -3.470  1.00  0.00     0.004 C 
ENDBRANCH  18  19
ENDBRANCH  17  18
ENDBRANCH  16  17
ENDBRANCH  15  16
ENDBRANCH  14  15
ENDBRANCH  13  14
ENDBRANCH  12  13
ENDBRANCH   1  12
TORSDOF 16
ENDMDL
MODEL 4
REMARK VINA RESULT:    -3.827      1.272      1.791
REMARK INTER + INTRA:          -9.946
REMARK INTER:                  -7.414
REMARK INTRA:                  -2.533
REMARK UNBOUND:                -2.540
REMARK SMILES CCCCCCCCCCCCCCCCCC(=O)[O-]
REMARK SMILES IDX 10 1 11 2 12 3 13 4 14 5 15 6 16 7 17 8 18 9 19 10 20 11
REMARK SMILES IDX 9 12 8 13 7 14 6 15 5 16 4 17 3 18 2 19 1 20
REMARK H PARENT
REMARK Flexibility Score: inf
ROOT
ATOM      1  C   UNL     1       5.878   1.401  -3.328  1.00  0.00     0.000 C 
ENDROOT
BRANCH   1   2
ATOM      2  C   UNL     1       5.532  -0.014  -3.826  1.00  0.00     0.000 C 
BRANCH   2   3
ATOM      3  C   UNL     1       4.059  -0.218  -4.226  1.00  0.00     0.000 C 
BRANCH   3   4
ATOM      4  C   UNL     1       3.226   1.069  -4.130  1.00  0.00     0.000 C 
BRANCH   4   5
ATOM      5  C   UNL     1       2.143   1.104  -5.218  1.00  0.00     0.000 C 
BRANCH   5   6
ATOM      6  C   UNL     1       0.727   1.307  -4.649  1.00  0.00     0.000 C 
BRANCH   6   7
ATOM      7  C   UNL     1      -0.184   0.068  -4.718  1.00  0.00     0.006 C 
BRANCH   7   8
ATOM      8  C   UNL     1       0.489  -1.131  -5.398  1.00  0.00     0.053 C 
BRANCH   8   9
ATOM      9  C   UNL     1       0.856  -2.168  -4.384  1.00  0.00     0.041 C 
ATOM     10  O   UNL     1       0.526  -2.019  -3.178  1.00  0.00    -0.550 OA
ATOM     11  O   UNL     1       1.604  -3.276  -4.761  1.00  0.00    -0.550 OA
ENDBRANCH   8   9
ENDBRANCH   7   8
ENDBRANCH   6   7
ENDBRANCH   5   6
ENDBRANCH   4   5
ENDBRANCH   3   4
ENDBRANCH   2   3
ENDBRANCH   1   2
BRANCH   1  12
ATOM     12  C   UNL     1       6.716   2.204  -4.333  1.00  0.00     0.000 C 
BRANCH  12  13
ATOM     13  C   UNL     1       7.026   1.366  -5.582  1.00  0.00    -0.000 C 
BRANCH  13  14
ATOM     14  C   UNL     1       6.440   1.971  -6.871  1.00  0.00    -0.000 C 
BRANCH  14  15
ATOM     15  C   UNL     1       5.167   2.815  -6.672  1.00  0.00    -0.000 C 
BRANCH  15  16
ATOM     16  C   UNL     1       5.306   4.301  -7.049  1.00  0.00    -0.000 C 
BRANCH  16  17
ATOM     17  C   UNL     1       4.623   5.262  -6.051  1.00  0.00    -0.000 C 
BRANCH  17  18
ATOM     18  C   UNL     1       3.582   4.549  -5.169  1.00  0.00    -0.000 C 
BRANCH  18  19
ATOM     19  C   UNL     1       3.876   4.706  -3.670  1.00  0.00    -0.003 C 
ATOM     20  C   UNL     1       4.089   6.163  -3.260  1.00  0.00     0.004 C 
ENDBRANCH  18  19
ENDBRANCH  17  18
ENDBRANCH  16  17
ENDBRANCH  15  16
ENDBRANCH  14  15
ENDBRANCH  13  14
ENDBRANCH  12  13
ENDBRANCH   1  12
TORSDOF 16
ENDMDL
MODEL 5
REMARK VINA RESULT:    -3.732      1.159      2.863
REMARK INTER + INTRA:          -9.764
REMARK INTER:                  -6.988
REMARK INTRA:                  -2.776
REMARK UNBOUND:                -2.540
REMARK SMILES CCCCCCCCCCCCCCCCCC(=O)[O-]
REMARK SMILES IDX 10 1 11 2 12 3 13 4 14 5 15 6 16 7 17 8 18 9 19 10 20 11
REMARK SMILES IDX 9 12 8 13 7 14 6 15 5 16 4 17 3 18 2 19 1 20
REMARK H PARENT
REMARK Flexibility Score: inf
ROOT
ATOM      1  C   UNL     1       4.308   1.368  -4.413  1.00  0.00     0.000 C 
ENDROOT
BRANCH   1   2
ATOM      2  C   UNL     1       4.766   1.415  -5.881  1.00  0.00     0.000 C 
BRANCH   2   3
ATOM      3  C   UNL     1       3.817   2.166  -6.833  1.00  0.00     0.000 C 
BRANCH   3   4
ATOM      4  C   UNL     1       2.424   1.525  -6.922  1.00  0.00     0.000 C 
BRANCH   4   5
ATOM      5  C   UNL     1       1.349   2.471  -6.367  1.00  0.00     0.000 C 
BRANCH   5   6
ATOM      6  C   UNL     1       0.185   1.726  -5.688  1.00  0.00     0.000 C 
BRANCH   6   7
ATOM      7  C   UNL     1       0.552   1.002  -4.380  1.00  0.00     0.006 C 
BRANCH   7   8
ATOM      8  C   UNL     1       0.119  -0.470  -4.371  1.00  0.00     0.053 C 
BRANCH   8   9
ATOM      9  C   UNL     1       1.182  -1.330  -4.979  1.00  0.00     0.041 C 
ATOM     10  O   UNL     1       2.246  -1.564  -4.348  1.00  0.00    -0.550 OA
ATOM     11  O   UNL     1       1.017  -1.835  -6.263  1.00  0.00    -0.550 OA
ENDBRANCH   8   9
ENDBRANCH   7   8
ENDBRANCH   6   7
ENDBRANCH   5   6
ENDBRANCH   4   5
ENDBRANCH   3   4
ENDBRANCH   2   3
ENDBRANCH   1   2
BRANCH   1  12
ATOM     12  C   UNL     1       4.632   2.655  -3.640  1.00  0.00     0.000 C 
BRANCH  12  13
ATOM     13  C   UNL     1       3.375   3.519  -3.461  1.00  0.00    -0.000 C 
BRANCH  13  14
ATOM     14  C   UNL     1       3.494   4.898  -4.136  1.00  0.00    -0.000 C 
BRANCH  14  15
ATOM     15  C   UNL     1       4.934   5.417  -4.305  1.00  0.00    -0.000 C 
BRANCH  15  16
ATOM     16  C   UNL     1       5.462   5.416  -5.752  1.00  0.00    -0.000 C 
BRANCH  16  17
ATOM     17  C   UNL     1       6.994   5.577  -5.855  1.00  0.00    -0.000 C 
BRANCH  17  18
ATOM     18  C   UNL     1       7.746   4.704  -4.835  1.00  0.00    -0.000 C 
BRANCH  18  19
ATOM     19  C   UNL     1       7.882   3.245  -5.296  1.00  0.00    -0.003 C 
ATOM     20  C   UNL     1       8.075   3.120  -6.807  1.00  0.00     0.004 C 
ENDBRANCH  18  19
ENDBRANCH  17  18
ENDBRANCH  16  17
ENDBRANCH  15  16
ENDBRANCH  14  15
ENDBRANCH  13  14
ENDBRANCH  12  13
ENDBRANCH   1  12
TORSDOF 16
ENDMDL
MODEL 6
REMARK VINA RESULT:    -3.707      2.516      6.285
REMARK INTER + INTRA:          -9.714
REMARK INTER:                  -7.345
REMARK INTRA:                  -2.369
REMARK UNBOUND:                -2.540
REMARK SMILES CCCCCCCCCCCCCCCCCC(=O)[O-]
REMARK SMILES IDX 10 1 11 2 12 3 13 4 14 5 15 6 16 7 17 8 18 9 19 10 20 11
REMARK SMILES IDX 9 12 8 13 7 14 6 15 5 16 4 17 3 18 2 19 1 20
REMARK H PARENT
REMARK Flexibility Score: inf
ROOT
ATOM      1  C   UNL     1       4.435  -0.454  -4.313  1.00  0.00     0.000 C 
ENDROOT
BRANCH   1   2
ATOM      2  C   UNL     1       5.346   0.250  -3.292  1.00  0.00     0.000 C 
BRANCH   2   3
ATOM      3  C   UNL     1       5.499   1.768  -3.498  1.00  0.00     0.000 C 
BRANCH   3   4
ATOM      4  C   UNL     1       6.820   2.152  -4.181  1.00  0.00     0.000 C 
BRANCH   4   5
ATOM      5  C   UNL     1       6.584   3.186  -5.291  1.00  0.00     0.000 C 
BRANCH   5   6
ATOM      6  C   UNL     1       6.681   4.638  -4.789  1.00  0.00     0.000 C 
BRANCH   6   7
ATOM      7  C   UNL     1       5.672   5.613  -5.422  1.00  0.00     0.006 C 
BRANCH   7   8
ATOM      8  C   UNL     1       4.218   5.146  -5.274  1.00  0.00     0.053 C 
BRANCH   8   9
ATOM      9  C   UNL     1       3.776   5.259  -3.849  1.00  0.00     0.041 C 
ATOM     10  O   UNL     1       4.112   6.259  -3.160  1.00  0.00    -0.550 OA
ATOM     11  O   UNL     1       3.034   4.240  -3.268  1.00  0.00    -0.550 OA
ENDBRANCH   8   9
ENDBRANCH   7   8
ENDBRANCH   6   7
ENDBRANCH   5   6
ENDBRANCH   4   5
ENDBRANCH   3   4
ENDBRANCH   2   3
ENDBRANCH   1   2
BRANCH   1  12
ATOM     12  C   UNL     1       4.741  -0.058  -5.766  1.00  0.00     0.000 C 
BRANCH  12  13
ATOM     13  C   UNL     1       3.463   0.383  -6.494  1.00  0.00    -0.000 C 
BRANCH  13  14
ATOM     14  C   UNL     1       3.110   1.861  -6.244  1.00  0.00    -0.000 C 
BRANCH  14  15
ATOM     15  C   UNL     1       1.686   2.108  -5.714  1.00  0.00    -0.000 C 
BRANCH  15  16
ATOM     16  C   UNL     1       1.313   1.309  -4.451  1.00  0.00    -0.000 C 
BRANCH  16  17
ATOM     17  C   UNL     1      -0.143   0.791  -4.451  1.00  0.00    -0.000 C 
BRANCH  17  18
ATOM     18  C   UNL     1      -0.227  -0.723  -4.192  1.00  0.00    -0.000 C 
BRANCH  18  19
ATOM     19  C   UNL     1       0.881  -1.505  -4.913  1.00  0.00    -0.003 C 
ATOM     20  C   UNL     1       1.363  -2.716  -4.114  1.00  0.00     0.004 C 
ENDBRANCH  18  19
ENDBRANCH  17  18
ENDBRANCH  16  17
ENDBRANCH  15  16
ENDBRANCH  14  15
ENDBRANCH  13  14
ENDBRANCH  12  13
ENDBRANCH   1  12
TORSDOF 16
ENDMDL
MODEL 7
REMARK VINA RESULT:    -3.678      2.978      6.037
REMARK INTER + INTRA:          -9.658
REMARK INTER:                  -7.389
REMARK INTRA:                  -2.270
REMARK UNBOUND:                -2.540
REMARK SMILES CCCCCCCCCCCCCCCCCC(=O)[O-]
REMARK SMILES IDX 10 1 11 2 12 3 13 4 14 5 15 6 16 7 17 8 18 9 19 10 20 11
REMARK SMILES IDX 9 12 8 13 7 14 6 15 5 16 4 17 3 18 2 19 1 20
REMARK H PARENT
REMARK Flexibility Score: inf
ROOT
ATOM      1  C   UNL     1       5.412   0.317  -2.811  1.00  0.00     0.000 C 
ENDROOT
BRANCH   1   2
ATOM      2  C   UNL     1       5.487   1.771  -3.311  1.00  0.00     0.000 C 
BRANCH   2   3
ATOM      3  C   UNL     1       6.733   2.105  -4.150  1.00  0.00     0.000 C 
BRANCH   3   4
ATOM      4  C   UNL     1       6.441   3.086  -5.295  1.00  0.00     0.000 C 
BRANCH   4   5
ATOM      5  C   UNL     1       6.910   4.504  -4.936  1.00  0.00     0.000 C 
BRANCH   5   6
ATOM      6  C   UNL     1       5.775   5.543  -4.989  1.00  0.00     0.000 C 
BRANCH   6   7
ATOM      7  C   UNL     1       4.453   5.095  -4.341  1.00  0.00     0.006 C 
BRANCH   7   8
ATOM      8  C   UNL     1       3.830   6.175  -3.447  1.00  0.00     0.053 C 
BRANCH   8   9
ATOM      9  C   UNL     1       2.666   6.815  -4.136  1.00  0.00     0.041 C 
ATOM     10  O   UNL     1       2.283   7.965  -3.795  1.00  0.00    -0.550 OA
ATOM     11  O   UNL     1       1.975   6.123  -5.123  1.00  0.00    -0.550 OA
ENDBRANCH   8   9
ENDBRANCH   7   8
ENDBRANCH   6   7
ENDBRANCH   5   6
ENDBRANCH   4   5
ENDBRANCH   3   4
ENDBRANCH   2   3
ENDBRANCH   1   2
BRANCH   1  12
ATOM     12  C   UNL     1       5.027  -0.680  -3.915  1.00  0.00     0.000 C 
BRANCH  12  13
ATOM     13  C   UNL     1       3.757  -0.223  -4.647  1.00  0.00    -0.000 C 
BRANCH  13  14
ATOM     14  C   UNL     1       4.030   0.238  -6.091  1.00  0.00    -0.000 C 
BRANCH  14  15
ATOM     15  C   UNL     1       3.296   1.525  -6.511  1.00  0.00    -0.000 C 
BRANCH  15  16
ATOM     16  C   UNL     1       2.382   2.135  -5.434  1.00  0.00    -0.000 C 
BRANCH  16  17
ATOM     17  C   UNL     1       1.008   2.592  -5.971  1.00  0.00    -0.000 C 
BRANCH  17  18
ATOM     18  C   UNL     1      -0.140   1.686  -5.492  1.00  0.00    -0.000 C 
BRANCH  18  19
ATOM     19  C   UNL     1       0.261   0.812  -4.294  1.00  0.00    -0.003 C 
ATOM     20  C   UNL     1       0.090  -0.681  -4.570  1.00  0.00     0.004 C 
ENDBRANCH  18  19
ENDBRANCH  17  18
ENDBRANCH  16  17
ENDBRANCH  15  16
ENDBRANCH  14  15
ENDBRANCH  13  14
ENDBRANCH  12  13
ENDBRANCH   1  12
TORSDOF 16
ENDMDL
MODEL 8
REMARK VINA RESULT:    -3.593      2.442      4.225
REMARK INTER + INTRA:          -9.493
REMARK INTER:                  -6.847
REMARK INTRA:                  -2.646
REMARK UNBOUND:                -2.540
REMARK SMILES CCCCCCCCCCCCCCCCCC(=O)[O-]
REMARK SMILES IDX 10 1 11 2 12 3 13 4 14 5 15 6 16 7 17 8 18 9 19 10 20 11
REMARK SMILES IDX 9 12 8 13 7 14 6 15 5 16 4 17 3 18 2 19 1 20
REMARK H PARENT
REMARK Flexibility Score: inf
ROOT
ATOM      1  C   UNL     1       1.320   2.340  -6.919  1.00  0.00     0.000 C 
ENDROOT
BRANCH   1   2
ATOM      2  C   UNL     1       0.392   1.999  -5.740  1.00  0.00     0.000 C 
BRANCH   2   3
ATOM      3  C   UNL     1       1.090   1.351  -4.531  1.00  0.00     0.000 C 
BRANCH   3   4
ATOM      4  C   UNL     1       1.469  -0.118  -4.772  1.00  0.00     0.000 C 
BRANCH   4   5
ATOM      5  C   UNL     1       2.959  -0.250  -5.118  1.00  0.00     0.000 C 
BRANCH   5   6
ATOM      6  C   UNL     1       3.793  -0.845  -3.968  1.00  0.00     0.000 C 
BRANCH   6   7
ATOM      7  C   UNL     1       5.315  -0.663  -4.108  1.00  0.00     0.006 C 
BRANCH   7   8
ATOM      8  C   UNL     1       5.761  -0.462  -5.562  1.00  0.00     0.053 C 
BRANCH   8   9
ATOM      9  C   UNL     1       6.962  -1.303  -5.860  1.00  0.00     0.041 C 
ATOM     10  O   UNL     1       8.116  -0.802  -5.797  1.00  0.00    -0.550 OA
ATOM     11  O   UNL     1       6.805  -2.626  -6.253  1.00  0.00    -0.550 OA
ENDBRANCH   8   9
ENDBRANCH   7   8
ENDBRANCH   6   7
ENDBRANCH   5   6
ENDBRANCH   4   5
ENDBRANCH   3   4
ENDBRANCH   2   3
ENDBRANCH   1   2
BRANCH   1  12
ATOM     12  C   UNL     1       1.640   3.839  -7.019  1.00  0.00     0.000 C 
BRANCH  12  13
ATOM     13  C   UNL     1       3.157   4.073  -7.066  1.00  0.00    -0.000 C 
BRANCH  13  14
ATOM     14  C   UNL     1       3.966   2.872  -6.541  1.00  0.00    -0.000 C 
BRANCH  14  15
ATOM     15  C   UNL     1       4.999   3.210  -5.450  1.00  0.00    -0.000 C 
BRANCH  15  16
ATOM     16  C   UNL     1       4.519   2.981  -4.005  1.00  0.00    -0.000 C 
BRANCH  16  17
ATOM     17  C   UNL     1       3.555   4.073  -3.490  1.00  0.00    -0.000 C 
BRANCH  17  18
ATOM     18  C   UNL     1       4.075   5.494  -3.768  1.00  0.00    -0.000 C 
BRANCH  18  19
ATOM     19  C   UNL     1       2.970   6.556  -3.661  1.00  0.00    -0.003 C 
ATOM     20  C   UNL     1       2.457   7.012  -5.027  1.00  0.00     0.004 C 
ENDBRANCH  18  19
ENDBRANCH  17  18
ENDBRANCH  16  17
ENDBRANCH  15  16
ENDBRANCH  14  15
ENDBRANCH  13  14
ENDBRANCH  12  13
ENDBRANCH   1  12
TORSDOF 16
ENDMDL
MODEL 9
REMARK VINA RESULT:    -3.560      1.424      4.124
REMARK INTER + INTRA:          -9.429
REMARK INTER:                  -7.313
REMARK INTRA:                  -2.116
REMARK UNBOUND:                -2.540
REMARK SMILES CCCCCCCCCCCCCCCCCC(=O)[O-]
REMARK SMILES IDX 10 1 11 2 12 3 13 4 14 5 15 6 16 7 17 8 18 9 19 10 20 11
REMARK SMILES IDX 9 12 8 13 7 14 6 15 5 16 4 17 3 18 2 19 1 20
REMARK H PARENT
REMARK Flexibility Score: inf
ROOT
ATOM      1  C   UNL     1       1.919   7.101  -5.636  1.00  0.00     0.000 C 
ENDROOT
BRANCH   1   2
ATOM      2  C   UNL     1       2.133   5.790  -6.413  1.00  0.00     0.000 C 
BRANCH   2   3
ATOM      3  C   UNL     1       0.844   5.114  -6.913  1.00  0.00     0.000 C 
BRANCH   3   4
ATOM      4  C   UNL     1       0.856   3.588  -6.733  1.00  0.00     0.000 C 
BRANCH   4   5
ATOM      5  C   UNL     1       2.291   3.067  -6.570  1.00  0.00     0.000 C 
BRANCH   5   6
ATOM      6  C   UNL     1       2.349   1.603  -6.096  1.00  0.00     0.000 C 
BRANCH   6   7
ATOM      7  C   UNL     1       1.579   1.311  -4.795  1.00  0.00     0.006 C 
BRANCH   7   8
ATOM      8  C   UNL     1       0.437   0.305  -4.990  1.00  0.00     0.053 C 
BRANCH   8   9
ATOM      9  C   UNL     1       0.975  -1.090  -5.041  1.00  0.00     0.041 C 
ATOM     10  O   UNL     1       1.497  -1.605  -4.017  1.00  0.00    -0.550 OA
ATOM     11  O   UNL     1       0.942  -1.805  -6.232  1.00  0.00    -0.550 OA
ENDBRANCH   8   9
ENDBRANCH   7   8
ENDBRANCH   6   7
ENDBRANCH   5   6
ENDBRANCH   4   5
ENDBRANCH   3   4
ENDBRANCH   2   3
ENDBRANCH   1   2
BRANCH   1  12
ATOM     12  C   UNL     1       2.516   7.067  -4.221  1.00  0.00     0.000 C 
BRANCH  12  13
ATOM     13  C   UNL     1       3.147   5.698  -3.926  1.00  0.00    -0.000 C 
BRANCH  13  14
ATOM     14  C   UNL     1       4.667   5.777  -3.692  1.00  0.00    -0.000 C 
BRANCH  14  15
ATOM     15  C   UNL     1       5.532   5.331  -4.885  1.00  0.00    -0.000 C 
BRANCH  15  16
ATOM     16  C   UNL     1       5.496   3.822  -5.189  1.00  0.00    -0.000 C 
BRANCH  16  17
ATOM     17  C   UNL     1       5.106   2.953  -3.972  1.00  0.00    -0.000 C 
BRANCH  17  18
ATOM     18  C   UNL     1       6.131   1.839  -3.694  1.00  0.00    -0.000 C 
BRANCH  18  19
ATOM     19  C   UNL     1       5.522   0.657  -2.926  1.00  0.00    -0.003 C 
ATOM     20  C   UNL     1       4.833  -0.351  -3.846  1.00  0.00     0.004 C 
ENDBRANCH  18  19
ENDBRANCH  17  18
ENDBRANCH  16  17
ENDBRANCH  15  16
ENDBRANCH  14  15
ENDBRANCH  13  14
ENDBRANCH  12  13
ENDBRANCH   1  12
TORSDOF 16
ENDMDL
