MODEL 1
REMARK VINA RESULT:    -5.342      0.000      0.000
REMARK INTER + INTRA:         -12.801
REMARK INTER:                 -10.027
REMARK INTRA:                  -2.774
REMARK UNBOUND:                -2.774
REMARK SMILES CCCCCCCCC=CCCCCCCCC(=O)[O-]
REMARK SMILES IDX 10 1 9 2 11 3 12 4 13 5 14 6 15 7 16 8 17 9 18 10 19 11
REMARK SMILES IDX 20 12 8 13 7 14 6 15 5 16 4 17 3 18 2 19 1 20
REMARK H PARENT
REMARK Flexibility Score: inf
ROOT
ATOM      1  C   UNL     1     -15.247   4.755 -23.713  1.00  0.00    -0.031 C 
ATOM      2  C   UNL     1     -14.818   5.639 -22.799  1.00  0.00    -0.031 C 
ENDROOT
BRANCH   1   3
ATOM      3  C   UNL     1     -16.544   4.937 -24.458  1.00  0.00     0.027 C 
BRANCH   3   4
ATOM      4  C   UNL     1     -17.777   5.047 -23.540  1.00  0.00     0.004 C 
BRANCH   4   5
ATOM      5  C   UNL     1     -17.838   4.008 -22.408  1.00  0.00     0.000 C 
BRANCH   5   6
ATOM      6  C   UNL     1     -17.670   4.626 -21.012  1.00  0.00     0.000 C 
BRANCH   6   7
ATOM      7  C   UNL     1     -16.778   3.763 -20.106  1.00  0.00     0.000 C 
BRANCH   7   8
ATOM      8  C   UNL     1     -16.179   2.557 -20.850  1.00  0.00     0.006 C 
BRANCH   8   9
ATOM      9  C   UNL     1     -14.725   2.321 -20.428  1.00  0.00     0.053 C 
BRANCH   9  10
ATOM     10  C   UNL     1     -14.023   1.441 -21.418  1.00  0.00     0.041 C 
ATOM     11  O   UNL     1     -13.748   1.872 -22.570  1.00  0.00    -0.550 OA
ATOM     12  O   UNL     1     -13.673   0.142 -21.068  1.00  0.00    -0.550 OA
ENDBRANCH   9  10
ENDBRANCH   8   9
ENDBRANCH   7   8
ENDBRANCH   6   7
ENDBRANCH   5   6
ENDBRANCH   4   5
ENDBRANCH   3   4
ENDBRANCH   1   3
BRANCH   2  13
ATOM     13  C   UNL     1     -13.524   5.404 -22.065  1.00  0.00     0.027 C 
BRANCH  13  14
ATOM     14  C   UNL     1     -13.383   6.292 -20.816  1.00  0.00     0.004 C 
BRANCH  14  15
ATOM     15  C   UNL     1     -14.715   6.908 -20.342  1.00  0.00     0.000 C 
BRANCH  15  16
ATOM     16  C   UNL     1     -14.625   8.417 -20.029  1.00  0.00     0.000 C 
BRANCH  16  17
ATOM     17  C   UNL     1     -14.976   9.332 -21.221  1.00  0.00    -0.000 C 
BRANCH  17  18
ATOM     18  C   UNL     1     -16.177   8.843 -22.057  1.00  0.00    -0.000 C 
BRANCH  18  19
ATOM     19  C   UNL     1     -15.915   8.939 -23.569  1.00  0.00    -0.003 C 
ATOM     20  C   UNL     1     -17.223   8.875 -24.356  1.00  0.00     0.004 C 
ENDBRANCH  18  19
ENDBRANCH  17  18
ENDBRANCH  16  17
ENDBRANCH  15  16
ENDBRANCH  14  15
ENDBRANCH  13  14
ENDBRANCH   2  13
TORSDOF 15
ENDMDL
MODEL 2
REMARK VINA RESULT:    -5.279      1.101      3.056
REMARK INTER + INTRA:         -12.683
REMARK INTER:                  -9.662
REMARK INTRA:                  -3.021
REMARK UNBOUND:                -2.774
REMARK SMILES CCCCCCCCC=CCCCCCCCC(=O)[O-]
REMARK SMILES IDX 10 1 9 2 11 3 12 4 13 5 14 6 15 7 16 8 17 9 18 10 19 11
REMARK SMILES IDX 20 12 8 13 7 14 6 15 5 16 4 17 3 18 2 19 1 20
REMARK H PARENT
REMARK Flexibility Score: inf
ROOT
ATOM      1  C   UNL     1     -14.870   5.719 -22.710  1.00  0.00    -0.031 C 
ATOM      2  C   UNL     1     -15.053   5.026 -23.844  1.00  0.00    -0.031 C 
ENDROOT
BRANCH   1   3
ATOM      3  C   UNL     1     -14.096   5.160 -21.544  1.00  0.00     0.027 C 
BRANCH   3   4
ATOM      4  C   UNL     1     -14.878   5.177 -20.216  1.00  0.00     0.004 C 
BRANCH   4   5
ATOM      5  C   UNL     1     -16.403   5.315 -20.361  1.00  0.00     0.000 C 
BRANCH   5   6
ATOM      6  C   UNL     1     -17.141   3.970 -20.273  1.00  0.00     0.000 C 
BRANCH   6   7
ATOM      7  C   UNL     1     -17.733   3.552 -21.628  1.00  0.00     0.000 C 
BRANCH   7   8
ATOM      8  C   UNL     1     -16.960   2.389 -22.273  1.00  0.00     0.006 C 
BRANCH   8   9
ATOM      9  C   UNL     1     -15.958   1.783 -21.283  1.00  0.00     0.053 C 
BRANCH   9  10
ATOM     10  C   UNL     1     -14.663   1.468 -21.968  1.00  0.00     0.041 C 
ATOM     11  O   UNL     1     -13.675   1.058 -21.302  1.00  0.00    -0.550 OA
ATOM     12  O   UNL     1     -14.548   1.628 -23.344  1.00  0.00    -0.550 OA
ENDBRANCH   9  10
ENDBRANCH   8   9
ENDBRANCH   7   8
ENDBRANCH   6   7
ENDBRANCH   5   6
ENDBRANCH   4   5
ENDBRANCH   3   4
ENDBRANCH   1   3
BRANCH   2  13
ATOM     13  C   UNL     1     -15.851   5.619 -24.975  1.00  0.00     0.027 C 
BRANCH  13  14
ATOM     14  C   UNL     1     -16.724   6.804 -24.525  1.00  0.00     0.004 C 
BRANCH  14  15
ATOM     15  C   UNL     1     -16.065   8.180 -24.750  1.00  0.00     0.000 C 
BRANCH  15  16
ATOM     16  C   UNL     1     -16.450   9.234 -23.689  1.00  0.00     0.000 C 
BRANCH  16  17
ATOM     17  C   UNL     1     -17.142   8.651 -22.440  1.00  0.00    -0.000 C 
BRANCH  17  18
ATOM     18  C   UNL     1     -16.328   8.808 -21.138  1.00  0.00    -0.000 C 
BRANCH  18  19
ATOM     19  C   UNL     1     -14.874   9.228 -21.405  1.00  0.00    -0.003 C 
ATOM     20  C   UNL     1     -13.969   8.842 -20.237  1.00  0.00     0.004 C 
ENDBRANCH  18  19
ENDBRANCH  17  18
ENDBRANCH  16  17
ENDBRANCH  15  16
ENDBRANCH  14  15
ENDBRANCH  13  14
ENDBRANCH   2  13
TORSDOF 15
ENDMDL
MODEL 3
REMARK VINA RESULT:    -5.246      2.535      6.084
REMARK INTER + INTRA:         -12.622
REMARK INTER:                  -9.807
REMARK INTRA:                  -2.814
REMARK UNBOUND:                -2.774
REMARK SMILES CCCCCCCCC=CCCCCCCCC(=O)[O-]
REMARK SMILES IDX 10 1 9 2 11 3 12 4 13 5 14 6 15 7 16 8 17 9 18 10 19 11
REMARK SMILES IDX 20 12 8 13 7 14 6 15 5 16 4 17 3 18 2 19 1 20
REMARK H PARENT
REMARK Flexibility Score: inf
ROOT
ATOM      1  C   UNL     1     -14.269   5.780 -21.373  1.00  0.00    -0.031 C 
ATOM      2  C   UNL     1     -14.441   5.442 -22.660  1.00  0.00    -0.031 C 
ENDROOT
BRANCH   1   3
ATOM      3  C   UNL     1     -13.074   6.568 -20.903  1.00  0.00     0.027 C 
BRANCH   3   4
ATOM      4  C   UNL     1     -13.423   7.978 -20.388  1.00  0.00     0.004 C 
BRANCH   4   5
ATOM      5  C   UNL     1     -14.878   8.156 -19.920  1.00  0.00     0.000 C 
BRANCH   5   6
ATOM      6  C   UNL     1     -15.648   9.208 -20.732  1.00  0.00     0.000 C 
BRANCH   6   7
ATOM      7  C   UNL     1     -16.571   8.562 -21.778  1.00  0.00     0.000 C 
BRANCH   7   8
ATOM      8  C   UNL     1     -16.115   8.848 -23.219  1.00  0.00     0.006 C 
BRANCH   8   9
ATOM      9  C   UNL     1     -17.256   8.599 -24.212  1.00  0.00     0.053 C 
BRANCH   9  10
ATOM     10  C   UNL     1     -16.917   7.465 -25.132  1.00  0.00     0.041 C 
ATOM     11  O   UNL     1     -17.830   6.752 -25.626  1.00  0.00    -0.550 OA
ATOM     12  O   UNL     1     -15.589   7.196 -25.443  1.00  0.00    -0.550 OA
ENDBRANCH   9  10
ENDBRANCH   8   9
ENDBRANCH   7   8
ENDBRANCH   6   7
ENDBRANCH   5   6
ENDBRANCH   4   5
ENDBRANCH   3   4
ENDBRANCH   1   3
BRANCH   2  13
ATOM     13  C   UNL     1     -15.642   4.637 -23.079  1.00  0.00     0.027 C 
BRANCH  13  14
ATOM     14  C   UNL     1     -16.874   4.911 -22.198  1.00  0.00     0.004 C 
BRANCH  14  15
ATOM     15  C   UNL     1     -17.340   3.684 -21.388  1.00  0.00     0.000 C 
BRANCH  15  16
ATOM     16  C   UNL     1     -16.732   3.606 -19.971  1.00  0.00     0.000 C 
BRANCH  16  17
ATOM     17  C   UNL     1     -15.581   2.588 -19.833  1.00  0.00    -0.000 C 
BRANCH  17  18
ATOM     18  C   UNL     1     -15.512   1.557 -20.978  1.00  0.00    -0.000 C 
BRANCH  18  19
ATOM     19  C   UNL     1     -14.159   1.582 -21.707  1.00  0.00    -0.003 C 
ATOM     20  C   UNL     1     -14.334   1.291 -23.197  1.00  0.00     0.004 C 
ENDBRANCH  18  19
ENDBRANCH  17  18
ENDBRANCH  16  17
ENDBRANCH  15  16
ENDBRANCH  14  15
ENDBRANCH  13  14
ENDBRANCH   2  13
TORSDOF 15
ENDMDL
MODEL 4
REMARK VINA RESULT:    -5.241      2.059      3.325
REMARK INTER + INTRA:         -12.611
REMARK INTER:                 -10.039
REMARK INTRA:                  -2.572
REMARK UNBOUND:                -2.774
REMARK SMILES CCCCCCCCC=CCCCCCCCC(=O)[O-]
REMARK SMILES IDX 10 1 9 2 11 3 12 4 13 5 14 6 15 7 16 8 17 9 18 10 19 11
REMARK SMILES IDX 20 12 8 13 7 14 6 15 5 16 4 17 3 18 2 19 1 20
REMARK H PARENT
REMARK Flexibility Score: inf
ROOT
ATOM      1  C   UNL     1     -14.331   5.325 -22.286  1.00  0.00    -0.031 C 
ATOM      2  C   UNL     1     -13.569   5.811 -21.294  1.00  0.00    -0.031 C 
ENDROOT
BRANCH   1   3
ATOM      3  C   UNL     1     -13.787   4.382 -23.327  1.00  0.00     0.027 C 
BRANCH   3   4
ATOM      4  C   UNL     1     -13.929   2.894 -22.951  1.00  0.00     0.004 C 
BRANCH   4   5
ATOM      5  C   UNL     1     -14.924   2.099 -23.813  1.00  0.00     0.000 C 
BRANCH   5   6
ATOM      6  C   UNL     1     -15.836   2.995 -24.664  1.00  0.00     0.000 C 
BRANCH   6   7
ATOM      7  C   UNL     1     -17.287   2.982 -24.158  1.00  0.00     0.000 C 
BRANCH   7   8
ATOM      8  C   UNL     1     -17.531   4.018 -23.048  1.00  0.00     0.006 C 
BRANCH   8   9
ATOM      9  C   UNL     1     -17.891   3.329 -21.727  1.00  0.00     0.053 C 
BRANCH   9  10
ATOM     10  C   UNL     1     -17.177   3.978 -20.580  1.00  0.00     0.041 C 
ATOM     11  O   UNL     1     -16.369   3.315 -19.877  1.00  0.00    -0.550 OA
ATOM     12  O   UNL     1     -17.405   5.318 -20.288  1.00  0.00    -0.550 OA
ENDBRANCH   9  10
ENDBRANCH   8   9
ENDBRANCH   7   8
ENDBRANCH   6   7
ENDBRANCH   5   6
ENDBRANCH   4   5
ENDBRANCH   3   4
ENDBRANCH   1   3
BRANCH   2  13
ATOM     13  C   UNL     1     -14.153   6.767 -20.287  1.00  0.00     0.027 C 
BRANCH  13  14
ATOM     14  C   UNL     1     -13.545   8.177 -20.390  1.00  0.00     0.004 C 
BRANCH  14  15
ATOM     15  C   UNL     1     -14.515   9.229 -20.965  1.00  0.00     0.000 C 
BRANCH  15  16
ATOM     16  C   UNL     1     -15.936   8.685 -21.231  1.00  0.00     0.000 C 
BRANCH  16  17
ATOM     17  C   UNL     1     -16.470   8.980 -22.648  1.00  0.00    -0.000 C 
BRANCH  17  18
ATOM     18  C   UNL     1     -16.609   7.730 -23.541  1.00  0.00    -0.000 C 
BRANCH  18  19
ATOM     19  C   UNL     1     -15.900   7.895 -24.895  1.00  0.00    -0.003 C 
ATOM     20  C   UNL     1     -15.779   6.555 -25.617  1.00  0.00     0.004 C 
ENDBRANCH  18  19
ENDBRANCH  17  18
ENDBRANCH  16  17
ENDBRANCH  15  16
ENDBRANCH  14  15
ENDBRANCH  13  14
ENDBRANCH   2  13
TORSDOF 15
ENDMDL
MODEL 5
REMARK VINA RESULT:    -5.234      1.313      1.898
REMARK INTER + INTRA:         -12.599
REMARK INTER:                 -10.593
REMARK INTRA:                  -2.006
REMARK UNBOUND:                -2.774
REMARK SMILES CCCCCCCCC=CCCCCCCCC(=O)[O-]
REMARK SMILES IDX 10 1 9 2 11 3 12 4 13 5 14 6 15 7 16 8 17 9 18 10 19 11
REMARK SMILES IDX 20 12 8 13 7 14 6 15 5 16 4 17 3 18 2 19 1 20
REMARK H PARENT
REMARK Flexibility Score: inf
ROOT
ATOM      1  C   UNL     1     -13.834   4.947 -22.440  1.00  0.00    -0.031 C 
ATOM      2  C   UNL     1     -14.103   5.848 -21.483  1.00  0.00    -0.031 C 
ENDROOT
BRANCH   1   3
ATOM      3  C   UNL     1     -14.919   4.154 -23.122  1.00  0.00     0.027 C 
BRANCH   3   4
ATOM      4  C   UNL     1     -16.307   4.821 -23.061  1.00  0.00     0.004 C 
BRANCH   4   5
ATOM      5  C   UNL     1     -17.239   4.280 -21.964  1.00  0.00     0.000 C 
BRANCH   5   6
ATOM      6  C   UNL     1     -16.747   2.959 -21.352  1.00  0.00     0.000 C 
BRANCH   6   7
ATOM      7  C   UNL     1     -16.348   3.123 -19.878  1.00  0.00     0.000 C 
BRANCH   7   8
ATOM      8  C   UNL     1     -15.222   2.161 -19.464  1.00  0.00     0.006 C 
BRANCH   8   9
ATOM      9  C   UNL     1     -14.727   1.349 -20.667  1.00  0.00     0.053 C 
BRANCH   9  10
ATOM     10  C   UNL     1     -14.879  -0.120 -20.412  1.00  0.00     0.041 C 
ATOM     11  O   UNL     1     -14.338  -0.650 -19.405  1.00  0.00    -0.550 OA
ATOM     12  O   UNL     1     -15.618  -0.905 -21.290  1.00  0.00    -0.550 OA
ENDBRANCH   9  10
ENDBRANCH   8   9
ENDBRANCH   7   8
ENDBRANCH   6   7
ENDBRANCH   5   6
ENDBRANCH   4   5
ENDBRANCH   3   4
ENDBRANCH   1   3
BRANCH   2  13
ATOM     13  C   UNL     1     -12.983   6.603 -20.816  1.00  0.00     0.027 C 
BRANCH  13  14
ATOM     14  C   UNL     1     -13.421   7.993 -20.320  1.00  0.00     0.004 C 
BRANCH  14  15
ATOM     15  C   UNL     1     -14.950   8.187 -20.294  1.00  0.00     0.000 C 
BRANCH  15  16
ATOM     16  C   UNL     1     -15.498   8.977 -21.502  1.00  0.00     0.000 C 
BRANCH  16  17
ATOM     17  C   UNL     1     -16.810   8.412 -22.085  1.00  0.00    -0.000 C 
BRANCH  17  18
ATOM     18  C   UNL     1     -17.281   9.117 -23.374  1.00  0.00    -0.000 C 
BRANCH  18  19
ATOM     19  C   UNL     1     -16.197   9.128 -24.464  1.00  0.00    -0.003 C 
ATOM     20  C   UNL     1     -15.876   7.710 -24.932  1.00  0.00     0.004 C 
ENDBRANCH  18  19
ENDBRANCH  17  18
ENDBRANCH  16  17
ENDBRANCH  15  16
ENDBRANCH  14  15
ENDBRANCH  13  14
ENDBRANCH   2  13
TORSDOF 15
ENDMDL
MODEL 6
REMARK VINA RESULT:    -5.234      2.669      5.878
REMARK INTER + INTRA:         -12.598
REMARK INTER:                  -9.375
REMARK INTRA:                  -3.223
REMARK UNBOUND:                -2.774
REMARK SMILES CCCCCCCCC=CCCCCCCCC(=O)[O-]
REMARK SMILES IDX 10 1 9 2 11 3 12 4 13 5 14 6 15 7 16 8 17 9 18 10 19 11
REMARK SMILES IDX 20 12 8 13 7 14 6 15 5 16 4 17 3 18 2 19 1 20
REMARK H PARENT
REMARK Flexibility Score: inf
ROOT
ATOM      1  C   UNL     1     -17.407   3.577 -21.726  1.00  0.00    -0.031 C 
ATOM      2  C   UNL     1     -16.929   3.960 -20.532  1.00  0.00    -0.031 C 
ENDROOT
BRANCH   1   3
ATOM      3  C   UNL     1     -17.949   4.564 -22.728  1.00  0.00     0.027 C 
BRANCH   3   4
ATOM      4  C   UNL     1     -17.440   4.333 -24.164  1.00  0.00     0.004 C 
BRANCH   4   5
ATOM      5  C   UNL     1     -15.969   3.895 -24.269  1.00  0.00     0.000 C 
BRANCH   5   6
ATOM      6  C   UNL     1     -14.979   5.039 -23.999  1.00  0.00     0.000 C 
BRANCH   6   7
ATOM      7  C   UNL     1     -14.008   4.699 -22.858  1.00  0.00     0.000 C 
BRANCH   7   8
ATOM      8  C   UNL     1     -14.035   5.747 -21.733  1.00  0.00     0.006 C 
BRANCH   8   9
ATOM      9  C   UNL     1     -15.087   6.826 -22.016  1.00  0.00     0.053 C 
BRANCH   9  10
ATOM     10  C   UNL     1     -15.218   7.756 -20.847  1.00  0.00     0.041 C 
ATOM     11  O   UNL     1     -15.065   8.997 -21.001  1.00  0.00    -0.550 OA
ATOM     12  O   UNL     1     -15.510   7.249 -19.586  1.00  0.00    -0.550 OA
ENDBRANCH   9  10
ENDBRANCH   8   9
ENDBRANCH   7   8
ENDBRANCH   6   7
ENDBRANCH   5   6
ENDBRANCH   4   5
ENDBRANCH   3   4
ENDBRANCH   1   3
BRANCH   2  13
ATOM     13  C   UNL     1     -16.417   2.934 -19.556  1.00  0.00     0.027 C 
BRANCH  13  14
ATOM     14  C   UNL     1     -14.930   2.601 -19.776  1.00  0.00     0.004 C 
BRANCH  14  15
ATOM     15  C   UNL     1     -14.697   1.240 -20.462  1.00  0.00     0.000 C 
BRANCH  15  16
ATOM     16  C   UNL     1     -13.728   1.307 -21.663  1.00  0.00     0.000 C 
BRANCH  16  17
ATOM     17  C   UNL     1     -14.358   0.889 -23.008  1.00  0.00    -0.000 C 
BRANCH  17  18
ATOM     18  C   UNL     1     -15.542  -0.091 -22.871  1.00  0.00    -0.000 C 
BRANCH  18  19
ATOM     19  C   UNL     1     -16.822   0.440 -23.534  1.00  0.00    -0.003 C 
ATOM     20  C   UNL     1     -18.043   0.180 -22.655  1.00  0.00     0.004 C 
ENDBRANCH  18  19
ENDBRANCH  17  18
ENDBRANCH  16  17
ENDBRANCH  15  16
ENDBRANCH  14  15
ENDBRANCH  13  14
ENDBRANCH   2  13
TORSDOF 15
ENDMDL
MODEL 7
REMARK VINA RESULT:    -5.169      2.262      4.674
REMARK INTER + INTRA:         -12.477
REMARK INTER:                 -10.282
REMARK INTRA:                  -2.195
REMARK UNBOUND:                -2.774
REMARK SMILES CCCCCCCCC=CCCCCCCCC(=O)[O-]
REMARK SMILES IDX 10 1 9 2 11 3 12 4 13 5 14 6 15 7 16 8 17 9 18 10 19 11
REMARK SMILES IDX 20 12 8 13 7 14 6 15 5 16 4 17 3 18 2 19 1 20
REMARK H PARENT
REMARK Flexibility Score: inf
ROOT
ATOM      1  C   UNL     1     -15.117   1.125 -19.493  1.00  0.00    -0.031 C 
ATOM      2  C   UNL     1     -14.671   2.014 -20.395  1.00  0.00    -0.031 C 
ENDROOT
BRANCH   1   3
ATOM      3  C   UNL     1     -14.712  -0.326 -19.529  1.00  0.00     0.027 C 
BRANCH   3   4
ATOM      4  C   UNL     1     -14.029  -0.747 -20.844  1.00  0.00     0.004 C 
BRANCH   4   5
ATOM      5  C   UNL     1     -14.906  -1.584 -21.791  1.00  0.00     0.000 C 
BRANCH   5   6
ATOM      6  C   UNL     1     -15.588  -0.743 -22.882  1.00  0.00     0.000 C 
BRANCH   6   7
ATOM      7  C   UNL     1     -16.970  -0.240 -22.437  1.00  0.00     0.000 C 
BRANCH   7   8
ATOM      8  C   UNL     1     -17.371   1.069 -23.137  1.00  0.00     0.006 C 
BRANCH   8   9
ATOM      9  C   UNL     1     -16.156   1.728 -23.801  1.00  0.00     0.053 C 
BRANCH   9  10
ATOM     10  C   UNL     1     -16.309   3.219 -23.822  1.00  0.00     0.041 C 
ATOM     11  O   UNL     1     -17.456   3.741 -23.835  1.00  0.00    -0.550 OA
ATOM     12  O   UNL     1     -15.182   4.033 -23.827  1.00  0.00    -0.550 OA
ENDBRANCH   9  10
ENDBRANCH   8   9
ENDBRANCH   7   8
ENDBRANCH   6   7
ENDBRANCH   5   6
ENDBRANCH   4   5
ENDBRANCH   3   4
ENDBRANCH   1   3
BRANCH   2  13
ATOM     13  C   UNL     1     -15.119   3.450 -20.330  1.00  0.00     0.027 C 
BRANCH  13  14
ATOM     14  C   UNL     1     -16.649   3.588 -20.235  1.00  0.00     0.004 C 
BRANCH  14  15
ATOM     15  C   UNL     1     -17.147   5.044 -20.329  1.00  0.00     0.000 C 
BRANCH  15  16
ATOM     16  C   UNL     1     -16.131   6.007 -20.982  1.00  0.00     0.000 C 
BRANCH  16  17
ATOM     17  C   UNL     1     -15.415   6.942 -19.985  1.00  0.00    -0.000 C 
BRANCH  17  18
ATOM     18  C   UNL     1     -13.961   7.282 -20.375  1.00  0.00    -0.000 C 
BRANCH  18  19
ATOM     19  C   UNL     1     -13.670   8.789 -20.289  1.00  0.00    -0.003 C 
ATOM     20  C   UNL     1     -14.793   9.602 -20.930  1.00  0.00     0.004 C 
ENDBRANCH  18  19
ENDBRANCH  17  18
ENDBRANCH  16  17
ENDBRANCH  15  16
ENDBRANCH  14  15
ENDBRANCH  13  14
ENDBRANCH   2  13
TORSDOF 15
ENDMDL
MODEL 8
REMARK VINA RESULT:    -5.103      2.726      6.000
REMARK INTER + INTRA:         -12.353
REMARK INTER:                  -9.460
REMARK INTRA:                  -2.893
REMARK UNBOUND:                -2.774
REMARK SMILES CCCCCCCCC=CCCCCCCCC(=O)[O-]
REMARK SMILES IDX 10 1 9 2 11 3 12 4 13 5 14 6 15 7 16 8 17 9 18 10 19 11
REMARK SMILES IDX 20 12 8 13 7 14 6 15 5 16 4 17 3 18 2 19 1 20
REMARK H PARENT
REMARK Flexibility Score: inf
ROOT
ATOM      1  C   UNL     1     -14.904   4.278 -22.109  1.00  0.00    -0.031 C 
ATOM      2  C   UNL     1     -16.148   3.938 -21.739  1.00  0.00    -0.031 C 
ENDROOT
BRANCH   1   3
ATOM      3  C   UNL     1     -14.611   4.921 -23.440  1.00  0.00     0.027 C 
BRANCH   3   4
ATOM      4  C   UNL     1     -15.808   4.913 -24.410  1.00  0.00     0.004 C 
BRANCH   4   5
ATOM      5  C   UNL     1     -16.021   6.222 -25.189  1.00  0.00     0.000 C 
BRANCH   5   6
ATOM      6  C   UNL     1     -16.212   7.443 -24.276  1.00  0.00     0.000 C 
BRANCH   6   7
ATOM      7  C   UNL     1     -17.449   7.298 -23.376  1.00  0.00     0.000 C 
BRANCH   7   8
ATOM      8  C   UNL     1     -17.177   7.739 -21.928  1.00  0.00     0.006 C 
BRANCH   8   9
ATOM      9  C   UNL     1     -15.687   8.034 -21.717  1.00  0.00     0.053 C 
BRANCH   9  10
ATOM     10  C   UNL     1     -15.320   7.891 -20.271  1.00  0.00     0.041 C 
ATOM     11  O   UNL     1     -14.794   8.853 -19.650  1.00  0.00    -0.550 OA
ATOM     12  O   UNL     1     -15.558   6.692 -19.609  1.00  0.00    -0.550 OA
ENDBRANCH   9  10
ENDBRANCH   8   9
ENDBRANCH   7   8
ENDBRANCH   6   7
ENDBRANCH   5   6
ENDBRANCH   4   5
ENDBRANCH   3   4
ENDBRANCH   1   3
BRANCH   2  13
ATOM     13  C   UNL     1     -16.390   3.280 -20.406  1.00  0.00     0.027 C 
BRANCH  13  14
ATOM     14  C   UNL     1     -15.105   2.693 -19.795  1.00  0.00     0.004 C 
BRANCH  14  15
ATOM     15  C   UNL     1     -14.961   1.171 -20.000  1.00  0.00     0.000 C 
BRANCH  15  16
ATOM     16  C   UNL     1     -14.142   0.786 -21.252  1.00  0.00     0.000 C 
BRANCH  16  17
ATOM     17  C   UNL     1     -15.001   0.421 -22.481  1.00  0.00    -0.000 C 
BRANCH  17  18
ATOM     18  C   UNL     1     -16.313  -0.315 -22.135  1.00  0.00    -0.000 C 
BRANCH  18  19
ATOM     19  C   UNL     1     -17.545   0.362 -22.758  1.00  0.00    -0.003 C 
ATOM     20  C   UNL     1     -17.148   1.231 -23.950  1.00  0.00     0.004 C 
ENDBRANCH  18  19
ENDBRANCH  17  18
ENDBRANCH  16  17
ENDBRANCH  15  16
ENDBRANCH  14  15
ENDBRANCH  13  14
ENDBRANCH   2  13
TORSDOF 15
ENDMDL
MODEL 9
REMARK VINA RESULT:    -5.071      1.217      3.060
REMARK INTER + INTRA:         -12.292
REMARK INTER:                  -9.688
REMARK INTRA:                  -2.604
REMARK UNBOUND:                -2.774
REMARK SMILES CCCCCCCCC=CCCCCCCCC(=O)[O-]
REMARK SMILES IDX 10 1 9 2 11 3 12 4 13 5 14 6 15 7 16 8 17 9 18 10 19 11
REMARK SMILES IDX 20 12 8 13 7 14 6 15 5 16 4 17 3 18 2 19 1 20
REMARK H PARENT
REMARK Flexibility Score: inf
ROOT
ATOM      1  C   UNL     1     -16.803   5.102 -23.646  1.00  0.00    -0.031 C 
ATOM      2  C   UNL     1     -15.658   5.758 -23.889  1.00  0.00    -0.031 C 
ENDROOT
BRANCH   1   3
ATOM      3  C   UNL     1     -16.910   4.039 -22.584  1.00  0.00     0.027 C 
BRANCH   3   4
ATOM      4  C   UNL     1     -17.499   4.547 -21.254  1.00  0.00     0.004 C 
BRANCH   4   5
ATOM      5  C   UNL     1     -16.934   3.871 -19.993  1.00  0.00     0.000 C 
BRANCH   5   6
ATOM      6  C   UNL     1     -15.534   3.275 -20.204  1.00  0.00     0.000 C 
BRANCH   6   7
ATOM      7  C   UNL     1     -15.332   1.985 -19.394  1.00  0.00     0.000 C 
BRANCH   7   8
ATOM      8  C   UNL     1     -14.809   0.825 -20.257  1.00  0.00     0.006 C 
BRANCH   8   9
ATOM      9  C   UNL     1     -15.566   0.750 -21.588  1.00  0.00     0.053 C 
BRANCH   9  10
ATOM     10  C   UNL     1     -14.607   0.720 -22.740  1.00  0.00     0.041 C 
ATOM     11  O   UNL     1     -14.317  -0.371 -23.298  1.00  0.00    -0.550 OA
ATOM     12  O   UNL     1     -14.034   1.902 -23.197  1.00  0.00    -0.550 OA
ENDBRANCH   9  10
ENDBRANCH   8   9
ENDBRANCH   7   8
ENDBRANCH   6   7
ENDBRANCH   5   6
ENDBRANCH   4   5
ENDBRANCH   3   4
ENDBRANCH   1   3
BRANCH   2  13
ATOM     13  C   UNL     1     -15.595   6.800 -24.975  1.00  0.00     0.027 C 
BRANCH  13  14
ATOM     14  C   UNL     1     -16.643   7.912 -24.788  1.00  0.00     0.004 C 
BRANCH  14  15
ATOM     15  C   UNL     1     -16.326   8.871 -23.623  1.00  0.00     0.000 C 
BRANCH  15  16
ATOM     16  C   UNL     1     -17.227   8.666 -22.386  1.00  0.00     0.000 C 
BRANCH  16  17
ATOM     17  C   UNL     1     -16.470   8.684 -21.041  1.00  0.00    -0.000 C 
BRANCH  17  18
ATOM     18  C   UNL     1     -14.993   8.247 -21.145  1.00  0.00    -0.000 C 
BRANCH  18  19
ATOM     19  C   UNL     1     -14.715   6.941 -20.384  1.00  0.00    -0.003 C 
ATOM     20  C   UNL     1     -13.425   6.286 -20.875  1.00  0.00     0.004 C 
ENDBRANCH  18  19
ENDBRANCH  17  18
ENDBRANCH  16  17
ENDBRANCH  15  16
ENDBRANCH  14  15
ENDBRANCH  13  14
ENDBRANCH   2  13
TORSDOF 15
ENDMDL
