MODEL 1
REMARK VINA RESULT:    -5.484      0.000      0.000
REMARK INTER + INTRA:         -18.934
REMARK INTER:                 -14.460
REMARK INTRA:                  -4.474
REMARK UNBOUND:                -4.474
REMARK SMILES CCCCCCCCCCCCCCCCCCCCCCCCCCCCCC(=O)[O-]
REMARK SMILES IDX 16 1 17 2 18 3 19 4 20 5 21 6 22 7 23 8 24 9 25 10 26 11
REMARK SMILES IDX 27 12 28 13 29 14 30 15 31 16 32 17 15 18 14 19 13 20 12 21
REMARK SMILES IDX 11 22 10 23 9 24 8 25 7 26 6 27 5 28 4 29 3 30 2 31 1 32
REMARK H PARENT
REMARK Flexibility Score: inf
ROOT
ATOM      1  C   UNL     1       6.731  43.815  43.650  1.00  0.00     0.000 C 
ENDROOT
BRANCH   1   2
ATOM      2  C   UNL     1       7.895  43.658  42.658  1.00  0.00     0.000 C 
BRANCH   2   3
ATOM      3  C   UNL     1       7.603  42.621  41.563  1.00  0.00     0.000 C 
BRANCH   3   4
ATOM      4  C   UNL     1       8.540  41.415  41.686  1.00  0.00     0.000 C 
BRANCH   4   5
ATOM      5  C   UNL     1       9.944  41.850  42.133  1.00  0.00     0.000 C 
BRANCH   5   6
ATOM      6  C   UNL     1      10.506  40.948  43.252  1.00  0.00     0.000 C 
BRANCH   6   7
ATOM      7  C   UNL     1       9.422  40.213  44.058  1.00  0.00     0.000 C 
BRANCH   7   8
ATOM      8  C   UNL     1       9.608  38.687  44.055  1.00  0.00     0.000 C 
BRANCH   8   9
ATOM      9  C   UNL     1      11.085  38.271  44.152  1.00  0.00     0.000 C 
BRANCH   9  10
ATOM     10  C   UNL     1      11.267  36.865  44.752  1.00  0.00     0.000 C 
BRANCH  10  11
ATOM     11  C   UNL     1      10.061  35.945  44.489  1.00  0.00     0.000 C 
BRANCH  11  12
ATOM     12  C   UNL     1      10.341  34.439  44.669  1.00  0.00     0.000 C 
BRANCH  12  13
ATOM     13  C   UNL     1      10.769  33.696  43.387  1.00  0.00     0.006 C 
BRANCH  13  14
ATOM     14  C   UNL     1       9.892  33.990  42.160  1.00  0.00     0.053 C 
BRANCH  14  15
ATOM     15  C   UNL     1       8.960  32.856  41.855  1.00  0.00     0.041 C 
ATOM     16  O   UNL     1       9.088  32.201  40.788  1.00  0.00    -0.550 OA
ATOM     17  O   UNL     1       7.974  32.504  42.767  1.00  0.00    -0.550 OA
ENDBRANCH  14  15
ENDBRANCH  13  14
ENDBRANCH  12  13
ENDBRANCH  11  12
ENDBRANCH  10  11
ENDBRANCH   9  10
ENDBRANCH   8   9
ENDBRANCH   7   8
ENDBRANCH   6   7
ENDBRANCH   5   6
ENDBRANCH   4   5
ENDBRANCH   3   4
ENDBRANCH   2   3
ENDBRANCH   1   2
BRANCH   1  18
ATOM     18  C   UNL     1       5.807  42.584  43.671  1.00  0.00     0.000 C 
BRANCH  18  19
ATOM     19  C   UNL     1       5.965  41.748  44.950  1.00  0.00     0.000 C 
BRANCH  19  20
ATOM     20  C   UNL     1       5.759  42.577  46.228  1.00  0.00     0.000 C 
BRANCH  20  21
ATOM     21  C   UNL     1       4.978  41.777  47.278  1.00  0.00     0.000 C 
BRANCH  21  22
ATOM     22  C   UNL     1       5.835  41.504  48.518  1.00  0.00     0.000 C 
BRANCH  22  23
ATOM     23  C   UNL     1       6.741  40.282  48.299  1.00  0.00     0.000 C 
BRANCH  23  24
ATOM     24  C   UNL     1       8.185  40.525  48.768  1.00  0.00    -0.000 C 
BRANCH  24  25
ATOM     25  C   UNL     1       9.225  39.913  47.813  1.00  0.00    -0.000 C 
BRANCH  25  26
ATOM     26  C   UNL     1       9.321  38.386  47.949  1.00  0.00    -0.000 C 
BRANCH  26  27
ATOM     27  C   UNL     1      10.755  37.907  48.235  1.00  0.00    -0.000 C 
BRANCH  27  28
ATOM     28  C   UNL     1      11.525  38.883  49.150  1.00  0.00    -0.000 C 
BRANCH  28  29
ATOM     29  C   UNL     1      12.920  39.258  48.622  1.00  0.00    -0.000 C 
BRANCH  29  30
ATOM     30  C   UNL     1      13.114  38.910  47.140  1.00  0.00    -0.000 C 
BRANCH  30  31
ATOM     31  C   UNL     1      13.484  40.155  46.326  1.00  0.00    -0.003 C 
ATOM     32  C   UNL     1      12.372  41.199  46.378  1.00  0.00     0.004 C 
ENDBRANCH  30  31
ENDBRANCH  29  30
ENDBRANCH  28  29
ENDBRANCH  27  28
ENDBRANCH  26  27
ENDBRANCH  25  26
ENDBRANCH  24  25
ENDBRANCH  23  24
ENDBRANCH  22  23
ENDBRANCH  21  22
ENDBRANCH  20  21
ENDBRANCH  19  20
ENDBRANCH  18  19
ENDBRANCH   1  18
TORSDOF 28
ENDMDL
MODEL 2
REMARK VINA RESULT:    -5.272      1.292      5.752
REMARK INTER + INTRA:         -18.376
REMARK INTER:                 -14.787
REMARK INTRA:                  -3.590
REMARK UNBOUND:                -4.474
REMARK SMILES CCCCCCCCCCCCCCCCCCCCCCCCCCCCCC(=O)[O-]
REMARK SMILES IDX 16 1 17 2 18 3 19 4 20 5 21 6 22 7 23 8 24 9 25 10 26 11
REMARK SMILES IDX 27 12 28 13 29 14 30 15 31 16 32 17 15 18 14 19 13 20 12 21
REMARK SMILES IDX 11 22 10 23 9 24 8 25 7 26 6 27 5 28 4 29 3 30 2 31 1 32
REMARK H PARENT
REMARK Flexibility Score: inf
ROOT
ATOM      1  C   UNL     1      12.693  37.989  48.542  1.00  0.00     0.000 C 
ENDROOT
BRANCH   1   2
ATOM      2  C   UNL     1      14.042  38.455  47.971  1.00  0.00     0.000 C 
BRANCH   2   3
ATOM      3  C   UNL     1      14.014  38.615  46.444  1.00  0.00     0.000 C 
BRANCH   3   4
ATOM      4  C   UNL     1      13.649  40.051  46.050  1.00  0.00     0.000 C 
BRANCH   4   5
ATOM      5  C   UNL     1      12.834  40.075  44.747  1.00  0.00     0.000 C 
BRANCH   5   6
ATOM      6  C   UNL     1      13.105  38.837  43.866  1.00  0.00     0.000 C 
BRANCH   6   7
ATOM      7  C   UNL     1      11.848  38.003  43.566  1.00  0.00     0.000 C 
BRANCH   7   8
ATOM      8  C   UNL     1      10.624  38.458  44.375  1.00  0.00     0.000 C 
BRANCH   8   9
ATOM      9  C   UNL     1      10.420  37.632  45.656  1.00  0.00     0.000 C 
BRANCH   9  10
ATOM     10  C   UNL     1      11.132  36.268  45.602  1.00  0.00     0.000 C 
BRANCH  10  11
ATOM     11  C   UNL     1      10.188  35.091  45.906  1.00  0.00     0.000 C 
BRANCH  11  12
ATOM     12  C   UNL     1       9.748  34.277  44.673  1.00  0.00     0.000 C 
BRANCH  12  13
ATOM     13  C   UNL     1      10.582  34.517  43.398  1.00  0.00     0.006 C 
BRANCH  13  14
ATOM     14  C   UNL     1      10.708  33.290  42.481  1.00  0.00     0.053 C 
BRANCH  14  15
ATOM     15  C   UNL     1       9.683  33.302  41.388  1.00  0.00     0.041 C 
ATOM     16  O   UNL     1       8.457  33.284  41.671  1.00  0.00    -0.550 OA
ATOM     17  O   UNL     1      10.084  33.369  40.061  1.00  0.00    -0.550 OA
ENDBRANCH  14  15
ENDBRANCH  13  14
ENDBRANCH  12  13
ENDBRANCH  11  12
ENDBRANCH  10  11
ENDBRANCH   9  10
ENDBRANCH   8   9
ENDBRANCH   7   8
ENDBRANCH   6   7
ENDBRANCH   5   6
ENDBRANCH   4   5
ENDBRANCH   3   4
ENDBRANCH   2   3
ENDBRANCH   1   2
BRANCH   1  18
ATOM     18  C   UNL     1      12.334  38.701  49.858  1.00  0.00     0.000 C 
BRANCH  18  19
ATOM     19  C   UNL     1      11.561  40.009  49.631  1.00  0.00     0.000 C 
BRANCH  19  20
ATOM     20  C   UNL     1      10.738  39.992  48.333  1.00  0.00     0.000 C 
BRANCH  20  21
ATOM     21  C   UNL     1       9.261  40.292  48.618  1.00  0.00     0.000 C 
BRANCH  21  22
ATOM     22  C   UNL     1       8.395  39.043  48.426  1.00  0.00     0.000 C 
BRANCH  22  23
ATOM     23  C   UNL     1       6.939  39.429  48.120  1.00  0.00     0.000 C 
BRANCH  23  24
ATOM     24  C   UNL     1       6.769  40.934  47.860  1.00  0.00    -0.000 C 
BRANCH  24  25
ATOM     25  C   UNL     1       5.369  41.286  47.329  1.00  0.00    -0.000 C 
BRANCH  25  26
ATOM     26  C   UNL     1       5.411  42.350  46.221  1.00  0.00    -0.000 C 
BRANCH  26  27
ATOM     27  C   UNL     1       6.073  41.834  44.931  1.00  0.00    -0.000 C 
BRANCH  27  28
ATOM     28  C   UNL     1       5.876  42.803  43.746  1.00  0.00    -0.000 C 
BRANCH  28  29
ATOM     29  C   UNL     1       6.588  44.154  43.926  1.00  0.00    -0.000 C 
BRANCH  29  30
ATOM     30  C   UNL     1       7.428  44.557  42.706  1.00  0.00    -0.000 C 
BRANCH  30  31
ATOM     31  C   UNL     1       7.987  43.323  41.989  1.00  0.00    -0.003 C 
ATOM     32  C   UNL     1       9.113  43.704  41.032  1.00  0.00     0.004 C 
ENDBRANCH  30  31
ENDBRANCH  29  30
ENDBRANCH  28  29
ENDBRANCH  27  28
ENDBRANCH  26  27
ENDBRANCH  25  26
ENDBRANCH  24  25
ENDBRANCH  23  24
ENDBRANCH  22  23
ENDBRANCH  21  22
ENDBRANCH  20  21
ENDBRANCH  19  20
ENDBRANCH  18  19
ENDBRANCH   1  18
TORSDOF 28
ENDMDL
MODEL 3
REMARK VINA RESULT:    -5.258      1.122      4.520
REMARK INTER + INTRA:         -18.338
REMARK INTER:                 -14.456
REMARK INTRA:                  -3.882
REMARK UNBOUND:                -4.474
REMARK SMILES CCCCCCCCCCCCCCCCCCCCCCCCCCCCCC(=O)[O-]
REMARK SMILES IDX 16 1 17 2 18 3 19 4 20 5 21 6 22 7 23 8 24 9 25 10 26 11
REMARK SMILES IDX 27 12 28 13 29 14 30 15 31 16 32 17 15 18 14 19 13 20 12 21
REMARK SMILES IDX 11 22 10 23 9 24 8 25 7 26 6 27 5 28 4 29 3 30 2 31 1 32
REMARK H PARENT
REMARK Flexibility Score: inf
ROOT
ATOM      1  C   UNL     1       4.909  42.503  45.991  1.00  0.00     0.000 C 
ENDROOT
BRANCH   1   2
ATOM      2  C   UNL     1       4.916  41.511  47.165  1.00  0.00     0.000 C 
BRANCH   2   3
ATOM      3  C   UNL     1       5.474  42.128  48.457  1.00  0.00     0.000 C 
BRANCH   3   4
ATOM      4  C   UNL     1       6.720  41.372  48.932  1.00  0.00     0.000 C 
BRANCH   4   5
ATOM      5  C   UNL     1       6.875  40.039  48.183  1.00  0.00     0.000 C 
BRANCH   5   6
ATOM      6  C   UNL     1       8.354  39.694  47.908  1.00  0.00     0.000 C 
BRANCH   6   7
ATOM      7  C   UNL     1       8.701  38.216  48.150  1.00  0.00     0.000 C 
BRANCH   7   8
ATOM      8  C   UNL     1      10.216  37.963  48.224  1.00  0.00     0.000 C 
BRANCH   8   9
ATOM      9  C   UNL     1      10.611  36.575  47.694  1.00  0.00     0.000 C 
BRANCH   9  10
ATOM     10  C   UNL     1      11.055  36.607  46.221  1.00  0.00     0.000 C 
BRANCH  10  11
ATOM     11  C   UNL     1      10.233  35.658  45.330  1.00  0.00     0.000 C 
BRANCH  11  12
ATOM     12  C   UNL     1      10.834  35.391  43.936  1.00  0.00     0.000 C 
BRANCH  12  13
ATOM     13  C   UNL     1      10.668  33.948  43.417  1.00  0.00     0.006 C 
BRANCH  13  14
ATOM     14  C   UNL     1       9.347  33.276  43.823  1.00  0.00     0.053 C 
BRANCH  14  15
ATOM     15  C   UNL     1       8.545  32.855  42.629  1.00  0.00     0.041 C 
ATOM     16  O   UNL     1       8.525  33.573  41.595  1.00  0.00    -0.550 OA
ATOM     17  O   UNL     1       7.850  31.653  42.648  1.00  0.00    -0.550 OA
ENDBRANCH  14  15
ENDBRANCH  13  14
ENDBRANCH  12  13
ENDBRANCH  11  12
ENDBRANCH  10  11
ENDBRANCH   9  10
ENDBRANCH   8   9
ENDBRANCH   7   8
ENDBRANCH   6   7
ENDBRANCH   5   6
ENDBRANCH   4   5
ENDBRANCH   3   4
ENDBRANCH   2   3
ENDBRANCH   1   2
BRANCH   1  18
ATOM     18  C   UNL     1       6.052  42.242  44.994  1.00  0.00     0.000 C 
BRANCH  18  19
ATOM     19  C   UNL     1       5.981  43.156  43.761  1.00  0.00     0.000 C 
BRANCH  19  20
ATOM     20  C   UNL     1       7.045  44.264  43.783  1.00  0.00     0.000 C 
BRANCH  20  21
ATOM     21  C   UNL     1       7.386  44.722  42.360  1.00  0.00     0.000 C 
BRANCH  21  22
ATOM     22  C   UNL     1       7.815  43.540  41.485  1.00  0.00     0.000 C 
BRANCH  22  23
ATOM     23  C   UNL     1       9.346  43.476  41.363  1.00  0.00     0.000 C 
BRANCH  23  24
ATOM     24  C   UNL     1       9.982  42.529  42.392  1.00  0.00    -0.000 C 
BRANCH  24  25
ATOM     25  C   UNL     1       9.472  41.084  42.257  1.00  0.00    -0.000 C 
BRANCH  25  26
ATOM     26  C   UNL     1       8.739  40.599  43.518  1.00  0.00    -0.000 C 
BRANCH  26  27
ATOM     27  C   UNL     1       9.362  39.322  44.109  1.00  0.00    -0.000 C 
BRANCH  27  28
ATOM     28  C   UNL     1      10.886  39.457  44.315  1.00  0.00    -0.000 C 
BRANCH  28  29
ATOM     29  C   UNL     1      11.272  40.280  45.555  1.00  0.00    -0.000 C 
BRANCH  29  30
ATOM     30  C   UNL     1      12.216  41.446  45.232  1.00  0.00    -0.000 C 
BRANCH  30  31
ATOM     31  C   UNL     1      13.051  41.836  46.456  1.00  0.00    -0.003 C 
ATOM     32  C   UNL     1      12.841  40.851  47.603  1.00  0.00     0.004 C 
ENDBRANCH  30  31
ENDBRANCH  29  30
ENDBRANCH  28  29
ENDBRANCH  27  28
ENDBRANCH  26  27
ENDBRANCH  25  26
ENDBRANCH  24  25
ENDBRANCH  23  24
ENDBRANCH  22  23
ENDBRANCH  21  22
ENDBRANCH  20  21
ENDBRANCH  19  20
ENDBRANCH  18  19
ENDBRANCH   1  18
TORSDOF 28
ENDMDL
MODEL 4
REMARK VINA RESULT:    -5.242      4.184      7.472
REMARK INTER + INTRA:         -18.296
REMARK INTER:                 -13.745
REMARK INTRA:                  -4.551
REMARK UNBOUND:                -4.474
REMARK SMILES CCCCCCCCCCCCCCCCCCCCCCCCCCCCCC(=O)[O-]
REMARK SMILES IDX 16 1 17 2 18 3 19 4 20 5 21 6 22 7 23 8 24 9 25 10 26 11
REMARK SMILES IDX 27 12 28 13 29 14 30 15 31 16 32 17 15 18 14 19 13 20 12 21
REMARK SMILES IDX 11 22 10 23 9 24 8 25 7 26 6 27 5 28 4 29 3 30 2 31 1 32
REMARK H PARENT
REMARK Flexibility Score: inf
ROOT
ATOM      1  C   UNL     1       8.583  40.124  48.453  1.00  0.00     0.000 C 
ENDROOT
BRANCH   1   2
ATOM      2  C   UNL     1       7.444  40.993  49.010  1.00  0.00     0.000 C 
BRANCH   2   3
ATOM      3  C   UNL     1       6.112  40.759  48.282  1.00  0.00     0.000 C 
BRANCH   3   4
ATOM      4  C   UNL     1       5.399  42.087  48.002  1.00  0.00     0.000 C 
BRANCH   4   5
ATOM      5  C   UNL     1       4.667  42.047  46.652  1.00  0.00     0.000 C 
BRANCH   5   6
ATOM      6  C   UNL     1       5.549  42.565  45.496  1.00  0.00     0.000 C 
BRANCH   6   7
ATOM      7  C   UNL     1       6.348  41.461  44.783  1.00  0.00     0.000 C 
BRANCH   7   8
ATOM      8  C   UNL     1       6.784  41.862  43.365  1.00  0.00     0.000 C 
BRANCH   8   9
ATOM      9  C   UNL     1       8.202  41.376  43.022  1.00  0.00     0.000 C 
BRANCH   9  10
ATOM     10  C   UNL     1       8.396  41.125  41.516  1.00  0.00     0.000 C 
BRANCH  10  11
ATOM     11  C   UNL     1       9.652  41.815  40.954  1.00  0.00     0.000 C 
BRANCH  11  12
ATOM     12  C   UNL     1       9.945  43.210  41.541  1.00  0.00     0.000 C 
BRANCH  12  13
ATOM     13  C   UNL     1       9.308  44.389  40.777  1.00  0.00     0.006 C 
BRANCH  13  14
ATOM     14  C   UNL     1       7.908  44.786  41.274  1.00  0.00     0.053 C 
BRANCH  14  15
ATOM     15  C   UNL     1       7.630  46.241  41.054  1.00  0.00     0.041 C 
ATOM     16  O   UNL     1       6.991  46.901  41.915  1.00  0.00    -0.550 OA
ATOM     17  O   UNL     1       8.106  46.875  39.914  1.00  0.00    -0.550 OA
ENDBRANCH  14  15
ENDBRANCH  13  14
ENDBRANCH  12  13
ENDBRANCH  11  12
ENDBRANCH  10  11
ENDBRANCH   9  10
ENDBRANCH   8   9
ENDBRANCH   7   8
ENDBRANCH   6   7
ENDBRANCH   5   6
ENDBRANCH   4   5
ENDBRANCH   3   4
ENDBRANCH   2   3
ENDBRANCH   1   2
BRANCH   1  18
ATOM     18  C   UNL     1       8.252  39.536  47.070  1.00  0.00     0.000 C 
BRANCH  18  19
ATOM     19  C   UNL     1       9.437  39.614  46.096  1.00  0.00     0.000 C 
BRANCH  19  20
ATOM     20  C   UNL     1      10.127  38.256  45.894  1.00  0.00     0.000 C 
BRANCH  20  21
ATOM     21  C   UNL     1      10.409  38.002  44.408  1.00  0.00     0.000 C 
BRANCH  21  22
ATOM     22  C   UNL     1      11.879  38.270  44.068  1.00  0.00     0.000 C 
BRANCH  22  23
ATOM     23  C   UNL     1      12.006  39.415  43.050  1.00  0.00     0.000 C 
BRANCH  23  24
ATOM     24  C   UNL     1      11.845  40.800  43.697  1.00  0.00    -0.000 C 
BRANCH  24  25
ATOM     25  C   UNL     1      13.151  41.613  43.679  1.00  0.00    -0.000 C 
BRANCH  25  26
ATOM     26  C   UNL     1      13.484  42.218  45.052  1.00  0.00    -0.000 C 
BRANCH  26  27
ATOM     27  C   UNL     1      12.505  41.768  46.150  1.00  0.00    -0.000 C 
BRANCH  27  28
ATOM     28  C   UNL     1      13.219  41.031  47.303  1.00  0.00    -0.000 C 
BRANCH  28  29
ATOM     29  C   UNL     1      12.268  40.229  48.208  1.00  0.00    -0.000 C 
BRANCH  29  30
ATOM     30  C   UNL     1      12.840  38.866  48.620  1.00  0.00    -0.000 C 
BRANCH  30  31
ATOM     31  C   UNL     1      13.574  38.198  47.452  1.00  0.00    -0.003 C 
ATOM     32  C   UNL     1      15.016  37.866  47.823  1.00  0.00     0.004 C 
ENDBRANCH  30  31
ENDBRANCH  29  30
ENDBRANCH  28  29
ENDBRANCH  27  28
ENDBRANCH  26  27
ENDBRANCH  25  26
ENDBRANCH  24  25
ENDBRANCH  23  24
ENDBRANCH  22  23
ENDBRANCH  21  22
ENDBRANCH  20  21
ENDBRANCH  19  20
ENDBRANCH  18  19
ENDBRANCH   1  18
TORSDOF 28
ENDMDL
MODEL 5
REMARK VINA RESULT:    -5.203      1.213      5.169
REMARK INTER + INTRA:         -18.195
REMARK INTER:                 -14.223
REMARK INTRA:                  -3.971
REMARK UNBOUND:                -4.474
REMARK SMILES CCCCCCCCCCCCCCCCCCCCCCCCCCCCCC(=O)[O-]
REMARK SMILES IDX 16 1 17 2 18 3 19 4 20 5 21 6 22 7 23 8 24 9 25 10 26 11
REMARK SMILES IDX 27 12 28 13 29 14 30 15 31 16 32 17 15 18 14 19 13 20 12 21
REMARK SMILES IDX 11 22 10 23 9 24 8 25 7 26 6 27 5 28 4 29 3 30 2 31 1 32
REMARK H PARENT
REMARK Flexibility Score: inf
ROOT
ATOM      1  C   UNL     1      13.215  40.542  45.254  1.00  0.00     0.000 C 
ENDROOT
BRANCH   1   2
ATOM      2  C   UNL     1      13.185  41.100  43.821  1.00  0.00     0.000 C 
BRANCH   2   3
ATOM      3  C   UNL     1      11.874  41.831  43.499  1.00  0.00     0.000 C 
BRANCH   3   4
ATOM      4  C   UNL     1      10.837  40.866  42.915  1.00  0.00     0.000 C 
BRANCH   4   5
ATOM      5  C   UNL     1       9.504  40.961  43.674  1.00  0.00     0.000 C 
BRANCH   5   6
ATOM      6  C   UNL     1       8.938  39.571  44.033  1.00  0.00     0.000 C 
BRANCH   6   7
ATOM      7  C   UNL     1      10.013  38.480  44.173  1.00  0.00     0.000 C 
BRANCH   7   8
ATOM      8  C   UNL     1      10.323  38.132  45.638  1.00  0.00     0.000 C 
BRANCH   8   9
ATOM      9  C   UNL     1      11.107  36.817  45.780  1.00  0.00     0.000 C 
BRANCH   9  10
ATOM     10  C   UNL     1      10.213  35.635  46.195  1.00  0.00     0.000 C 
BRANCH  10  11
ATOM     11  C   UNL     1      10.157  34.527  45.127  1.00  0.00     0.000 C 
BRANCH  11  12
ATOM     12  C   UNL     1      10.700  34.932  43.742  1.00  0.00     0.000 C 
BRANCH  12  13
ATOM     13  C   UNL     1      10.532  33.869  42.638  1.00  0.00     0.006 C 
BRANCH  13  14
ATOM     14  C   UNL     1       9.233  33.054  42.733  1.00  0.00     0.053 C 
BRANCH  14  15
ATOM     15  C   UNL     1       8.662  32.752  41.381  1.00  0.00     0.041 C 
ATOM     16  O   UNL     1       9.141  31.819  40.685  1.00  0.00    -0.550 OA
ATOM     17  O   UNL     1       7.579  33.480  40.907  1.00  0.00    -0.550 OA
ENDBRANCH  14  15
ENDBRANCH  13  14
ENDBRANCH  12  13
ENDBRANCH  11  12
ENDBRANCH  10  11
ENDBRANCH   9  10
ENDBRANCH   8   9
ENDBRANCH   7   8
ENDBRANCH   6   7
ENDBRANCH   5   6
ENDBRANCH   4   5
ENDBRANCH   3   4
ENDBRANCH   2   3
ENDBRANCH   1   2
BRANCH   1  18
ATOM     18  C   UNL     1      13.921  39.177  45.338  1.00  0.00     0.000 C 
BRANCH  18  19
ATOM     19  C   UNL     1      14.037  38.661  46.781  1.00  0.00     0.000 C 
BRANCH  19  20
ATOM     20  C   UNL     1      13.254  39.522  47.783  1.00  0.00     0.000 C 
BRANCH  20  21
ATOM     21  C   UNL     1      12.636  38.653  48.885  1.00  0.00     0.000 C 
BRANCH  21  22
ATOM     22  C   UNL     1      11.124  38.878  48.988  1.00  0.00     0.000 C 
BRANCH  22  23
ATOM     23  C   UNL     1      10.814  40.320  49.422  1.00  0.00     0.000 C 
BRANCH  23  24
ATOM     24  C   UNL     1       9.321  40.665  49.302  1.00  0.00    -0.000 C 
BRANCH  24  25
ATOM     25  C   UNL     1       8.612  39.844  48.211  1.00  0.00    -0.000 C 
BRANCH  25  26
ATOM     26  C   UNL     1       7.109  40.151  48.128  1.00  0.00    -0.000 C 
BRANCH  26  27
ATOM     27  C   UNL     1       6.714  41.392  48.948  1.00  0.00    -0.000 C 
BRANCH  27  28
ATOM     28  C   UNL     1       5.516  42.144  48.329  1.00  0.00    -0.000 C 
BRANCH  28  29
ATOM     29  C   UNL     1       4.968  41.488  47.050  1.00  0.00    -0.000 C 
BRANCH  29  30
ATOM     30  C   UNL     1       4.879  42.462  45.867  1.00  0.00    -0.000 C 
BRANCH  30  31
ATOM     31  C   UNL     1       5.968  42.168  44.829  1.00  0.00    -0.003 C 
ATOM     32  C   UNL     1       6.366  43.434  44.074  1.00  0.00     0.004 C 
ENDBRANCH  30  31
ENDBRANCH  29  30
ENDBRANCH  28  29
ENDBRANCH  27  28
ENDBRANCH  26  27
ENDBRANCH  25  26
ENDBRANCH  24  25
ENDBRANCH  23  24
ENDBRANCH  22  23
ENDBRANCH  21  22
ENDBRANCH  20  21
ENDBRANCH  19  20
ENDBRANCH  18  19
ENDBRANCH   1  18
TORSDOF 28
ENDMDL
MODEL 6
REMARK VINA RESULT:    -5.194      1.294      3.610
REMARK INTER + INTRA:         -18.169
REMARK INTER:                 -14.156
REMARK INTRA:                  -4.013
REMARK UNBOUND:                -4.474
REMARK SMILES CCCCCCCCCCCCCCCCCCCCCCCCCCCCCC(=O)[O-]
REMARK SMILES IDX 16 1 17 2 18 3 19 4 20 5 21 6 22 7 23 8 24 9 25 10 26 11
REMARK SMILES IDX 27 12 28 13 29 14 30 15 31 16 32 17 15 18 14 19 13 20 12 21
REMARK SMILES IDX 11 22 10 23 9 24 8 25 7 26 6 27 5 28 4 29 3 30 2 31 1 32
REMARK H PARENT
REMARK Flexibility Score: inf
ROOT
ATOM      1  C   UNL     1       5.216  41.488  46.551  1.00  0.00     0.000 C 
ENDROOT
BRANCH   1   2
ATOM      2  C   UNL     1       4.980  42.710  45.647  1.00  0.00     0.000 C 
BRANCH   2   3
ATOM      3  C   UNL     1       5.999  42.801  44.501  1.00  0.00     0.000 C 
BRANCH   3   4
ATOM      4  C   UNL     1       6.771  41.486  44.348  1.00  0.00     0.000 C 
BRANCH   4   5
ATOM      5  C   UNL     1       7.588  41.473  43.047  1.00  0.00     0.000 C 
BRANCH   5   6
ATOM      6  C   UNL     1       8.970  40.811  43.233  1.00  0.00     0.000 C 
BRANCH   6   7
ATOM      7  C   UNL     1       9.056  39.891  44.463  1.00  0.00     0.000 C 
BRANCH   7   8
ATOM      8  C   UNL     1       9.251  38.413  44.089  1.00  0.00     0.000 C 
BRANCH   8   9
ATOM      9  C   UNL     1      10.526  37.811  44.701  1.00  0.00     0.000 C 
BRANCH   9  10
ATOM     10  C   UNL     1      10.952  36.501  44.015  1.00  0.00     0.000 C 
BRANCH  10  11
ATOM     11  C   UNL     1      10.292  35.259  44.640  1.00  0.00     0.000 C 
BRANCH  11  12
ATOM     12  C   UNL     1      10.264  34.012  43.734  1.00  0.00     0.000 C 
BRANCH  12  13
ATOM     13  C   UNL     1      10.453  34.293  42.229  1.00  0.00     0.006 C 
BRANCH  13  14
ATOM     14  C   UNL     1      10.289  33.059  41.327  1.00  0.00     0.053 C 
BRANCH  14  15
ATOM     15  C   UNL     1       8.852  32.666  41.174  1.00  0.00     0.041 C 
ATOM     16  O   UNL     1       8.534  31.452  41.080  1.00  0.00    -0.550 OA
ATOM     17  O   UNL     1       7.862  33.640  41.169  1.00  0.00    -0.550 OA
ENDBRANCH  14  15
ENDBRANCH  13  14
ENDBRANCH  12  13
ENDBRANCH  11  12
ENDBRANCH  10  11
ENDBRANCH   9  10
ENDBRANCH   8   9
ENDBRANCH   7   8
ENDBRANCH   6   7
ENDBRANCH   5   6
ENDBRANCH   4   5
ENDBRANCH   3   4
ENDBRANCH   2   3
ENDBRANCH   1   2
BRANCH   1  18
ATOM     18  C   UNL     1       5.328  41.871  48.037  1.00  0.00     0.000 C 
BRANCH  18  19
ATOM     19  C   UNL     1       6.624  41.357  48.683  1.00  0.00     0.000 C 
BRANCH  19  20
ATOM     20  C   UNL     1       7.377  40.360  47.788  1.00  0.00     0.000 C 
BRANCH  20  21
ATOM     21  C   UNL     1       8.711  39.953  48.426  1.00  0.00     0.000 C 
BRANCH  21  22
ATOM     22  C   UNL     1       8.999  38.464  48.206  1.00  0.00     0.000 C 
BRANCH  22  23
ATOM     23  C   UNL     1      10.500  38.170  48.348  1.00  0.00     0.000 C 
BRANCH  23  24
ATOM     24  C   UNL     1      11.306  39.406  48.777  1.00  0.00    -0.000 C 
BRANCH  24  25
ATOM     25  C   UNL     1      12.457  39.725  47.807  1.00  0.00    -0.000 C 
BRANCH  25  26
ATOM     26  C   UNL     1      12.003  40.591  46.622  1.00  0.00    -0.000 C 
BRANCH  26  27
ATOM     27  C   UNL     1      12.930  40.454  45.401  1.00  0.00    -0.000 C 
BRANCH  27  28
ATOM     28  C   UNL     1      12.476  41.340  44.221  1.00  0.00    -0.000 C 
BRANCH  28  29
ATOM     29  C   UNL     1      12.720  40.706  42.842  1.00  0.00    -0.000 C 
BRANCH  29  30
ATOM     30  C   UNL     1      12.777  41.739  41.708  1.00  0.00    -0.000 C 
BRANCH  30  31
ATOM     31  C   UNL     1      11.478  41.739  40.895  1.00  0.00    -0.003 C 
ATOM     32  C   UNL     1      11.312  43.043  40.121  1.00  0.00     0.004 C 
ENDBRANCH  30  31
ENDBRANCH  29  30
ENDBRANCH  28  29
ENDBRANCH  27  28
ENDBRANCH  26  27
ENDBRANCH  25  26
ENDBRANCH  24  25
ENDBRANCH  23  24
ENDBRANCH  22  23
ENDBRANCH  21  22
ENDBRANCH  20  21
ENDBRANCH  19  20
ENDBRANCH  18  19
ENDBRANCH   1  18
TORSDOF 28
ENDMDL
MODEL 7
REMARK VINA RESULT:    -5.139      3.523      6.390
REMARK INTER + INTRA:         -18.026
REMARK INTER:                 -13.146
REMARK INTRA:                  -4.880
REMARK UNBOUND:                -4.474
REMARK SMILES CCCCCCCCCCCCCCCCCCCCCCCCCCCCCC(=O)[O-]
REMARK SMILES IDX 16 1 17 2 18 3 19 4 20 5 21 6 22 7 23 8 24 9 25 10 26 11
REMARK SMILES IDX 27 12 28 13 29 14 30 15 31 16 32 17 15 18 14 19 13 20 12 21
REMARK SMILES IDX 11 22 10 23 9 24 8 25 7 26 6 27 5 28 4 29 3 30 2 31 1 32
REMARK H PARENT
REMARK Flexibility Score: inf
ROOT
ATOM      1  C   UNL     1       8.667  40.628  41.974  1.00  0.00     0.000 C 
ENDROOT
BRANCH   1   2
ATOM      2  C   UNL     1       9.641  41.648  41.361  1.00  0.00     0.000 C 
BRANCH   2   3
ATOM      3  C   UNL     1      10.431  42.424  42.425  1.00  0.00     0.000 C 
BRANCH   3   4
ATOM      4  C   UNL     1      11.301  43.508  41.780  1.00  0.00     0.000 C 
BRANCH   4   5
ATOM      5  C   UNL     1      11.069  44.873  42.447  1.00  0.00     0.000 C 
BRANCH   5   6
ATOM      6  C   UNL     1      10.519  45.920  41.455  1.00  0.00     0.000 C 
BRANCH   6   7
ATOM      7  C   UNL     1       9.387  45.391  40.559  1.00  0.00     0.000 C 
BRANCH   7   8
ATOM      8  C   UNL     1       8.043  46.090  40.821  1.00  0.00     0.000 C 
BRANCH   8   9
ATOM      9  C   UNL     1       7.426  45.698  42.173  1.00  0.00     0.000 C 
BRANCH   9  10
ATOM     10  C   UNL     1       7.225  44.179  42.315  1.00  0.00     0.000 C 
BRANCH  10  11
ATOM     11  C   UNL     1       6.756  43.769  43.723  1.00  0.00     0.000 C 
BRANCH  11  12
ATOM     12  C   UNL     1       5.864  42.513  43.772  1.00  0.00     0.000 C 
BRANCH  12  13
ATOM     13  C   UNL     1       5.881  41.750  45.112  1.00  0.00     0.006 C 
BRANCH  13  14
ATOM     14  C   UNL     1       5.293  42.533  46.296  1.00  0.00     0.053 C 
BRANCH  14  15
ATOM     15  C   UNL     1       5.300  41.725  47.558  1.00  0.00     0.041 C 
ATOM     16  O   UNL     1       5.374  40.469  47.506  1.00  0.00    -0.550 OA
ATOM     17  O   UNL     1       5.261  42.363  48.791  1.00  0.00    -0.550 OA
ENDBRANCH  14  15
ENDBRANCH  13  14
ENDBRANCH  12  13
ENDBRANCH  11  12
ENDBRANCH  10  11
ENDBRANCH   9  10
ENDBRANCH   8   9
ENDBRANCH   7   8
ENDBRANCH   6   7
ENDBRANCH   5   6
ENDBRANCH   4   5
ENDBRANCH   3   4
ENDBRANCH   2   3
ENDBRANCH   1   2
BRANCH   1  18
ATOM     18  C   UNL     1       8.852  40.480  43.494  1.00  0.00     0.000 C 
BRANCH  18  19
ATOM     19  C   UNL     1       9.198  39.041  43.909  1.00  0.00     0.000 C 
BRANCH  19  20
ATOM     20  C   UNL     1       9.727  38.951  45.349  1.00  0.00     0.000 C 
BRANCH  20  21
ATOM     21  C   UNL     1       8.934  39.875  46.281  1.00  0.00     0.000 C 
BRANCH  21  22
ATOM     22  C   UNL     1       8.567  39.162  47.587  1.00  0.00     0.000 C 
BRANCH  22  23
ATOM     23  C   UNL     1       9.806  38.977  48.476  1.00  0.00     0.000 C 
BRANCH  23  24
ATOM     24  C   UNL     1      10.133  40.231  49.303  1.00  0.00    -0.000 C 
BRANCH  24  25
ATOM     25  C   UNL     1      11.628  40.593  49.257  1.00  0.00    -0.000 C 
BRANCH  25  26
ATOM     26  C   UNL     1      12.186  40.606  47.826  1.00  0.00    -0.000 C 
BRANCH  26  27
ATOM     27  C   UNL     1      13.391  39.665  47.653  1.00  0.00    -0.000 C 
BRANCH  27  28
ATOM     28  C   UNL     1      13.180  38.651  46.509  1.00  0.00    -0.000 C 
BRANCH  28  29
ATOM     29  C   UNL     1      13.860  39.054  45.190  1.00  0.00    -0.000 C 
BRANCH  29  30
ATOM     30  C   UNL     1      12.919  39.800  44.234  1.00  0.00    -0.000 C 
BRANCH  30  31
ATOM     31  C   UNL     1      12.759  39.040  42.913  1.00  0.00    -0.003 C 
ATOM     32  C   UNL     1      13.042  39.946  41.717  1.00  0.00     0.004 C 
ENDBRANCH  30  31
ENDBRANCH  29  30
ENDBRANCH  28  29
ENDBRANCH  27  28
ENDBRANCH  26  27
ENDBRANCH  25  26
ENDBRANCH  24  25
ENDBRANCH  23  24
ENDBRANCH  22  23
ENDBRANCH  21  22
ENDBRANCH  20  21
ENDBRANCH  19  20
ENDBRANCH  18  19
ENDBRANCH   1  18
TORSDOF 28
ENDMDL
MODEL 8
REMARK VINA RESULT:    -5.134      2.421      7.837
REMARK INTER + INTRA:         -18.012
REMARK INTER:                 -14.723
REMARK INTRA:                  -3.288
REMARK UNBOUND:                -4.474
REMARK SMILES CCCCCCCCCCCCCCCCCCCCCCCCCCCCCC(=O)[O-]
REMARK SMILES IDX 16 1 17 2 18 3 19 4 20 5 21 6 22 7 23 8 24 9 25 10 26 11
REMARK SMILES IDX 27 12 28 13 29 14 30 15 31 16 32 17 15 18 14 19 13 20 12 21
REMARK SMILES IDX 11 22 10 23 9 24 8 25 7 26 6 27 5 28 4 29 3 30 2 31 1 32
REMARK H PARENT
REMARK Flexibility Score: inf
ROOT
ATOM      1  C   UNL     1      11.418  38.632  48.877  1.00  0.00     0.000 C 
ENDROOT
BRANCH   1   2
ATOM      2  C   UNL     1      10.312  38.181  47.909  1.00  0.00     0.000 C 
BRANCH   2   3
ATOM      3  C   UNL     1       9.386  39.333  47.491  1.00  0.00     0.000 C 
BRANCH   3   4
ATOM      4  C   UNL     1       8.092  39.320  48.312  1.00  0.00     0.000 C 
BRANCH   4   5
ATOM      5  C   UNL     1       7.585  40.748  48.566  1.00  0.00     0.000 C 
BRANCH   5   6
ATOM      6  C   UNL     1       6.106  40.922  48.161  1.00  0.00     0.000 C 
BRANCH   6   7
ATOM      7  C   UNL     1       5.889  41.042  46.643  1.00  0.00     0.000 C 
BRANCH   7   8
ATOM      8  C   UNL     1       5.708  42.496  46.179  1.00  0.00     0.000 C 
BRANCH   8   9
ATOM      9  C   UNL     1       5.176  42.597  44.741  1.00  0.00     0.000 C 
BRANCH   9  10
ATOM     10  C   UNL     1       6.299  42.767  43.703  1.00  0.00     0.000 C 
BRANCH  10  11
ATOM     11  C   UNL     1       6.862  44.199  43.662  1.00  0.00     0.000 C 
BRANCH  11  12
ATOM     12  C   UNL     1       7.590  44.575  42.356  1.00  0.00     0.000 C 
BRANCH  12  13
ATOM     13  C   UNL     1       8.327  43.412  41.660  1.00  0.00     0.006 C 
BRANCH  13  14
ATOM     14  C   UNL     1       9.691  43.065  42.278  1.00  0.00     0.053 C 
BRANCH  14  15
ATOM     15  C   UNL     1       9.953  41.590  42.262  1.00  0.00     0.041 C 
ATOM     16  O   UNL     1       9.076  40.788  42.677  1.00  0.00    -0.550 OA
ATOM     17  O   UNL     1      11.150  41.103  41.757  1.00  0.00    -0.550 OA
ENDBRANCH  14  15
ENDBRANCH  13  14
ENDBRANCH  12  13
ENDBRANCH  11  12
ENDBRANCH  10  11
ENDBRANCH   9  10
ENDBRANCH   8   9
ENDBRANCH   7   8
ENDBRANCH   6   7
ENDBRANCH   5   6
ENDBRANCH   4   5
ENDBRANCH   3   4
ENDBRANCH   2   3
ENDBRANCH   1   2
BRANCH   1  18
ATOM     18  C   UNL     1      12.575  39.346  48.156  1.00  0.00     0.000 C 
BRANCH  18  19
ATOM     19  C   UNL     1      12.588  40.861  48.417  1.00  0.00     0.000 C 
BRANCH  19  20
ATOM     20  C   UNL     1      13.197  41.657  47.253  1.00  0.00     0.000 C 
BRANCH  20  21
ATOM     21  C   UNL     1      12.390  41.446  45.966  1.00  0.00     0.000 C 
BRANCH  21  22
ATOM     22  C   UNL     1      13.311  41.182  44.771  1.00  0.00     0.000 C 
BRANCH  22  23
ATOM     23  C   UNL     1      13.263  39.702  44.360  1.00  0.00     0.000 C 
BRANCH  23  24
ATOM     24  C   UNL     1      11.868  39.083  44.546  1.00  0.00    -0.000 C 
BRANCH  24  25
ATOM     25  C   UNL     1      11.747  37.696  43.891  1.00  0.00    -0.000 C 
BRANCH  25  26
ATOM     26  C   UNL     1      10.532  36.908  44.405  1.00  0.00    -0.000 C 
BRANCH  26  27
ATOM     27  C   UNL     1      10.927  35.571  45.056  1.00  0.00    -0.000 C 
BRANCH  27  28
ATOM     28  C   UNL     1      10.351  34.358  44.294  1.00  0.00    -0.000 C 
BRANCH  28  29
ATOM     29  C   UNL     1      10.367  34.523  42.765  1.00  0.00    -0.000 C 
BRANCH  29  30
ATOM     30  C   UNL     1      10.537  33.193  42.019  1.00  0.00    -0.000 C 
BRANCH  30  31
ATOM     31  C   UNL     1       9.753  33.194  40.702  1.00  0.00    -0.003 C 
ATOM     32  C   UNL     1       8.251  33.091  40.955  1.00  0.00     0.004 C 
ENDBRANCH  30  31
ENDBRANCH  29  30
ENDBRANCH  28  29
ENDBRANCH  27  28
ENDBRANCH  26  27
ENDBRANCH  25  26
ENDBRANCH  24  25
ENDBRANCH  23  24
ENDBRANCH  22  23
ENDBRANCH  21  22
ENDBRANCH  20  21
ENDBRANCH  19  20
ENDBRANCH  18  19
ENDBRANCH   1  18
TORSDOF 28
ENDMDL
MODEL 9
REMARK VINA RESULT:    -5.119      1.222      5.017
REMARK INTER + INTRA:         -17.971
REMARK INTER:                 -13.494
REMARK INTRA:                  -4.478
REMARK UNBOUND:                -4.474
REMARK SMILES CCCCCCCCCCCCCCCCCCCCCCCCCCCCCC(=O)[O-]
REMARK SMILES IDX 16 1 17 2 18 3 19 4 20 5 21 6 22 7 23 8 24 9 25 10 26 11
REMARK SMILES IDX 27 12 28 13 29 14 30 15 31 16 32 17 15 18 14 19 13 20 12 21
REMARK SMILES IDX 11 22 10 23 9 24 8 25 7 26 6 27 5 28 4 29 3 30 2 31 1 32
REMARK H PARENT
REMARK Flexibility Score: inf
ROOT
ATOM      1  C   UNL     1       6.676  40.736  47.906  1.00  0.00     0.000 C 
ENDROOT
BRANCH   1   2
ATOM      2  C   UNL     1       6.840  39.249  48.260  1.00  0.00     0.000 C 
BRANCH   2   3
ATOM      3  C   UNL     1       8.277  38.747  48.057  1.00  0.00     0.000 C 
BRANCH   3   4
ATOM      4  C   UNL     1       9.006  39.585  47.000  1.00  0.00     0.000 C 
BRANCH   4   5
ATOM      5  C   UNL     1      10.343  40.115  47.541  1.00  0.00     0.000 C 
BRANCH   5   6
ATOM      6  C   UNL     1      10.510  39.841  49.050  1.00  0.00     0.000 C 
BRANCH   6   7
ATOM      7  C   UNL     1      11.946  39.469  49.457  1.00  0.00     0.000 C 
BRANCH   7   8
ATOM      8  C   UNL     1      12.625  38.524  48.453  1.00  0.00     0.000 C 
BRANCH   8   9
ATOM      9  C   UNL     1      12.218  37.055  48.655  1.00  0.00     0.000 C 
BRANCH   9  10
ATOM     10  C   UNL     1      11.192  36.575  47.614  1.00  0.00     0.000 C 
BRANCH  10  11
ATOM     11  C   UNL     1      11.661  36.805  46.166  1.00  0.00     0.000 C 
BRANCH  11  12
ATOM     12  C   UNL     1      10.565  36.641  45.093  1.00  0.00     0.000 C 
BRANCH  12  13
ATOM     13  C   UNL     1      10.051  35.199  44.900  1.00  0.00     0.006 C 
BRANCH  13  14
ATOM     14  C   UNL     1      10.752  34.420  43.776  1.00  0.00     0.053 C 
BRANCH  14  15
ATOM     15  C   UNL     1       9.772  33.703  42.898  1.00  0.00     0.041 C 
ATOM     16  O   UNL     1       8.852  33.012  43.409  1.00  0.00    -0.550 OA
ATOM     17  O   UNL     1       9.855  33.829  41.518  1.00  0.00    -0.550 OA
ENDBRANCH  14  15
ENDBRANCH  13  14
ENDBRANCH  12  13
ENDBRANCH  11  12
ENDBRANCH  10  11
ENDBRANCH   9  10
ENDBRANCH   8   9
ENDBRANCH   7   8
ENDBRANCH   6   7
ENDBRANCH   5   6
ENDBRANCH   4   5
ENDBRANCH   3   4
ENDBRANCH   2   3
ENDBRANCH   1   2
BRANCH   1  18
ATOM     18  C   UNL     1       5.533  40.980  46.906  1.00  0.00     0.000 C 
BRANCH  18  19
ATOM     19  C   UNL     1       6.043  41.380  45.513  1.00  0.00     0.000 C 
BRANCH  19  20
ATOM     20  C   UNL     1       5.604  42.795  45.105  1.00  0.00     0.000 C 
BRANCH  20  21
ATOM     21  C   UNL     1       6.150  43.159  43.719  1.00  0.00     0.000 C 
BRANCH  21  22
ATOM     22  C   UNL     1       7.156  44.313  43.805  1.00  0.00     0.000 C 
BRANCH  22  23
ATOM     23  C   UNL     1       7.442  44.894  42.411  1.00  0.00     0.000 C 
BRANCH  23  24
ATOM     24  C   UNL     1       8.817  44.472  41.868  1.00  0.00    -0.000 C 
BRANCH  24  25
ATOM     25  C   UNL     1       8.774  43.114  41.146  1.00  0.00    -0.000 C 
BRANCH  25  26
ATOM     26  C   UNL     1       9.576  42.031  41.884  1.00  0.00    -0.000 C 
BRANCH  26  27
ATOM     27  C   UNL     1       8.681  40.910  42.441  1.00  0.00    -0.000 C 
BRANCH  27  28
ATOM     28  C   UNL     1       9.434  40.004  43.438  1.00  0.00    -0.000 C 
BRANCH  28  29
ATOM     29  C   UNL     1      10.955  39.961  43.211  1.00  0.00    -0.000 C 
BRANCH  29  30
ATOM     30  C   UNL     1      11.748  40.655  44.326  1.00  0.00    -0.000 C 
BRANCH  30  31
ATOM     31  C   UNL     1      12.999  39.851  44.696  1.00  0.00    -0.003 C 
ATOM     32  C   UNL     1      13.368  38.867  43.590  1.00  0.00     0.004 C 
ENDBRANCH  30  31
ENDBRANCH  29  30
ENDBRANCH  28  29
ENDBRANCH  27  28
ENDBRANCH  26  27
ENDBRANCH  25  26
ENDBRANCH  24  25
ENDBRANCH  23  24
ENDBRANCH  22  23
ENDBRANCH  21  22
ENDBRANCH  20  21
ENDBRANCH  19  20
ENDBRANCH  18  19
ENDBRANCH   1  18
TORSDOF 28
ENDMDL
