MODEL 1
REMARK VINA RESULT:    -4.115      0.000      0.000
REMARK INTER + INTRA:         -16.863
REMARK INTER:                 -10.851
REMARK INTRA:                  -6.012
REMARK UNBOUND:                -6.012
REMARK SMILES CCCCCCCCCCCCCCCCCCCCCCCCCCCCCC(=O)[O-]
REMARK SMILES IDX 16 1 17 2 18 3 19 4 20 5 21 6 22 7 23 8 24 9 25 10 26 11
REMARK SMILES IDX 27 12 28 13 29 14 30 15 31 16 32 17 15 18 14 19 13 20 12 21
REMARK SMILES IDX 11 22 10 23 9 24 8 25 7 26 6 27 5 28 4 29 3 30 2 31 1 32
REMARK H PARENT
REMARK Flexibility Score: inf
ROOT
ATOM      1  C   UNL     1       7.652  35.753   0.262  1.00  0.00     0.000 C 
ENDROOT
BRANCH   1   2
ATOM      2  C   UNL     1       8.137  36.706  -0.843  1.00  0.00     0.000 C 
BRANCH   2   3
ATOM      3  C   UNL     1       9.541  36.351  -1.356  1.00  0.00     0.000 C 
BRANCH   3   4
ATOM      4  C   UNL     1      10.561  36.358  -0.210  1.00  0.00     0.000 C 
BRANCH   4   5
ATOM      5  C   UNL     1      11.078  37.779   0.060  1.00  0.00     0.000 C 
BRANCH   5   6
ATOM      6  C   UNL     1      11.063  38.145   1.556  1.00  0.00     0.000 C 
BRANCH   6   7
ATOM      7  C   UNL     1       9.715  37.916   2.269  1.00  0.00     0.000 C 
BRANCH   7   8
ATOM      8  C   UNL     1       8.993  39.197   2.729  1.00  0.00     0.000 C 
BRANCH   8   9
ATOM      9  C   UNL     1       7.452  39.134   2.665  1.00  0.00     0.000 C 
BRANCH   9  10
ATOM     10  C   UNL     1       6.796  40.215   1.786  1.00  0.00     0.000 C 
BRANCH  10  11
ATOM     11  C   UNL     1       7.043  40.065   0.272  1.00  0.00     0.000 C 
BRANCH  11  12
ATOM     12  C   UNL     1       7.919  41.183  -0.332  1.00  0.00     0.000 C 
BRANCH  12  13
ATOM     13  C   UNL     1       9.418  40.832  -0.308  1.00  0.00     0.006 C 
BRANCH  13  14
ATOM     14  C   UNL     1      10.297  42.062  -0.038  1.00  0.00     0.053 C 
BRANCH  14  15
ATOM     15  C   UNL     1       9.695  42.970   0.991  1.00  0.00     0.041 C 
ATOM     16  O   UNL     1       9.240  44.096   0.658  1.00  0.00    -0.550 OA
ATOM     17  O   UNL     1       9.636  42.571   2.322  1.00  0.00    -0.550 OA
ENDBRANCH  14  15
ENDBRANCH  13  14
ENDBRANCH  12  13
ENDBRANCH  11  12
ENDBRANCH  10  11
ENDBRANCH   9  10
ENDBRANCH   8   9
ENDBRANCH   7   8
ENDBRANCH   6   7
ENDBRANCH   5   6
ENDBRANCH   4   5
ENDBRANCH   3   4
ENDBRANCH   2   3
ENDBRANCH   1   2
BRANCH   1  18
ATOM     18  C   UNL     1       6.535  36.366   1.126  1.00  0.00     0.000 C 
BRANCH  18  19
ATOM     19  C   UNL     1       5.392  35.378   1.408  1.00  0.00     0.000 C 
BRANCH  19  20
ATOM     20  C   UNL     1       4.017  36.067   1.475  1.00  0.00     0.000 C 
BRANCH  20  21
ATOM     21  C   UNL     1       4.119  37.561   1.821  1.00  0.00     0.000 C 
BRANCH  21  22
ATOM     22  C   UNL     1       3.325  38.451   0.847  1.00  0.00     0.000 C 
BRANCH  22  23
ATOM     23  C   UNL     1       3.195  37.829  -0.557  1.00  0.00     0.000 C 
BRANCH  23  24
ATOM     24  C   UNL     1       4.429  37.994  -1.469  1.00  0.00    -0.000 C 
BRANCH  24  25
ATOM     25  C   UNL     1       4.654  36.863  -2.488  1.00  0.00    -0.000 C 
BRANCH  25  26
ATOM     26  C   UNL     1       3.496  35.851  -2.528  1.00  0.00    -0.000 C 
BRANCH  26  27
ATOM     27  C   UNL     1       3.960  34.399  -2.317  1.00  0.00    -0.000 C 
BRANCH  27  28
ATOM     28  C   UNL     1       5.456  34.232  -1.993  1.00  0.00    -0.000 C 
BRANCH  28  29
ATOM     29  C   UNL     1       6.156  33.203  -2.894  1.00  0.00    -0.000 C 
BRANCH  29  30
ATOM     30  C   UNL     1       7.665  33.483  -2.974  1.00  0.00    -0.000 C 
BRANCH  30  31
ATOM     31  C   UNL     1       8.433  32.928  -1.764  1.00  0.00    -0.003 C 
ATOM     32  C   UNL     1       9.889  32.594  -2.092  1.00  0.00     0.004 C 
ENDBRANCH  30  31
ENDBRANCH  29  30
ENDBRANCH  28  29
ENDBRANCH  27  28
ENDBRANCH  26  27
ENDBRANCH  25  26
ENDBRANCH  24  25
ENDBRANCH  23  24
ENDBRANCH  22  23
ENDBRANCH  21  22
ENDBRANCH  20  21
ENDBRANCH  19  20
ENDBRANCH  18  19
ENDBRANCH   1  18
TORSDOF 28
ENDMDL
MODEL 2
REMARK VINA RESULT:    -4.100      1.530      5.206
REMARK INTER + INTRA:         -16.824
REMARK INTER:                 -11.118
REMARK INTRA:                  -5.706
REMARK UNBOUND:                -6.012
REMARK SMILES CCCCCCCCCCCCCCCCCCCCCCCCCCCCCC(=O)[O-]
REMARK SMILES IDX 16 1 17 2 18 3 19 4 20 5 21 6 22 7 23 8 24 9 25 10 26 11
REMARK SMILES IDX 27 12 28 13 29 14 30 15 31 16 32 17 15 18 14 19 13 20 12 21
REMARK SMILES IDX 11 22 10 23 9 24 8 25 7 26 6 27 5 28 4 29 3 30 2 31 1 32
REMARK H PARENT
REMARK Flexibility Score: inf
ROOT
ATOM      1  C   UNL     1       6.714  37.452  -1.267  1.00  0.00     0.000 C 
ENDROOT
BRANCH   1   2
ATOM      2  C   UNL     1       5.885  37.661   0.011  1.00  0.00     0.000 C 
BRANCH   2   3
ATOM      3  C   UNL     1       6.489  36.949   1.231  1.00  0.00     0.000 C 
BRANCH   3   4
ATOM      4  C   UNL     1       5.744  35.641   1.527  1.00  0.00     0.000 C 
BRANCH   4   5
ATOM      5  C   UNL     1       4.243  35.895   1.731  1.00  0.00     0.000 C 
BRANCH   5   6
ATOM      6  C   UNL     1       3.958  36.954   2.812  1.00  0.00     0.000 C 
BRANCH   6   7
ATOM      7  C   UNL     1       3.911  36.416   4.256  1.00  0.00     0.000 C 
BRANCH   7   8
ATOM      8  C   UNL     1       4.641  37.282   5.300  1.00  0.00     0.000 C 
BRANCH   8   9
ATOM      9  C   UNL     1       5.132  38.650   4.782  1.00  0.00     0.000 C 
BRANCH   9  10
ATOM     10  C   UNL     1       6.657  38.762   4.595  1.00  0.00     0.000 C 
BRANCH  10  11
ATOM     11  C   UNL     1       7.132  40.021   3.844  1.00  0.00     0.000 C 
BRANCH  11  12
ATOM     12  C   UNL     1       6.250  40.397   2.634  1.00  0.00     0.000 C 
BRANCH  12  13
ATOM     13  C   UNL     1       6.486  41.844   2.163  1.00  0.00     0.006 C 
BRANCH  13  14
ATOM     14  C   UNL     1       7.491  41.919   1.005  1.00  0.00     0.053 C 
BRANCH  14  15
ATOM     15  C   UNL     1       8.734  42.666   1.383  1.00  0.00     0.041 C 
ATOM     16  O   UNL     1       9.157  42.638   2.570  1.00  0.00    -0.550 OA
ATOM     17  O   UNL     1       9.427  43.395   0.423  1.00  0.00    -0.550 OA
ENDBRANCH  14  15
ENDBRANCH  13  14
ENDBRANCH  12  13
ENDBRANCH  11  12
ENDBRANCH  10  11
ENDBRANCH   9  10
ENDBRANCH   8   9
ENDBRANCH   7   8
ENDBRANCH   6   7
ENDBRANCH   5   6
ENDBRANCH   4   5
ENDBRANCH   3   4
ENDBRANCH   2   3
ENDBRANCH   1   2
BRANCH   1  18
ATOM     18  C   UNL     1       5.848  37.071  -2.481  1.00  0.00     0.000 C 
BRANCH  18  19
ATOM     19  C   UNL     1       4.408  36.698  -2.091  1.00  0.00     0.000 C 
BRANCH  19  20
ATOM     20  C   UNL     1       4.061  35.239  -2.432  1.00  0.00     0.000 C 
BRANCH  20  21
ATOM     21  C   UNL     1       5.024  34.232  -1.781  1.00  0.00     0.000 C 
BRANCH  21  22
ATOM     22  C   UNL     1       5.910  33.508  -2.810  1.00  0.00     0.000 C 
BRANCH  22  23
ATOM     23  C   UNL     1       7.396  33.484  -2.403  1.00  0.00     0.000 C 
BRANCH  23  24
ATOM     24  C   UNL     1       7.706  34.045  -0.999  1.00  0.00    -0.000 C 
BRANCH  24  25
ATOM     25  C   UNL     1       9.122  33.756  -0.469  1.00  0.00    -0.000 C 
BRANCH  25  26
ATOM     26  C   UNL     1       9.648  34.856   0.469  1.00  0.00    -0.000 C 
BRANCH  26  27
ATOM     27  C   UNL     1      10.679  35.779  -0.206  1.00  0.00    -0.000 C 
BRANCH  27  28
ATOM     28  C   UNL     1      10.081  36.959  -0.994  1.00  0.00    -0.000 C 
BRANCH  28  29
ATOM     29  C   UNL     1      10.925  38.238  -0.895  1.00  0.00    -0.000 C 
BRANCH  29  30
ATOM     30  C   UNL     1      10.117  39.379  -0.256  1.00  0.00    -0.000 C 
BRANCH  30  31
ATOM     31  C   UNL     1       9.491  38.977   1.088  1.00  0.00    -0.003 C 
ATOM     32  C   UNL     1      10.377  39.336   2.282  1.00  0.00     0.004 C 
ENDBRANCH  30  31
ENDBRANCH  29  30
ENDBRANCH  28  29
ENDBRANCH  27  28
ENDBRANCH  26  27
ENDBRANCH  25  26
ENDBRANCH  24  25
ENDBRANCH  23  24
ENDBRANCH  22  23
ENDBRANCH  21  22
ENDBRANCH  20  21
ENDBRANCH  19  20
ENDBRANCH  18  19
ENDBRANCH   1  18
TORSDOF 28
ENDMDL
MODEL 3
REMARK VINA RESULT:    -4.077      1.720      5.328
REMARK INTER + INTRA:         -16.762
REMARK INTER:                  -9.961
REMARK INTRA:                  -6.801
REMARK UNBOUND:                -6.012
REMARK SMILES CCCCCCCCCCCCCCCCCCCCCCCCCCCCCC(=O)[O-]
REMARK SMILES IDX 16 1 17 2 18 3 19 4 20 5 21 6 22 7 23 8 24 9 25 10 26 11
REMARK SMILES IDX 27 12 28 13 29 14 30 15 31 16 32 17 15 18 14 19 13 20 12 21
REMARK SMILES IDX 11 22 10 23 9 24 8 25 7 26 6 27 5 28 4 29 3 30 2 31 1 32
REMARK H PARENT
REMARK Flexibility Score: inf
ROOT
ATOM      1  C   UNL     1       7.105  38.261  -0.928  1.00  0.00     0.000 C 
ENDROOT
BRANCH   1   2
ATOM      2  C   UNL     1       5.771  38.427  -1.675  1.00  0.00     0.000 C 
BRANCH   2   3
ATOM      3  C   UNL     1       5.426  37.211  -2.547  1.00  0.00     0.000 C 
BRANCH   3   4
ATOM      4  C   UNL     1       4.125  36.549  -2.075  1.00  0.00     0.000 C 
BRANCH   4   5
ATOM      5  C   UNL     1       3.416  37.414  -1.022  1.00  0.00     0.000 C 
BRANCH   5   6
ATOM      6  C   UNL     1       2.986  36.609   0.220  1.00  0.00     0.000 C 
BRANCH   6   7
ATOM      7  C   UNL     1       4.119  35.826   0.913  1.00  0.00     0.000 C 
BRANCH   7   8
ATOM      8  C   UNL     1       4.349  36.183   2.394  1.00  0.00     0.000 C 
BRANCH   8   9
ATOM      9  C   UNL     1       3.873  37.592   2.804  1.00  0.00     0.000 C 
BRANCH   9  10
ATOM     10  C   UNL     1       4.926  38.444   3.538  1.00  0.00     0.000 C 
BRANCH  10  11
ATOM     11  C   UNL     1       4.887  39.951   3.217  1.00  0.00     0.000 C 
BRANCH  11  12
ATOM     12  C   UNL     1       4.034  40.304   1.979  1.00  0.00     0.000 C 
BRANCH  12  13
ATOM     13  C   UNL     1       4.859  40.986   0.873  1.00  0.00     0.006 C 
BRANCH  13  14
ATOM     14  C   UNL     1       6.083  41.725   1.435  1.00  0.00     0.053 C 
BRANCH  14  15
ATOM     15  C   UNL     1       6.319  43.032   0.743  1.00  0.00     0.041 C 
ATOM     16  O   UNL     1       6.627  43.060  -0.478  1.00  0.00    -0.550 OA
ATOM     17  O   UNL     1       6.198  44.224   1.448  1.00  0.00    -0.550 OA
ENDBRANCH  14  15
ENDBRANCH  13  14
ENDBRANCH  12  13
ENDBRANCH  11  12
ENDBRANCH  10  11
ENDBRANCH   9  10
ENDBRANCH   8   9
ENDBRANCH   7   8
ENDBRANCH   6   7
ENDBRANCH   5   6
ENDBRANCH   4   5
ENDBRANCH   3   4
ENDBRANCH   2   3
ENDBRANCH   1   2
BRANCH   1  18
ATOM     18  C   UNL     1       6.933  38.259   0.602  1.00  0.00     0.000 C 
BRANCH  18  19
ATOM     19  C   UNL     1       7.777  37.177   1.294  1.00  0.00     0.000 C 
BRANCH  19  20
ATOM     20  C   UNL     1       8.880  37.767   2.189  1.00  0.00     0.000 C 
BRANCH  20  21
ATOM     21  C   UNL     1       8.648  39.252   2.514  1.00  0.00     0.000 C 
BRANCH  21  22
ATOM     22  C   UNL     1       9.941  40.084   2.445  1.00  0.00     0.000 C 
BRANCH  22  23
ATOM     23  C   UNL     1       9.851  41.243   1.434  1.00  0.00     0.000 C 
BRANCH  23  24
ATOM     24  C   UNL     1       9.594  40.825  -0.029  1.00  0.00    -0.000 C 
BRANCH  24  25
ATOM     25  C   UNL     1      10.794  40.195  -0.757  1.00  0.00    -0.000 C 
BRANCH  25  26
ATOM     26  C   UNL     1      10.630  38.684  -0.992  1.00  0.00    -0.000 C 
BRANCH  26  27
ATOM     27  C   UNL     1      11.666  37.841  -0.226  1.00  0.00    -0.000 C 
BRANCH  27  28
ATOM     28  C   UNL     1      11.400  36.324  -0.221  1.00  0.00    -0.000 C 
BRANCH  28  29
ATOM     29  C   UNL     1      10.198  35.921  -1.088  1.00  0.00    -0.000 C 
BRANCH  29  30
ATOM     30  C   UNL     1       9.964  34.403  -1.028  1.00  0.00    -0.000 C 
BRANCH  30  31
ATOM     31  C   UNL     1       8.664  34.035  -0.296  1.00  0.00    -0.003 C 
ATOM     32  C   UNL     1       7.413  34.397  -1.098  1.00  0.00     0.004 C 
ENDBRANCH  30  31
ENDBRANCH  29  30
ENDBRANCH  28  29
ENDBRANCH  27  28
ENDBRANCH  26  27
ENDBRANCH  25  26
ENDBRANCH  24  25
ENDBRANCH  23  24
ENDBRANCH  22  23
ENDBRANCH  21  22
ENDBRANCH  20  21
ENDBRANCH  19  20
ENDBRANCH  18  19
ENDBRANCH   1  18
TORSDOF 28
ENDMDL
MODEL 4
REMARK VINA RESULT:    -4.051      3.075      6.143
REMARK INTER + INTRA:         -16.694
REMARK INTER:                 -11.247
REMARK INTRA:                  -5.447
REMARK UNBOUND:                -6.012
REMARK SMILES CCCCCCCCCCCCCCCCCCCCCCCCCCCCCC(=O)[O-]
REMARK SMILES IDX 16 1 17 2 18 3 19 4 20 5 21 6 22 7 23 8 24 9 25 10 26 11
REMARK SMILES IDX 27 12 28 13 29 14 30 15 31 16 32 17 15 18 14 19 13 20 12 21
REMARK SMILES IDX 11 22 10 23 9 24 8 25 7 26 6 27 5 28 4 29 3 30 2 31 1 32
REMARK H PARENT
REMARK Flexibility Score: inf
ROOT
ATOM      1  C   UNL     1       9.645  40.984   0.570  1.00  0.00     0.000 C 
ENDROOT
BRANCH   1   2
ATOM      2  C   UNL     1      10.555  40.926  -0.668  1.00  0.00     0.000 C 
BRANCH   2   3
ATOM      3  C   UNL     1      11.123  39.521  -0.919  1.00  0.00     0.000 C 
BRANCH   3   4
ATOM      4  C   UNL     1       9.999  38.479  -0.982  1.00  0.00     0.000 C 
BRANCH   4   5
ATOM      5  C   UNL     1      10.566  37.052  -0.945  1.00  0.00     0.000 C 
BRANCH   5   6
ATOM      6  C   UNL     1      11.274  36.725   0.383  1.00  0.00     0.000 C 
BRANCH   6   7
ATOM      7  C   UNL     1      10.340  36.284   1.528  1.00  0.00     0.000 C 
BRANCH   7   8
ATOM      8  C   UNL     1       9.412  37.384   2.074  1.00  0.00     0.000 C 
BRANCH   8   9
ATOM      9  C   UNL     1       7.923  37.225   1.701  1.00  0.00     0.000 C 
BRANCH   9  10
ATOM     10  C   UNL     1       7.524  35.820   1.215  1.00  0.00     0.000 C 
BRANCH  10  11
ATOM     11  C   UNL     1       7.394  35.669  -0.314  1.00  0.00     0.000 C 
BRANCH  11  12
ATOM     12  C   UNL     1       7.373  34.203  -0.798  1.00  0.00     0.000 C 
BRANCH  12  13
ATOM     13  C   UNL     1       8.589  33.857  -1.677  1.00  0.00     0.006 C 
BRANCH  13  14
ATOM     14  C   UNL     1       9.265  32.549  -1.241  1.00  0.00     0.053 C 
BRANCH  14  15
ATOM     15  C   UNL     1      10.751  32.593  -1.428  1.00  0.00     0.041 C 
ATOM     16  O   UNL     1      11.366  33.692  -1.385  1.00  0.00    -0.550 OA
ATOM     17  O   UNL     1      11.459  31.417  -1.651  1.00  0.00    -0.550 OA
ENDBRANCH  14  15
ENDBRANCH  13  14
ENDBRANCH  12  13
ENDBRANCH  11  12
ENDBRANCH  10  11
ENDBRANCH   9  10
ENDBRANCH   8   9
ENDBRANCH   7   8
ENDBRANCH   6   7
ENDBRANCH   5   6
ENDBRANCH   4   5
ENDBRANCH   3   4
ENDBRANCH   2   3
ENDBRANCH   1   2
BRANCH   1  18
ATOM     18  C   UNL     1       8.222  41.470   0.239  1.00  0.00     0.000 C 
BRANCH  18  19
ATOM     19  C   UNL     1       7.145  40.422   0.565  1.00  0.00     0.000 C 
BRANCH  19  20
ATOM     20  C   UNL     1       6.129  40.244  -0.576  1.00  0.00     0.000 C 
BRANCH  20  21
ATOM     21  C   UNL     1       6.247  38.875  -1.267  1.00  0.00     0.000 C 
BRANCH  21  22
ATOM     22  C   UNL     1       5.016  38.535  -2.126  1.00  0.00     0.000 C 
BRANCH  22  23
ATOM     23  C   UNL     1       4.931  37.038  -2.480  1.00  0.00     0.000 C 
BRANCH  23  24
ATOM     24  C   UNL     1       3.627  36.331  -2.052  1.00  0.00    -0.000 C 
BRANCH  24  25
ATOM     25  C   UNL     1       3.787  35.247  -0.971  1.00  0.00    -0.000 C 
BRANCH  25  26
ATOM     26  C   UNL     1       3.220  35.672   0.395  1.00  0.00    -0.000 C 
BRANCH  26  27
ATOM     27  C   UNL     1       4.123  36.675   1.134  1.00  0.00    -0.000 C 
BRANCH  27  28
ATOM     28  C   UNL     1       3.538  38.091   1.290  1.00  0.00    -0.000 C 
BRANCH  28  29
ATOM     29  C   UNL     1       3.469  38.557   2.751  1.00  0.00    -0.000 C 
BRANCH  29  30
ATOM     30  C   UNL     1       4.771  39.260   3.164  1.00  0.00    -0.000 C 
BRANCH  30  31
ATOM     31  C   UNL     1       5.569  38.459   4.205  1.00  0.00    -0.003 C 
ATOM     32  C   UNL     1       4.685  37.531   5.039  1.00  0.00     0.004 C 
ENDBRANCH  30  31
ENDBRANCH  29  30
ENDBRANCH  28  29
ENDBRANCH  27  28
ENDBRANCH  26  27
ENDBRANCH  25  26
ENDBRANCH  24  25
ENDBRANCH  23  24
ENDBRANCH  22  23
ENDBRANCH  21  22
ENDBRANCH  20  21
ENDBRANCH  19  20
ENDBRANCH  18  19
ENDBRANCH   1  18
TORSDOF 28
ENDMDL
MODEL 5
REMARK VINA RESULT:    -4.047      2.584      6.837
REMARK INTER + INTRA:         -16.683
REMARK INTER:                 -10.545
REMARK INTRA:                  -6.138
REMARK UNBOUND:                -6.012
REMARK SMILES CCCCCCCCCCCCCCCCCCCCCCCCCCCCCC(=O)[O-]
REMARK SMILES IDX 16 1 17 2 18 3 19 4 20 5 21 6 22 7 23 8 24 9 25 10 26 11
REMARK SMILES IDX 27 12 28 13 29 14 30 15 31 16 32 17 15 18 14 19 13 20 12 21
REMARK SMILES IDX 11 22 10 23 9 24 8 25 7 26 6 27 5 28 4 29 3 30 2 31 1 32
REMARK H PARENT
REMARK Flexibility Score: inf
ROOT
ATOM      1  C   UNL     1       3.981  37.631   4.778  1.00  0.00     0.000 C 
ENDROOT
BRANCH   1   2
ATOM      2  C   UNL     1       4.407  36.540   3.781  1.00  0.00     0.000 C 
BRANCH   2   3
ATOM      3  C   UNL     1       3.657  36.637   2.444  1.00  0.00     0.000 C 
BRANCH   3   4
ATOM      4  C   UNL     1       4.350  35.795   1.365  1.00  0.00     0.000 C 
BRANCH   4   5
ATOM      5  C   UNL     1       5.854  35.659   1.651  1.00  0.00     0.000 C 
BRANCH   5   6
ATOM      6  C   UNL     1       6.712  36.611   0.797  1.00  0.00     0.000 C 
BRANCH   6   7
ATOM      7  C   UNL     1       5.942  37.379  -0.296  1.00  0.00     0.000 C 
BRANCH   7   8
ATOM      8  C   UNL     1       6.599  37.367  -1.689  1.00  0.00     0.000 C 
BRANCH   8   9
ATOM      9  C   UNL     1       5.811  36.603  -2.774  1.00  0.00     0.000 C 
BRANCH   9  10
ATOM     10  C   UNL     1       4.960  35.431  -2.251  1.00  0.00     0.000 C 
BRANCH  10  11
ATOM     11  C   UNL     1       5.699  34.083  -2.142  1.00  0.00     0.000 C 
BRANCH  11  12
ATOM     12  C   UNL     1       6.986  34.005  -2.992  1.00  0.00     0.000 C 
BRANCH  12  13
ATOM     13  C   UNL     1       8.137  33.301  -2.250  1.00  0.00     0.006 C 
BRANCH  13  14
ATOM     14  C   UNL     1       8.182  33.676  -0.762  1.00  0.00     0.053 C 
BRANCH  14  15
ATOM     15  C   UNL     1       9.385  34.504  -0.425  1.00  0.00     0.041 C 
ATOM     16  O   UNL     1       9.766  34.616   0.770  1.00  0.00    -0.550 OA
ATOM     17  O   UNL     1      10.087  35.154  -1.434  1.00  0.00    -0.550 OA
ENDBRANCH  14  15
ENDBRANCH  13  14
ENDBRANCH  12  13
ENDBRANCH  11  12
ENDBRANCH  10  11
ENDBRANCH   9  10
ENDBRANCH   8   9
ENDBRANCH   7   8
ENDBRANCH   6   7
ENDBRANCH   5   6
ENDBRANCH   4   5
ENDBRANCH   3   4
ENDBRANCH   2   3
ENDBRANCH   1   2
BRANCH   1  18
ATOM     18  C   UNL     1       5.130  38.594   5.130  1.00  0.00     0.000 C 
BRANCH  18  19
ATOM     19  C   UNL     1       6.199  38.674   4.028  1.00  0.00     0.000 C 
BRANCH  19  20
ATOM     20  C   UNL     1       6.145  39.997   3.245  1.00  0.00     0.000 C 
BRANCH  20  21
ATOM     21  C   UNL     1       5.402  39.863   1.906  1.00  0.00     0.000 C 
BRANCH  21  22
ATOM     22  C   UNL     1       5.653  41.056   0.966  1.00  0.00     0.000 C 
BRANCH  22  23
ATOM     23  C   UNL     1       6.982  40.937   0.195  1.00  0.00     0.000 C 
BRANCH  23  24
ATOM     24  C   UNL     1       7.869  42.201   0.210  1.00  0.00    -0.000 C 
BRANCH  24  25
ATOM     25  C   UNL     1       9.275  42.014   0.806  1.00  0.00    -0.000 C 
BRANCH  25  26
ATOM     26  C   UNL     1       9.337  42.329   2.311  1.00  0.00    -0.000 C 
BRANCH  26  27
ATOM     27  C   UNL     1       9.498  41.069   3.181  1.00  0.00    -0.000 C 
BRANCH  27  28
ATOM     28  C   UNL     1      10.342  39.945   2.554  1.00  0.00    -0.000 C 
BRANCH  28  29
ATOM     29  C   UNL     1       9.522  38.690   2.220  1.00  0.00    -0.000 C 
BRANCH  29  30
ATOM     30  C   UNL     1      10.147  37.925   1.043  1.00  0.00    -0.000 C 
BRANCH  30  31
ATOM     31  C   UNL     1       9.846  38.581  -0.313  1.00  0.00    -0.003 C 
ATOM     32  C   UNL     1      11.103  39.108  -1.005  1.00  0.00     0.004 C 
ENDBRANCH  30  31
ENDBRANCH  29  30
ENDBRANCH  28  29
ENDBRANCH  27  28
ENDBRANCH  26  27
ENDBRANCH  25  26
ENDBRANCH  24  25
ENDBRANCH  23  24
ENDBRANCH  22  23
ENDBRANCH  21  22
ENDBRANCH  20  21
ENDBRANCH  19  20
ENDBRANCH  18  19
ENDBRANCH   1  18
TORSDOF 28
ENDMDL
MODEL 6
REMARK VINA RESULT:    -4.013      1.658      4.680
REMARK INTER + INTRA:         -16.595
REMARK INTER:                 -10.645
REMARK INTRA:                  -5.950
REMARK UNBOUND:                -6.012
REMARK SMILES CCCCCCCCCCCCCCCCCCCCCCCCCCCCCC(=O)[O-]
REMARK SMILES IDX 16 1 17 2 18 3 19 4 20 5 21 6 22 7 23 8 24 9 25 10 26 11
REMARK SMILES IDX 27 12 28 13 29 14 30 15 31 16 32 17 15 18 14 19 13 20 12 21
REMARK SMILES IDX 11 22 10 23 9 24 8 25 7 26 6 27 5 28 4 29 3 30 2 31 1 32
REMARK H PARENT
REMARK Flexibility Score: inf
ROOT
ATOM      1  C   UNL     1       4.637  37.980  -1.823  1.00  0.00     0.000 C 
ENDROOT
BRANCH   1   2
ATOM      2  C   UNL     1       3.600  38.498  -0.813  1.00  0.00     0.000 C 
BRANCH   2   3
ATOM      3  C   UNL     1       4.025  38.261   0.644  1.00  0.00     0.000 C 
BRANCH   3   4
ATOM      4  C   UNL     1       5.434  37.660   0.714  1.00  0.00     0.000 C 
BRANCH   4   5
ATOM      5  C   UNL     1       5.442  36.364   1.540  1.00  0.00     0.000 C 
BRANCH   5   6
ATOM      6  C   UNL     1       4.118  36.127   2.291  1.00  0.00     0.000 C 
BRANCH   6   7
ATOM      7  C   UNL     1       4.183  36.360   3.814  1.00  0.00     0.000 C 
BRANCH   7   8
ATOM      8  C   UNL     1       3.750  37.763   4.280  1.00  0.00     0.000 C 
BRANCH   8   9
ATOM      9  C   UNL     1       4.668  38.409   5.339  1.00  0.00     0.000 C 
BRANCH   9  10
ATOM     10  C   UNL     1       6.130  38.603   4.897  1.00  0.00     0.000 C 
BRANCH  10  11
ATOM     11  C   UNL     1       6.326  39.501   3.660  1.00  0.00     0.000 C 
BRANCH  11  12
ATOM     12  C   UNL     1       7.799  39.872   3.383  1.00  0.00     0.000 C 
BRANCH  12  13
ATOM     13  C   UNL     1       8.555  38.758   2.636  1.00  0.00     0.006 C 
BRANCH  13  14
ATOM     14  C   UNL     1       9.866  39.263   2.017  1.00  0.00     0.053 C 
BRANCH  14  15
ATOM     15  C   UNL     1       9.626  40.151   0.835  1.00  0.00     0.041 C 
ATOM     16  O   UNL     1      10.357  41.158   0.636  1.00  0.00    -0.550 OA
ATOM     17  O   UNL     1       8.593  39.867  -0.051  1.00  0.00    -0.550 OA
ENDBRANCH  14  15
ENDBRANCH  13  14
ENDBRANCH  12  13
ENDBRANCH  11  12
ENDBRANCH  10  11
ENDBRANCH   9  10
ENDBRANCH   8   9
ENDBRANCH   7   8
ENDBRANCH   6   7
ENDBRANCH   5   6
ENDBRANCH   4   5
ENDBRANCH   3   4
ENDBRANCH   2   3
ENDBRANCH   1   2
BRANCH   1  18
ATOM     18  C   UNL     1       4.044  36.961  -2.813  1.00  0.00     0.000 C 
BRANCH  18  19
ATOM     19  C   UNL     1       3.056  35.990  -2.147  1.00  0.00     0.000 C 
BRANCH  19  20
ATOM     20  C   UNL     1       3.762  34.856  -1.385  1.00  0.00     0.000 C 
BRANCH  20  21
ATOM     21  C   UNL     1       4.204  33.707  -2.307  1.00  0.00     0.000 C 
BRANCH  21  22
ATOM     22  C   UNL     1       5.721  33.705  -2.567  1.00  0.00     0.000 C 
BRANCH  22  23
ATOM     23  C   UNL     1       6.490  34.640  -1.614  1.00  0.00     0.000 C 
BRANCH  23  24
ATOM     24  C   UNL     1       7.441  35.645  -2.300  1.00  0.00    -0.000 C 
BRANCH  24  25
ATOM     25  C   UNL     1       8.093  36.680  -1.367  1.00  0.00    -0.000 C 
BRANCH  25  26
ATOM     26  C   UNL     1       9.624  36.545  -1.296  1.00  0.00    -0.000 C 
BRANCH  26  27
ATOM     27  C   UNL     1      10.124  36.103   0.091  1.00  0.00    -0.000 C 
BRANCH  27  28
ATOM     28  C   UNL     1       9.050  35.487   1.007  1.00  0.00    -0.000 C 
BRANCH  28  29
ATOM     29  C   UNL     1       8.883  33.974   0.806  1.00  0.00    -0.000 C 
BRANCH  29  30
ATOM     30  C   UNL     1      10.069  33.392   0.021  1.00  0.00    -0.000 C 
BRANCH  30  31
ATOM     31  C   UNL     1       9.659  32.216  -0.881  1.00  0.00    -0.003 C 
ATOM     32  C   UNL     1       9.482  32.628  -2.342  1.00  0.00     0.004 C 
ENDBRANCH  30  31
ENDBRANCH  29  30
ENDBRANCH  28  29
ENDBRANCH  27  28
ENDBRANCH  26  27
ENDBRANCH  25  26
ENDBRANCH  24  25
ENDBRANCH  23  24
ENDBRANCH  22  23
ENDBRANCH  21  22
ENDBRANCH  20  21
ENDBRANCH  19  20
ENDBRANCH  18  19
ENDBRANCH   1  18
TORSDOF 28
ENDMDL
MODEL 7
REMARK VINA RESULT:    -4.009      3.451      7.083
REMARK INTER + INTRA:         -16.584
REMARK INTER:                 -11.072
REMARK INTRA:                  -5.513
REMARK UNBOUND:                -6.012
REMARK SMILES CCCCCCCCCCCCCCCCCCCCCCCCCCCCCC(=O)[O-]
REMARK SMILES IDX 16 1 17 2 18 3 19 4 20 5 21 6 22 7 23 8 24 9 25 10 26 11
REMARK SMILES IDX 27 12 28 13 29 14 30 15 31 16 32 17 15 18 14 19 13 20 12 21
REMARK SMILES IDX 11 22 10 23 9 24 8 25 7 26 6 27 5 28 4 29 3 30 2 31 1 32
REMARK H PARENT
REMARK Flexibility Score: inf
ROOT
ATOM      1  C   UNL     1       6.954  35.502  -0.596  1.00  0.00     0.000 C 
ENDROOT
BRANCH   1   2
ATOM      2  C   UNL     1       7.137  35.500   0.931  1.00  0.00     0.000 C 
BRANCH   2   3
ATOM      3  C   UNL     1       7.288  36.915   1.510  1.00  0.00     0.000 C 
BRANCH   3   4
ATOM      4  C   UNL     1       6.990  37.978   0.445  1.00  0.00     0.000 C 
BRANCH   4   5
ATOM      5  C   UNL     1       7.441  39.370   0.912  1.00  0.00     0.000 C 
BRANCH   5   6
ATOM      6  C   UNL     1       8.453  40.023  -0.048  1.00  0.00     0.000 C 
BRANCH   6   7
ATOM      7  C   UNL     1       9.912  40.032   0.449  1.00  0.00     0.000 C 
BRANCH   7   8
ATOM      8  C   UNL     1      10.133  39.399   1.836  1.00  0.00     0.000 C 
BRANCH   8   9
ATOM      9  C   UNL     1      10.831  38.023   1.819  1.00  0.00     0.000 C 
BRANCH   9  10
ATOM     10  C   UNL     1      11.076  37.438   0.415  1.00  0.00     0.000 C 
BRANCH  10  11
ATOM     11  C   UNL     1      10.699  35.953   0.251  1.00  0.00     0.000 C 
BRANCH  11  12
ATOM     12  C   UNL     1      10.528  35.509  -1.218  1.00  0.00     0.000 C 
BRANCH  12  13
ATOM     13  C   UNL     1      10.824  34.012  -1.418  1.00  0.00     0.006 C 
BRANCH  13  14
ATOM     14  C   UNL     1       9.663  33.124  -0.946  1.00  0.00     0.053 C 
BRANCH  14  15
ATOM     15  C   UNL     1      10.079  31.694  -0.778  1.00  0.00     0.041 C 
ATOM     16  O   UNL     1       9.812  31.075   0.286  1.00  0.00    -0.550 OA
ATOM     17  O   UNL     1      10.762  31.044  -1.800  1.00  0.00    -0.550 OA
ENDBRANCH  14  15
ENDBRANCH  13  14
ENDBRANCH  12  13
ENDBRANCH  11  12
ENDBRANCH  10  11
ENDBRANCH   9  10
ENDBRANCH   8   9
ENDBRANCH   7   8
ENDBRANCH   6   7
ENDBRANCH   5   6
ENDBRANCH   4   5
ENDBRANCH   3   4
ENDBRANCH   2   3
ENDBRANCH   1   2
BRANCH   1  18
ATOM     18  C   UNL     1       5.790  34.606  -1.057  1.00  0.00     0.000 C 
BRANCH  18  19
ATOM     19  C   UNL     1       4.610  35.410  -1.628  1.00  0.00     0.000 C 
BRANCH  19  20
ATOM     20  C   UNL     1       3.292  35.140  -0.881  1.00  0.00     0.000 C 
BRANCH  20  21
ATOM     21  C   UNL     1       3.319  35.645   0.571  1.00  0.00     0.000 C 
BRANCH  21  22
ATOM     22  C   UNL     1       3.334  37.181   0.665  1.00  0.00     0.000 C 
BRANCH  22  23
ATOM     23  C   UNL     1       3.663  37.689   2.082  1.00  0.00     0.000 C 
BRANCH  23  24
ATOM     24  C   UNL     1       4.053  36.596   3.101  1.00  0.00    -0.000 C 
BRANCH  24  25
ATOM     25  C   UNL     1       4.545  37.110   4.465  1.00  0.00    -0.000 C 
BRANCH  25  26
ATOM     26  C   UNL     1       5.005  38.577   4.425  1.00  0.00    -0.000 C 
BRANCH  26  27
ATOM     27  C   UNL     1       6.531  38.732   4.549  1.00  0.00    -0.000 C 
BRANCH  27  28
ATOM     28  C   UNL     1       7.004  40.046   5.197  1.00  0.00    -0.000 C 
BRANCH  28  29
ATOM     29  C   UNL     1       7.793  40.944   4.233  1.00  0.00    -0.000 C 
BRANCH  29  30
ATOM     30  C   UNL     1       8.769  41.849   5.001  1.00  0.00    -0.000 C 
BRANCH  30  31
ATOM     31  C   UNL     1       9.759  42.570   4.074  1.00  0.00    -0.003 C 
ATOM     32  C   UNL     1       9.163  42.878   2.700  1.00  0.00     0.004 C 
ENDBRANCH  30  31
ENDBRANCH  29  30
ENDBRANCH  28  29
ENDBRANCH  27  28
ENDBRANCH  26  27
ENDBRANCH  25  26
ENDBRANCH  24  25
ENDBRANCH  23  24
ENDBRANCH  22  23
ENDBRANCH  21  22
ENDBRANCH  20  21
ENDBRANCH  19  20
ENDBRANCH  18  19
ENDBRANCH   1  18
TORSDOF 28
ENDMDL
MODEL 8
REMARK VINA RESULT:    -3.992      1.667      5.297
REMARK INTER + INTRA:         -16.540
REMARK INTER:                 -10.300
REMARK INTRA:                  -6.240
REMARK UNBOUND:                -6.012
REMARK SMILES CCCCCCCCCCCCCCCCCCCCCCCCCCCCCC(=O)[O-]
REMARK SMILES IDX 16 1 17 2 18 3 19 4 20 5 21 6 22 7 23 8 24 9 25 10 26 11
REMARK SMILES IDX 27 12 28 13 29 14 30 15 31 16 32 17 15 18 14 19 13 20 12 21
REMARK SMILES IDX 11 22 10 23 9 24 8 25 7 26 6 27 5 28 4 29 3 30 2 31 1 32
REMARK H PARENT
REMARK Flexibility Score: inf
ROOT
ATOM      1  C   UNL     1       5.609  36.211  -2.526  1.00  0.00     0.000 C 
ENDROOT
BRANCH   1   2
ATOM      2  C   UNL     1       6.961  35.483  -2.439  1.00  0.00     0.000 C 
BRANCH   2   3
ATOM      3  C   UNL     1       6.902  34.233  -1.547  1.00  0.00     0.000 C 
BRANCH   3   4
ATOM      4  C   UNL     1       8.078  33.293  -1.843  1.00  0.00     0.000 C 
BRANCH   4   5
ATOM      5  C   UNL     1       9.161  33.405  -0.759  1.00  0.00     0.000 C 
BRANCH   5   6
ATOM      6  C   UNL     1      10.426  34.132  -1.253  1.00  0.00     0.000 C 
BRANCH   6   7
ATOM      7  C   UNL     1      10.539  35.608  -0.821  1.00  0.00     0.000 C 
BRANCH   7   8
ATOM      8  C   UNL     1      10.663  35.838   0.697  1.00  0.00     0.000 C 
BRANCH   8   9
ATOM      9  C   UNL     1       9.617  36.801   1.296  1.00  0.00     0.000 C 
BRANCH   9  10
ATOM     10  C   UNL     1       8.151  36.372   1.097  1.00  0.00     0.000 C 
BRANCH  10  11
ATOM     11  C   UNL     1       7.164  37.526   0.832  1.00  0.00     0.000 C 
BRANCH  11  12
ATOM     12  C   UNL     1       7.458  38.317  -0.461  1.00  0.00     0.000 C 
BRANCH  12  13
ATOM     13  C   UNL     1       6.401  39.401  -0.739  1.00  0.00     0.006 C 
BRANCH  13  14
ATOM     14  C   UNL     1       5.997  40.157   0.536  1.00  0.00     0.053 C 
BRANCH  14  15
ATOM     15  C   UNL     1       6.233  41.631   0.416  1.00  0.00     0.041 C 
ATOM     16  O   UNL     1       6.430  42.155  -0.713  1.00  0.00    -0.550 OA
ATOM     17  O   UNL     1       6.234  42.431   1.553  1.00  0.00    -0.550 OA
ENDBRANCH  14  15
ENDBRANCH  13  14
ENDBRANCH  12  13
ENDBRANCH  11  12
ENDBRANCH  10  11
ENDBRANCH   9  10
ENDBRANCH   8   9
ENDBRANCH   7   8
ENDBRANCH   6   7
ENDBRANCH   5   6
ENDBRANCH   4   5
ENDBRANCH   3   4
ENDBRANCH   2   3
ENDBRANCH   1   2
BRANCH   1  18
ATOM     18  C   UNL     1       4.464  35.418  -1.871  1.00  0.00     0.000 C 
BRANCH  18  19
ATOM     19  C   UNL     1       3.341  36.324  -1.341  1.00  0.00     0.000 C 
BRANCH  19  20
ATOM     20  C   UNL     1       3.640  36.880   0.062  1.00  0.00     0.000 C 
BRANCH  20  21
ATOM     21  C   UNL     1       3.966  35.775   1.081  1.00  0.00     0.000 C 
BRANCH  21  22
ATOM     22  C   UNL     1       4.078  36.309   2.520  1.00  0.00     0.000 C 
BRANCH  22  23
ATOM     23  C   UNL     1       3.982  37.845   2.595  1.00  0.00     0.000 C 
BRANCH  23  24
ATOM     24  C   UNL     1       4.266  38.457   3.984  1.00  0.00    -0.000 C 
BRANCH  24  25
ATOM     25  C   UNL     1       5.708  38.293   4.496  1.00  0.00    -0.000 C 
BRANCH  25  26
ATOM     26  C   UNL     1       6.563  39.557   4.299  1.00  0.00    -0.000 C 
BRANCH  26  27
ATOM     27  C   UNL     1       7.851  39.293   3.499  1.00  0.00    -0.000 C 
BRANCH  27  28
ATOM     28  C   UNL     1       8.704  40.540   3.203  1.00  0.00    -0.000 C 
BRANCH  28  29
ATOM     29  C   UNL     1       9.864  40.261   2.236  1.00  0.00    -0.000 C 
BRANCH  29  30
ATOM     30  C   UNL     1       9.995  41.387   1.198  1.00  0.00    -0.000 C 
BRANCH  30  31
ATOM     31  C   UNL     1       9.796  40.888  -0.242  1.00  0.00    -0.003 C 
ATOM     32  C   UNL     1      10.764  39.764  -0.615  1.00  0.00     0.004 C 
ENDBRANCH  30  31
ENDBRANCH  29  30
ENDBRANCH  28  29
ENDBRANCH  27  28
ENDBRANCH  26  27
ENDBRANCH  25  26
ENDBRANCH  24  25
ENDBRANCH  23  24
ENDBRANCH  22  23
ENDBRANCH  21  22
ENDBRANCH  20  21
ENDBRANCH  19  20
ENDBRANCH  18  19
ENDBRANCH   1  18
TORSDOF 28
ENDMDL
MODEL 9
REMARK VINA RESULT:    -3.976      2.422      6.494
REMARK INTER + INTRA:         -16.497
REMARK INTER:                 -10.764
REMARK INTRA:                  -5.733
REMARK UNBOUND:                -6.012
REMARK SMILES CCCCCCCCCCCCCCCCCCCCCCCCCCCCCC(=O)[O-]
REMARK SMILES IDX 16 1 17 2 18 3 19 4 20 5 21 6 22 7 23 8 24 9 25 10 26 11
REMARK SMILES IDX 27 12 28 13 29 14 30 15 31 16 32 17 15 18 14 19 13 20 12 21
REMARK SMILES IDX 11 22 10 23 9 24 8 25 7 26 6 27 5 28 4 29 3 30 2 31 1 32
REMARK H PARENT
REMARK Flexibility Score: inf
ROOT
ATOM      1  C   UNL     1       7.324  35.645  -1.482  1.00  0.00     0.000 C 
ENDROOT
BRANCH   1   2
ATOM      2  C   UNL     1       6.189  35.411  -2.493  1.00  0.00     0.000 C 
BRANCH   2   3
ATOM      3  C   UNL     1       5.320  34.196  -2.135  1.00  0.00     0.000 C 
BRANCH   3   4
ATOM      4  C   UNL     1       3.861  34.613  -1.911  1.00  0.00     0.000 C 
BRANCH   4   5
ATOM      5  C   UNL     1       3.667  36.113  -2.180  1.00  0.00     0.000 C 
BRANCH   5   6
ATOM      6  C   UNL     1       2.969  36.842  -1.017  1.00  0.00     0.000 C 
BRANCH   6   7
ATOM      7  C   UNL     1       3.421  38.300  -0.797  1.00  0.00     0.000 C 
BRANCH   7   8
ATOM      8  C   UNL     1       4.858  38.615  -1.256  1.00  0.00     0.000 C 
BRANCH   8   9
ATOM      9  C   UNL     1       5.670  39.502  -0.290  1.00  0.00     0.000 C 
BRANCH   9  10
ATOM     10  C   UNL     1       7.158  39.664  -0.654  1.00  0.00     0.000 C 
BRANCH  10  11
ATOM     11  C   UNL     1       8.125  38.751   0.124  1.00  0.00     0.000 C 
BRANCH  11  12
ATOM     12  C   UNL     1       9.616  39.034  -0.160  1.00  0.00     0.000 C 
BRANCH  12  13
ATOM     13  C   UNL     1      10.273  37.928  -1.006  1.00  0.00     0.006 C 
BRANCH  13  14
ATOM     14  C   UNL     1      11.360  37.172  -0.229  1.00  0.00     0.053 C 
BRANCH  14  15
ATOM     15  C   UNL     1      10.816  35.964   0.471  1.00  0.00     0.041 C 
ATOM     16  O   UNL     1      10.417  36.045   1.663  1.00  0.00    -0.550 OA
ATOM     17  O   UNL     1      10.749  34.745  -0.195  1.00  0.00    -0.550 OA
ENDBRANCH  14  15
ENDBRANCH  13  14
ENDBRANCH  12  13
ENDBRANCH  11  12
ENDBRANCH  10  11
ENDBRANCH   9  10
ENDBRANCH   8   9
ENDBRANCH   7   8
ENDBRANCH   6   7
ENDBRANCH   5   6
ENDBRANCH   4   5
ENDBRANCH   3   4
ENDBRANCH   2   3
ENDBRANCH   1   2
BRANCH   1  18
ATOM     18  C   UNL     1       7.384  34.556  -0.394  1.00  0.00     0.000 C 
BRANCH  18  19
ATOM     19  C   UNL     1       7.196  35.120   1.023  1.00  0.00     0.000 C 
BRANCH  19  20
ATOM     20  C   UNL     1       6.069  36.164   1.101  1.00  0.00     0.000 C 
BRANCH  20  21
ATOM     21  C   UNL     1       4.873  35.684   1.940  1.00  0.00     0.000 C 
BRANCH  21  22
ATOM     22  C   UNL     1       4.137  36.841   2.639  1.00  0.00     0.000 C 
BRANCH  22  23
ATOM     23  C   UNL     1       3.716  36.494   4.080  1.00  0.00     0.000 C 
BRANCH  23  24
ATOM     24  C   UNL     1       4.497  37.229   5.191  1.00  0.00    -0.000 C 
BRANCH  24  25
ATOM     25  C   UNL     1       5.022  38.626   4.816  1.00  0.00    -0.000 C 
BRANCH  25  26
ATOM     26  C   UNL     1       6.549  38.753   4.959  1.00  0.00    -0.000 C 
BRANCH  26  27
ATOM     27  C   UNL     1       7.252  39.075   3.628  1.00  0.00    -0.000 C 
BRANCH  27  28
ATOM     28  C   UNL     1       7.450  40.575   3.340  1.00  0.00    -0.000 C 
BRANCH  28  29
ATOM     29  C   UNL     1       8.839  41.088   3.747  1.00  0.00    -0.000 C 
BRANCH  29  30
ATOM     30  C   UNL     1       9.719  41.325   2.509  1.00  0.00    -0.000 C 
BRANCH  30  31
ATOM     31  C   UNL     1       9.525  42.726   1.907  1.00  0.00    -0.003 C 
ATOM     32  C   UNL     1       8.756  42.699   0.586  1.00  0.00     0.004 C 
ENDBRANCH  30  31
ENDBRANCH  29  30
ENDBRANCH  28  29
ENDBRANCH  27  28
ENDBRANCH  26  27
ENDBRANCH  25  26
ENDBRANCH  24  25
ENDBRANCH  23  24
ENDBRANCH  22  23
ENDBRANCH  21  22
ENDBRANCH  20  21
ENDBRANCH  19  20
ENDBRANCH  18  19
ENDBRANCH   1  18
TORSDOF 28
ENDMDL
