MODEL 1
REMARK VINA RESULT:    -5.162      0.000      0.000
REMARK INTER + INTRA:         -14.025
REMARK INTER:                 -11.198
REMARK INTRA:                  -2.827
REMARK UNBOUND:                -2.827
REMARK SMILES CCCCCCCCCCCCCCCCCCCCCC(=O)[O-]
REMARK SMILES IDX 12 1 11 2 10 3 9 4 8 5 7 6 6 7 5 8 4 9 3 10 2 11 1 12 13 13
REMARK SMILES IDX 14 14 15 15 16 16 17 17 18 18 19 19 20 20 21 21 22 22 23 23
REMARK SMILES IDX 24 24
REMARK H PARENT
REMARK Flexibility Score: inf
ROOT
ATOM      1  C   UNL     1     -51.410 -50.483  20.413  1.00  0.00     0.000 C 
ENDROOT
BRANCH   1   2
ATOM      2  C   UNL     1     -52.637 -49.612  20.089  1.00  0.00     0.000 C 
BRANCH   2   3
ATOM      3  C   UNL     1     -53.453 -49.239  21.339  1.00  0.00     0.000 C 
BRANCH   3   4
ATOM      4  C   UNL     1     -54.115 -47.851  21.209  1.00  0.00    -0.000 C 
BRANCH   4   5
ATOM      5  C   UNL     1     -53.902 -46.940  22.434  1.00  0.00    -0.000 C 
BRANCH   5   6
ATOM      6  C   UNL     1     -52.466 -46.915  22.986  1.00  0.00    -0.000 C 
BRANCH   6   7
ATOM      7  C   UNL     1     -52.383 -47.385  24.449  1.00  0.00    -0.000 C 
BRANCH   7   8
ATOM      8  C   UNL     1     -51.128 -46.856  25.162  1.00  0.00    -0.000 C 
BRANCH   8   9
ATOM      9  C   UNL     1     -50.013 -47.910  25.249  1.00  0.00    -0.000 C 
BRANCH   9  10
ATOM     10  C   UNL     1     -50.581 -49.326  25.072  1.00  0.00    -0.000 C 
BRANCH  10  11
ATOM     11  C   UNL     1     -49.865 -50.116  23.965  1.00  0.00    -0.003 C 
ATOM     12  C   UNL     1     -48.512 -49.513  23.586  1.00  0.00     0.004 C 
ENDBRANCH  10  11
ENDBRANCH   9  10
ENDBRANCH   8   9
ENDBRANCH   7   8
ENDBRANCH   6   7
ENDBRANCH   5   6
ENDBRANCH   4   5
ENDBRANCH   3   4
ENDBRANCH   2   3
ENDBRANCH   1   2
BRANCH   1  13
ATOM     13  C   UNL     1     -50.052 -49.775  20.246  1.00  0.00     0.000 C 
BRANCH  13  14
ATOM     14  C   UNL     1     -50.176 -48.242  20.234  1.00  0.00     0.000 C 
BRANCH  14  15
ATOM     15  C   UNL     1     -48.814 -47.535  20.303  1.00  0.00     0.000 C 
BRANCH  15  16
ATOM     16  C   UNL     1     -47.751 -48.210  19.424  1.00  0.00     0.000 C 
BRANCH  16  17
ATOM     17  C   UNL     1     -47.828 -47.691  17.983  1.00  0.00     0.000 C 
BRANCH  17  18
ATOM     18  C   UNL     1     -47.420 -48.781  16.980  1.00  0.00     0.000 C 
BRANCH  18  19
ATOM     19  C   UNL     1     -47.494 -50.192  17.583  1.00  0.00     0.000 C 
BRANCH  19  20
ATOM     20  C   UNL     1     -48.107 -51.219  16.616  1.00  0.00     0.006 C 
BRANCH  20  21
ATOM     21  C   UNL     1     -49.601 -50.966  16.375  1.00  0.00     0.053 C 
BRANCH  21  22
ATOM     22  C   UNL     1     -49.904 -50.785  14.919  1.00  0.00     0.041 C 
ATOM     23  O   UNL     1     -50.654 -51.600  14.322  1.00  0.00    -0.550 OA
ATOM     24  O   UNL     1     -49.370 -49.706  14.227  1.00  0.00    -0.550 OA
ENDBRANCH  21  22
ENDBRANCH  20  21
ENDBRANCH  19  20
ENDBRANCH  18  19
ENDBRANCH  17  18
ENDBRANCH  16  17
ENDBRANCH  15  16
ENDBRANCH  14  15
ENDBRANCH  13  14
ENDBRANCH   1  13
TORSDOF 20
ENDMDL
MODEL 2
REMARK VINA RESULT:    -4.980      0.916      3.545
REMARK INTER + INTRA:         -13.630
REMARK INTER:                 -10.383
REMARK INTRA:                  -3.247
REMARK UNBOUND:                -2.827
REMARK SMILES CCCCCCCCCCCCCCCCCCCCCC(=O)[O-]
REMARK SMILES IDX 12 1 11 2 10 3 9 4 8 5 7 6 6 7 5 8 4 9 3 10 2 11 1 12 13 13
REMARK SMILES IDX 14 14 15 15 16 16 17 17 18 18 19 19 20 20 21 21 22 22 23 23
REMARK SMILES IDX 24 24
REMARK H PARENT
REMARK Flexibility Score: inf
ROOT
ATOM      1  C   UNL     1     -49.947 -50.077  24.210  1.00  0.00     0.000 C 
ENDROOT
BRANCH   1   2
ATOM      2  C   UNL     1     -49.832 -49.350  25.561  1.00  0.00     0.000 C 
BRANCH   2   3
ATOM      3  C   UNL     1     -49.524 -47.850  25.410  1.00  0.00     0.000 C 
BRANCH   3   4
ATOM      4  C   UNL     1     -50.802 -46.986  25.451  1.00  0.00    -0.000 C 
BRANCH   4   5
ATOM      5  C   UNL     1     -51.164 -46.342  24.098  1.00  0.00    -0.000 C 
BRANCH   5   6
ATOM      6  C   UNL     1     -52.599 -46.609  23.612  1.00  0.00    -0.000 C 
BRANCH   6   7
ATOM      7  C   UNL     1     -52.759 -47.993  22.959  1.00  0.00    -0.000 C 
BRANCH   7   8
ATOM      8  C   UNL     1     -53.155 -47.898  21.477  1.00  0.00    -0.000 C 
BRANCH   8   9
ATOM      9  C   UNL     1     -53.341 -49.279  20.829  1.00  0.00    -0.000 C 
BRANCH   9  10
ATOM     10  C   UNL     1     -52.932 -49.250  19.348  1.00  0.00    -0.000 C 
BRANCH  10  11
ATOM     11  C   UNL     1     -52.078 -50.463  18.947  1.00  0.00    -0.003 C 
ATOM     12  C   UNL     1     -51.829 -51.424  20.110  1.00  0.00     0.004 C 
ENDBRANCH  10  11
ENDBRANCH   9  10
ENDBRANCH   8   9
ENDBRANCH   7   8
ENDBRANCH   6   7
ENDBRANCH   5   6
ENDBRANCH   4   5
ENDBRANCH   3   4
ENDBRANCH   2   3
ENDBRANCH   1   2
BRANCH   1  13
ATOM     13  C   UNL     1     -48.994 -49.564  23.116  1.00  0.00     0.000 C 
BRANCH  13  14
ATOM     14  C   UNL     1     -49.713 -49.274  21.787  1.00  0.00     0.000 C 
BRANCH  14  15
ATOM     15  C   UNL     1     -49.277 -47.943  21.154  1.00  0.00     0.000 C 
BRANCH  15  16
ATOM     16  C   UNL     1     -49.322 -47.974  19.619  1.00  0.00     0.000 C 
BRANCH  16  17
ATOM     17  C   UNL     1     -48.441 -49.104  19.072  1.00  0.00     0.000 C 
BRANCH  17  18
ATOM     18  C   UNL     1     -48.277 -48.989  17.549  1.00  0.00     0.000 C 
BRANCH  18  19
ATOM     19  C   UNL     1     -47.533 -50.192  16.946  1.00  0.00     0.000 C 
BRANCH  19  20
ATOM     20  C   UNL     1     -48.422 -51.442  16.832  1.00  0.00     0.006 C 
BRANCH  20  21
ATOM     21  C   UNL     1     -49.799 -51.119  16.238  1.00  0.00     0.053 C 
BRANCH  21  22
ATOM     22  C   UNL     1     -49.742 -50.989  14.747  1.00  0.00     0.041 C 
ATOM     23  O   UNL     1     -49.973 -51.987  14.015  1.00  0.00    -0.550 OA
ATOM     24  O   UNL     1     -49.452 -49.762  14.167  1.00  0.00    -0.550 OA
ENDBRANCH  21  22
ENDBRANCH  20  21
ENDBRANCH  19  20
ENDBRANCH  18  19
ENDBRANCH  17  18
ENDBRANCH  16  17
ENDBRANCH  15  16
ENDBRANCH  14  15
ENDBRANCH  13  14
ENDBRANCH   1  13
TORSDOF 20
ENDMDL
MODEL 3
REMARK VINA RESULT:    -4.979      1.235      2.423
REMARK INTER + INTRA:         -13.627
REMARK INTER:                 -10.764
REMARK INTRA:                  -2.863
REMARK UNBOUND:                -2.827
REMARK SMILES CCCCCCCCCCCCCCCCCCCCCC(=O)[O-]
REMARK SMILES IDX 12 1 11 2 10 3 9 4 8 5 7 6 6 7 5 8 4 9 3 10 2 11 1 12 13 13
REMARK SMILES IDX 14 14 15 15 16 16 17 17 18 18 19 19 20 20 21 21 22 22 23 23
REMARK SMILES IDX 24 24
REMARK H PARENT
REMARK Flexibility Score: inf
ROOT
ATOM      1  C   UNL     1     -53.902 -49.293  21.505  1.00  0.00     0.000 C 
ENDROOT
BRANCH   1   2
ATOM      2  C   UNL     1     -54.420 -47.972  20.911  1.00  0.00     0.000 C 
BRANCH   2   3
ATOM      3  C   UNL     1     -54.915 -46.986  21.984  1.00  0.00     0.000 C 
BRANCH   3   4
ATOM      4  C   UNL     1     -53.779 -46.082  22.512  1.00  0.00    -0.000 C 
BRANCH   4   5
ATOM      5  C   UNL     1     -53.018 -46.675  23.715  1.00  0.00    -0.000 C 
BRANCH   5   6
ATOM      6  C   UNL     1     -51.485 -46.588  23.622  1.00  0.00    -0.000 C 
BRANCH   6   7
ATOM      7  C   UNL     1     -50.942 -47.076  22.267  1.00  0.00    -0.000 C 
BRANCH   7   8
ATOM      8  C   UNL     1     -49.789 -48.080  22.425  1.00  0.00    -0.000 C 
BRANCH   8   9
ATOM      9  C   UNL     1     -50.271 -49.458  22.902  1.00  0.00    -0.000 C 
BRANCH   9  10
ATOM     10  C   UNL     1     -49.381 -49.989  24.036  1.00  0.00    -0.000 C 
BRANCH  10  11
ATOM     11  C   UNL     1     -50.096 -49.993  25.396  1.00  0.00    -0.003 C 
ATOM     12  C   UNL     1     -49.915 -48.684  26.165  1.00  0.00     0.004 C 
ENDBRANCH  10  11
ENDBRANCH   9  10
ENDBRANCH   8   9
ENDBRANCH   7   8
ENDBRANCH   6   7
ENDBRANCH   5   6
ENDBRANCH   4   5
ENDBRANCH   3   4
ENDBRANCH   2   3
ENDBRANCH   1   2
BRANCH   1  13
ATOM     13  C   UNL     1     -52.740 -49.940  20.728  1.00  0.00     0.000 C 
BRANCH  13  14
ATOM     14  C   UNL     1     -52.652 -49.452  19.271  1.00  0.00     0.000 C 
BRANCH  14  15
ATOM     15  C   UNL     1     -51.540 -50.155  18.477  1.00  0.00     0.000 C 
BRANCH  15  16
ATOM     16  C   UNL     1     -50.592 -50.965  19.373  1.00  0.00     0.000 C 
BRANCH  16  17
ATOM     17  C   UNL     1     -49.236 -50.260  19.506  1.00  0.00     0.000 C 
BRANCH  17  18
ATOM     18  C   UNL     1     -48.947 -49.380  18.281  1.00  0.00     0.000 C 
BRANCH  18  19
ATOM     19  C   UNL     1     -47.541 -49.615  17.707  1.00  0.00     0.000 C 
BRANCH  19  20
ATOM     20  C   UNL     1     -47.560 -49.935  16.203  1.00  0.00     0.006 C 
BRANCH  20  21
ATOM     21  C   UNL     1     -48.497 -51.104  15.872  1.00  0.00     0.053 C 
BRANCH  21  22
ATOM     22  C   UNL     1     -49.562 -50.701  14.899  1.00  0.00     0.041 C 
ATOM     23  O   UNL     1     -50.605 -51.395  14.778  1.00  0.00    -0.550 OA
ATOM     24  O   UNL     1     -49.409 -49.548  14.139  1.00  0.00    -0.550 OA
ENDBRANCH  21  22
ENDBRANCH  20  21
ENDBRANCH  19  20
ENDBRANCH  18  19
ENDBRANCH  17  18
ENDBRANCH  16  17
ENDBRANCH  15  16
ENDBRANCH  14  15
ENDBRANCH  13  14
ENDBRANCH   1  13
TORSDOF 20
ENDMDL
MODEL 4
REMARK VINA RESULT:    -4.965      3.489      6.188
REMARK INTER + INTRA:         -13.597
REMARK INTER:                 -10.528
REMARK INTRA:                  -3.068
REMARK UNBOUND:                -2.827
REMARK SMILES CCCCCCCCCCCCCCCCCCCCCC(=O)[O-]
REMARK SMILES IDX 12 1 11 2 10 3 9 4 8 5 7 6 6 7 5 8 4 9 3 10 2 11 1 12 13 13
REMARK SMILES IDX 14 14 15 15 16 16 17 17 18 18 19 19 20 20 21 21 22 22 23 23
REMARK SMILES IDX 24 24
REMARK H PARENT
REMARK Flexibility Score: inf
ROOT
ATOM      1  C   UNL     1     -48.408 -50.886  16.440  1.00  0.00     0.000 C 
ENDROOT
BRANCH   1   2
ATOM      2  C   UNL     1     -49.740 -50.788  17.205  1.00  0.00     0.000 C 
BRANCH   2   3
ATOM      3  C   UNL     1     -49.596 -51.114  18.702  1.00  0.00     0.000 C 
BRANCH   3   4
ATOM      4  C   UNL     1     -50.913 -50.889  19.475  1.00  0.00    -0.000 C 
BRANCH   4   5
ATOM      5  C   UNL     1     -51.990 -50.136  18.669  1.00  0.00    -0.000 C 
BRANCH   5   6
ATOM      6  C   UNL     1     -53.018 -49.366  19.516  1.00  0.00    -0.000 C 
BRANCH   6   7
ATOM      7  C   UNL     1     -52.611 -49.262  20.997  1.00  0.00    -0.000 C 
BRANCH   7   8
ATOM      8  C   UNL     1     -52.671 -47.818  21.520  1.00  0.00    -0.000 C 
BRANCH   8   9
ATOM      9  C   UNL     1     -53.974 -47.521  22.278  1.00  0.00    -0.000 C 
BRANCH   9  10
ATOM     10  C   UNL     1     -54.947 -46.717  21.403  1.00  0.00    -0.000 C 
BRANCH  10  11
ATOM     11  C   UNL     1     -56.373 -47.290  21.425  1.00  0.00    -0.003 C 
ATOM     12  C   UNL     1     -56.416 -48.784  21.102  1.00  0.00     0.004 C 
ENDBRANCH  10  11
ENDBRANCH   9  10
ENDBRANCH   8   9
ENDBRANCH   7   8
ENDBRANCH   6   7
ENDBRANCH   5   6
ENDBRANCH   4   5
ENDBRANCH   3   4
ENDBRANCH   2   3
ENDBRANCH   1   2
BRANCH   1  13
ATOM     13  C   UNL     1     -48.075 -49.664  15.564  1.00  0.00     0.000 C 
BRANCH  13  14
ATOM     14  C   UNL     1     -47.138 -48.665  16.265  1.00  0.00     0.000 C 
BRANCH  14  15
ATOM     15  C   UNL     1     -47.898 -47.522  16.955  1.00  0.00     0.000 C 
BRANCH  15  16
ATOM     16  C   UNL     1     -47.738 -47.542  18.482  1.00  0.00     0.000 C 
BRANCH  16  17
ATOM     17  C   UNL     1     -49.102 -47.681  19.169  1.00  0.00     0.000 C 
BRANCH  17  18
ATOM     18  C   UNL     1     -48.978 -47.493  20.689  1.00  0.00     0.000 C 
BRANCH  18  19
ATOM     19  C   UNL     1     -49.062 -48.823  21.454  1.00  0.00     0.000 C 
BRANCH  19  20
ATOM     20  C   UNL     1     -49.312 -48.627  22.959  1.00  0.00     0.006 C 
BRANCH  20  21
ATOM     21  C   UNL     1     -49.739 -49.930  23.648  1.00  0.00     0.053 C 
BRANCH  21  22
ATOM     22  C   UNL     1     -50.679 -49.671  24.786  1.00  0.00     0.041 C 
ATOM     23  O   UNL     1     -51.846 -49.255  24.562  1.00  0.00    -0.550 OA
ATOM     24  O   UNL     1     -50.271 -49.906  26.092  1.00  0.00    -0.550 OA
ENDBRANCH  21  22
ENDBRANCH  20  21
ENDBRANCH  19  20
ENDBRANCH  18  19
ENDBRANCH  17  18
ENDBRANCH  16  17
ENDBRANCH  15  16
ENDBRANCH  14  15
ENDBRANCH  13  14
ENDBRANCH   1  13
TORSDOF 20
ENDMDL
MODEL 5
REMARK VINA RESULT:    -4.912      3.381      7.503
REMARK INTER + INTRA:         -13.482
REMARK INTER:                 -10.178
REMARK INTRA:                  -3.304
REMARK UNBOUND:                -2.827
REMARK SMILES CCCCCCCCCCCCCCCCCCCCCC(=O)[O-]
REMARK SMILES IDX 12 1 11 2 10 3 9 4 8 5 7 6 6 7 5 8 4 9 3 10 2 11 1 12 13 13
REMARK SMILES IDX 14 14 15 15 16 16 17 17 18 18 19 19 20 20 21 21 22 22 23 23
REMARK SMILES IDX 24 24
REMARK H PARENT
REMARK Flexibility Score: inf
ROOT
ATOM      1  C   UNL     1     -52.681 -49.947  20.579  1.00  0.00     0.000 C 
ENDROOT
BRANCH   1   2
ATOM      2  C   UNL     1     -51.154 -50.065  20.431  1.00  0.00     0.000 C 
BRANCH   2   3
ATOM      3  C   UNL     1     -50.619 -49.374  19.164  1.00  0.00     0.000 C 
BRANCH   3   4
ATOM      4  C   UNL     1     -49.763 -48.133  19.495  1.00  0.00    -0.000 C 
BRANCH   4   5
ATOM      5  C   UNL     1     -48.294 -48.459  19.831  1.00  0.00    -0.000 C 
BRANCH   5   6
ATOM      6  C   UNL     1     -47.308 -48.306  18.660  1.00  0.00    -0.000 C 
BRANCH   6   7
ATOM      7  C   UNL     1     -47.830 -47.362  17.562  1.00  0.00    -0.000 C 
BRANCH   7   8
ATOM      8  C   UNL     1     -47.591 -47.920  16.150  1.00  0.00    -0.000 C 
BRANCH   8   9
ATOM      9  C   UNL     1     -47.142 -49.389  16.165  1.00  0.00    -0.000 C 
BRANCH   9  10
ATOM     10  C   UNL     1     -48.203 -50.295  15.523  1.00  0.00    -0.000 C 
BRANCH  10  11
ATOM     11  C   UNL     1     -48.939 -51.165  16.554  1.00  0.00    -0.003 C 
ATOM     12  C   UNL     1     -47.997 -51.789  17.583  1.00  0.00     0.004 C 
ENDBRANCH  10  11
ENDBRANCH   9  10
ENDBRANCH   8   9
ENDBRANCH   7   8
ENDBRANCH   6   7
ENDBRANCH   5   6
ENDBRANCH   4   5
ENDBRANCH   3   4
ENDBRANCH   2   3
ENDBRANCH   1   2
BRANCH   1  13
ATOM     13  C   UNL     1     -53.365 -49.054  19.528  1.00  0.00     0.000 C 
BRANCH  13  14
ATOM     14  C   UNL     1     -54.691 -48.453  20.028  1.00  0.00     0.000 C 
BRANCH  14  15
ATOM     15  C   UNL     1     -54.742 -48.317  21.557  1.00  0.00     0.000 C 
BRANCH  15  16
ATOM     16  C   UNL     1     -55.079 -46.890  22.014  1.00  0.00     0.000 C 
BRANCH  16  17
ATOM     17  C   UNL     1     -53.811 -46.147  22.454  1.00  0.00     0.000 C 
BRANCH  17  18
ATOM     18  C   UNL     1     -52.754 -47.126  22.988  1.00  0.00     0.000 C 
BRANCH  18  19
ATOM     19  C   UNL     1     -51.340 -46.796  22.484  1.00  0.00     0.000 C 
BRANCH  19  20
ATOM     20  C   UNL     1     -50.245 -47.559  23.250  1.00  0.00     0.006 C 
BRANCH  20  21
ATOM     21  C   UNL     1     -50.739 -48.916  23.766  1.00  0.00     0.053 C 
BRANCH  21  22
ATOM     22  C   UNL     1     -49.811 -49.488  24.794  1.00  0.00     0.041 C 
ATOM     23  O   UNL     1     -50.153 -50.496  25.465  1.00  0.00    -0.550 OA
ATOM     24  O   UNL     1     -48.562 -48.916  24.998  1.00  0.00    -0.550 OA
ENDBRANCH  21  22
ENDBRANCH  20  21
ENDBRANCH  19  20
ENDBRANCH  18  19
ENDBRANCH  17  18
ENDBRANCH  16  17
ENDBRANCH  15  16
ENDBRANCH  14  15
ENDBRANCH  13  14
ENDBRANCH   1  13
TORSDOF 20
ENDMDL
MODEL 6
REMARK VINA RESULT:    -4.909      0.931      1.767
REMARK INTER + INTRA:         -13.477
REMARK INTER:                 -10.438
REMARK INTRA:                  -3.039
REMARK UNBOUND:                -2.827
REMARK SMILES CCCCCCCCCCCCCCCCCCCCCC(=O)[O-]
REMARK SMILES IDX 12 1 11 2 10 3 9 4 8 5 7 6 6 7 5 8 4 9 3 10 2 11 1 12 13 13
REMARK SMILES IDX 14 14 15 15 16 16 17 17 18 18 19 19 20 20 21 21 22 22 23 23
REMARK SMILES IDX 24 24
REMARK H PARENT
REMARK Flexibility Score: inf
ROOT
ATOM      1  C   UNL     1     -52.631 -49.511  19.565  1.00  0.00     0.000 C 
ENDROOT
BRANCH   1   2
ATOM      2  C   UNL     1     -53.885 -48.856  20.168  1.00  0.00     0.000 C 
BRANCH   2   3
ATOM      3  C   UNL     1     -53.786 -48.661  21.691  1.00  0.00     0.000 C 
BRANCH   3   4
ATOM      4  C   UNL     1     -54.097 -47.209  22.114  1.00  0.00    -0.000 C 
BRANCH   4   5
ATOM      5  C   UNL     1     -53.003 -46.564  22.987  1.00  0.00    -0.000 C 
BRANCH   5   6
ATOM      6  C   UNL     1     -51.592 -47.150  22.801  1.00  0.00    -0.000 C 
BRANCH   6   7
ATOM      7  C   UNL     1     -51.005 -47.714  24.107  1.00  0.00    -0.000 C 
BRANCH   7   8
ATOM      8  C   UNL     1     -51.254 -49.223  24.257  1.00  0.00    -0.000 C 
BRANCH   8   9
ATOM      9  C   UNL     1     -49.966 -50.005  24.560  1.00  0.00    -0.000 C 
BRANCH   9  10
ATOM     10  C   UNL     1     -48.775 -49.422  23.785  1.00  0.00    -0.000 C 
BRANCH  10  11
ATOM     11  C   UNL     1     -47.525 -49.252  24.662  1.00  0.00    -0.003 C 
ATOM     12  C   UNL     1     -47.718 -48.222  25.776  1.00  0.00     0.004 C 
ENDBRANCH  10  11
ENDBRANCH   9  10
ENDBRANCH   8   9
ENDBRANCH   7   8
ENDBRANCH   6   7
ENDBRANCH   5   6
ENDBRANCH   4   5
ENDBRANCH   3   4
ENDBRANCH   2   3
ENDBRANCH   1   2
BRANCH   1  13
ATOM     13  C   UNL     1     -51.735 -50.249  20.577  1.00  0.00     0.000 C 
BRANCH  13  14
ATOM     14  C   UNL     1     -50.264 -49.802  20.509  1.00  0.00     0.000 C 
BRANCH  14  15
ATOM     15  C   UNL     1     -50.090 -48.432  19.836  1.00  0.00     0.000 C 
BRANCH  15  16
ATOM     16  C   UNL     1     -48.792 -47.727  20.256  1.00  0.00     0.000 C 
BRANCH  16  17
ATOM     17  C   UNL     1     -47.619 -48.180  19.378  1.00  0.00     0.000 C 
BRANCH  17  18
ATOM     18  C   UNL     1     -47.746 -47.622  17.953  1.00  0.00     0.000 C 
BRANCH  18  19
ATOM     19  C   UNL     1     -47.400 -48.667  16.880  1.00  0.00     0.000 C 
BRANCH  19  20
ATOM     20  C   UNL     1     -47.713 -50.104  17.329  1.00  0.00     0.006 C 
BRANCH  20  21
ATOM     21  C   UNL     1     -47.992 -51.034  16.141  1.00  0.00     0.053 C 
BRANCH  21  22
ATOM     22  C   UNL     1     -49.301 -50.715  15.486  1.00  0.00     0.041 C 
ATOM     23  O   UNL     1     -49.327 -50.151  14.361  1.00  0.00    -0.550 OA
ATOM     24  O   UNL     1     -50.493 -51.058  16.112  1.00  0.00    -0.550 OA
ENDBRANCH  21  22
ENDBRANCH  20  21
ENDBRANCH  19  20
ENDBRANCH  18  19
ENDBRANCH  17  18
ENDBRANCH  16  17
ENDBRANCH  15  16
ENDBRANCH  14  15
ENDBRANCH  13  14
ENDBRANCH   1  13
TORSDOF 20
ENDMDL
MODEL 7
REMARK VINA RESULT:    -4.878      1.540      4.250
REMARK INTER + INTRA:         -13.409
REMARK INTER:                 -10.673
REMARK INTRA:                  -2.736
REMARK UNBOUND:                -2.827
REMARK SMILES CCCCCCCCCCCCCCCCCCCCCC(=O)[O-]
REMARK SMILES IDX 12 1 11 2 10 3 9 4 8 5 7 6 6 7 5 8 4 9 3 10 2 11 1 12 13 13
REMARK SMILES IDX 14 14 15 15 16 16 17 17 18 18 19 19 20 20 21 21 22 22 23 23
REMARK SMILES IDX 24 24
REMARK H PARENT
REMARK Flexibility Score: inf
ROOT
ATOM      1  C   UNL     1     -48.185 -46.488  23.189  1.00  0.00     0.000 C 
ENDROOT
BRANCH   1   2
ATOM      2  C   UNL     1     -48.354 -46.280  24.704  1.00  0.00     0.000 C 
BRANCH   2   3
ATOM      3  C   UNL     1     -48.725 -47.574  25.449  1.00  0.00     0.000 C 
BRANCH   3   4
ATOM      4  C   UNL     1     -50.252 -47.787  25.521  1.00  0.00    -0.000 C 
BRANCH   4   5
ATOM      5  C   UNL     1     -50.747 -49.031  24.758  1.00  0.00    -0.000 C 
BRANCH   5   6
ATOM      6  C   UNL     1     -52.107 -48.869  24.059  1.00  0.00    -0.000 C 
BRANCH   6   7
ATOM      7  C   UNL     1     -52.573 -47.403  23.996  1.00  0.00    -0.000 C 
BRANCH   7   8
ATOM      8  C   UNL     1     -53.306 -47.077  22.685  1.00  0.00    -0.000 C 
BRANCH   8   9
ATOM      9  C   UNL     1     -53.365 -48.279  21.730  1.00  0.00    -0.000 C 
BRANCH   9  10
ATOM     10  C   UNL     1     -54.818 -48.622  21.368  1.00  0.00    -0.000 C 
BRANCH  10  11
ATOM     11  C   UNL     1     -55.447 -47.596  20.413  1.00  0.00    -0.003 C 
ATOM     12  C   UNL     1     -56.701 -46.939  20.990  1.00  0.00     0.004 C 
ENDBRANCH  10  11
ENDBRANCH   9  10
ENDBRANCH   8   9
ENDBRANCH   7   8
ENDBRANCH   6   7
ENDBRANCH   5   6
ENDBRANCH   4   5
ENDBRANCH   3   4
ENDBRANCH   2   3
ENDBRANCH   1   2
BRANCH   1  13
ATOM     13  C   UNL     1     -49.421 -46.127  22.345  1.00  0.00     0.000 C 
BRANCH  13  14
ATOM     14  C   UNL     1     -49.837 -47.254  21.384  1.00  0.00     0.000 C 
BRANCH  14  15
ATOM     15  C   UNL     1     -49.065 -48.560  21.629  1.00  0.00     0.000 C 
BRANCH  15  16
ATOM     16  C   UNL     1     -49.342 -49.623  20.556  1.00  0.00     0.000 C 
BRANCH  16  17
ATOM     17  C   UNL     1     -49.255 -49.012  19.152  1.00  0.00     0.000 C 
BRANCH  17  18
ATOM     18  C   UNL     1     -47.794 -48.776  18.741  1.00  0.00     0.000 C 
BRANCH  18  19
ATOM     19  C   UNL     1     -47.371 -49.645  17.546  1.00  0.00     0.000 C 
BRANCH  19  20
ATOM     20  C   UNL     1     -48.058 -51.022  17.542  1.00  0.00     0.006 C 
BRANCH  20  21
ATOM     21  C   UNL     1     -48.447 -51.470  16.127  1.00  0.00     0.053 C 
BRANCH  21  22
ATOM     22  C   UNL     1     -49.875 -51.141  15.817  1.00  0.00     0.041 C 
ATOM     23  O   UNL     1     -50.688 -50.906  16.748  1.00  0.00    -0.550 OA
ATOM     24  O   UNL     1     -50.303 -51.077  14.497  1.00  0.00    -0.550 OA
ENDBRANCH  21  22
ENDBRANCH  20  21
ENDBRANCH  19  20
ENDBRANCH  18  19
ENDBRANCH  17  18
ENDBRANCH  16  17
ENDBRANCH  15  16
ENDBRANCH  14  15
ENDBRANCH  13  14
ENDBRANCH   1  13
TORSDOF 20
ENDMDL
MODEL 8
REMARK VINA RESULT:    -4.832      3.274      5.854
REMARK INTER + INTRA:         -13.308
REMARK INTER:                 -10.494
REMARK INTRA:                  -2.814
REMARK UNBOUND:                -2.827
REMARK SMILES CCCCCCCCCCCCCCCCCCCCCC(=O)[O-]
REMARK SMILES IDX 12 1 11 2 10 3 9 4 8 5 7 6 6 7 5 8 4 9 3 10 2 11 1 12 13 13
REMARK SMILES IDX 14 14 15 15 16 16 17 17 18 18 19 19 20 20 21 21 22 22 23 23
REMARK SMILES IDX 24 24
REMARK H PARENT
REMARK Flexibility Score: inf
ROOT
ATOM      1  C   UNL     1     -47.794 -50.752  15.766  1.00  0.00     0.000 C 
ENDROOT
BRANCH   1   2
ATOM      2  C   UNL     1     -48.637 -51.426  16.862  1.00  0.00     0.000 C 
BRANCH   2   3
ATOM      3  C   UNL     1     -50.049 -50.826  16.985  1.00  0.00     0.000 C 
BRANCH   3   4
ATOM      4  C   UNL     1     -50.399 -50.455  18.442  1.00  0.00    -0.000 C 
BRANCH   4   5
ATOM      5  C   UNL     1     -51.880 -50.681  18.805  1.00  0.00    -0.000 C 
BRANCH   5   6
ATOM      6  C   UNL     1     -52.636 -49.424  19.271  1.00  0.00    -0.000 C 
BRANCH   6   7
ATOM      7  C   UNL     1     -52.698 -49.302  20.804  1.00  0.00    -0.000 C 
BRANCH   7   8
ATOM      8  C   UNL     1     -54.097 -48.903  21.303  1.00  0.00    -0.000 C 
BRANCH   8   9
ATOM      9  C   UNL     1     -54.156 -47.446  21.785  1.00  0.00    -0.000 C 
BRANCH   9  10
ATOM     10  C   UNL     1     -52.875 -47.066  22.543  1.00  0.00    -0.000 C 
BRANCH  10  11
ATOM     11  C   UNL     1     -53.086 -46.994  24.063  1.00  0.00    -0.003 C 
ATOM     12  C   UNL     1     -51.795 -46.701  24.828  1.00  0.00     0.004 C 
ENDBRANCH  10  11
ENDBRANCH   9  10
ENDBRANCH   8   9
ENDBRANCH   7   8
ENDBRANCH   6   7
ENDBRANCH   5   6
ENDBRANCH   4   5
ENDBRANCH   3   4
ENDBRANCH   2   3
ENDBRANCH   1   2
BRANCH   1  13
ATOM     13  C   UNL     1     -48.216 -49.314  15.416  1.00  0.00     0.000 C 
BRANCH  13  14
ATOM     14  C   UNL     1     -47.289 -48.253  16.036  1.00  0.00     0.000 C 
BRANCH  14  15
ATOM     15  C   UNL     1     -47.742 -47.814  17.437  1.00  0.00     0.000 C 
BRANCH  15  16
ATOM     16  C   UNL     1     -47.097 -48.644  18.556  1.00  0.00     0.000 C 
BRANCH  16  17
ATOM     17  C   UNL     1     -47.499 -48.104  19.934  1.00  0.00     0.000 C 
BRANCH  17  18
ATOM     18  C   UNL     1     -48.972 -47.667  19.949  1.00  0.00     0.000 C 
BRANCH  18  19
ATOM     19  C   UNL     1     -49.594 -47.748  21.352  1.00  0.00     0.000 C 
BRANCH  19  20
ATOM     20  C   UNL     1     -49.008 -48.893  22.195  1.00  0.00     0.006 C 
BRANCH  20  21
ATOM     21  C   UNL     1     -50.036 -49.472  23.177  1.00  0.00     0.053 C 
BRANCH  21  22
ATOM     22  C   UNL     1     -49.381 -49.993  24.419  1.00  0.00     0.041 C 
ATOM     23  O   UNL     1     -50.081 -50.373  25.393  1.00  0.00    -0.550 OA
ATOM     24  O   UNL     1     -47.996 -50.076  24.493  1.00  0.00    -0.550 OA
ENDBRANCH  21  22
ENDBRANCH  20  21
ENDBRANCH  19  20
ENDBRANCH  18  19
ENDBRANCH  17  18
ENDBRANCH  16  17
ENDBRANCH  15  16
ENDBRANCH  14  15
ENDBRANCH  13  14
ENDBRANCH   1  13
TORSDOF 20
ENDMDL
MODEL 9
REMARK VINA RESULT:    -4.802      3.649      7.034
REMARK INTER + INTRA:         -13.243
REMARK INTER:                 -10.036
REMARK INTRA:                  -3.207
REMARK UNBOUND:                -2.827
REMARK SMILES CCCCCCCCCCCCCCCCCCCCCC(=O)[O-]
REMARK SMILES IDX 12 1 11 2 10 3 9 4 8 5 7 6 6 7 5 8 4 9 3 10 2 11 1 12 13 13
REMARK SMILES IDX 14 14 15 15 16 16 17 17 18 18 19 19 20 20 21 21 22 22 23 23
REMARK SMILES IDX 24 24
REMARK H PARENT
REMARK Flexibility Score: inf
ROOT
ATOM      1  C   UNL     1     -54.553 -48.451  21.104  1.00  0.00     0.000 C 
ENDROOT
BRANCH   1   2
ATOM      2  C   UNL     1     -54.485 -48.526  19.568  1.00  0.00     0.000 C 
BRANCH   2   3
ATOM      3  C   UNL     1     -53.238 -49.271  19.060  1.00  0.00     0.000 C 
BRANCH   3   4
ATOM      4  C   UNL     1     -52.350 -49.777  20.217  1.00  0.00    -0.000 C 
BRANCH   4   5
ATOM      5  C   UNL     1     -51.112 -50.570  19.753  1.00  0.00    -0.000 C 
BRANCH   5   6
ATOM      6  C   UNL     1     -49.759 -49.912  20.076  1.00  0.00    -0.000 C 
BRANCH   6   7
ATOM      7  C   UNL     1     -49.593 -48.535  19.409  1.00  0.00    -0.000 C 
BRANCH   7   8
ATOM      8  C   UNL     1     -48.119 -48.188  19.142  1.00  0.00    -0.000 C 
BRANCH   8   9
ATOM      9  C   UNL     1     -47.388 -49.288  18.358  1.00  0.00    -0.000 C 
BRANCH   9  10
ATOM     10  C   UNL     1     -47.565 -49.093  16.844  1.00  0.00    -0.000 C 
BRANCH  10  11
ATOM     11  C   UNL     1     -47.734 -50.423  16.093  1.00  0.00    -0.003 C 
ATOM     12  C   UNL     1     -48.374 -51.513  16.953  1.00  0.00     0.004 C 
ENDBRANCH  10  11
ENDBRANCH   9  10
ENDBRANCH   8   9
ENDBRANCH   7   8
ENDBRANCH   6   7
ENDBRANCH   5   6
ENDBRANCH   4   5
ENDBRANCH   3   4
ENDBRANCH   2   3
ENDBRANCH   1   2
BRANCH   1  13
ATOM     13  C   UNL     1     -55.082 -47.118  21.663  1.00  0.00     0.000 C 
BRANCH  13  14
ATOM     14  C   UNL     1     -53.987 -46.282  22.349  1.00  0.00     0.000 C 
BRANCH  14  15
ATOM     15  C   UNL     1     -52.871 -47.148  22.955  1.00  0.00     0.000 C 
BRANCH  15  16
ATOM     16  C   UNL     1     -51.488 -46.823  22.373  1.00  0.00     0.000 C 
BRANCH  16  17
ATOM     17  C   UNL     1     -50.415 -47.733  22.984  1.00  0.00     0.000 C 
BRANCH  17  18
ATOM     18  C   UNL     1     -51.038 -49.012  23.564  1.00  0.00     0.000 C 
BRANCH  18  19
ATOM     19  C   UNL     1     -49.994 -50.110  23.820  1.00  0.00     0.000 C 
BRANCH  19  20
ATOM     20  C   UNL     1     -48.561 -49.652  23.501  1.00  0.00     0.006 C 
BRANCH  20  21
ATOM     21  C   UNL     1     -47.592 -49.937  24.656  1.00  0.00     0.053 C 
BRANCH  21  22
ATOM     22  C   UNL     1     -47.057 -48.672  25.253  1.00  0.00     0.041 C 
ATOM     23  O   UNL     1     -47.840 -47.737  25.563  1.00  0.00    -0.550 OA
ATOM     24  O   UNL     1     -45.694 -48.534  25.482  1.00  0.00    -0.550 OA
ENDBRANCH  21  22
ENDBRANCH  20  21
ENDBRANCH  19  20
ENDBRANCH  18  19
ENDBRANCH  17  18
ENDBRANCH  16  17
ENDBRANCH  15  16
ENDBRANCH  14  15
ENDBRANCH  13  14
ENDBRANCH   1  13
TORSDOF 20
ENDMDL
