MODEL 1
REMARK VINA RESULT:    -5.808      0.000      0.000
REMARK INTER + INTRA:          -7.366
REMARK INTER:                  -6.997
REMARK INTRA:                  -0.370
REMARK UNBOUND:                -0.370
REMARK SMILES O=c1c(O)c(-c2ccc(O)cc2O)oc2cc(O)cc(O)c12
REMARK SMILES IDX 5 1 3 2 2 3 1 4 22 5 20 6 19 7 17 8 16 9 15 10 14 11 6 12
REMARK SMILES IDX 8 13 7 14 9 15 11 16 12 17 10 18 13 20 4 22 21 24 18 26
REMARK H PARENT 10 19 13 21 4 23 21 25 18 27
REMARK Flexibility Score: inf
ROOT
ATOM      1  C   UNL     1       0.243 -18.398  -7.675  1.00  0.00     0.184 A 
ATOM      2  C   UNL     1       1.434 -19.009  -7.252  1.00  0.00     0.208 A 
ATOM      3  C   UNL     1       1.724 -20.309  -7.691  1.00  0.00     0.238 A 
ATOM      4  O   UNL     1       2.763 -20.875  -7.260  1.00  0.00    -0.285 OA
ATOM      5  C   UNL     1       0.834 -20.972  -8.571  1.00  0.00     0.111 A 
ATOM      6  C   UNL     1       1.046 -22.275  -9.111  1.00  0.00     0.134 A 
ATOM      7  C   UNL     1       0.039 -22.880  -9.874  1.00  0.00     0.093 A 
ATOM      8  C   UNL     1      -1.146 -22.201 -10.170  1.00  0.00     0.123 A 
ATOM      9  C   UNL     1      -1.339 -20.907  -9.696  1.00  0.00     0.094 A 
ATOM     10  C   UNL     1      -0.368 -20.291  -8.901  1.00  0.00     0.146 A 
ATOM     11  O   UNL     1      -0.599 -19.060  -8.458  1.00  0.00    -0.451 OA
ENDROOT
BRANCH   1  12
ATOM     12  C   UNL     1      -0.105 -17.021  -7.264  1.00  0.00     0.063 A 
ATOM     13  C   UNL     1      -0.897 -15.499  -5.537  1.00  0.00     0.047 A 
ATOM     14  C   UNL     1      -0.610 -16.795  -5.972  1.00  0.00     0.020 A 
ATOM     15  C   UNL     1      -0.675 -14.410  -6.383  1.00  0.00     0.119 A 
ATOM     16  C   UNL     1      -0.171 -14.622  -7.673  1.00  0.00     0.093 A 
ATOM     17  C   UNL     1       0.110 -15.918  -8.123  1.00  0.00     0.130 A 
BRANCH  15  18
ATOM     18  O   UNL     1      -0.960 -13.122  -5.935  1.00  0.00    -0.508 OA
ATOM     19  H   UNL     1      -1.881 -12.716  -6.044  1.00  0.00     0.293 HD
ENDBRANCH  15  18
BRANCH  17  20
ATOM     20  O   UNL     1       0.576 -16.075  -9.430  1.00  0.00    -0.507 OA
ATOM     21  H   UNL     1       0.225 -16.785 -10.060  1.00  0.00     0.293 HD
ENDBRANCH  17  20
ENDBRANCH   1  12
BRANCH   2  22
ATOM     22  O   UNL     1       2.296 -18.331  -6.387  1.00  0.00    -0.502 OA
ATOM     23  H   UNL     1       2.356 -17.320  -6.362  1.00  0.00     0.293 HD
ENDBRANCH   2  22
BRANCH   6  24
ATOM     24  O   UNL     1       2.229 -23.003  -8.953  1.00  0.00    -0.507 OA
ATOM     25  H   UNL     1       2.380 -23.939  -9.298  1.00  0.00     0.293 HD
ENDBRANCH   6  24
BRANCH   8  26
ATOM     26  O   UNL     1      -2.136 -22.804 -10.943  1.00  0.00    -0.508 OA
ATOM     27  H   UNL     1      -2.730 -22.264 -11.561  1.00  0.00     0.293 HD
ENDBRANCH   8  26
TORSDOF 6
ENDMDL
MODEL 2
REMARK VINA RESULT:    -5.693      3.738      4.725
REMARK INTER + INTRA:          -7.228
REMARK INTER:                  -6.829
REMARK INTRA:                  -0.399
REMARK UNBOUND:                -0.370
REMARK SMILES O=c1c(O)c(-c2ccc(O)cc2O)oc2cc(O)cc(O)c12
REMARK SMILES IDX 5 1 3 2 2 3 1 4 22 5 20 6 19 7 17 8 16 9 15 10 14 11 6 12
REMARK SMILES IDX 8 13 7 14 9 15 11 16 12 17 10 18 13 20 4 22 21 24 18 26
REMARK H PARENT 10 19 13 21 4 23 21 25 18 27
REMARK Flexibility Score: inf
ROOT
ATOM      1  C   UNL     1       1.551 -17.232  -5.598  1.00  0.00     0.184 A 
ATOM      2  C   UNL     1       2.846 -16.712  -5.457  1.00  0.00     0.208 A 
ATOM      3  C   UNL     1       3.849 -17.524  -4.905  1.00  0.00     0.238 A 
ATOM      4  O   UNL     1       4.993 -17.032  -4.725  1.00  0.00    -0.285 OA
ATOM      5  C   UNL     1       3.549 -18.855  -4.528  1.00  0.00     0.111 A 
ATOM      6  C   UNL     1       4.496 -19.781  -3.995  1.00  0.00     0.134 A 
ATOM      7  C   UNL     1       4.060 -21.033  -3.542  1.00  0.00     0.093 A 
ATOM      8  C   UNL     1       2.722 -21.416  -3.665  1.00  0.00     0.123 A 
ATOM      9  C   UNL     1       1.801 -20.543  -4.236  1.00  0.00     0.094 A 
ATOM     10  C   UNL     1       2.198 -19.273  -4.663  1.00  0.00     0.146 A 
ATOM     11  O   UNL     1       1.284 -18.466  -5.190  1.00  0.00    -0.451 OA
ENDROOT
BRANCH   1  12
ATOM     12  C   UNL     1       0.460 -16.432  -6.195  1.00  0.00     0.063 A 
ATOM     13  C   UNL     1      -1.323 -14.799  -5.910  1.00  0.00     0.047 A 
ATOM     14  C   UNL     1      -0.321 -15.607  -5.367  1.00  0.00     0.020 A 
ATOM     15  C   UNL     1      -1.553 -14.798  -7.287  1.00  0.00     0.119 A 
ATOM     16  C   UNL     1      -0.781 -15.614  -8.123  1.00  0.00     0.093 A 
ATOM     17  C   UNL     1       0.218 -16.437  -7.589  1.00  0.00     0.130 A 
BRANCH  15  18
ATOM     18  O   UNL     1      -2.552 -13.983  -7.816  1.00  0.00    -0.508 OA
ATOM     19  H   UNL     1      -2.353 -13.044  -8.140  1.00  0.00     0.293 HD
ENDBRANCH  15  18
BRANCH  17  20
ATOM     20  O   UNL     1       0.933 -17.258  -8.463  1.00  0.00    -0.507 OA
ATOM     21  H   UNL     1       0.494 -17.795  -9.200  1.00  0.00     0.293 HD
ENDBRANCH  17  20
ENDBRANCH   1  12
BRANCH   2  22
ATOM     22  O   UNL     1       3.115 -15.396  -5.842  1.00  0.00    -0.502 OA
ATOM     23  H   UNL     1       4.038 -14.986  -5.767  1.00  0.00     0.293 HD
ENDBRANCH   2  22
BRANCH   6  24
ATOM     24  O   UNL     1       5.869 -19.533  -3.913  1.00  0.00    -0.507 OA
ATOM     25  H   UNL     1       6.282 -18.697  -3.528  1.00  0.00     0.293 HD
ENDBRANCH   6  24
BRANCH   8  26
ATOM     26  O   UNL     1       2.300 -22.670  -3.226  1.00  0.00    -0.508 OA
ATOM     27  H   UNL     1       2.413 -23.498  -3.799  1.00  0.00     0.293 HD
ENDBRANCH   8  26
TORSDOF 6
ENDMDL
MODEL 3
REMARK VINA RESULT:    -5.511      1.678      7.029
REMARK INTER + INTRA:          -7.009
REMARK INTER:                  -7.131
REMARK INTRA:                   0.122
REMARK UNBOUND:                -0.370
REMARK SMILES O=c1c(O)c(-c2ccc(O)cc2O)oc2cc(O)cc(O)c12
REMARK SMILES IDX 5 1 3 2 2 3 1 4 22 5 20 6 19 7 17 8 16 9 15 10 14 11 6 12
REMARK SMILES IDX 8 13 7 14 9 15 11 16 12 17 10 18 13 20 4 22 21 24 18 26
REMARK H PARENT 10 19 13 21 4 23 21 25 18 27
REMARK Flexibility Score: inf
ROOT
ATOM      1  C   UNL     1      -0.487 -18.638  -7.993  1.00  0.00     0.184 A 
ATOM      2  C   UNL     1      -1.578 -18.181  -8.748  1.00  0.00     0.208 A 
ATOM      3  C   UNL     1      -2.061 -16.883  -8.528  1.00  0.00     0.238 A 
ATOM      4  O   UNL     1      -3.077 -16.500  -9.164  1.00  0.00    -0.285 OA
ATOM      5  C   UNL     1      -1.429 -16.048  -7.574  1.00  0.00     0.111 A 
ATOM      6  C   UNL     1      -1.809 -14.701  -7.297  1.00  0.00     0.134 A 
ATOM      7  C   UNL     1      -1.191 -14.010  -6.246  1.00  0.00     0.093 A 
ATOM      8  C   UNL     1      -0.161 -14.597  -5.507  1.00  0.00     0.123 A 
ATOM      9  C   UNL     1       0.257 -15.890  -5.807  1.00  0.00     0.094 A 
ATOM     10  C   UNL     1      -0.366 -16.618  -6.825  1.00  0.00     0.146 A 
ATOM     11  O   UNL     1       0.055 -17.854  -7.069  1.00  0.00    -0.451 OA
ENDROOT
BRANCH   1  12
ATOM     12  C   UNL     1       0.081 -19.989  -8.197  1.00  0.00     0.063 A 
ATOM     13  C   UNL     1      -0.254 -22.317  -8.822  1.00  0.00     0.047 A 
ATOM     14  C   UNL     1      -0.770 -21.044  -8.569  1.00  0.00     0.020 A 
ATOM     15  C   UNL     1       1.119 -22.552  -8.715  1.00  0.00     0.119 A 
ATOM     16  C   UNL     1       1.976 -21.508  -8.346  1.00  0.00     0.093 A 
ATOM     17  C   UNL     1       1.470 -20.231  -8.079  1.00  0.00     0.130 A 
BRANCH  15  18
ATOM     18  O   UNL     1       1.620 -23.826  -8.975  1.00  0.00    -0.508 OA
ATOM     19  H   UNL     1       2.432 -23.964  -9.565  1.00  0.00     0.293 HD
ENDBRANCH  15  18
BRANCH  17  20
ATOM     20  O   UNL     1       2.365 -19.236  -7.680  1.00  0.00    -0.507 OA
ATOM     21  H   UNL     1       2.086 -18.423  -7.147  1.00  0.00     0.293 HD
ENDBRANCH  17  20
ENDBRANCH   1  12
BRANCH   2  22
ATOM     22  O   UNL     1      -2.179 -19.026  -9.684  1.00  0.00    -0.502 OA
ATOM     23  H   UNL     1      -2.672 -18.673 -10.496  1.00  0.00     0.293 HD
ENDBRANCH   2  22
BRANCH   6  24
ATOM     24  O   UNL     1      -2.761 -13.990  -8.033  1.00  0.00    -0.507 OA
ATOM     25  H   UNL     1      -2.653 -13.708  -8.996  1.00  0.00     0.293 HD
ENDBRANCH   6  24
BRANCH   8  26
ATOM     26  O   UNL     1       0.459 -13.898  -4.474  1.00  0.00    -0.508 OA
ATOM     27  H   UNL     1       0.228 -12.931  -4.274  1.00  0.00     0.293 HD
ENDBRANCH   8  26
TORSDOF 6
ENDMDL
MODEL 4
REMARK VINA RESULT:    -5.406      2.295      4.539
REMARK INTER + INTRA:          -6.882
REMARK INTER:                  -6.700
REMARK INTRA:                  -0.182
REMARK UNBOUND:                -0.370
REMARK SMILES O=c1c(O)c(-c2ccc(O)cc2O)oc2cc(O)cc(O)c12
REMARK SMILES IDX 5 1 3 2 2 3 1 4 22 5 20 6 19 7 17 8 16 9 15 10 14 11 6 12
REMARK SMILES IDX 8 13 7 14 9 15 11 16 12 17 10 18 13 20 4 22 21 24 18 26
REMARK H PARENT 10 19 13 21 4 23 21 25 18 27
REMARK Flexibility Score: inf
ROOT
ATOM      1  C   UNL     1      -1.351 -15.698  -6.465  1.00  0.00     0.184 A 
ATOM      2  C   UNL     1      -2.253 -15.881  -7.524  1.00  0.00     0.208 A 
ATOM      3  C   UNL     1      -2.158 -17.042  -8.306  1.00  0.00     0.238 A 
ATOM      4  O   UNL     1      -2.930 -17.171  -9.292  1.00  0.00    -0.285 OA
ATOM      5  C   UNL     1      -1.180 -18.019  -8.000  1.00  0.00     0.111 A 
ATOM      6  C   UNL     1      -1.019 -19.252  -8.700  1.00  0.00     0.134 A 
ATOM      7  C   UNL     1       0.062 -20.088  -8.389  1.00  0.00     0.093 A 
ATOM      8  C   UNL     1       0.948 -19.764  -7.358  1.00  0.00     0.123 A 
ATOM      9  C   UNL     1       0.765 -18.592  -6.630  1.00  0.00     0.094 A 
ATOM     10  C   UNL     1      -0.281 -17.720  -6.942  1.00  0.00     0.146 A 
ATOM     11  O   UNL     1      -0.411 -16.605  -6.232  1.00  0.00    -0.451 OA
ENDROOT
BRANCH   1  12
ATOM     12  C   UNL     1      -1.418 -14.506  -5.592  1.00  0.00     0.063 A 
ATOM     13  C   UNL     1      -0.367 -12.478  -4.750  1.00  0.00     0.047 A 
ATOM     14  C   UNL     1      -0.313 -13.640  -5.523  1.00  0.00     0.020 A 
ATOM     15  C   UNL     1      -1.528 -12.161  -4.042  1.00  0.00     0.119 A 
ATOM     16  C   UNL     1      -2.636 -13.015  -4.103  1.00  0.00     0.093 A 
ATOM     17  C   UNL     1      -2.590 -14.188  -4.866  1.00  0.00     0.130 A 
BRANCH  15  18
ATOM     18  O   UNL     1      -1.570 -10.996  -3.278  1.00  0.00    -0.508 OA
ATOM     19  H   UNL     1      -1.907 -11.001  -2.323  1.00  0.00     0.293 HD
ENDBRANCH  15  18
BRANCH  17  20
ATOM     20  O   UNL     1      -3.710 -15.022  -4.862  1.00  0.00    -0.507 OA
ATOM     21  H   UNL     1      -4.004 -15.554  -5.671  1.00  0.00     0.293 HD
ENDBRANCH  17  20
ENDBRANCH   1  12
BRANCH   2  22
ATOM     22  O   UNL     1      -3.211 -14.902  -7.801  1.00  0.00    -0.502 OA
ATOM     23  H   UNL     1      -3.602 -14.770  -8.726  1.00  0.00     0.293 HD
ENDBRANCH   2  22
BRANCH   6  24
ATOM     24  O   UNL     1      -1.898 -19.713  -9.684  1.00  0.00    -0.507 OA
ATOM     25  H   UNL     1      -2.691 -20.312  -9.513  1.00  0.00     0.293 HD
ENDBRANCH   6  24
BRANCH   8  26
ATOM     26  O   UNL     1       2.011 -20.609  -7.044  1.00  0.00    -0.508 OA
ATOM     27  H   UNL     1       2.553 -20.487  -6.196  1.00  0.00     0.293 HD
ENDBRANCH   8  26
TORSDOF 6
ENDMDL
MODEL 5
REMARK VINA RESULT:    -5.384      3.350      6.012
REMARK INTER + INTRA:          -6.856
REMARK INTER:                  -6.459
REMARK INTRA:                  -0.397
REMARK UNBOUND:                -0.370
REMARK SMILES O=c1c(O)c(-c2ccc(O)cc2O)oc2cc(O)cc(O)c12
REMARK SMILES IDX 5 1 3 2 2 3 1 4 22 5 20 6 19 7 17 8 16 9 15 10 14 11 6 12
REMARK SMILES IDX 8 13 7 14 9 15 11 16 12 17 10 18 13 20 4 22 21 24 18 26
REMARK H PARENT 10 19 13 21 4 23 21 25 18 27
REMARK Flexibility Score: inf
ROOT
ATOM      1  C   UNL     1       0.994 -17.556  -5.984  1.00  0.00     0.184 A 
ATOM      2  C   UNL     1       0.881 -17.687  -7.377  1.00  0.00     0.208 A 
ATOM      3  C   UNL     1      -0.321 -17.321  -7.999  1.00  0.00     0.238 A 
ATOM      4  O   UNL     1      -0.438 -17.497  -9.240  1.00  0.00    -0.285 OA
ATOM      5  C   UNL     1      -1.386 -16.801  -7.224  1.00  0.00     0.111 A 
ATOM      6  C   UNL     1      -2.636 -16.360  -7.754  1.00  0.00     0.134 A 
ATOM      7  C   UNL     1      -3.662 -15.979  -6.879  1.00  0.00     0.093 A 
ATOM      8  C   UNL     1      -3.459 -15.961  -5.497  1.00  0.00     0.123 A 
ATOM      9  C   UNL     1      -2.225 -16.333  -4.973  1.00  0.00     0.094 A 
ATOM     10  C   UNL     1      -1.194 -16.754  -5.817  1.00  0.00     0.146 A 
ATOM     11  O   UNL     1      -0.037 -17.115  -5.275  1.00  0.00    -0.451 OA
ENDROOT
BRANCH   1  12
ATOM     12  C   UNL     1       2.245 -17.904  -5.276  1.00  0.00     0.063 A 
ATOM     13  C   UNL     1       3.582 -19.565  -4.101  1.00  0.00     0.047 A 
ATOM     14  C   UNL     1       2.391 -19.190  -4.728  1.00  0.00     0.020 A 
ATOM     15  C   UNL     1       4.645 -18.663  -4.019  1.00  0.00     0.119 A 
ATOM     16  C   UNL     1       4.512 -17.379  -4.562  1.00  0.00     0.093 A 
ATOM     17  C   UNL     1       3.319 -16.988  -5.183  1.00  0.00     0.130 A 
BRANCH  15  18
ATOM     18  O   UNL     1       5.829 -19.052  -3.396  1.00  0.00    -0.508 OA
ATOM     19  H   UNL     1       6.448 -18.375  -2.967  1.00  0.00     0.293 HD
ENDBRANCH  15  18
BRANCH  17  20
ATOM     20  O   UNL     1       3.228 -15.684  -5.674  1.00  0.00    -0.507 OA
ATOM     21  H   UNL     1       2.824 -14.922  -5.146  1.00  0.00     0.293 HD
ENDBRANCH  17  20
ENDBRANCH   1  12
BRANCH   2  22
ATOM     22  O   UNL     1       1.950 -18.199  -8.117  1.00  0.00    -0.502 OA
ATOM     23  H   UNL     1       2.912 -18.115  -7.812  1.00  0.00     0.293 HD
ENDBRANCH   2  22
BRANCH   6  24
ATOM     24  O   UNL     1      -2.911 -16.253  -9.120  1.00  0.00    -0.507 OA
ATOM     25  H   UNL     1      -2.578 -15.513  -9.719  1.00  0.00     0.293 HD
ENDBRANCH   6  24
BRANCH   8  26
ATOM     26  O   UNL     1      -4.480 -15.565  -4.635  1.00  0.00    -0.508 OA
ATOM     27  H   UNL     1      -5.224 -16.199  -4.367  1.00  0.00     0.293 HD
ENDBRANCH   8  26
TORSDOF 6
ENDMDL
MODEL 6
REMARK VINA RESULT:    -5.287      1.174      2.815
REMARK INTER + INTRA:          -6.739
REMARK INTER:                  -6.342
REMARK INTRA:                  -0.397
REMARK UNBOUND:                -0.370
REMARK SMILES O=c1c(O)c(-c2ccc(O)cc2O)oc2cc(O)cc(O)c12
REMARK SMILES IDX 5 1 3 2 2 3 1 4 22 5 20 6 19 7 17 8 16 9 15 10 14 11 6 12
REMARK SMILES IDX 8 13 7 14 9 15 11 16 12 17 10 18 13 20 4 22 21 24 18 26
REMARK H PARENT 10 19 13 21 4 23 21 25 18 27
REMARK Flexibility Score: inf
ROOT
ATOM      1  C   UNL     1      -0.464 -18.408  -7.872  1.00  0.00     0.184 A 
ATOM      2  C   UNL     1      -1.608 -18.734  -8.615  1.00  0.00     0.208 A 
ATOM      3  C   UNL     1      -1.684 -19.992  -9.230  1.00  0.00     0.238 A 
ATOM      4  O   UNL     1      -2.686 -20.256  -9.946  1.00  0.00    -0.285 OA
ATOM      5  C   UNL     1      -0.627 -20.921  -9.070  1.00  0.00     0.111 A 
ATOM      6  C   UNL     1      -0.615 -22.239  -9.615  1.00  0.00     0.134 A 
ATOM      7  C   UNL     1       0.538 -23.026  -9.495  1.00  0.00     0.093 A 
ATOM      8  C   UNL     1       1.654 -22.565  -8.792  1.00  0.00     0.123 A 
ATOM      9  C   UNL     1       1.631 -21.303  -8.207  1.00  0.00     0.094 A 
ATOM     10  C   UNL     1       0.510 -20.480  -8.341  1.00  0.00     0.146 A 
ATOM     11  O   UNL     1       0.535 -19.277  -7.779  1.00  0.00    -0.451 OA
ENDROOT
BRANCH   1  12
ATOM     12  C   UNL     1      -0.337 -17.106  -7.181  1.00  0.00     0.063 A 
ATOM     13  C   UNL     1      -0.473 -15.818  -5.120  1.00  0.00     0.047 A 
ATOM     14  C   UNL     1      -0.635 -17.022  -5.810  1.00  0.00     0.020 A 
ATOM     15  C   UNL     1      -0.003 -14.685  -5.788  1.00  0.00     0.119 A 
ATOM     16  C   UNL     1       0.298 -14.757  -7.154  1.00  0.00     0.093 A 
ATOM     17  C   UNL     1       0.129 -15.955  -7.858  1.00  0.00     0.130 A 
BRANCH  15  18
ATOM     18  O   UNL     1       0.160 -13.493  -5.086  1.00  0.00    -0.508 OA
ATOM     19  H   UNL     1       0.779 -13.429  -4.287  1.00  0.00     0.293 HD
ENDBRANCH  15  18
BRANCH  17  20
ATOM     20  O   UNL     1       0.410 -15.961  -9.226  1.00  0.00    -0.507 OA
ATOM     21  H   UNL     1       0.173 -15.194  -9.842  1.00  0.00     0.293 HD
ENDBRANCH  17  20
ENDBRANCH   1  12
BRANCH   2  22
ATOM     22  O   UNL     1      -2.638 -17.800  -8.754  1.00  0.00    -0.502 OA
ATOM     23  H   UNL     1      -3.378 -17.905  -9.438  1.00  0.00     0.293 HD
ENDBRANCH   2  22
BRANCH   6  24
ATOM     24  O   UNL     1      -1.708 -22.830 -10.255  1.00  0.00    -0.507 OA
ATOM     25  H   UNL     1      -2.243 -23.602  -9.888  1.00  0.00     0.293 HD
ENDBRANCH   6  24
BRANCH   8  26
ATOM     26  O   UNL     1       2.791 -23.361  -8.664  1.00  0.00    -0.508 OA
ATOM     27  H   UNL     1       2.729 -24.372  -8.620  1.00  0.00     0.293 HD
ENDBRANCH   8  26
TORSDOF 6
ENDMDL
MODEL 7
REMARK VINA RESULT:    -5.272      1.040      1.685
REMARK INTER + INTRA:          -6.720
REMARK INTER:                  -6.391
REMARK INTRA:                  -0.329
REMARK UNBOUND:                -0.370
REMARK SMILES O=c1c(O)c(-c2ccc(O)cc2O)oc2cc(O)cc(O)c12
REMARK SMILES IDX 5 1 3 2 2 3 1 4 22 5 20 6 19 7 17 8 16 9 15 10 14 11 6 12
REMARK SMILES IDX 8 13 7 14 9 15 11 16 12 17 10 18 13 20 4 22 21 24 18 26
REMARK H PARENT 10 19 13 21 4 23 21 25 18 27
REMARK Flexibility Score: inf
ROOT
ATOM      1  C   UNL     1       0.102 -17.793  -7.408  1.00  0.00     0.184 A 
ATOM      2  C   UNL     1       1.355 -18.412  -7.295  1.00  0.00     0.208 A 
ATOM      3  C   UNL     1       1.534 -19.691  -7.845  1.00  0.00     0.238 A 
ATOM      4  O   UNL     1       2.642 -20.267  -7.687  1.00  0.00    -0.285 OA
ATOM      5  C   UNL     1       0.464 -20.321  -8.525  1.00  0.00     0.111 A 
ATOM      6  C   UNL     1       0.543 -21.599  -9.155  1.00  0.00     0.134 A 
ATOM      7  C   UNL     1      -0.614 -22.178  -9.693  1.00  0.00     0.093 A 
ATOM      8  C   UNL     1      -1.833 -21.495  -9.680  1.00  0.00     0.123 A 
ATOM      9  C   UNL     1      -1.908 -20.224  -9.120  1.00  0.00     0.094 A 
ATOM     10  C   UNL     1      -0.780 -19.635  -8.542  1.00  0.00     0.146 A 
ATOM     11  O   UNL     1      -0.899 -18.426  -8.006  1.00  0.00    -0.451 OA
ENDROOT
BRANCH   1  12
ATOM     12  C   UNL     1      -0.139 -16.436  -6.870  1.00  0.00     0.063 A 
ATOM     13  C   UNL     1      -0.678 -14.097  -7.277  1.00  0.00     0.047 A 
ATOM     14  C   UNL     1      -0.393 -15.377  -7.759  1.00  0.00     0.020 A 
ATOM     15  C   UNL     1      -0.721 -13.859  -5.902  1.00  0.00     0.119 A 
ATOM     16  C   UNL     1      -0.470 -14.906  -5.006  1.00  0.00     0.093 A 
ATOM     17  C   UNL     1      -0.173 -16.191  -5.477  1.00  0.00     0.130 A 
BRANCH  15  18
ATOM     18  O   UNL     1      -1.011 -12.579  -5.436  1.00  0.00    -0.508 OA
ATOM     19  H   UNL     1      -1.334 -12.421  -4.488  1.00  0.00     0.293 HD
ENDBRANCH  15  18
BRANCH  17  20
ATOM     20  O   UNL     1       0.104 -17.189  -4.540  1.00  0.00    -0.507 OA
ATOM     21  H   UNL     1       0.647 -18.014  -4.757  1.00  0.00     0.293 HD
ENDBRANCH  17  20
ENDBRANCH   1  12
BRANCH   2  22
ATOM     22  O   UNL     1       2.394 -17.765  -6.622  1.00  0.00    -0.502 OA
ATOM     23  H   UNL     1       3.233 -17.448  -7.094  1.00  0.00     0.293 HD
ENDBRANCH   2  22
BRANCH   6  24
ATOM     24  O   UNL     1       1.729 -22.325  -9.303  1.00  0.00    -0.507 OA
ATOM     25  H   UNL     1       2.484 -22.075  -9.922  1.00  0.00     0.293 HD
ENDBRANCH   6  24
BRANCH   8  26
ATOM     26  O   UNL     1      -2.975 -22.072 -10.231  1.00  0.00    -0.508 OA
ATOM     27  H   UNL     1      -3.337 -22.957  -9.896  1.00  0.00     0.293 HD
ENDBRANCH   8  26
TORSDOF 6
ENDMDL
MODEL 8
REMARK VINA RESULT:    -5.166      2.020      3.245
REMARK INTER + INTRA:          -6.593
REMARK INTER:                  -6.230
REMARK INTRA:                  -0.363
REMARK UNBOUND:                -0.370
REMARK SMILES O=c1c(O)c(-c2ccc(O)cc2O)oc2cc(O)cc(O)c12
REMARK SMILES IDX 5 1 3 2 2 3 1 4 22 5 20 6 19 7 17 8 16 9 15 10 14 11 6 12
REMARK SMILES IDX 8 13 7 14 9 15 11 16 12 17 10 18 13 20 4 22 21 24 18 26
REMARK H PARENT 10 19 13 21 4 23 21 25 18 27
REMARK Flexibility Score: inf
ROOT
ATOM      1  C   UNL     1       0.139 -16.567  -5.612  1.00  0.00     0.184 A 
ATOM      2  C   UNL     1       1.286 -16.976  -4.915  1.00  0.00     0.208 A 
ATOM      3  C   UNL     1       1.936 -18.155  -5.307  1.00  0.00     0.238 A 
ATOM      4  O   UNL     1       2.928 -18.549  -4.640  1.00  0.00    -0.285 OA
ATOM      5  C   UNL     1       1.447 -18.896  -6.411  1.00  0.00     0.111 A 
ATOM      6  C   UNL     1       2.049 -20.084  -6.922  1.00  0.00     0.134 A 
ATOM      7  C   UNL     1       1.409 -20.801  -7.941  1.00  0.00     0.093 A 
ATOM      8  C   UNL     1       0.221 -20.335  -8.512  1.00  0.00     0.123 A 
ATOM      9  C   UNL     1      -0.344 -19.146  -8.060  1.00  0.00     0.094 A 
ATOM     10  C   UNL     1       0.252 -18.428  -7.020  1.00  0.00     0.146 A 
ATOM     11  O   UNL     1      -0.329 -17.306  -6.610  1.00  0.00    -0.451 OA
ENDROOT
BRANCH   1  12
ATOM     12  C   UNL     1      -0.575 -15.320  -5.259  1.00  0.00     0.063 A 
ATOM     13  C   UNL     1      -0.594 -12.888  -5.153  1.00  0.00     0.047 A 
ATOM     14  C   UNL     1       0.074 -14.084  -5.427  1.00  0.00     0.020 A 
ATOM     15  C   UNL     1      -1.920 -12.910  -4.716  1.00  0.00     0.119 A 
ATOM     16  C   UNL     1      -2.577 -14.135  -4.546  1.00  0.00     0.093 A 
ATOM     17  C   UNL     1      -1.915 -15.340  -4.806  1.00  0.00     0.130 A 
BRANCH  15  18
ATOM     18  O   UNL     1      -2.576 -11.709  -4.452  1.00  0.00    -0.508 OA
ATOM     19  H   UNL     1      -2.756 -11.402  -3.504  1.00  0.00     0.293 HD
ENDBRANCH  15  18
BRANCH  17  20
ATOM     20  O   UNL     1      -2.606 -16.534  -4.585  1.00  0.00    -0.507 OA
ATOM     21  H   UNL     1      -3.615 -16.601  -4.615  1.00  0.00     0.293 HD
ENDBRANCH  17  20
ENDBRANCH   1  12
BRANCH   2  22
ATOM     22  O   UNL     1       1.748 -16.223  -3.832  1.00  0.00    -0.502 OA
ATOM     23  H   UNL     1       1.579 -15.228  -3.751  1.00  0.00     0.293 HD
ENDBRANCH   2  22
BRANCH   6  24
ATOM     24  O   UNL     1       3.278 -20.587  -6.486  1.00  0.00    -0.507 OA
ATOM     25  H   UNL     1       4.176 -20.184  -6.706  1.00  0.00     0.293 HD
ENDBRANCH   6  24
BRANCH   8  26
ATOM     26  O   UNL     1      -0.401 -21.046  -9.536  1.00  0.00    -0.508 OA
ATOM     27  H   UNL     1      -1.263 -21.555  -9.381  1.00  0.00     0.293 HD
ENDBRANCH   8  26
TORSDOF 6
ENDMDL
MODEL 9
REMARK VINA RESULT:    -5.077      1.850      6.898
REMARK INTER + INTRA:          -6.486
REMARK INTER:                  -6.086
REMARK INTRA:                  -0.399
REMARK UNBOUND:                -0.370
REMARK SMILES O=c1c(O)c(-c2ccc(O)cc2O)oc2cc(O)cc(O)c12
REMARK SMILES IDX 5 1 3 2 2 3 1 4 22 5 20 6 19 7 17 8 16 9 15 10 14 11 6 12
REMARK SMILES IDX 8 13 7 14 9 15 11 16 12 17 10 18 13 20 4 22 21 24 18 26
REMARK H PARENT 10 19 13 21 4 23 21 25 18 27
REMARK Flexibility Score: inf
ROOT
ATOM      1  C   UNL     1      -0.714 -17.840  -7.566  1.00  0.00     0.184 A 
ATOM      2  C   UNL     1      -0.077 -16.669  -8.002  1.00  0.00     0.208 A 
ATOM      3  C   UNL     1      -0.378 -15.454  -7.367  1.00  0.00     0.238 A 
ATOM      4  O   UNL     1       0.151 -14.398  -7.803  1.00  0.00    -0.285 OA
ATOM      5  C   UNL     1      -1.290 -15.432  -6.285  1.00  0.00     0.111 A 
ATOM      6  C   UNL     1      -1.639 -14.265  -5.542  1.00  0.00     0.134 A 
ATOM      7  C   UNL     1      -2.646 -14.339  -4.571  1.00  0.00     0.093 A 
ATOM      8  C   UNL     1      -3.270 -15.553  -4.272  1.00  0.00     0.123 A 
ATOM      9  C   UNL     1      -2.896 -16.709  -4.951  1.00  0.00     0.094 A 
ATOM     10  C   UNL     1      -1.921 -16.660  -5.951  1.00  0.00     0.146 A 
ATOM     11  O   UNL     1      -1.604 -17.784  -6.584  1.00  0.00    -0.451 OA
ENDROOT
BRANCH   1  12
ATOM     12  C   UNL     1      -0.420 -19.153  -8.181  1.00  0.00     0.063 A 
ATOM     13  C   UNL     1       1.108 -21.027  -8.463  1.00  0.00     0.047 A 
ATOM     14  C   UNL     1       0.823 -19.763  -7.940  1.00  0.00     0.020 A 
ATOM     15  C   UNL     1       0.153 -21.701  -9.227  1.00  0.00     0.119 A 
ATOM     16  C   UNL     1      -1.089 -21.103  -9.474  1.00  0.00     0.093 A 
ATOM     17  C   UNL     1      -1.382 -19.833  -8.964  1.00  0.00     0.130 A 
BRANCH  15  18
ATOM     18  O   UNL     1       0.449 -22.963  -9.738  1.00  0.00    -0.508 OA
ATOM     19  H   UNL     1       1.078 -23.595  -9.256  1.00  0.00     0.293 HD
ENDBRANCH  15  18
BRANCH  17  20
ATOM     20  O   UNL     1      -2.622 -19.269  -9.272  1.00  0.00    -0.507 OA
ATOM     21  H   UNL     1      -2.725 -18.345  -9.671  1.00  0.00     0.293 HD
ENDBRANCH  17  20
ENDBRANCH   1  12
BRANCH   2  22
ATOM     22  O   UNL     1       0.822 -16.721  -9.070  1.00  0.00    -0.502 OA
ATOM     23  H   UNL     1       1.127 -15.891  -9.565  1.00  0.00     0.293 HD
ENDBRANCH   2  22
BRANCH   6  24
ATOM     24  O   UNL     1      -1.015 -13.024  -5.697  1.00  0.00    -0.507 OA
ATOM     25  H   UNL     1      -0.412 -12.592  -5.014  1.00  0.00     0.293 HD
ENDBRANCH   6  24
BRANCH   8  26
ATOM     26  O   UNL     1      -4.259 -15.621  -3.293  1.00  0.00    -0.508 OA
ATOM     27  H   UNL     1      -5.208 -15.314  -3.475  1.00  0.00     0.293 HD
ENDBRANCH   8  26
TORSDOF 6
ENDMDL
