MODEL 1
REMARK VINA RESULT:    -2.709      0.000      0.000
REMARK INTER + INTRA:          -8.217
REMARK INTER:                  -5.877
REMARK INTRA:                  -2.340
REMARK UNBOUND:                -2.340
REMARK SMILES CCCCCCCCCCCCCCCCCCCCCC(=O)[O-]
REMARK SMILES IDX 12 1 11 2 10 3 9 4 8 5 7 6 6 7 5 8 4 9 3 10 2 11 1 12 13 13
REMARK SMILES IDX 14 14 15 15 16 16 17 17 18 18 19 19 20 20 21 21 22 22 23 23
REMARK SMILES IDX 24 24
REMARK H PARENT
REMARK Flexibility Score: inf
ROOT
ATOM      1  C   UNL     1      -5.215  35.125  23.653  1.00  0.00     0.000 C 
ENDROOT
BRANCH   1   2
ATOM      2  C   UNL     1      -6.125  35.020  22.417  1.00  0.00     0.000 C 
BRANCH   2   3
ATOM      3  C   UNL     1      -5.318  34.856  21.111  1.00  0.00     0.000 C 
BRANCH   3   4
ATOM      4  C   UNL     1      -5.988  35.491  19.881  1.00  0.00    -0.000 C 
BRANCH   4   5
ATOM      5  C   UNL     1      -5.895  34.609  18.625  1.00  0.00    -0.000 C 
BRANCH   5   6
ATOM      6  C   UNL     1      -4.460  34.502  18.084  1.00  0.00    -0.000 C 
BRANCH   6   7
ATOM      7  C   UNL     1      -4.067  35.707  17.211  1.00  0.00    -0.000 C 
BRANCH   7   8
ATOM      8  C   UNL     1      -2.804  35.449  16.372  1.00  0.00    -0.000 C 
BRANCH   8   9
ATOM      9  C   UNL     1      -2.316  36.688  15.593  1.00  0.00    -0.000 C 
BRANCH   9  10
ATOM     10  C   UNL     1      -2.739  36.648  14.114  1.00  0.00    -0.000 C 
BRANCH  10  11
ATOM     11  C   UNL     1      -4.186  37.120  13.900  1.00  0.00    -0.003 C 
ATOM     12  C   UNL     1      -4.363  38.619  14.148  1.00  0.00     0.004 C 
ENDBRANCH  10  11
ENDBRANCH   9  10
ENDBRANCH   8   9
ENDBRANCH   7   8
ENDBRANCH   6   7
ENDBRANCH   5   6
ENDBRANCH   4   5
ENDBRANCH   3   4
ENDBRANCH   2   3
ENDBRANCH   1   2
BRANCH   1  13
ATOM     13  C   UNL     1      -5.992  35.459  24.935  1.00  0.00     0.000 C 
BRANCH  13  14
ATOM     14  C   UNL     1      -6.022  36.967  25.239  1.00  0.00     0.000 C 
BRANCH  14  15
ATOM     15  C   UNL     1      -4.617  37.594  25.267  1.00  0.00     0.000 C 
BRANCH  15  16
ATOM     16  C   UNL     1      -4.335  38.607  24.138  1.00  0.00     0.000 C 
BRANCH  16  17
ATOM     17  C   UNL     1      -5.562  39.004  23.299  1.00  0.00     0.000 C 
BRANCH  17  18
ATOM     18  C   UNL     1      -5.419  38.620  21.819  1.00  0.00     0.000 C 
BRANCH  18  19
ATOM     19  C   UNL     1      -4.108  37.866  21.571  1.00  0.00     0.000 C 
BRANCH  19  20
ATOM     20  C   UNL     1      -3.573  38.140  20.157  1.00  0.00     0.006 C 
BRANCH  20  21
ATOM     21  C   UNL     1      -2.562  37.079  19.703  1.00  0.00     0.053 C 
BRANCH  21  22
ATOM     22  C   UNL     1      -1.395  37.692  18.992  1.00  0.00     0.041 C 
ATOM     23  O   UNL     1      -1.543  38.750  18.324  1.00  0.00    -0.550 OA
ATOM     24  O   UNL     1      -0.134  37.118  19.101  1.00  0.00    -0.550 OA
ENDBRANCH  21  22
ENDBRANCH  20  21
ENDBRANCH  19  20
ENDBRANCH  18  19
ENDBRANCH  17  18
ENDBRANCH  16  17
ENDBRANCH  15  16
ENDBRANCH  14  15
ENDBRANCH  13  14
ENDBRANCH   1  13
TORSDOF 20
ENDMDL
MODEL 2
REMARK VINA RESULT:    -2.240      1.799      5.654
REMARK INTER + INTRA:          -7.200
REMARK INTER:                  -5.764
REMARK INTRA:                  -1.436
REMARK UNBOUND:                -2.340
REMARK SMILES CCCCCCCCCCCCCCCCCCCCCC(=O)[O-]
REMARK SMILES IDX 12 1 11 2 10 3 9 4 8 5 7 6 6 7 5 8 4 9 3 10 2 11 1 12 13 13
REMARK SMILES IDX 14 14 15 15 16 16 17 17 18 18 19 19 20 20 21 21 22 22 23 23
REMARK SMILES IDX 24 24
REMARK H PARENT
REMARK Flexibility Score: inf
ROOT
ATOM      1  C   UNL     1      -4.741  35.415  23.244  1.00  0.00     0.000 C 
ENDROOT
BRANCH   1   2
ATOM      2  C   UNL     1      -5.992  35.356  24.138  1.00  0.00     0.000 C 
BRANCH   2   3
ATOM      3  C   UNL     1      -6.118  36.596  25.049  1.00  0.00     0.000 C 
BRANCH   3   4
ATOM      4  C   UNL     1      -4.795  37.353  25.257  1.00  0.00    -0.000 C 
BRANCH   4   5
ATOM      5  C   UNL     1      -4.865  38.820  24.801  1.00  0.00    -0.000 C 
BRANCH   5   6
ATOM      6  C   UNL     1      -4.176  39.049  23.446  1.00  0.00    -0.000 C 
BRANCH   6   7
ATOM      7  C   UNL     1      -5.155  39.528  22.360  1.00  0.00    -0.000 C 
BRANCH   7   8
ATOM      8  C   UNL     1      -5.121  38.650  21.097  1.00  0.00    -0.000 C 
BRANCH   8   9
ATOM      9  C   UNL     1      -3.782  37.911  20.893  1.00  0.00    -0.000 C 
BRANCH   9  10
ATOM     10  C   UNL     1      -3.467  37.679  19.405  1.00  0.00    -0.000 C 
BRANCH  10  11
ATOM     11  C   UNL     1      -1.992  37.320  19.163  1.00  0.00    -0.003 C 
ATOM     12  C   UNL     1      -1.144  38.531  18.771  1.00  0.00     0.004 C 
ENDBRANCH  10  11
ENDBRANCH   9  10
ENDBRANCH   8   9
ENDBRANCH   7   8
ENDBRANCH   6   7
ENDBRANCH   5   6
ENDBRANCH   4   5
ENDBRANCH   3   4
ENDBRANCH   2   3
ENDBRANCH   1   2
BRANCH   1  13
ATOM     13  C   UNL     1      -4.961  34.762  21.872  1.00  0.00     0.000 C 
BRANCH  13  14
ATOM     14  C   UNL     1      -6.123  35.397  21.088  1.00  0.00     0.000 C 
BRANCH  14  15
ATOM     15  C   UNL     1      -5.785  35.621  19.604  1.00  0.00     0.000 C 
BRANCH  15  16
ATOM     16  C   UNL     1      -5.804  34.347  18.734  1.00  0.00     0.000 C 
BRANCH  16  17
ATOM     17  C   UNL     1      -4.612  34.198  17.773  1.00  0.00     0.000 C 
BRANCH  17  18
ATOM     18  C   UNL     1      -4.149  35.541  17.188  1.00  0.00     0.000 C 
BRANCH  18  19
ATOM     19  C   UNL     1      -2.941  35.351  16.264  1.00  0.00     0.000 C 
BRANCH  19  20
ATOM     20  C   UNL     1      -2.327  36.703  15.872  1.00  0.00     0.006 C 
BRANCH  20  21
ATOM     21  C   UNL     1      -2.579  37.051  14.400  1.00  0.00     0.053 C 
BRANCH  21  22
ATOM     22  C   UNL     1      -3.977  37.539  14.175  1.00  0.00     0.041 C 
ATOM     23  O   UNL     1      -4.892  36.727  13.876  1.00  0.00    -0.550 OA
ATOM     24  O   UNL     1      -4.277  38.886  14.337  1.00  0.00    -0.550 OA
ENDBRANCH  21  22
ENDBRANCH  20  21
ENDBRANCH  19  20
ENDBRANCH  18  19
ENDBRANCH  17  18
ENDBRANCH  16  17
ENDBRANCH  15  16
ENDBRANCH  14  15
ENDBRANCH  13  14
ENDBRANCH   1  13
TORSDOF 20
ENDMDL
MODEL 3
REMARK VINA RESULT:    -1.148      2.131      3.362
REMARK INTER + INTRA:          -4.829
REMARK INTER:                  -3.904
REMARK INTRA:                  -0.925
REMARK UNBOUND:                -2.340
REMARK SMILES CCCCCCCCCCCCCCCCCCCCCC(=O)[O-]
REMARK SMILES IDX 12 1 11 2 10 3 9 4 8 5 7 6 6 7 5 8 4 9 3 10 2 11 1 12 13 13
REMARK SMILES IDX 14 14 15 15 16 16 17 17 18 18 19 19 20 20 21 21 22 22 23 23
REMARK SMILES IDX 24 24
REMARK H PARENT
REMARK Flexibility Score: inf
ROOT
ATOM      1  C   UNL     1      -4.016  35.904  21.323  1.00  0.00     0.000 C 
ENDROOT
BRANCH   1   2
ATOM      2  C   UNL     1      -5.294  36.629  20.865  1.00  0.00     0.000 C 
BRANCH   2   3
ATOM      3  C   UNL     1      -5.667  36.288  19.407  1.00  0.00     0.000 C 
BRANCH   3   4
ATOM      4  C   UNL     1      -5.729  34.779  19.115  1.00  0.00    -0.000 C 
BRANCH   4   5
ATOM      5  C   UNL     1      -4.936  34.377  17.860  1.00  0.00    -0.000 C 
BRANCH   5   6
ATOM      6  C   UNL     1      -3.702  35.267  17.633  1.00  0.00    -0.000 C 
BRANCH   6   7
ATOM      7  C   UNL     1      -2.975  34.943  16.317  1.00  0.00    -0.000 C 
BRANCH   7   8
ATOM      8  C   UNL     1      -2.315  36.178  15.681  1.00  0.00    -0.000 C 
BRANCH   8   9
ATOM      9  C   UNL     1      -3.267  37.384  15.537  1.00  0.00    -0.000 C 
BRANCH   9  10
ATOM     10  C   UNL     1      -3.568  37.715  14.065  1.00  0.00    -0.000 C 
BRANCH  10  11
ATOM     11  C   UNL     1      -4.948  38.363  13.876  1.00  0.00    -0.003 C 
ATOM     12  C   UNL     1      -4.894  39.891  13.901  1.00  0.00     0.004 C 
ENDBRANCH  10  11
ENDBRANCH   9  10
ENDBRANCH   8   9
ENDBRANCH   7   8
ENDBRANCH   6   7
ENDBRANCH   5   6
ENDBRANCH   4   5
ENDBRANCH   3   4
ENDBRANCH   2   3
ENDBRANCH   1   2
BRANCH   1  13
ATOM     13  C   UNL     1      -4.298  34.790  22.342  1.00  0.00     0.000 C 
BRANCH  13  14
ATOM     14  C   UNL     1      -5.778  34.724  22.759  1.00  0.00     0.000 C 
BRANCH  14  15
ATOM     15  C   UNL     1      -5.979  34.050  24.127  1.00  0.00     0.000 C 
BRANCH  15  16
ATOM     16  C   UNL     1      -6.123  35.022  25.316  1.00  0.00     0.000 C 
BRANCH  16  17
ATOM     17  C   UNL     1      -6.077  36.515  24.944  1.00  0.00     0.000 C 
BRANCH  17  18
ATOM     18  C   UNL     1      -4.832  37.226  25.495  1.00  0.00     0.000 C 
BRANCH  18  19
ATOM     19  C   UNL     1      -4.265  38.214  24.470  1.00  0.00     0.000 C 
BRANCH  19  20
ATOM     20  C   UNL     1      -5.378  39.080  23.863  1.00  0.00     0.006 C 
BRANCH  20  21
ATOM     21  C   UNL     1      -5.674  38.709  22.404  1.00  0.00     0.053 C 
BRANCH  21  22
ATOM     22  C   UNL     1      -5.861  39.924  21.549  1.00  0.00     0.041 C 
ATOM     23  O   UNL     1      -5.777  41.075  22.054  1.00  0.00    -0.550 OA
ATOM     24  O   UNL     1      -6.086  39.787  20.185  1.00  0.00    -0.550 OA
ENDBRANCH  21  22
ENDBRANCH  20  21
ENDBRANCH  19  20
ENDBRANCH  18  19
ENDBRANCH  17  18
ENDBRANCH  16  17
ENDBRANCH  15  16
ENDBRANCH  14  15
ENDBRANCH  13  14
ENDBRANCH   1  13
TORSDOF 20
ENDMDL
MODEL 4
REMARK VINA RESULT:    -0.676      1.345      5.584
REMARK INTER + INTRA:          -3.806
REMARK INTER:                  -1.984
REMARK INTRA:                  -1.822
REMARK UNBOUND:                -2.340
REMARK SMILES CCCCCCCCCCCCCCCCCCCCCC(=O)[O-]
REMARK SMILES IDX 12 1 11 2 10 3 9 4 8 5 7 6 6 7 5 8 4 9 3 10 2 11 1 12 13 13
REMARK SMILES IDX 14 14 15 15 16 16 17 17 18 18 19 19 20 20 21 21 22 22 23 23
REMARK SMILES IDX 24 24
REMARK H PARENT
REMARK Flexibility Score: inf
ROOT
ATOM      1  C   UNL     1      -4.335  34.933  22.633  1.00  0.00     0.000 C 
ENDROOT
BRANCH   1   2
ATOM      2  C   UNL     1      -5.663  34.712  23.377  1.00  0.00     0.000 C 
BRANCH   2   3
ATOM      3  C   UNL     1      -6.121  35.973  24.140  1.00  0.00     0.000 C 
BRANCH   3   4
ATOM      4  C   UNL     1      -5.394  36.192  25.478  1.00  0.00    -0.000 C 
BRANCH   4   5
ATOM      5  C   UNL     1      -4.720  37.570  25.577  1.00  0.00    -0.000 C 
BRANCH   5   6
ATOM      6  C   UNL     1      -4.325  38.133  24.201  1.00  0.00    -0.000 C 
BRANCH   6   7
ATOM      7  C   UNL     1      -4.855  39.558  23.972  1.00  0.00    -0.000 C 
BRANCH   7   8
ATOM      8  C   UNL     1      -5.257  39.817  22.509  1.00  0.00    -0.000 C 
BRANCH   8   9
ATOM      9  C   UNL     1      -5.653  38.539  21.741  1.00  0.00    -0.000 C 
BRANCH   9  10
ATOM     10  C   UNL     1      -5.756  38.781  20.225  1.00  0.00    -0.000 C 
BRANCH  10  11
ATOM     11  C   UNL     1      -4.486  38.359  19.471  1.00  0.00    -0.003 C 
ATOM     12  C   UNL     1      -3.473  37.646  20.368  1.00  0.00     0.004 C 
ENDBRANCH  10  11
ENDBRANCH   9  10
ENDBRANCH   8   9
ENDBRANCH   7   8
ENDBRANCH   6   7
ENDBRANCH   5   6
ENDBRANCH   4   5
ENDBRANCH   3   4
ENDBRANCH   2   3
ENDBRANCH   1   2
BRANCH   1  13
ATOM     13  C   UNL     1      -4.513  35.002  21.109  1.00  0.00     0.000 C 
BRANCH  13  14
ATOM     14  C   UNL     1      -5.957  35.331  20.692  1.00  0.00     0.000 C 
BRANCH  14  15
ATOM     15  C   UNL     1      -6.125  35.432  19.166  1.00  0.00     0.000 C 
BRANCH  15  16
ATOM     16  C   UNL     1      -5.721  34.167  18.382  1.00  0.00     0.000 C 
BRANCH  16  17
ATOM     17  C   UNL     1      -4.352  34.243  17.684  1.00  0.00     0.000 C 
BRANCH  17  18
ATOM     18  C   UNL     1      -4.018  35.656  17.183  1.00  0.00     0.000 C 
BRANCH  18  19
ATOM     19  C   UNL     1      -2.912  35.617  16.123  1.00  0.00     0.000 C 
BRANCH  19  20
ATOM     20  C   UNL     1      -1.606  36.214  16.666  1.00  0.00     0.006 C 
BRANCH  20  21
ATOM     21  C   UNL     1      -1.774  37.672  17.114  1.00  0.00     0.053 C 
BRANCH  21  22
ATOM     22  C   UNL     1      -0.891  38.000  18.279  1.00  0.00     0.041 C 
ATOM     23  O   UNL     1      -0.875  39.166  18.754  1.00  0.00    -0.550 OA
ATOM     24  O   UNL     1      -0.117  37.006  18.866  1.00  0.00    -0.550 OA
ENDBRANCH  21  22
ENDBRANCH  20  21
ENDBRANCH  19  20
ENDBRANCH  18  19
ENDBRANCH  17  18
ENDBRANCH  16  17
ENDBRANCH  15  16
ENDBRANCH  14  15
ENDBRANCH  13  14
ENDBRANCH   1  13
TORSDOF 20
ENDMDL
MODEL 5
REMARK VINA RESULT:    -0.621      1.608      4.759
REMARK INTER + INTRA:          -3.688
REMARK INTER:                  -1.597
REMARK INTRA:                  -2.091
REMARK UNBOUND:                -2.340
REMARK SMILES CCCCCCCCCCCCCCCCCCCCCC(=O)[O-]
REMARK SMILES IDX 12 1 11 2 10 3 9 4 8 5 7 6 6 7 5 8 4 9 3 10 2 11 1 12 13 13
REMARK SMILES IDX 14 14 15 15 16 16 17 17 18 18 19 19 20 20 21 21 22 22 23 23
REMARK SMILES IDX 24 24
REMARK H PARENT
REMARK Flexibility Score: inf
ROOT
ATOM      1  C   UNL     1      -4.769  36.178  24.710  1.00  0.00     0.000 C 
ENDROOT
BRANCH   1   2
ATOM      2  C   UNL     1      -4.906  37.455  25.558  1.00  0.00     0.000 C 
BRANCH   2   3
ATOM      3  C   UNL     1      -5.351  38.669  24.715  1.00  0.00     0.000 C 
BRANCH   3   4
ATOM      4  C   UNL     1      -4.244  39.239  23.811  1.00  0.00    -0.000 C 
BRANCH   4   5
ATOM      5  C   UNL     1      -4.710  39.469  22.364  1.00  0.00    -0.000 C 
BRANCH   5   6
ATOM      6  C   UNL     1      -5.817  38.490  21.939  1.00  0.00    -0.000 C 
BRANCH   6   7
ATOM      7  C   UNL     1      -5.755  38.142  20.441  1.00  0.00    -0.000 C 
BRANCH   7   8
ATOM      8  C   UNL     1      -4.441  38.589  19.778  1.00  0.00    -0.000 C 
BRANCH   8   9
ATOM      9  C   UNL     1      -3.221  37.738  20.188  1.00  0.00    -0.000 C 
BRANCH   9  10
ATOM     10  C   UNL     1      -2.373  37.317  18.975  1.00  0.00    -0.000 C 
BRANCH  10  11
ATOM     11  C   UNL     1      -0.966  37.936  18.996  1.00  0.00    -0.003 C 
ATOM     12  C   UNL     1      -0.034  37.323  17.950  1.00  0.00     0.004 C 
ENDBRANCH  10  11
ENDBRANCH   9  10
ENDBRANCH   8   9
ENDBRANCH   7   8
ENDBRANCH   6   7
ENDBRANCH   5   6
ENDBRANCH   4   5
ENDBRANCH   3   4
ENDBRANCH   2   3
ENDBRANCH   1   2
BRANCH   1  13
ATOM     13  C   UNL     1      -6.124  35.633  24.235  1.00  0.00     0.000 C 
BRANCH  13  14
ATOM     14  C   UNL     1      -6.053  34.999  22.834  1.00  0.00     0.000 C 
BRANCH  14  15
ATOM     15  C   UNL     1      -4.651  35.099  22.208  1.00  0.00     0.000 C 
BRANCH  15  16
ATOM     16  C   UNL     1      -4.583  34.745  20.708  1.00  0.00     0.000 C 
BRANCH  16  17
ATOM     17  C   UNL     1      -5.846  35.090  19.900  1.00  0.00     0.000 C 
BRANCH  17  18
ATOM     18  C   UNL     1      -5.597  35.104  18.385  1.00  0.00     0.000 C 
BRANCH  18  19
ATOM     19  C   UNL     1      -4.341  34.302  18.027  1.00  0.00     0.000 C 
BRANCH  19  20
ATOM     20  C   UNL     1      -3.668  34.863  16.766  1.00  0.00     0.006 C 
BRANCH  20  21
ATOM     21  C   UNL     1      -3.795  36.389  16.668  1.00  0.00     0.053 C 
BRANCH  21  22
ATOM     22  C   UNL     1      -3.178  36.919  15.411  1.00  0.00     0.041 C 
ATOM     23  O   UNL     1      -2.040  36.522  15.046  1.00  0.00    -0.550 OA
ATOM     24  O   UNL     1      -3.879  37.820  14.618  1.00  0.00    -0.550 OA
ENDBRANCH  21  22
ENDBRANCH  20  21
ENDBRANCH  19  20
ENDBRANCH  18  19
ENDBRANCH  17  18
ENDBRANCH  16  17
ENDBRANCH  15  16
ENDBRANCH  14  15
ENDBRANCH  13  14
ENDBRANCH   1  13
TORSDOF 20
ENDMDL
MODEL 6
REMARK VINA RESULT:    -0.565      1.088      6.925
REMARK INTER + INTRA:          -3.565
REMARK INTER:                  -4.051
REMARK INTRA:                   0.486
REMARK UNBOUND:                -2.340
REMARK SMILES CCCCCCCCCCCCCCCCCCCCCC(=O)[O-]
REMARK SMILES IDX 12 1 11 2 10 3 9 4 8 5 7 6 6 7 5 8 4 9 3 10 2 11 1 12 13 13
REMARK SMILES IDX 14 14 15 15 16 16 17 17 18 18 19 19 20 20 21 21 22 22 23 23
REMARK SMILES IDX 24 24
REMARK H PARENT
REMARK Flexibility Score: inf
ROOT
ATOM      1  C   UNL     1      -4.391  35.568  20.785  1.00  0.00     0.000 C 
ENDROOT
BRANCH   1   2
ATOM      2  C   UNL     1      -4.317  37.067  21.124  1.00  0.00     0.000 C 
BRANCH   2   3
ATOM      3  C   UNL     1      -5.713  37.679  21.369  1.00  0.00     0.000 C 
BRANCH   3   4
ATOM      4  C   UNL     1      -5.758  39.209  21.219  1.00  0.00    -0.000 C 
BRANCH   4   5
ATOM      5  C   UNL     1      -5.098  39.948  22.395  1.00  0.00    -0.000 C 
BRANCH   5   6
ATOM      6  C   UNL     1      -5.421  39.301  23.752  1.00  0.00    -0.000 C 
BRANCH   6   7
ATOM      7  C   UNL     1      -4.267  38.431  24.280  1.00  0.00    -0.000 C 
BRANCH   7   8
ATOM      8  C   UNL     1      -4.493  37.955  25.726  1.00  0.00    -0.000 C 
BRANCH   8   9
ATOM      9  C   UNL     1      -5.333  36.664  25.828  1.00  0.00    -0.000 C 
BRANCH   9  10
ATOM     10  C   UNL     1      -5.691  36.093  24.444  1.00  0.00    -0.000 C 
BRANCH  10  11
ATOM     11  C   UNL     1      -6.124  34.620  24.508  1.00  0.00    -0.003 C 
ATOM     12  C   UNL     1      -5.543  33.782  23.369  1.00  0.00     0.004 C 
ENDBRANCH  10  11
ENDBRANCH   9  10
ENDBRANCH   8   9
ENDBRANCH   7   8
ENDBRANCH   6   7
ENDBRANCH   5   6
ENDBRANCH   4   5
ENDBRANCH   3   4
ENDBRANCH   2   3
ENDBRANCH   1   2
BRANCH   1  13
ATOM     13  C   UNL     1      -5.750  35.159  20.197  1.00  0.00     0.000 C 
BRANCH  13  14
ATOM     14  C   UNL     1      -5.679  34.846  18.693  1.00  0.00     0.000 C 
BRANCH  14  15
ATOM     15  C   UNL     1      -4.442  35.461  18.016  1.00  0.00     0.000 C 
BRANCH  15  16
ATOM     16  C   UNL     1      -3.868  34.642  16.842  1.00  0.00     0.000 C 
BRANCH  16  17
ATOM     17  C   UNL     1      -2.726  35.325  16.069  1.00  0.00     0.000 C 
BRANCH  17  18
ATOM     18  C   UNL     1      -3.225  36.127  14.858  1.00  0.00     0.000 C 
BRANCH  18  19
ATOM     19  C   UNL     1      -3.377  37.612  15.206  1.00  0.00     0.000 C 
BRANCH  19  20
ATOM     20  C   UNL     1      -3.077  37.864  16.691  1.00  0.00     0.006 C 
BRANCH  20  21
ATOM     21  C   UNL     1      -1.638  37.490  17.066  1.00  0.00     0.053 C 
BRANCH  21  22
ATOM     22  C   UNL     1      -1.379  37.676  18.529  1.00  0.00     0.041 C 
ATOM     23  O   UNL     1      -2.292  38.098  19.287  1.00  0.00    -0.550 OA
ATOM     24  O   UNL     1      -0.140  37.345  19.064  1.00  0.00    -0.550 OA
ENDBRANCH  21  22
ENDBRANCH  20  21
ENDBRANCH  19  20
ENDBRANCH  18  19
ENDBRANCH  17  18
ENDBRANCH  16  17
ENDBRANCH  15  16
ENDBRANCH  14  15
ENDBRANCH  13  14
ENDBRANCH   1  13
TORSDOF 20
ENDMDL
MODEL 7
REMARK VINA RESULT:    -0.523      2.147      3.750
REMARK INTER + INTRA:          -3.474
REMARK INTER:                  -3.164
REMARK INTRA:                  -0.310
REMARK UNBOUND:                -2.340
REMARK SMILES CCCCCCCCCCCCCCCCCCCCCC(=O)[O-]
REMARK SMILES IDX 12 1 11 2 10 3 9 4 8 5 7 6 6 7 5 8 4 9 3 10 2 11 1 12 13 13
REMARK SMILES IDX 14 14 15 15 16 16 17 17 18 18 19 19 20 20 21 21 22 22 23 23
REMARK SMILES IDX 24 24
REMARK H PARENT
REMARK Flexibility Score: inf
ROOT
ATOM      1  C   UNL     1      -3.875  35.977  21.180  1.00  0.00     0.000 C 
ENDROOT
BRANCH   1   2
ATOM      2  C   UNL     1      -5.074  36.810  20.693  1.00  0.00     0.000 C 
BRANCH   2   3
ATOM      3  C   UNL     1      -5.464  36.476  19.237  1.00  0.00     0.000 C 
BRANCH   3   4
ATOM      4  C   UNL     1      -5.901  35.016  19.028  1.00  0.00    -0.000 C 
BRANCH   4   5
ATOM      5  C   UNL     1      -5.171  34.333  17.859  1.00  0.00    -0.000 C 
BRANCH   5   6
ATOM      6  C   UNL     1      -3.700  34.768  17.748  1.00  0.00    -0.000 C 
BRANCH   6   7
ATOM      7  C   UNL     1      -3.248  34.955  16.290  1.00  0.00    -0.000 C 
BRANCH   7   8
ATOM      8  C   UNL     1      -2.183  36.053  16.131  1.00  0.00    -0.000 C 
BRANCH   8   9
ATOM      9  C   UNL     1      -2.711  37.474  16.418  1.00  0.00    -0.000 C 
BRANCH   9  10
ATOM     10  C   UNL     1      -2.939  37.716  17.921  1.00  0.00    -0.000 C 
BRANCH  10  11
ATOM     11  C   UNL     1      -1.638  38.047  18.669  1.00  0.00    -0.003 C 
ATOM     12  C   UNL     1      -0.486  37.113  18.297  1.00  0.00     0.004 C 
ENDBRANCH  10  11
ENDBRANCH   9  10
ENDBRANCH   8   9
ENDBRANCH   7   8
ENDBRANCH   6   7
ENDBRANCH   5   6
ENDBRANCH   4   5
ENDBRANCH   3   4
ENDBRANCH   2   3
ENDBRANCH   1   2
BRANCH   1  13
ATOM     13  C   UNL     1      -4.272  34.920  22.221  1.00  0.00     0.000 C 
BRANCH  13  14
ATOM     14  C   UNL     1      -5.730  35.063  22.691  1.00  0.00     0.000 C 
BRANCH  14  15
ATOM     15  C   UNL     1      -5.983  34.389  24.051  1.00  0.00     0.000 C 
BRANCH  15  16
ATOM     16  C   UNL     1      -6.041  35.352  25.254  1.00  0.00     0.000 C 
BRANCH  16  17
ATOM     17  C   UNL     1      -5.973  36.847  24.894  1.00  0.00     0.000 C 
BRANCH  17  18
ATOM     18  C   UNL     1      -4.690  37.523  25.402  1.00  0.00     0.000 C 
BRANCH  18  19
ATOM     19  C   UNL     1      -4.148  38.518  24.370  1.00  0.00     0.000 C 
BRANCH  19  20
ATOM     20  C   UNL     1      -5.280  39.367  23.774  1.00  0.00     0.006 C 
BRANCH  20  21
ATOM     21  C   UNL     1      -5.727  38.857  22.397  1.00  0.00     0.053 C 
BRANCH  21  22
ATOM     22  C   UNL     1      -5.887  39.976  21.416  1.00  0.00     0.041 C 
ATOM     23  O   UNL     1      -5.770  41.173  21.792  1.00  0.00    -0.550 OA
ATOM     24  O   UNL     1      -6.124  39.697  20.075  1.00  0.00    -0.550 OA
ENDBRANCH  21  22
ENDBRANCH  20  21
ENDBRANCH  19  20
ENDBRANCH  18  19
ENDBRANCH  17  18
ENDBRANCH  16  17
ENDBRANCH  15  16
ENDBRANCH  14  15
ENDBRANCH  13  14
ENDBRANCH   1  13
TORSDOF 20
ENDMDL
MODEL 8
REMARK VINA RESULT:    -0.476      1.759      4.881
REMARK INTER + INTRA:          -3.372
REMARK INTER:                  -1.838
REMARK INTRA:                  -1.534
REMARK UNBOUND:                -2.340
REMARK SMILES CCCCCCCCCCCCCCCCCCCCCC(=O)[O-]
REMARK SMILES IDX 12 1 11 2 10 3 9 4 8 5 7 6 6 7 5 8 4 9 3 10 2 11 1 12 13 13
REMARK SMILES IDX 14 14 15 15 16 16 17 17 18 18 19 19 20 20 21 21 22 22 23 23
REMARK SMILES IDX 24 24
REMARK H PARENT
REMARK Flexibility Score: inf
ROOT
ATOM      1  C   UNL     1      -5.486  38.863  23.556  1.00  0.00     0.000 C 
ENDROOT
BRANCH   1   2
ATOM      2  C   UNL     1      -4.992  37.787  24.540  1.00  0.00     0.000 C 
BRANCH   2   3
ATOM      3  C   UNL     1      -6.098  36.771  24.896  1.00  0.00     0.000 C 
BRANCH   3   4
ATOM      4  C   UNL     1      -5.774  35.326  24.479  1.00  0.00    -0.000 C 
BRANCH   4   5
ATOM      5  C   UNL     1      -5.422  35.196  22.987  1.00  0.00    -0.000 C 
BRANCH   5   6
ATOM      6  C   UNL     1      -4.433  34.052  22.713  1.00  0.00    -0.000 C 
BRANCH   6   7
ATOM      7  C   UNL     1      -3.474  34.366  21.552  1.00  0.00    -0.000 C 
BRANCH   7   8
ATOM      8  C   UNL     1      -3.312  35.875  21.303  1.00  0.00    -0.000 C 
BRANCH   8   9
ATOM      9  C   UNL     1      -2.357  36.211  20.139  1.00  0.00    -0.000 C 
BRANCH   9  10
ATOM     10  C   UNL     1      -2.412  37.700  19.754  1.00  0.00    -0.000 C 
BRANCH  10  11
ATOM     11  C   UNL     1      -1.473  38.043  18.586  1.00  0.00    -0.003 C 
ATOM     12  C   UNL     1      -0.121  37.336  18.685  1.00  0.00     0.004 C 
ENDBRANCH  10  11
ENDBRANCH   9  10
ENDBRANCH   8   9
ENDBRANCH   7   8
ENDBRANCH   6   7
ENDBRANCH   5   6
ENDBRANCH   4   5
ENDBRANCH   3   4
ENDBRANCH   2   3
ENDBRANCH   1   2
BRANCH   1  13
ATOM     13  C   UNL     1      -4.562  39.024  22.341  1.00  0.00     0.000 C 
BRANCH  13  14
ATOM     14  C   UNL     1      -5.281  38.762  21.006  1.00  0.00     0.000 C 
BRANCH  14  15
ATOM     15  C   UNL     1      -5.756  37.306  20.864  1.00  0.00     0.000 C 
BRANCH  15  16
ATOM     16  C   UNL     1      -5.850  36.791  19.413  1.00  0.00     0.000 C 
BRANCH  16  17
ATOM     17  C   UNL     1      -5.895  35.260  19.268  1.00  0.00     0.000 C 
BRANCH  17  18
ATOM     18  C   UNL     1      -4.915  34.734  18.209  1.00  0.00     0.000 C 
BRANCH  18  19
ATOM     19  C   UNL     1      -4.248  35.889  17.455  1.00  0.00     0.000 C 
BRANCH  19  20
ATOM     20  C   UNL     1      -3.173  35.371  16.489  1.00  0.00     0.006 C 
BRANCH  20  21
ATOM     21  C   UNL     1      -2.525  36.501  15.679  1.00  0.00     0.053 C 
BRANCH  21  22
ATOM     22  C   UNL     1      -3.518  37.191  14.795  1.00  0.00     0.041 C 
ATOM     23  O   UNL     1      -3.660  38.441  14.854  1.00  0.00    -0.550 OA
ATOM     24  O   UNL     1      -4.258  36.458  13.875  1.00  0.00    -0.550 OA
ENDBRANCH  21  22
ENDBRANCH  20  21
ENDBRANCH  19  20
ENDBRANCH  18  19
ENDBRANCH  17  18
ENDBRANCH  16  17
ENDBRANCH  15  16
ENDBRANCH  14  15
ENDBRANCH  13  14
ENDBRANCH   1  13
TORSDOF 20
ENDMDL
MODEL 9
REMARK VINA RESULT:    -0.462      1.928      3.980
REMARK INTER + INTRA:          -3.342
REMARK INTER:                  -1.901
REMARK INTRA:                  -1.441
REMARK UNBOUND:                -2.340
REMARK SMILES CCCCCCCCCCCCCCCCCCCCCC(=O)[O-]
REMARK SMILES IDX 12 1 11 2 10 3 9 4 8 5 7 6 6 7 5 8 4 9 3 10 2 11 1 12 13 13
REMARK SMILES IDX 14 14 15 15 16 16 17 17 18 18 19 19 20 20 21 21 22 22 23 23
REMARK SMILES IDX 24 24
REMARK H PARENT
REMARK Flexibility Score: inf
ROOT
ATOM      1  C   UNL     1      -5.154  37.771  20.043  1.00  0.00     0.000 C 
ENDROOT
BRANCH   1   2
ATOM      2  C   UNL     1      -6.124  36.609  20.318  1.00  0.00     0.000 C 
BRANCH   2   3
ATOM      3  C   UNL     1      -5.742  35.332  19.539  1.00  0.00     0.000 C 
BRANCH   3   4
ATOM      4  C   UNL     1      -4.336  35.380  18.916  1.00  0.00    -0.000 C 
BRANCH   4   5
ATOM      5  C   UNL     1      -4.330  35.020  17.421  1.00  0.00    -0.000 C 
BRANCH   5   6
ATOM      6  C   UNL     1      -4.032  36.232  16.524  1.00  0.00    -0.000 C 
BRANCH   6   7
ATOM      7  C   UNL     1      -3.119  35.878  15.337  1.00  0.00    -0.000 C 
BRANCH   7   8
ATOM      8  C   UNL     1      -1.734  36.542  15.430  1.00  0.00    -0.000 C 
BRANCH   8   9
ATOM      9  C   UNL     1      -1.600  37.529  16.608  1.00  0.00    -0.000 C 
BRANCH   9  10
ATOM     10  C   UNL     1      -0.444  37.154  17.552  1.00  0.00    -0.000 C 
BRANCH  10  11
ATOM     11  C   UNL     1      -0.761  37.459  19.024  1.00  0.00    -0.003 C 
ATOM     12  C   UNL     1      -2.145  38.079  19.216  1.00  0.00     0.004 C 
ENDBRANCH  10  11
ENDBRANCH   9  10
ENDBRANCH   8   9
ENDBRANCH   7   8
ENDBRANCH   6   7
ENDBRANCH   5   6
ENDBRANCH   4   5
ENDBRANCH   3   4
ENDBRANCH   2   3
ENDBRANCH   1   2
BRANCH   1  13
ATOM     13  C   UNL     1      -5.758  39.141  20.381  1.00  0.00     0.000 C 
BRANCH  13  14
ATOM     14  C   UNL     1      -5.567  39.530  21.857  1.00  0.00     0.000 C 
BRANCH  14  15
ATOM     15  C   UNL     1      -5.382  38.308  22.773  1.00  0.00     0.000 C 
BRANCH  15  16
ATOM     16  C   UNL     1      -4.662  38.597  24.106  1.00  0.00     0.000 C 
BRANCH  16  17
ATOM     17  C   UNL     1      -4.738  37.466  25.146  1.00  0.00     0.000 C 
BRANCH  17  18
ATOM     18  C   UNL     1      -6.123  36.805  25.204  1.00  0.00     0.000 C 
BRANCH  18  19
ATOM     19  C   UNL     1      -6.024  35.296  24.957  1.00  0.00     0.000 C 
BRANCH  19  20
ATOM     20  C   UNL     1      -6.005  34.983  23.453  1.00  0.00     0.006 C 
BRANCH  20  21
ATOM     21  C   UNL     1      -4.979  33.899  23.097  1.00  0.00     0.053 C 
BRANCH  21  22
ATOM     22  C   UNL     1      -3.863  34.444  22.261  1.00  0.00     0.041 C 
ATOM     23  O   UNL     1      -3.695  35.688  22.159  1.00  0.00    -0.550 OA
ATOM     24  O   UNL     1      -2.982  33.577  21.627  1.00  0.00    -0.550 OA
ENDBRANCH  21  22
ENDBRANCH  20  21
ENDBRANCH  19  20
ENDBRANCH  18  19
ENDBRANCH  17  18
ENDBRANCH  16  17
ENDBRANCH  15  16
ENDBRANCH  14  15
ENDBRANCH  13  14
ENDBRANCH   1  13
TORSDOF 20
ENDMDL
