MODEL 1
REMARK VINA RESULT:    -4.045      0.000      0.000
REMARK INTER + INTRA:         -10.394
REMARK INTER:                  -7.829
REMARK INTRA:                  -2.565
REMARK UNBOUND:                -2.565
REMARK SMILES CCCCCCCCCCCCCCCCCC(=O)[O-]
REMARK SMILES IDX 10 1 11 2 12 3 13 4 14 5 15 6 16 7 17 8 18 9 19 10 20 11
REMARK SMILES IDX 9 12 8 13 7 14 6 15 5 16 4 17 3 18 2 19 1 20
REMARK H PARENT
REMARK Flexibility Score: inf
ROOT
ATOM      1  C   UNL     1      -1.649  26.865  56.966  1.00  0.00     0.000 C 
ENDROOT
BRANCH   1   2
ATOM      2  C   UNL     1      -1.145  25.741  56.044  1.00  0.00     0.000 C 
BRANCH   2   3
ATOM      3  C   UNL     1      -1.777  24.355  56.292  1.00  0.00     0.000 C 
BRANCH   3   4
ATOM      4  C   UNL     1      -2.946  23.998  55.357  1.00  0.00     0.000 C 
BRANCH   4   5
ATOM      5  C   UNL     1      -4.063  23.217  56.072  1.00  0.00     0.000 C 
BRANCH   5   6
ATOM      6  C   UNL     1      -5.255  24.108  56.453  1.00  0.00     0.000 C 
BRANCH   6   7
ATOM      7  C   UNL     1      -5.309  24.407  57.958  1.00  0.00     0.006 C 
BRANCH   7   8
ATOM      8  C   UNL     1      -6.744  24.315  58.484  1.00  0.00     0.053 C 
BRANCH   8   9
ATOM      9  C   UNL     1      -7.606  25.356  57.845  1.00  0.00     0.041 C 
ATOM     10  O   UNL     1      -8.587  25.018  57.132  1.00  0.00    -0.550 OA
ATOM     11  O   UNL     1      -7.357  26.703  58.078  1.00  0.00    -0.550 OA
ENDBRANCH   8   9
ENDBRANCH   7   8
ENDBRANCH   6   7
ENDBRANCH   5   6
ENDBRANCH   4   5
ENDBRANCH   3   4
ENDBRANCH   2   3
ENDBRANCH   1   2
BRANCH   1  12
ATOM     12  C   UNL     1      -2.506  26.393  58.157  1.00  0.00     0.000 C 
BRANCH  12  13
ATOM     13  C   UNL     1      -2.713  27.473  59.244  1.00  0.00    -0.000 C 
BRANCH  13  14
ATOM     14  C   UNL     1      -1.811  28.716  59.099  1.00  0.00    -0.000 C 
BRANCH  14  15
ATOM     15  C   UNL     1      -2.547  30.055  58.880  1.00  0.00    -0.000 C 
BRANCH  15  16
ATOM     16  C   UNL     1      -2.874  30.391  57.414  1.00  0.00    -0.000 C 
BRANCH  16  17
ATOM     17  C   UNL     1      -4.343  30.113  57.054  1.00  0.00    -0.000 C 
BRANCH  17  18
ATOM     18  C   UNL     1      -4.500  29.477  55.663  1.00  0.00    -0.000 C 
BRANCH  18  19
ATOM     19  C   UNL     1      -4.940  28.008  55.734  1.00  0.00    -0.003 C 
ATOM     20  C   UNL     1      -4.434  27.224  54.526  1.00  0.00     0.004 C 
ENDBRANCH  18  19
ENDBRANCH  17  18
ENDBRANCH  16  17
ENDBRANCH  15  16
ENDBRANCH  14  15
ENDBRANCH  13  14
ENDBRANCH  12  13
ENDBRANCH   1  12
TORSDOF 16
ENDMDL
MODEL 2
REMARK VINA RESULT:    -3.997      2.449      5.409
REMARK INTER + INTRA:         -10.301
REMARK INTER:                  -7.434
REMARK INTRA:                  -2.868
REMARK UNBOUND:                -2.565
REMARK SMILES CCCCCCCCCCCCCCCCCC(=O)[O-]
REMARK SMILES IDX 10 1 11 2 12 3 13 4 14 5 15 6 16 7 17 8 18 9 19 10 20 11
REMARK SMILES IDX 9 12 8 13 7 14 6 15 5 16 4 17 3 18 2 19 1 20
REMARK H PARENT
REMARK Flexibility Score: inf
ROOT
ATOM      1  C   UNL     1      -2.708  26.657  55.195  1.00  0.00     0.000 C 
ENDROOT
BRANCH   1   2
ATOM      2  C   UNL     1      -3.254  28.097  55.201  1.00  0.00     0.000 C 
BRANCH   2   3
ATOM      3  C   UNL     1      -4.725  28.240  55.645  1.00  0.00     0.000 C 
BRANCH   3   4
ATOM      4  C   UNL     1      -4.984  29.339  56.690  1.00  0.00     0.000 C 
BRANCH   4   5
ATOM      5  C   UNL     1      -3.836  30.362  56.776  1.00  0.00     0.000 C 
BRANCH   5   6
ATOM      6  C   UNL     1      -4.254  31.759  56.293  1.00  0.00     0.000 C 
BRANCH   6   7
ATOM      7  C   UNL     1      -4.547  31.798  54.786  1.00  0.00     0.006 C 
BRANCH   7   8
ATOM      8  C   UNL     1      -5.866  32.523  54.502  1.00  0.00     0.053 C 
BRANCH   8   9
ATOM      9  C   UNL     1      -7.030  31.657  54.862  1.00  0.00     0.041 C 
ATOM     10  O   UNL     1      -7.219  30.566  54.262  1.00  0.00    -0.550 OA
ATOM     11  O   UNL     1      -7.879  32.030  55.895  1.00  0.00    -0.550 OA
ENDBRANCH   8   9
ENDBRANCH   7   8
ENDBRANCH   6   7
ENDBRANCH   5   6
ENDBRANCH   4   5
ENDBRANCH   3   4
ENDBRANCH   2   3
ENDBRANCH   1   2
BRANCH   1  12
ATOM     12  C   UNL     1      -2.040  26.211  56.510  1.00  0.00     0.000 C 
BRANCH  12  13
ATOM     13  C   UNL     1      -1.694  27.379  57.463  1.00  0.00    -0.000 C 
BRANCH  13  14
ATOM     14  C   UNL     1      -2.454  27.363  58.806  1.00  0.00    -0.000 C 
BRANCH  14  15
ATOM     15  C   UNL     1      -3.181  26.045  59.147  1.00  0.00    -0.000 C 
BRANCH  15  16
ATOM     16  C   UNL     1      -4.616  26.206  59.678  1.00  0.00    -0.000 C 
BRANCH  16  17
ATOM     17  C   UNL     1      -5.647  26.401  58.553  1.00  0.00    -0.000 C 
BRANCH  17  18
ATOM     18  C   UNL     1      -6.200  25.069  58.022  1.00  0.00    -0.000 C 
BRANCH  18  19
ATOM     19  C   UNL     1      -5.670  24.729  56.622  1.00  0.00    -0.003 C 
ATOM     20  C   UNL     1      -4.720  23.535  56.669  1.00  0.00     0.004 C 
ENDBRANCH  18  19
ENDBRANCH  17  18
ENDBRANCH  16  17
ENDBRANCH  15  16
ENDBRANCH  14  15
ENDBRANCH  13  14
ENDBRANCH  12  13
ENDBRANCH   1  12
TORSDOF 16
ENDMDL
MODEL 3
REMARK VINA RESULT:    -3.976      2.164      4.127
REMARK INTER + INTRA:         -10.260
REMARK INTER:                  -7.537
REMARK INTRA:                  -2.722
REMARK UNBOUND:                -2.565
REMARK SMILES CCCCCCCCCCCCCCCCCC(=O)[O-]
REMARK SMILES IDX 10 1 11 2 12 3 13 4 14 5 15 6 16 7 17 8 18 9 19 10 20 11
REMARK SMILES IDX 9 12 8 13 7 14 6 15 5 16 4 17 3 18 2 19 1 20
REMARK H PARENT
REMARK Flexibility Score: inf
ROOT
ATOM      1  C   UNL     1      -3.936  30.637  57.188  1.00  0.00     0.000 C 
ENDROOT
BRANCH   1   2
ATOM      2  C   UNL     1      -2.976  30.358  58.360  1.00  0.00     0.000 C 
BRANCH   2   3
ATOM      3  C   UNL     1      -2.857  28.877  58.773  1.00  0.00     0.000 C 
BRANCH   3   4
ATOM      4  C   UNL     1      -1.600  28.157  58.255  1.00  0.00     0.000 C 
BRANCH   4   5
ATOM      5  C   UNL     1      -1.921  26.818  57.567  1.00  0.00     0.000 C 
BRANCH   5   6
ATOM      6  C   UNL     1      -3.094  26.081  58.230  1.00  0.00     0.000 C 
BRANCH   6   7
ATOM      7  C   UNL     1      -4.200  25.714  57.230  1.00  0.00     0.006 C 
BRANCH   7   8
ATOM      8  C   UNL     1      -5.481  25.296  57.958  1.00  0.00     0.053 C 
BRANCH   8   9
ATOM      9  C   UNL     1      -6.581  25.038  56.978  1.00  0.00     0.041 C 
ATOM     10  O   UNL     1      -6.995  25.962  56.231  1.00  0.00    -0.550 OA
ATOM     11  O   UNL     1      -7.116  23.762  56.855  1.00  0.00    -0.550 OA
ENDBRANCH   8   9
ENDBRANCH   7   8
ENDBRANCH   6   7
ENDBRANCH   5   6
ENDBRANCH   4   5
ENDBRANCH   3   4
ENDBRANCH   2   3
ENDBRANCH   1   2
BRANCH   1  12
ATOM     12  C   UNL     1      -4.691  29.402  56.661  1.00  0.00     0.000 C 
BRANCH  12  13
ATOM     13  C   UNL     1      -4.355  29.044  55.194  1.00  0.00    -0.000 C 
BRANCH  13  14
ATOM     14  C   UNL     1      -2.879  29.258  54.800  1.00  0.00    -0.000 C 
BRANCH  14  15
ATOM     15  C   UNL     1      -2.639  30.183  53.586  1.00  0.00    -0.000 C 
BRANCH  15  16
ATOM     16  C   UNL     1      -2.846  31.684  53.854  1.00  0.00    -0.000 C 
BRANCH  16  17
ATOM     17  C   UNL     1      -4.142  32.226  53.226  1.00  0.00    -0.000 C 
BRANCH  17  18
ATOM     18  C   UNL     1      -5.195  32.605  54.280  1.00  0.00    -0.000 C 
BRANCH  18  19
ATOM     19  C   UNL     1      -6.518  31.851  54.086  1.00  0.00    -0.003 C 
ATOM     20  C   UNL     1      -7.332  31.829  55.378  1.00  0.00     0.004 C 
ENDBRANCH  18  19
ENDBRANCH  17  18
ENDBRANCH  16  17
ENDBRANCH  15  16
ENDBRANCH  14  15
ENDBRANCH  13  14
ENDBRANCH  12  13
ENDBRANCH   1  12
TORSDOF 16
ENDMDL
MODEL 4
REMARK VINA RESULT:    -3.962      2.437      5.528
REMARK INTER + INTRA:         -10.233
REMARK INTER:                  -7.901
REMARK INTRA:                  -2.332
REMARK UNBOUND:                -2.565
REMARK SMILES CCCCCCCCCCCCCCCCCC(=O)[O-]
REMARK SMILES IDX 10 1 11 2 12 3 13 4 14 5 15 6 16 7 17 8 18 9 19 10 20 11
REMARK SMILES IDX 9 12 8 13 7 14 6 15 5 16 4 17 3 18 2 19 1 20
REMARK H PARENT
REMARK Flexibility Score: inf
ROOT
ATOM      1  C   UNL     1      -3.241  26.941  58.859  1.00  0.00     0.000 C 
ENDROOT
BRANCH   1   2
ATOM      2  C   UNL     1      -2.708  26.313  57.558  1.00  0.00     0.000 C 
BRANCH   2   3
ATOM      3  C   UNL     1      -2.617  27.274  56.354  1.00  0.00     0.000 C 
BRANCH   3   4
ATOM      4  C   UNL     1      -3.667  27.038  55.254  1.00  0.00     0.000 C 
BRANCH   4   5
ATOM      5  C   UNL     1      -4.865  27.999  55.357  1.00  0.00     0.000 C 
BRANCH   5   6
ATOM      6  C   UNL     1      -4.490  29.341  56.006  1.00  0.00     0.000 C 
BRANCH   6   7
ATOM      7  C   UNL     1      -4.886  30.545  55.140  1.00  0.00     0.006 C 
BRANCH   7   8
ATOM      8  C   UNL     1      -5.830  31.481  55.901  1.00  0.00     0.053 C 
BRANCH   8   9
ATOM      9  C   UNL     1      -7.114  31.653  55.154  1.00  0.00     0.041 C 
ATOM     10  O   UNL     1      -8.217  31.489  55.739  1.00  0.00    -0.550 OA
ATOM     11  O   UNL     1      -7.095  32.046  53.822  1.00  0.00    -0.550 OA
ENDBRANCH   8   9
ENDBRANCH   7   8
ENDBRANCH   6   7
ENDBRANCH   5   6
ENDBRANCH   4   5
ENDBRANCH   3   4
ENDBRANCH   2   3
ENDBRANCH   1   2
BRANCH   1  12
ATOM     12  C   UNL     1      -4.486  26.251  59.450  1.00  0.00     0.000 C 
BRANCH  12  13
ATOM     13  C   UNL     1      -5.788  26.532  58.664  1.00  0.00    -0.000 C 
BRANCH  13  14
ATOM     14  C   UNL     1      -6.909  25.496  58.882  1.00  0.00    -0.000 C 
BRANCH  14  15
ATOM     15  C   UNL     1      -7.465  24.834  57.602  1.00  0.00    -0.000 C 
BRANCH  15  16
ATOM     16  C   UNL     1      -6.736  25.210  56.300  1.00  0.00    -0.000 C 
BRANCH  16  17
ATOM     17  C   UNL     1      -5.983  24.022  55.677  1.00  0.00    -0.000 C 
BRANCH  17  18
ATOM     18  C   UNL     1      -4.836  23.518  56.568  1.00  0.00    -0.000 C 
BRANCH  18  19
ATOM     19  C   UNL     1      -3.582  23.153  55.761  1.00  0.00    -0.003 C 
ATOM     20  C   UNL     1      -3.342  21.645  55.770  1.00  0.00     0.004 C 
ENDBRANCH  18  19
ENDBRANCH  17  18
ENDBRANCH  16  17
ENDBRANCH  15  16
ENDBRANCH  14  15
ENDBRANCH  13  14
ENDBRANCH  12  13
ENDBRANCH   1  12
TORSDOF 16
ENDMDL
MODEL 5
REMARK VINA RESULT:    -3.942      1.940      3.441
REMARK INTER + INTRA:         -10.195
REMARK INTER:                  -7.779
REMARK INTRA:                  -2.416
REMARK UNBOUND:                -2.565
REMARK SMILES CCCCCCCCCCCCCCCCCC(=O)[O-]
REMARK SMILES IDX 10 1 11 2 12 3 13 4 14 5 15 6 16 7 17 8 18 9 19 10 20 11
REMARK SMILES IDX 9 12 8 13 7 14 6 15 5 16 4 17 3 18 2 19 1 20
REMARK H PARENT
REMARK Flexibility Score: inf
ROOT
ATOM      1  C   UNL     1      -1.945  26.675  55.549  1.00  0.00     0.000 C 
ENDROOT
BRANCH   1   2
ATOM      2  C   UNL     1      -1.525  26.375  57.000  1.00  0.00     0.000 C 
BRANCH   2   3
ATOM      3  C   UNL     1      -1.673  27.555  57.983  1.00  0.00     0.000 C 
BRANCH   3   4
ATOM      4  C   UNL     1      -2.999  27.587  58.763  1.00  0.00     0.000 C 
BRANCH   4   5
ATOM      5  C   UNL     1      -3.434  26.195  59.256  1.00  0.00     0.000 C 
BRANCH   5   6
ATOM      6  C   UNL     1      -4.898  25.879  58.910  1.00  0.00     0.000 C 
BRANCH   6   7
ATOM      7  C   UNL     1      -5.063  25.347  57.479  1.00  0.00     0.006 C 
BRANCH   7   8
ATOM      8  C   UNL     1      -6.383  25.824  56.866  1.00  0.00     0.053 C 
BRANCH   8   9
ATOM      9  C   UNL     1      -7.522  24.985  57.353  1.00  0.00     0.041 C 
ATOM     10  O   UNL     1      -7.603  23.773  57.025  1.00  0.00    -0.550 OA
ATOM     11  O   UNL     1      -8.467  25.530  58.212  1.00  0.00    -0.550 OA
ENDBRANCH   8   9
ENDBRANCH   7   8
ENDBRANCH   6   7
ENDBRANCH   5   6
ENDBRANCH   4   5
ENDBRANCH   3   4
ENDBRANCH   2   3
ENDBRANCH   1   2
BRANCH   1  12
ATOM     12  C   UNL     1      -1.616  28.099  55.059  1.00  0.00     0.000 C 
BRANCH  12  13
ATOM     13  C   UNL     1      -2.838  28.863  54.496  1.00  0.00    -0.000 C 
BRANCH  13  14
ATOM     14  C   UNL     1      -4.204  28.232  54.833  1.00  0.00    -0.000 C 
BRANCH  14  15
ATOM     15  C   UNL     1      -5.046  28.981  55.889  1.00  0.00    -0.000 C 
BRANCH  15  16
ATOM     16  C   UNL     1      -4.327  30.146  56.593  1.00  0.00    -0.000 C 
BRANCH  16  17
ATOM     17  C   UNL     1      -4.966  31.511  56.285  1.00  0.00    -0.000 C 
BRANCH  17  18
ATOM     18  C   UNL     1      -5.457  31.618  54.833  1.00  0.00    -0.000 C 
BRANCH  18  19
ATOM     19  C   UNL     1      -6.960  31.918  54.741  1.00  0.00    -0.003 C 
ATOM     20  C   UNL     1      -7.210  33.275  54.086  1.00  0.00     0.004 C 
ENDBRANCH  18  19
ENDBRANCH  17  18
ENDBRANCH  16  17
ENDBRANCH  15  16
ENDBRANCH  14  15
ENDBRANCH  13  14
ENDBRANCH  12  13
ENDBRANCH   1  12
TORSDOF 16
ENDMDL
MODEL 6
REMARK VINA RESULT:    -3.930      2.609      5.195
REMARK INTER + INTRA:         -10.172
REMARK INTER:                  -7.585
REMARK INTRA:                  -2.587
REMARK UNBOUND:                -2.565
REMARK SMILES CCCCCCCCCCCCCCCCCC(=O)[O-]
REMARK SMILES IDX 10 1 11 2 12 3 13 4 14 5 15 6 16 7 17 8 18 9 19 10 20 11
REMARK SMILES IDX 9 12 8 13 7 14 6 15 5 16 4 17 3 18 2 19 1 20
REMARK H PARENT
REMARK Flexibility Score: inf
ROOT
ATOM      1  C   UNL     1      -1.440  26.637  56.924  1.00  0.00     0.000 C 
ENDROOT
BRANCH   1   2
ATOM      2  C   UNL     1      -1.716  28.136  57.143  1.00  0.00     0.000 C 
BRANCH   2   3
ATOM      3  C   UNL     1      -2.438  28.847  55.980  1.00  0.00     0.000 C 
BRANCH   3   4
ATOM      4  C   UNL     1      -3.876  28.365  55.717  1.00  0.00     0.000 C 
BRANCH   4   5
ATOM      5  C   UNL     1      -4.931  29.209  56.454  1.00  0.00     0.000 C 
BRANCH   5   6
ATOM      6  C   UNL     1      -4.449  30.640  56.737  1.00  0.00     0.000 C 
BRANCH   6   7
ATOM      7  C   UNL     1      -5.037  31.665  55.755  1.00  0.00     0.006 C 
BRANCH   7   8
ATOM      8  C   UNL     1      -6.037  31.002  54.804  1.00  0.00     0.053 C 
BRANCH   8   9
ATOM      9  C   UNL     1      -7.339  31.736  54.816  1.00  0.00     0.041 C 
ATOM     10  O   UNL     1      -7.657  32.481  53.851  1.00  0.00    -0.550 OA
ATOM     11  O   UNL     1      -8.227  31.559  55.869  1.00  0.00    -0.550 OA
ENDBRANCH   8   9
ENDBRANCH   7   8
ENDBRANCH   6   7
ENDBRANCH   5   6
ENDBRANCH   4   5
ENDBRANCH   3   4
ENDBRANCH   2   3
ENDBRANCH   1   2
BRANCH   1  12
ATOM     12  C   UNL     1      -2.421  25.686  57.637  1.00  0.00     0.000 C 
BRANCH  12  13
ATOM     13  C   UNL     1      -3.038  26.277  58.927  1.00  0.00    -0.000 C 
BRANCH  13  14
ATOM     14  C   UNL     1      -4.580  26.307  58.951  1.00  0.00    -0.000 C 
BRANCH  14  15
ATOM     15  C   UNL     1      -5.282  25.269  58.049  1.00  0.00    -0.000 C 
BRANCH  15  16
ATOM     16  C   UNL     1      -6.574  25.758  57.371  1.00  0.00    -0.000 C 
BRANCH  16  17
ATOM     17  C   UNL     1      -6.472  25.769  55.836  1.00  0.00    -0.000 C 
BRANCH  17  18
ATOM     18  C   UNL     1      -5.511  24.696  55.301  1.00  0.00    -0.000 C 
BRANCH  18  19
ATOM     19  C   UNL     1      -4.818  25.123  53.999  1.00  0.00    -0.003 C 
ATOM     20  C   UNL     1      -3.299  25.060  54.139  1.00  0.00     0.004 C 
ENDBRANCH  18  19
ENDBRANCH  17  18
ENDBRANCH  16  17
ENDBRANCH  15  16
ENDBRANCH  14  15
ENDBRANCH  13  14
ENDBRANCH  12  13
ENDBRANCH   1  12
TORSDOF 16
ENDMDL
MODEL 7
REMARK VINA RESULT:    -3.905      2.590      5.628
REMARK INTER + INTRA:         -10.124
REMARK INTER:                  -7.600
REMARK INTRA:                  -2.524
REMARK UNBOUND:                -2.565
REMARK SMILES CCCCCCCCCCCCCCCCCC(=O)[O-]
REMARK SMILES IDX 10 1 11 2 12 3 13 4 14 5 15 6 16 7 17 8 18 9 19 10 20 11
REMARK SMILES IDX 9 12 8 13 7 14 6 15 5 16 4 17 3 18 2 19 1 20
REMARK H PARENT
REMARK Flexibility Score: inf
ROOT
ATOM      1  C   UNL     1      -1.979  24.804  56.442  1.00  0.00     0.000 C 
ENDROOT
BRANCH   1   2
ATOM      2  C   UNL     1      -2.769  25.477  57.580  1.00  0.00     0.000 C 
BRANCH   2   3
ATOM      3  C   UNL     1      -2.533  26.994  57.734  1.00  0.00     0.000 C 
BRANCH   3   4
ATOM      4  C   UNL     1      -3.792  27.817  58.062  1.00  0.00     0.000 C 
BRANCH   4   5
ATOM      5  C   UNL     1      -3.918  29.083  57.196  1.00  0.00     0.000 C 
BRANCH   5   6
ATOM      6  C   UNL     1      -5.259  29.155  56.448  1.00  0.00     0.000 C 
BRANCH   6   7
ATOM      7  C   UNL     1      -5.779  30.593  56.309  1.00  0.00     0.006 C 
BRANCH   7   8
ATOM      8  C   UNL     1      -6.137  30.908  54.854  1.00  0.00     0.053 C 
BRANCH   8   9
ATOM      9  C   UNL     1      -7.410  31.690  54.783  1.00  0.00     0.041 C 
ATOM     10  O   UNL     1      -8.245  31.630  55.723  1.00  0.00    -0.550 OA
ATOM     11  O   UNL     1      -7.651  32.527  53.701  1.00  0.00    -0.550 OA
ENDBRANCH   8   9
ENDBRANCH   7   8
ENDBRANCH   6   7
ENDBRANCH   5   6
ENDBRANCH   4   5
ENDBRANCH   3   4
ENDBRANCH   2   3
ENDBRANCH   1   2
BRANCH   1  12
ATOM     12  C   UNL     1      -2.789  24.538  55.159  1.00  0.00     0.000 C 
BRANCH  12  13
ATOM     13  C   UNL     1      -2.961  25.784  54.259  1.00  0.00    -0.000 C 
BRANCH  13  14
ATOM     14  C   UNL     1      -4.366  26.419  54.298  1.00  0.00    -0.000 C 
BRANCH  14  15
ATOM     15  C   UNL     1      -5.543  25.431  54.451  1.00  0.00    -0.000 C 
BRANCH  15  16
ATOM     16  C   UNL     1      -6.392  25.615  55.721  1.00  0.00    -0.000 C 
BRANCH  16  17
ATOM     17  C   UNL     1      -6.223  24.460  56.722  1.00  0.00    -0.000 C 
BRANCH  17  18
ATOM     18  C   UNL     1      -6.395  24.913  58.181  1.00  0.00    -0.000 C 
BRANCH  18  19
ATOM     19  C   UNL     1      -7.192  26.220  58.301  1.00  0.00    -0.003 C 
ATOM     20  C   UNL     1      -7.995  26.256  59.598  1.00  0.00     0.004 C 
ENDBRANCH  18  19
ENDBRANCH  17  18
ENDBRANCH  16  17
ENDBRANCH  15  16
ENDBRANCH  14  15
ENDBRANCH  13  14
ENDBRANCH  12  13
ENDBRANCH   1  12
TORSDOF 16
ENDMDL
MODEL 8
REMARK VINA RESULT:    -3.891      1.525      2.523
REMARK INTER + INTRA:         -10.095
REMARK INTER:                  -7.477
REMARK INTRA:                  -2.618
REMARK UNBOUND:                -2.565
REMARK SMILES CCCCCCCCCCCCCCCCCC(=O)[O-]
REMARK SMILES IDX 10 1 11 2 12 3 13 4 14 5 15 6 16 7 17 8 18 9 19 10 20 11
REMARK SMILES IDX 9 12 8 13 7 14 6 15 5 16 4 17 3 18 2 19 1 20
REMARK H PARENT
REMARK Flexibility Score: inf
ROOT
ATOM      1  C   UNL     1      -1.871  26.408  57.338  1.00  0.00     0.000 C 
ENDROOT
BRANCH   1   2
ATOM      2  C   UNL     1      -2.364  26.296  55.884  1.00  0.00     0.000 C 
BRANCH   2   3
ATOM      3  C   UNL     1      -2.366  27.617  55.087  1.00  0.00     0.000 C 
BRANCH   3   4
ATOM      4  C   UNL     1      -3.748  28.069  54.583  1.00  0.00     0.000 C 
BRANCH   4   5
ATOM      5  C   UNL     1      -4.900  27.562  55.468  1.00  0.00     0.000 C 
BRANCH   5   6
ATOM      6  C   UNL     1      -5.842  26.607  54.719  1.00  0.00     0.000 C 
BRANCH   6   7
ATOM      7  C   UNL     1      -6.461  25.546  55.641  1.00  0.00     0.006 C 
BRANCH   7   8
ATOM      8  C   UNL     1      -6.500  26.035  57.092  1.00  0.00     0.053 C 
BRANCH   8   9
ATOM      9  C   UNL     1      -7.351  25.133  57.927  1.00  0.00     0.041 C 
ATOM     10  O   UNL     1      -6.951  23.976  58.222  1.00  0.00    -0.550 OA
ATOM     11  O   UNL     1      -8.565  25.589  58.425  1.00  0.00    -0.550 OA
ENDBRANCH   8   9
ENDBRANCH   7   8
ENDBRANCH   6   7
ENDBRANCH   5   6
ENDBRANCH   4   5
ENDBRANCH   3   4
ENDBRANCH   2   3
ENDBRANCH   1   2
BRANCH   1  12
ATOM     12  C   UNL     1      -2.962  26.221  58.410  1.00  0.00     0.000 C 
BRANCH  12  13
ATOM     13  C   UNL     1      -3.214  27.481  59.271  1.00  0.00    -0.000 C 
BRANCH  13  14
ATOM     14  C   UNL     1      -2.107  28.552  59.186  1.00  0.00    -0.000 C 
BRANCH  14  15
ATOM     15  C   UNL     1      -2.589  29.991  58.903  1.00  0.00    -0.000 C 
BRANCH  15  16
ATOM     16  C   UNL     1      -3.606  30.127  57.756  1.00  0.00    -0.000 C 
BRANCH  16  17
ATOM     17  C   UNL     1      -3.167  31.146  56.690  1.00  0.00    -0.000 C 
BRANCH  17  18
ATOM     18  C   UNL     1      -4.286  31.470  55.687  1.00  0.00    -0.000 C 
BRANCH  18  19
ATOM     19  C   UNL     1      -5.680  31.126  56.230  1.00  0.00    -0.003 C 
ATOM     20  C   UNL     1      -6.775  31.672  55.317  1.00  0.00     0.004 C 
ENDBRANCH  18  19
ENDBRANCH  17  18
ENDBRANCH  16  17
ENDBRANCH  15  16
ENDBRANCH  14  15
ENDBRANCH  13  14
ENDBRANCH  12  13
ENDBRANCH   1  12
TORSDOF 16
ENDMDL
MODEL 9
REMARK VINA RESULT:    -3.871      2.516      5.283
REMARK INTER + INTRA:         -10.056
REMARK INTER:                  -7.364
REMARK INTRA:                  -2.692
REMARK UNBOUND:                -2.565
REMARK SMILES CCCCCCCCCCCCCCCCCC(=O)[O-]
REMARK SMILES IDX 10 1 11 2 12 3 13 4 14 5 15 6 16 7 17 8 18 9 19 10 20 11
REMARK SMILES IDX 9 12 8 13 7 14 6 15 5 16 4 17 3 18 2 19 1 20
REMARK H PARENT
REMARK Flexibility Score: inf
ROOT
ATOM      1  C   UNL     1      -4.074  24.828  55.808  1.00  0.00     0.000 C 
ENDROOT
BRANCH   1   2
ATOM      2  C   UNL     1      -2.984  25.581  55.024  1.00  0.00     0.000 C 
BRANCH   2   3
ATOM      3  C   UNL     1      -3.471  26.824  54.251  1.00  0.00     0.000 C 
BRANCH   3   4
ATOM      4  C   UNL     1      -3.101  28.174  54.893  1.00  0.00     0.000 C 
BRANCH   4   5
ATOM      5  C   UNL     1      -4.282  29.161  54.926  1.00  0.00     0.000 C 
BRANCH   5   6
ATOM      6  C   UNL     1      -3.863  30.592  54.558  1.00  0.00     0.000 C 
BRANCH   6   7
ATOM      7  C   UNL     1      -4.621  31.654  55.368  1.00  0.00     0.006 C 
BRANCH   7   8
ATOM      8  C   UNL     1      -5.896  31.070  55.982  1.00  0.00     0.053 C 
BRANCH   8   9
ATOM      9  C   UNL     1      -7.103  31.544  55.237  1.00  0.00     0.041 C 
ATOM     10  O   UNL     1      -7.012  31.875  54.025  1.00  0.00    -0.550 OA
ATOM     11  O   UNL     1      -8.341  31.573  55.866  1.00  0.00    -0.550 OA
ENDBRANCH   8   9
ENDBRANCH   7   8
ENDBRANCH   6   7
ENDBRANCH   5   6
ENDBRANCH   4   5
ENDBRANCH   3   4
ENDBRANCH   2   3
ENDBRANCH   1   2
BRANCH   1  12
ATOM     12  C   UNL     1      -5.518  25.272  55.502  1.00  0.00     0.000 C 
BRANCH  12  13
ATOM     13  C   UNL     1      -6.254  25.881  56.718  1.00  0.00    -0.000 C 
BRANCH  13  14
ATOM     14  C   UNL     1      -5.399  26.831  57.582  1.00  0.00    -0.000 C 
BRANCH  14  15
ATOM     15  C   UNL     1      -5.117  26.352  59.022  1.00  0.00    -0.000 C 
BRANCH  15  16
ATOM     16  C   UNL     1      -3.668  25.910  59.294  1.00  0.00    -0.000 C 
BRANCH  16  17
ATOM     17  C   UNL     1      -2.638  26.728  58.497  1.00  0.00    -0.000 C 
BRANCH  17  18
ATOM     18  C   UNL     1      -2.252  28.039  59.202  1.00  0.00    -0.000 C 
BRANCH  18  19
ATOM     19  C   UNL     1      -2.016  29.190  58.214  1.00  0.00    -0.003 C 
ATOM     20  C   UNL     1      -3.039  30.305  58.416  1.00  0.00     0.004 C 
ENDBRANCH  18  19
ENDBRANCH  17  18
ENDBRANCH  16  17
ENDBRANCH  15  16
ENDBRANCH  14  15
ENDBRANCH  13  14
ENDBRANCH  12  13
ENDBRANCH   1  12
TORSDOF 16
ENDMDL
