MODEL 1
REMARK VINA RESULT:    -5.284      0.000      0.000
REMARK INTER + INTRA:         -11.251
REMARK INTER:                  -8.992
REMARK INTRA:                  -2.260
REMARK UNBOUND:                -2.260
REMARK SMILES CCCCCCCCCCCCCC(=O)[O-]
REMARK SMILES IDX 8 1 9 2 10 3 11 4 12 5 13 6 14 7 15 8 16 9 7 10 6 11 5 12
REMARK SMILES IDX 4 13 3 14 2 15 1 16
REMARK H PARENT
REMARK Flexibility Score: inf
ROOT
ATOM      1  C   UNL     1       4.561  21.933  43.965  1.00  0.00     0.000 C 
ENDROOT
BRANCH   1   2
ATOM      2  C   UNL     1       5.233  20.624  43.512  1.00  0.00     0.000 C 
BRANCH   2   3
ATOM      3  C   UNL     1       6.463  20.879  42.615  1.00  0.00     0.000 C 
BRANCH   3   4
ATOM      4  C   UNL     1       7.784  20.364  43.216  1.00  0.00     0.000 C 
BRANCH   4   5
ATOM      5  C   UNL     1       7.621  19.354  44.370  1.00  0.00     0.006 C 
BRANCH   5   6
ATOM      6  C   UNL     1       8.458  19.683  45.618  1.00  0.00     0.053 C 
BRANCH   6   7
ATOM      7  C   UNL     1       9.927  19.642  45.335  1.00  0.00     0.041 C 
ATOM      8  O   UNL     1      10.637  20.666  45.517  1.00  0.00    -0.550 OA
ATOM      9  O   UNL     1      10.508  18.482  44.839  1.00  0.00    -0.550 OA
ENDBRANCH   6   7
ENDBRANCH   5   6
ENDBRANCH   4   5
ENDBRANCH   3   4
ENDBRANCH   2   3
ENDBRANCH   1   2
BRANCH   1  10
ATOM     10  C   UNL     1       4.403  22.022  45.490  1.00  0.00     0.000 C 
BRANCH  10  11
ATOM     11  C   UNL     1       5.750  22.015  46.228  1.00  0.00    -0.000 C 
BRANCH  11  12
ATOM     12  C   UNL     1       6.416  23.396  46.166  1.00  0.00    -0.000 C 
BRANCH  12  13
ATOM     13  C   UNL     1       7.946  23.272  46.244  1.00  0.00    -0.000 C 
BRANCH  13  14
ATOM     14  C   UNL     1       8.635  23.606  44.912  1.00  0.00    -0.000 C 
BRANCH  14  15
ATOM     15  C   UNL     1       7.686  24.270  43.905  1.00  0.00    -0.003 C 
ATOM     16  C   UNL     1       8.159  24.045  42.472  1.00  0.00     0.004 C 
ENDBRANCH  14  15
ENDBRANCH  13  14
ENDBRANCH  12  13
ENDBRANCH  11  12
ENDBRANCH  10  11
ENDBRANCH   1  10
TORSDOF 12
ENDMDL
MODEL 2
REMARK VINA RESULT:    -5.222      3.273      5.428
REMARK INTER + INTRA:         -11.145
REMARK INTER:                  -9.001
REMARK INTRA:                  -2.144
REMARK UNBOUND:                -2.260
REMARK SMILES CCCCCCCCCCCCCC(=O)[O-]
REMARK SMILES IDX 8 1 9 2 10 3 11 4 12 5 13 6 14 7 15 8 16 9 7 10 6 11 5 12
REMARK SMILES IDX 4 13 3 14 2 15 1 16
REMARK H PARENT
REMARK Flexibility Score: inf
ROOT
ATOM      1  C   UNL     1       6.323  23.112  46.825  1.00  0.00     0.000 C 
ENDROOT
BRANCH   1   2
ATOM      2  C   UNL     1       7.738  23.576  46.435  1.00  0.00     0.000 C 
BRANCH   2   3
ATOM      3  C   UNL     1       8.157  23.065  45.040  1.00  0.00     0.000 C 
BRANCH   3   4
ATOM      4  C   UNL     1       8.147  24.156  43.952  1.00  0.00     0.000 C 
BRANCH   4   5
ATOM      5  C   UNL     1       6.863  24.209  43.101  1.00  0.00     0.006 C 
BRANCH   5   6
ATOM      6  C   UNL     1       5.733  25.052  43.716  1.00  0.00     0.053 C 
BRANCH   6   7
ATOM      7  C   UNL     1       4.511  25.070  42.850  1.00  0.00     0.041 C 
ATOM      8  O   UNL     1       4.224  24.070  42.140  1.00  0.00    -0.550 OA
ATOM      9  O   UNL     1       3.708  26.202  42.801  1.00  0.00    -0.550 OA
ENDBRANCH   6   7
ENDBRANCH   5   6
ENDBRANCH   4   5
ENDBRANCH   3   4
ENDBRANCH   2   3
ENDBRANCH   1   2
BRANCH   1  10
ATOM     10  C   UNL     1       5.918  21.800  46.136  1.00  0.00     0.000 C 
BRANCH  10  11
ATOM     11  C   UNL     1       4.582  21.912  45.386  1.00  0.00    -0.000 C 
BRANCH  11  12
ATOM     12  C   UNL     1       4.634  21.149  44.056  1.00  0.00    -0.000 C 
BRANCH  12  13
ATOM     13  C   UNL     1       5.784  20.130  44.051  1.00  0.00    -0.000 C 
BRANCH  13  14
ATOM     14  C   UNL     1       6.799  20.388  42.927  1.00  0.00    -0.000 C 
BRANCH  14  15
ATOM     15  C   UNL     1       8.217  19.927  43.293  1.00  0.00    -0.003 C 
ATOM     16  C   UNL     1       8.238  19.248  44.659  1.00  0.00     0.004 C 
ENDBRANCH  14  15
ENDBRANCH  13  14
ENDBRANCH  12  13
ENDBRANCH  11  12
ENDBRANCH  10  11
ENDBRANCH   1  10
TORSDOF 12
ENDMDL
MODEL 3
REMARK VINA RESULT:    -5.182      1.624      3.097
REMARK INTER + INTRA:         -11.077
REMARK INTER:                  -8.943
REMARK INTRA:                  -2.134
REMARK UNBOUND:                -2.260
REMARK SMILES CCCCCCCCCCCCCC(=O)[O-]
REMARK SMILES IDX 8 1 9 2 10 3 11 4 12 5 13 6 14 7 15 8 16 9 7 10 6 11 5 12
REMARK SMILES IDX 4 13 3 14 2 15 1 16
REMARK H PARENT
REMARK Flexibility Score: inf
ROOT
ATOM      1  C   UNL     1       6.470  20.316  42.697  1.00  0.00     0.000 C 
ENDROOT
BRANCH   1   2
ATOM      2  C   UNL     1       6.508  21.737  42.107  1.00  0.00     0.000 C 
BRANCH   2   3
ATOM      3  C   UNL     1       7.824  22.472  42.438  1.00  0.00     0.000 C 
BRANCH   3   4
ATOM      4  C   UNL     1       7.693  23.492  43.585  1.00  0.00     0.000 C 
BRANCH   4   5
ATOM      5  C   UNL     1       8.716  23.321  44.725  1.00  0.00     0.006 C 
BRANCH   5   6
ATOM      6  C   UNL     1       8.285  22.326  45.816  1.00  0.00     0.053 C 
BRANCH   6   7
ATOM      7  C   UNL     1       9.008  21.020  45.700  1.00  0.00     0.041 C 
ATOM      8  O   UNL     1      10.194  20.988  45.276  1.00  0.00    -0.550 OA
ATOM      9  O   UNL     1       8.363  19.835  46.030  1.00  0.00    -0.550 OA
ENDBRANCH   6   7
ENDBRANCH   5   6
ENDBRANCH   4   5
ENDBRANCH   3   4
ENDBRANCH   2   3
ENDBRANCH   1   2
BRANCH   1  10
ATOM     10  C   UNL     1       5.615  20.224  43.970  1.00  0.00     0.000 C 
BRANCH  10  11
ATOM     11  C   UNL     1       4.497  21.277  44.010  1.00  0.00    -0.000 C 
BRANCH  11  12
ATOM     12  C   UNL     1       4.651  22.194  45.231  1.00  0.00    -0.000 C 
BRANCH  12  13
ATOM     13  C   UNL     1       4.128  23.606  44.927  1.00  0.00    -0.000 C 
BRANCH  13  14
ATOM     14  C   UNL     1       3.532  23.725  43.516  1.00  0.00    -0.000 C 
BRANCH  14  15
ATOM     15  C   UNL     1       4.271  24.752  42.646  1.00  0.00    -0.003 C 
ATOM     16  C   UNL     1       5.027  25.758  43.508  1.00  0.00     0.004 C 
ENDBRANCH  14  15
ENDBRANCH  13  14
ENDBRANCH  12  13
ENDBRANCH  11  12
ENDBRANCH  10  11
ENDBRANCH   1  10
TORSDOF 12
ENDMDL
MODEL 4
REMARK VINA RESULT:    -5.152      1.471      2.991
REMARK INTER + INTRA:         -11.025
REMARK INTER:                  -8.848
REMARK INTRA:                  -2.177
REMARK UNBOUND:                -2.260
REMARK SMILES CCCCCCCCCCCCCC(=O)[O-]
REMARK SMILES IDX 8 1 9 2 10 3 11 4 12 5 13 6 14 7 15 8 16 9 7 10 6 11 5 12
REMARK SMILES IDX 4 13 3 14 2 15 1 16
REMARK H PARENT
REMARK Flexibility Score: inf
ROOT
ATOM      1  C   UNL     1       4.658  21.341  44.343  1.00  0.00     0.000 C 
ENDROOT
BRANCH   1   2
ATOM      2  C   UNL     1       4.750  21.241  45.877  1.00  0.00     0.000 C 
BRANCH   2   3
ATOM      3  C   UNL     1       6.209  21.120  46.367  1.00  0.00     0.000 C 
BRANCH   3   4
ATOM      4  C   UNL     1       7.138  22.222  45.825  1.00  0.00     0.000 C 
BRANCH   4   5
ATOM      5  C   UNL     1       8.643  21.895  45.899  1.00  0.00     0.006 C 
BRANCH   5   6
ATOM      6  C   UNL     1       9.189  21.158  44.664  1.00  0.00     0.053 C 
BRANCH   6   7
ATOM      7  C   UNL     1       9.368  19.693  44.918  1.00  0.00     0.041 C 
ATOM      8  O   UNL     1       8.454  18.882  44.615  1.00  0.00    -0.550 OA
ATOM      9  O   UNL     1      10.529  19.228  45.522  1.00  0.00    -0.550 OA
ENDBRANCH   6   7
ENDBRANCH   5   6
ENDBRANCH   4   5
ENDBRANCH   3   4
ENDBRANCH   2   3
ENDBRANCH   1   2
BRANCH   1  10
ATOM     10  C   UNL     1       5.246  20.113  43.632  1.00  0.00     0.000 C 
BRANCH  10  11
ATOM     11  C   UNL     1       6.140  20.490  42.441  1.00  0.00    -0.000 C 
BRANCH  11  12
ATOM     12  C   UNL     1       5.906  21.946  42.018  1.00  0.00    -0.000 C 
BRANCH  12  13
ATOM     13  C   UNL     1       7.218  22.745  42.053  1.00  0.00    -0.000 C 
BRANCH  13  14
ATOM     14  C   UNL     1       7.076  24.082  42.799  1.00  0.00    -0.000 C 
BRANCH  14  15
ATOM     15  C   UNL     1       5.626  24.582  42.845  1.00  0.00    -0.003 C 
ATOM     16  C   UNL     1       5.235  25.006  44.258  1.00  0.00     0.004 C 
ENDBRANCH  14  15
ENDBRANCH  13  14
ENDBRANCH  12  13
ENDBRANCH  11  12
ENDBRANCH  10  11
ENDBRANCH   1  10
TORSDOF 12
ENDMDL
MODEL 5
REMARK VINA RESULT:    -5.147      1.373      3.109
REMARK INTER + INTRA:         -11.018
REMARK INTER:                  -8.871
REMARK INTRA:                  -2.147
REMARK UNBOUND:                -2.260
REMARK SMILES CCCCCCCCCCCCCC(=O)[O-]
REMARK SMILES IDX 8 1 9 2 10 3 11 4 12 5 13 6 14 7 15 8 16 9 7 10 6 11 5 12
REMARK SMILES IDX 4 13 3 14 2 15 1 16
REMARK H PARENT
REMARK Flexibility Score: inf
ROOT
ATOM      1  C   UNL     1       4.460  23.174  45.235  1.00  0.00     0.000 C 
ENDROOT
BRANCH   1   2
ATOM      2  C   UNL     1       5.793  23.945  45.258  1.00  0.00     0.000 C 
BRANCH   2   3
ATOM      3  C   UNL     1       6.681  23.539  46.454  1.00  0.00     0.000 C 
BRANCH   3   4
ATOM      4  C   UNL     1       8.103  23.106  46.049  1.00  0.00     0.000 C 
BRANCH   4   5
ATOM      5  C   UNL     1       8.287  21.589  45.853  1.00  0.00     0.006 C 
BRANCH   5   6
ATOM      6  C   UNL     1       9.545  21.203  45.056  1.00  0.00     0.053 C 
BRANCH   6   7
ATOM      7  C   UNL     1       9.357  19.928  44.294  1.00  0.00     0.041 C 
ATOM      8  O   UNL     1       8.763  18.954  44.826  1.00  0.00    -0.550 OA
ATOM      9  O   UNL     1       9.866  19.805  43.007  1.00  0.00    -0.550 OA
ENDBRANCH   6   7
ENDBRANCH   5   6
ENDBRANCH   4   5
ENDBRANCH   3   4
ENDBRANCH   2   3
ENDBRANCH   1   2
BRANCH   1  10
ATOM     10  C   UNL     1       4.648  21.660  45.416  1.00  0.00     0.000 C 
BRANCH  10  11
ATOM     11  C   UNL     1       4.425  20.875  44.114  1.00  0.00    -0.000 C 
BRANCH  11  12
ATOM     12  C   UNL     1       5.714  20.173  43.668  1.00  0.00    -0.000 C 
BRANCH  12  13
ATOM     13  C   UNL     1       6.090  20.573  42.233  1.00  0.00    -0.000 C 
BRANCH  13  14
ATOM     14  C   UNL     1       6.307  22.087  42.078  1.00  0.00    -0.000 C 
BRANCH  14  15
ATOM     15  C   UNL     1       7.793  22.470  42.045  1.00  0.00    -0.003 C 
ATOM     16  C   UNL     1       7.992  23.931  42.440  1.00  0.00     0.004 C 
ENDBRANCH  14  15
ENDBRANCH  13  14
ENDBRANCH  12  13
ENDBRANCH  11  12
ENDBRANCH  10  11
ENDBRANCH   1  10
TORSDOF 12
ENDMDL
MODEL 6
REMARK VINA RESULT:    -5.147      1.395      3.666
REMARK INTER + INTRA:         -11.018
REMARK INTER:                  -9.121
REMARK INTRA:                  -1.896
REMARK UNBOUND:                -2.260
REMARK SMILES CCCCCCCCCCCCCC(=O)[O-]
REMARK SMILES IDX 8 1 9 2 10 3 11 4 12 5 13 6 14 7 15 8 16 9 7 10 6 11 5 12
REMARK SMILES IDX 4 13 3 14 2 15 1 16
REMARK H PARENT
REMARK Flexibility Score: inf
ROOT
ATOM      1  C   UNL     1       7.495  22.775  42.131  1.00  0.00     0.000 C 
ENDROOT
BRANCH   1   2
ATOM      2  C   UNL     1       7.266  24.166  42.752  1.00  0.00     0.000 C 
BRANCH   2   3
ATOM      3  C   UNL     1       7.267  24.124  44.295  1.00  0.00     0.000 C 
BRANCH   3   4
ATOM      4  C   UNL     1       8.622  23.715  44.903  1.00  0.00     0.000 C 
BRANCH   4   5
ATOM      5  C   UNL     1       8.623  22.356  45.630  1.00  0.00     0.006 C 
BRANCH   5   6
ATOM      6  C   UNL     1       9.533  21.297  44.986  1.00  0.00     0.053 C 
BRANCH   6   7
ATOM      7  C   UNL     1       9.488  19.995  45.724  1.00  0.00     0.041 C 
ATOM      8  O   UNL     1       8.445  19.654  46.342  1.00  0.00    -0.550 OA
ATOM      9  O   UNL     1      10.607  19.173  45.756  1.00  0.00    -0.550 OA
ENDBRANCH   6   7
ENDBRANCH   5   6
ENDBRANCH   4   5
ENDBRANCH   3   4
ENDBRANCH   2   3
ENDBRANCH   1   2
BRANCH   1  10
ATOM     10  C   UNL     1       6.181  22.038  41.828  1.00  0.00     0.000 C 
BRANCH  10  11
ATOM     11  C   UNL     1       6.168  20.602  42.374  1.00  0.00    -0.000 C 
BRANCH  11  12
ATOM     12  C   UNL     1       6.004  20.596  43.899  1.00  0.00    -0.000 C 
BRANCH  12  13
ATOM     13  C   UNL     1       4.538  20.827  44.296  1.00  0.00    -0.000 C 
BRANCH  13  14
ATOM     14  C   UNL     1       4.320  22.175  45.001  1.00  0.00    -0.000 C 
BRANCH  14  15
ATOM     15  C   UNL     1       3.614  23.203  44.106  1.00  0.00    -0.003 C 
ATOM     16  C   UNL     1       3.653  24.594  44.732  1.00  0.00     0.004 C 
ENDBRANCH  14  15
ENDBRANCH  13  14
ENDBRANCH  12  13
ENDBRANCH  11  12
ENDBRANCH  10  11
ENDBRANCH   1  10
TORSDOF 12
ENDMDL
MODEL 7
REMARK VINA RESULT:    -5.115      3.495      5.803
REMARK INTER + INTRA:         -10.962
REMARK INTER:                  -8.830
REMARK INTRA:                  -2.132
REMARK UNBOUND:                -2.260
REMARK SMILES CCCCCCCCCCCCCC(=O)[O-]
REMARK SMILES IDX 8 1 9 2 10 3 11 4 12 5 13 6 14 7 15 8 16 9 7 10 6 11 5 12
REMARK SMILES IDX 4 13 3 14 2 15 1 16
REMARK H PARENT
REMARK Flexibility Score: inf
ROOT
ATOM      1  C   UNL     1       8.232  23.149  45.552  1.00  0.00     0.000 C 
ENDROOT
BRANCH   1   2
ATOM      2  C   UNL     1       6.924  23.091  46.362  1.00  0.00     0.000 C 
BRANCH   2   3
ATOM      3  C   UNL     1       6.169  21.761  46.157  1.00  0.00     0.000 C 
BRANCH   3   4
ATOM      4  C   UNL     1       4.764  21.933  45.549  1.00  0.00     0.000 C 
BRANCH   4   5
ATOM      5  C   UNL     1       4.387  23.385  45.192  1.00  0.00     0.006 C 
BRANCH   5   6
ATOM      6  C   UNL     1       3.676  23.537  43.837  1.00  0.00     0.053 C 
BRANCH   6   7
ATOM      7  C   UNL     1       3.327  24.963  43.543  1.00  0.00     0.041 C 
ATOM      8  O   UNL     1       4.110  25.680  42.866  1.00  0.00    -0.550 OA
ATOM      9  O   UNL     1       2.153  25.510  44.046  1.00  0.00    -0.550 OA
ENDBRANCH   6   7
ENDBRANCH   5   6
ENDBRANCH   4   5
ENDBRANCH   3   4
ENDBRANCH   2   3
ENDBRANCH   1   2
BRANCH   1  10
ATOM     10  C   UNL     1       8.261  24.316  44.553  1.00  0.00     0.000 C 
BRANCH  10  11
ATOM     11  C   UNL     1       7.445  24.030  43.283  1.00  0.00    -0.000 C 
BRANCH  11  12
ATOM     12  C   UNL     1       7.986  22.796  42.550  1.00  0.00    -0.000 C 
BRANCH  12  13
ATOM     13  C   UNL     1       6.843  21.856  42.138  1.00  0.00    -0.000 C 
BRANCH  13  14
ATOM     14  C   UNL     1       6.903  20.500  42.858  1.00  0.00    -0.000 C 
BRANCH  14  15
ATOM     15  C   UNL     1       8.286  20.210  43.458  1.00  0.00    -0.003 C 
ATOM     16  C   UNL     1       8.261  18.943  44.308  1.00  0.00     0.004 C 
ENDBRANCH  14  15
ENDBRANCH  13  14
ENDBRANCH  12  13
ENDBRANCH  11  12
ENDBRANCH  10  11
ENDBRANCH   1  10
TORSDOF 12
ENDMDL
MODEL 8
REMARK VINA RESULT:    -5.106      0.917      2.686
REMARK INTER + INTRA:         -10.947
REMARK INTER:                  -8.590
REMARK INTRA:                  -2.357
REMARK UNBOUND:                -2.260
REMARK SMILES CCCCCCCCCCCCCC(=O)[O-]
REMARK SMILES IDX 8 1 9 2 10 3 11 4 12 5 13 6 14 7 15 8 16 9 7 10 6 11 5 12
REMARK SMILES IDX 4 13 3 14 2 15 1 16
REMARK H PARENT
REMARK Flexibility Score: inf
ROOT
ATOM      1  C   UNL     1       8.021  22.749  42.276  1.00  0.00     0.000 C 
ENDROOT
BRANCH   1   2
ATOM      2  C   UNL     1       6.750  22.048  41.762  1.00  0.00     0.000 C 
BRANCH   2   3
ATOM      3  C   UNL     1       6.504  20.696  42.464  1.00  0.00     0.000 C 
BRANCH   3   4
ATOM      4  C   UNL     1       7.707  20.197  43.286  1.00  0.00     0.000 C 
BRANCH   4   5
ATOM      5  C   UNL     1       7.349  19.602  44.662  1.00  0.00     0.006 C 
BRANCH   5   6
ATOM      6  C   UNL     1       8.250  20.086  45.812  1.00  0.00     0.053 C 
BRANCH   6   7
ATOM      7  C   UNL     1       9.699  20.057  45.438  1.00  0.00     0.041 C 
ATOM      8  O   UNL     1      10.343  21.132  45.315  1.00  0.00    -0.550 OA
ATOM      9  O   UNL     1      10.331  18.844  45.193  1.00  0.00    -0.550 OA
ENDBRANCH   6   7
ENDBRANCH   5   6
ENDBRANCH   4   5
ENDBRANCH   3   4
ENDBRANCH   2   3
ENDBRANCH   1   2
BRANCH   1  10
ATOM     10  C   UNL     1       7.712  24.000  43.111  1.00  0.00     0.000 C 
BRANCH  10  11
ATOM     11  C   UNL     1       8.435  24.002  44.467  1.00  0.00    -0.000 C 
BRANCH  11  12
ATOM     12  C   UNL     1       7.492  23.555  45.592  1.00  0.00    -0.000 C 
BRANCH  12  13
ATOM     13  C   UNL     1       6.025  23.798  45.208  1.00  0.00    -0.000 C 
BRANCH  13  14
ATOM     14  C   UNL     1       5.137  22.568  45.456  1.00  0.00    -0.000 C 
BRANCH  14  15
ATOM     15  C   UNL     1       4.021  22.425  44.411  1.00  0.00    -0.003 C 
ATOM     16  C   UNL     1       3.934  23.665  43.527  1.00  0.00     0.004 C 
ENDBRANCH  14  15
ENDBRANCH  13  14
ENDBRANCH  12  13
ENDBRANCH  11  12
ENDBRANCH  10  11
ENDBRANCH   1  10
TORSDOF 12
ENDMDL
MODEL 9
REMARK VINA RESULT:    -5.072      3.182      4.941
REMARK INTER + INTRA:         -10.890
REMARK INTER:                  -8.903
REMARK INTRA:                  -1.986
REMARK UNBOUND:                -2.260
REMARK SMILES CCCCCCCCCCCCCC(=O)[O-]
REMARK SMILES IDX 8 1 9 2 10 3 11 4 12 5 13 6 14 7 15 8 16 9 7 10 6 11 5 12
REMARK SMILES IDX 4 13 3 14 2 15 1 16
REMARK H PARENT
REMARK Flexibility Score: inf
ROOT
ATOM      1  C   UNL     1       6.519  21.982  41.960  1.00  0.00     0.000 C 
ENDROOT
BRANCH   1   2
ATOM      2  C   UNL     1       6.354  20.553  42.507  1.00  0.00     0.000 C 
BRANCH   2   3
ATOM      3  C   UNL     1       5.147  20.428  43.461  1.00  0.00     0.000 C 
BRANCH   3   4
ATOM      4  C   UNL     1       5.385  21.058  44.846  1.00  0.00     0.000 C 
BRANCH   4   5
ATOM      5  C   UNL     1       4.371  22.148  45.246  1.00  0.00     0.006 C 
BRANCH   5   6
ATOM      6  C   UNL     1       3.742  22.892  44.054  1.00  0.00     0.053 C 
BRANCH   6   7
ATOM      7  C   UNL     1       3.763  24.376  44.246  1.00  0.00     0.041 C 
ATOM      8  O   UNL     1       3.493  25.143  43.284  1.00  0.00    -0.550 OA
ATOM      9  O   UNL     1       4.113  24.914  45.478  1.00  0.00    -0.550 OA
ENDBRANCH   6   7
ENDBRANCH   5   6
ENDBRANCH   4   5
ENDBRANCH   3   4
ENDBRANCH   2   3
ENDBRANCH   1   2
BRANCH   1  10
ATOM     10  C   UNL     1       7.957  22.505  42.092  1.00  0.00     0.000 C 
BRANCH  10  11
ATOM     11  C   UNL     1       8.018  23.950  42.611  1.00  0.00    -0.000 C 
BRANCH  11  12
ATOM     12  C   UNL     1       7.422  24.052  44.021  1.00  0.00    -0.000 C 
BRANCH  12  13
ATOM     13  C   UNL     1       8.516  23.918  45.091  1.00  0.00    -0.000 C 
BRANCH  13  14
ATOM     14  C   UNL     1       8.440  22.585  45.852  1.00  0.00    -0.000 C 
BRANCH  14  15
ATOM     15  C   UNL     1       9.373  21.516  45.266  1.00  0.00    -0.003 C 
ATOM     16  C   UNL     1       8.872  20.112  45.592  1.00  0.00     0.004 C 
ENDBRANCH  14  15
ENDBRANCH  13  14
ENDBRANCH  12  13
ENDBRANCH  11  12
ENDBRANCH  10  11
ENDBRANCH   1  10
TORSDOF 12
ENDMDL
