MODEL 1
REMARK VINA RESULT:    -4.348      0.000      0.000
REMARK INTER + INTRA:          -8.225
REMARK INTER:                  -6.890
REMARK INTRA:                  -1.335
REMARK UNBOUND:                -1.335
REMARK SMILES CCCCCCCCCCCC(=O)[O-]
REMARK SMILES IDX 7 1 8 2 9 3 10 4 11 5 12 6 13 7 14 8 6 9 5 10 4 11 3 12 2 13
REMARK SMILES IDX 1 14
REMARK H PARENT
REMARK Flexibility Score: inf
ROOT
ATOM      1  C   UNL     1      19.410  17.020  33.799  1.00  0.00     0.000 C 
ENDROOT
BRANCH   1   2
ATOM      2  C   UNL     1      19.769  16.568  35.224  1.00  0.00     0.000 C 
BRANCH   2   3
ATOM      3  C   UNL     1      18.618  15.817  35.922  1.00  0.00     0.000 C 
BRANCH   3   4
ATOM      4  C   UNL     1      17.199  16.256  35.505  1.00  0.00     0.006 C 
BRANCH   4   5
ATOM      5  C   UNL     1      16.406  16.983  36.602  1.00  0.00     0.053 C 
BRANCH   5   6
ATOM      6  C   UNL     1      15.414  16.079  37.269  1.00  0.00     0.041 C 
ATOM      7  O   UNL     1      14.345  16.550  37.738  1.00  0.00    -0.550 OA
ATOM      8  O   UNL     1      15.655  14.713  37.340  1.00  0.00    -0.550 OA
ENDBRANCH   5   6
ENDBRANCH   4   5
ENDBRANCH   3   4
ENDBRANCH   2   3
ENDBRANCH   1   2
BRANCH   1   9
ATOM      9  C   UNL     1      19.985  18.405  33.459  1.00  0.00     0.000 C 
BRANCH   9  10
ATOM     10  C   UNL     1      18.906  19.502  33.413  1.00  0.00    -0.000 C 
BRANCH  10  11
ATOM     11  C   UNL     1      18.610  20.095  34.799  1.00  0.00    -0.000 C 
BRANCH  11  12
ATOM     12  C   UNL     1      19.877  20.271  35.649  1.00  0.00    -0.000 C 
BRANCH  12  13
ATOM     13  C   UNL     1      19.640  19.801  37.090  1.00  0.00    -0.003 C 
ATOM     14  C   UNL     1      18.162  19.880  37.460  1.00  0.00     0.004 C 
ENDBRANCH  12  13
ENDBRANCH  11  12
ENDBRANCH  10  11
ENDBRANCH   9  10
ENDBRANCH   1   9
TORSDOF 10
ENDMDL
MODEL 2
REMARK VINA RESULT:    -4.262      1.059      2.247
REMARK INTER + INTRA:          -8.088
REMARK INTER:                  -6.665
REMARK INTRA:                  -1.423
REMARK UNBOUND:                -1.335
REMARK SMILES CCCCCCCCCCCC(=O)[O-]
REMARK SMILES IDX 7 1 8 2 9 3 10 4 11 5 12 6 13 7 14 8 6 9 5 10 4 11 3 12 2 13
REMARK SMILES IDX 1 14
REMARK H PARENT
REMARK Flexibility Score: inf
ROOT
ATOM      1  C   UNL     1      20.421  16.133  35.738  1.00  0.00     0.000 C 
ENDROOT
BRANCH   1   2
ATOM      2  C   UNL     1      19.566  16.331  34.475  1.00  0.00     0.000 C 
BRANCH   2   3
ATOM      3  C   UNL     1      18.090  15.945  34.684  1.00  0.00     0.000 C 
BRANCH   3   4
ATOM      4  C   UNL     1      17.667  15.735  36.153  1.00  0.00     0.006 C 
BRANCH   4   5
ATOM      5  C   UNL     1      16.584  16.706  36.651  1.00  0.00     0.053 C 
BRANCH   5   6
ATOM      6  C   UNL     1      15.446  15.987  37.309  1.00  0.00     0.041 C 
ATOM      7  O   UNL     1      15.537  14.758  37.564  1.00  0.00    -0.550 OA
ATOM      8  O   UNL     1      14.299  16.682  37.669  1.00  0.00    -0.550 OA
ENDBRANCH   5   6
ENDBRANCH   4   5
ENDBRANCH   3   4
ENDBRANCH   2   3
ENDBRANCH   1   2
BRANCH   1   9
ATOM      9  C   UNL     1      21.018  17.451  36.259  1.00  0.00     0.000 C 
BRANCH   9  10
ATOM     10  C   UNL     1      20.814  18.622  35.280  1.00  0.00    -0.000 C 
BRANCH  10  11
ATOM     11  C   UNL     1      20.084  19.809  35.926  1.00  0.00    -0.000 C 
BRANCH  11  12
ATOM     12  C   UNL     1      18.609  19.895  35.506  1.00  0.00    -0.000 C 
BRANCH  12  13
ATOM     13  C   UNL     1      18.478  19.986  33.980  1.00  0.00    -0.003 C 
ATOM     14  C   UNL     1      17.273  19.193  33.483  1.00  0.00     0.004 C 
ENDBRANCH  12  13
ENDBRANCH  11  12
ENDBRANCH  10  11
ENDBRANCH   9  10
ENDBRANCH   1   9
TORSDOF 10
ENDMDL
MODEL 3
REMARK VINA RESULT:    -4.237      1.255      1.858
REMARK INTER + INTRA:          -8.049
REMARK INTER:                  -6.590
REMARK INTRA:                  -1.458
REMARK UNBOUND:                -1.335
REMARK SMILES CCCCCCCCCCCC(=O)[O-]
REMARK SMILES IDX 7 1 8 2 9 3 10 4 11 5 12 6 13 7 14 8 6 9 5 10 4 11 3 12 2 13
REMARK SMILES IDX 1 14
REMARK H PARENT
REMARK Flexibility Score: inf
ROOT
ATOM      1  C   UNL     1      18.620  17.404  32.851  1.00  0.00     0.000 C 
ENDROOT
BRANCH   1   2
ATOM      2  C   UNL     1      17.907  16.422  33.796  1.00  0.00     0.000 C 
BRANCH   2   3
ATOM      3  C   UNL     1      16.693  17.049  34.507  1.00  0.00     0.000 C 
BRANCH   3   4
ATOM      4  C   UNL     1      16.837  17.210  36.034  1.00  0.00     0.006 C 
BRANCH   4   5
ATOM      5  C   UNL     1      16.759  15.895  36.826  1.00  0.00     0.053 C 
BRANCH   5   6
ATOM      6  C   UNL     1      15.356  15.573  37.242  1.00  0.00     0.041 C 
ATOM      7  O   UNL     1      14.948  14.382  37.225  1.00  0.00    -0.550 OA
ATOM      8  O   UNL     1      14.511  16.584  37.681  1.00  0.00    -0.550 OA
ENDBRANCH   5   6
ENDBRANCH   4   5
ENDBRANCH   3   4
ENDBRANCH   2   3
ENDBRANCH   1   2
BRANCH   1   9
ATOM      9  C   UNL     1      18.025  18.821  32.916  1.00  0.00     0.000 C 
BRANCH   9  10
ATOM     10  C   UNL     1      19.049  19.874  33.378  1.00  0.00    -0.000 C 
BRANCH  10  11
ATOM     11  C   UNL     1      18.968  20.153  34.886  1.00  0.00    -0.000 C 
BRANCH  11  12
ATOM     12  C   UNL     1      20.290  19.867  35.612  1.00  0.00    -0.000 C 
BRANCH  12  13
ATOM     13  C   UNL     1      20.124  18.731  36.628  1.00  0.00    -0.003 C 
ATOM     14  C   UNL     1      20.641  17.410  36.068  1.00  0.00     0.004 C 
ENDBRANCH  12  13
ENDBRANCH  11  12
ENDBRANCH  10  11
ENDBRANCH   9  10
ENDBRANCH   1   9
TORSDOF 10
ENDMDL
MODEL 4
REMARK VINA RESULT:    -4.207      1.188      2.444
REMARK INTER + INTRA:          -8.002
REMARK INTER:                  -6.592
REMARK INTRA:                  -1.410
REMARK UNBOUND:                -1.335
REMARK SMILES CCCCCCCCCCCC(=O)[O-]
REMARK SMILES IDX 7 1 8 2 9 3 10 4 11 5 12 6 13 7 14 8 6 9 5 10 4 11 3 12 2 13
REMARK SMILES IDX 1 14
REMARK H PARENT
REMARK Flexibility Score: inf
ROOT
ATOM      1  C   UNL     1      20.630  17.906  36.272  1.00  0.00     0.000 C 
ENDROOT
BRANCH   1   2
ATOM      2  C   UNL     1      20.343  16.656  35.423  1.00  0.00     0.000 C 
BRANCH   2   3
ATOM      3  C   UNL     1      19.111  15.870  35.911  1.00  0.00     0.000 C 
BRANCH   3   4
ATOM      4  C   UNL     1      17.756  16.372  35.371  1.00  0.00     0.006 C 
BRANCH   4   5
ATOM      5  C   UNL     1      16.967  17.258  36.348  1.00  0.00     0.053 C 
BRANCH   5   6
ATOM      6  C   UNL     1      15.812  16.527  36.961  1.00  0.00     0.041 C 
ATOM      7  O   UNL     1      15.427  16.814  38.124  1.00  0.00    -0.550 OA
ATOM      8  O   UNL     1      15.140  15.552  36.234  1.00  0.00    -0.550 OA
ENDBRANCH   5   6
ENDBRANCH   4   5
ENDBRANCH   3   4
ENDBRANCH   2   3
ENDBRANCH   1   2
BRANCH   1   9
ATOM      9  C   UNL     1      20.698  19.188  35.426  1.00  0.00     0.000 C 
BRANCH   9  10
ATOM     10  C   UNL     1      19.432  20.053  35.556  1.00  0.00    -0.000 C 
BRANCH  10  11
ATOM     11  C   UNL     1      18.670  20.187  34.228  1.00  0.00    -0.000 C 
BRANCH  11  12
ATOM     12  C   UNL     1      19.246  19.287  33.124  1.00  0.00    -0.000 C 
BRANCH  12  13
ATOM     13  C   UNL     1      18.141  18.813  32.172  1.00  0.00    -0.003 C 
ATOM     14  C   UNL     1      16.795  18.733  32.885  1.00  0.00     0.004 C 
ENDBRANCH  12  13
ENDBRANCH  11  12
ENDBRANCH  10  11
ENDBRANCH   9  10
ENDBRANCH   1   9
TORSDOF 10
ENDMDL
MODEL 5
REMARK VINA RESULT:    -4.137      1.170      2.168
REMARK INTER + INTRA:          -7.890
REMARK INTER:                  -6.225
REMARK INTRA:                  -1.665
REMARK UNBOUND:                -1.335
REMARK SMILES CCCCCCCCCCCC(=O)[O-]
REMARK SMILES IDX 7 1 8 2 9 3 10 4 11 5 12 6 13 7 14 8 6 9 5 10 4 11 3 12 2 13
REMARK SMILES IDX 1 14
REMARK H PARENT
REMARK Flexibility Score: inf
ROOT
ATOM      1  C   UNL     1      18.336  16.074  33.098  1.00  0.00     0.000 C 
ENDROOT
BRANCH   1   2
ATOM      2  C   UNL     1      17.117  17.011  33.072  1.00  0.00     0.000 C 
BRANCH   2   3
ATOM      3  C   UNL     1      16.264  16.922  34.352  1.00  0.00     0.000 C 
BRANCH   3   4
ATOM      4  C   UNL     1      16.542  15.692  35.242  1.00  0.00     0.006 C 
BRANCH   4   5
ATOM      5  C   UNL     1      16.634  15.999  36.745  1.00  0.00     0.053 C 
BRANCH   5   6
ATOM      6  C   UNL     1      15.367  15.653  37.467  1.00  0.00     0.041 C 
ATOM      7  O   UNL     1      15.193  14.491  37.918  1.00  0.00    -0.550 OA
ATOM      8  O   UNL     1      14.394  16.624  37.670  1.00  0.00    -0.550 OA
ENDBRANCH   5   6
ENDBRANCH   4   5
ENDBRANCH   3   4
ENDBRANCH   2   3
ENDBRANCH   1   2
BRANCH   1   9
ATOM      9  C   UNL     1      19.637  16.811  33.454  1.00  0.00     0.000 C 
BRANCH   9  10
ATOM     10  C   UNL     1      20.043  16.622  34.927  1.00  0.00    -0.000 C 
BRANCH  10  11
ATOM     11  C   UNL     1      19.813  17.887  35.768  1.00  0.00    -0.000 C 
BRANCH  11  12
ATOM     12  C   UNL     1      19.742  19.160  34.913  1.00  0.00    -0.000 C 
BRANCH  12  13
ATOM     13  C   UNL     1      18.444  19.930  35.183  1.00  0.00    -0.003 C 
ATOM     14  C   UNL     1      17.842  19.541  36.530  1.00  0.00     0.004 C 
ENDBRANCH  12  13
ENDBRANCH  11  12
ENDBRANCH  10  11
ENDBRANCH   9  10
ENDBRANCH   1   9
TORSDOF 10
ENDMDL
MODEL 6
REMARK VINA RESULT:    -4.102      1.359      3.304
REMARK INTER + INTRA:          -7.835
REMARK INTER:                  -6.507
REMARK INTRA:                  -1.328
REMARK UNBOUND:                -1.335
REMARK SMILES CCCCCCCCCCCC(=O)[O-]
REMARK SMILES IDX 7 1 8 2 9 3 10 4 11 5 12 6 13 7 14 8 6 9 5 10 4 11 3 12 2 13
REMARK SMILES IDX 1 14
REMARK H PARENT
REMARK Flexibility Score: inf
ROOT
ATOM      1  C   UNL     1      19.278  20.078  35.314  1.00  0.00     0.000 C 
ENDROOT
BRANCH   1   2
ATOM      2  C   UNL     1      17.898  19.573  35.765  1.00  0.00     0.000 C 
BRANCH   2   3
ATOM      3  C   UNL     1      17.945  18.156  36.367  1.00  0.00     0.000 C 
BRANCH   3   4
ATOM      4  C   UNL     1      16.765  17.239  35.982  1.00  0.00     0.006 C 
BRANCH   4   5
ATOM      5  C   UNL     1      16.738  15.890  36.718  1.00  0.00     0.053 C 
BRANCH   5   6
ATOM      6  C   UNL     1      15.448  15.677  37.450  1.00  0.00     0.041 C 
ATOM      7  O   UNL     1      15.152  14.536  37.892  1.00  0.00    -0.550 OA
ATOM      8  O   UNL     1      14.590  16.746  37.674  1.00  0.00    -0.550 OA
ENDBRANCH   5   6
ENDBRANCH   4   5
ENDBRANCH   3   4
ENDBRANCH   2   3
ENDBRANCH   1   2
BRANCH   1   9
ATOM      9  C   UNL     1      19.844  19.270  34.134  1.00  0.00     0.000 C 
BRANCH   9  10
ATOM     10  C   UNL     1      18.913  19.276  32.909  1.00  0.00    -0.000 C 
BRANCH  10  11
ATOM     11  C   UNL     1      18.535  17.860  32.447  1.00  0.00    -0.000 C 
BRANCH  11  12
ATOM     12  C   UNL     1      19.274  16.767  33.234  1.00  0.00    -0.000 C 
BRANCH  12  13
ATOM     13  C   UNL     1      18.604  15.401  33.034  1.00  0.00    -0.003 C 
ATOM     14  C   UNL     1      17.109  15.553  32.773  1.00  0.00     0.004 C 
ENDBRANCH  12  13
ENDBRANCH  11  12
ENDBRANCH  10  11
ENDBRANCH   9  10
ENDBRANCH   1   9
TORSDOF 10
ENDMDL
MODEL 7
REMARK VINA RESULT:    -4.099      1.893      3.365
REMARK INTER + INTRA:          -7.830
REMARK INTER:                  -6.587
REMARK INTRA:                  -1.243
REMARK UNBOUND:                -1.335
REMARK SMILES CCCCCCCCCCCC(=O)[O-]
REMARK SMILES IDX 7 1 8 2 9 3 10 4 11 5 12 6 13 7 14 8 6 9 5 10 4 11 3 12 2 13
REMARK SMILES IDX 1 14
REMARK H PARENT
REMARK Flexibility Score: inf
ROOT
ATOM      1  C   UNL     1      17.994  19.898  34.760  1.00  0.00     0.000 C 
ENDROOT
BRANCH   1   2
ATOM      2  C   UNL     1      18.102  19.371  36.201  1.00  0.00     0.000 C 
BRANCH   2   3
ATOM      3  C   UNL     1      18.040  17.834  36.283  1.00  0.00     0.000 C 
BRANCH   3   4
ATOM      4  C   UNL     1      16.670  17.212  35.945  1.00  0.00     0.006 C 
BRANCH   4   5
ATOM      5  C   UNL     1      16.435  15.817  36.545  1.00  0.00     0.053 C 
BRANCH   5   6
ATOM      6  C   UNL     1      15.317  15.817  37.543  1.00  0.00     0.041 C 
ATOM      7  O   UNL     1      14.531  16.798  37.613  1.00  0.00    -0.550 OA
ATOM      8  O   UNL     1      15.124  14.720  38.373  1.00  0.00    -0.550 OA
ENDBRANCH   5   6
ENDBRANCH   4   5
ENDBRANCH   3   4
ENDBRANCH   2   3
ENDBRANCH   1   2
BRANCH   1   9
ATOM      9  C   UNL     1      19.181  19.465  33.884  1.00  0.00     0.000 C 
BRANCH   9  10
ATOM     10  C   UNL     1      18.740  18.891  32.526  1.00  0.00    -0.000 C 
BRANCH  10  11
ATOM     11  C   UNL     1      18.393  17.396  32.602  1.00  0.00    -0.000 C 
BRANCH  11  12
ATOM     12  C   UNL     1      16.952  17.101  32.160  1.00  0.00    -0.000 C 
BRANCH  12  13
ATOM     13  C   UNL     1      16.294  18.351  31.564  1.00  0.00    -0.003 C 
ATOM     14  C   UNL     1      15.057  18.756  32.360  1.00  0.00     0.004 C 
ENDBRANCH  12  13
ENDBRANCH  11  12
ENDBRANCH  10  11
ENDBRANCH   9  10
ENDBRANCH   1   9
TORSDOF 10
ENDMDL
MODEL 8
REMARK VINA RESULT:    -4.023      3.997      4.683
REMARK INTER + INTRA:          -7.710
REMARK INTER:                  -6.668
REMARK INTRA:                  -1.041
REMARK UNBOUND:                -1.335
REMARK SMILES CCCCCCCCCCCC(=O)[O-]
REMARK SMILES IDX 7 1 8 2 9 3 10 4 11 5 12 6 13 7 14 8 6 9 5 10 4 11 3 12 2 13
REMARK SMILES IDX 1 14
REMARK H PARENT
REMARK Flexibility Score: inf
ROOT
ATOM      1  C   UNL     1      16.347  17.446  33.390  1.00  0.00     0.000 C 
ENDROOT
BRANCH   1   2
ATOM      2  C   UNL     1      16.119  18.519  32.313  1.00  0.00     0.000 C 
BRANCH   2   3
ATOM      3  C   UNL     1      14.637  18.912  32.162  1.00  0.00     0.000 C 
BRANCH   3   4
ATOM      4  C   UNL     1      13.919  18.312  30.936  1.00  0.00     0.006 C 
BRANCH   4   5
ATOM      5  C   UNL     1      12.884  17.226  31.269  1.00  0.00     0.053 C 
BRANCH   5   6
ATOM      6  C   UNL     1      13.514  15.873  31.406  1.00  0.00     0.041 C 
ATOM      7  O   UNL     1      13.972  15.284  30.393  1.00  0.00    -0.550 OA
ATOM      8  O   UNL     1      13.625  15.281  32.657  1.00  0.00    -0.550 OA
ENDBRANCH   5   6
ENDBRANCH   4   5
ENDBRANCH   3   4
ENDBRANCH   2   3
ENDBRANCH   1   2
BRANCH   1   9
ATOM      9  C   UNL     1      17.568  16.561  33.090  1.00  0.00     0.000 C 
BRANCH   9  10
ATOM     10  C   UNL     1      18.784  17.371  32.605  1.00  0.00    -0.000 C 
BRANCH  10  11
ATOM     11  C   UNL     1      19.535  18.054  33.757  1.00  0.00    -0.000 C 
BRANCH  11  12
ATOM     12  C   UNL     1      19.710  19.564  33.535  1.00  0.00    -0.000 C 
BRANCH  12  13
ATOM     13  C   UNL     1      19.165  20.360  34.728  1.00  0.00    -0.003 C 
ATOM     14  C   UNL     1      18.328  19.474  35.646  1.00  0.00     0.004 C 
ENDBRANCH  12  13
ENDBRANCH  11  12
ENDBRANCH  10  11
ENDBRANCH   9  10
ENDBRANCH   1   9
TORSDOF 10
ENDMDL
MODEL 9
REMARK VINA RESULT:    -3.848      3.468      4.351
REMARK INTER + INTRA:          -7.433
REMARK INTER:                  -6.071
REMARK INTRA:                  -1.362
REMARK UNBOUND:                -1.335
REMARK SMILES CCCCCCCCCCCC(=O)[O-]
REMARK SMILES IDX 7 1 8 2 9 3 10 4 11 5 12 6 13 7 14 8 6 9 5 10 4 11 3 12 2 13
REMARK SMILES IDX 1 14
REMARK H PARENT
REMARK Flexibility Score: inf
ROOT
ATOM      1  C   UNL     1      18.835  19.228  32.833  1.00  0.00     0.000 C 
ENDROOT
BRANCH   1   2
ATOM      2  C   UNL     1      18.665  17.741  32.481  1.00  0.00     0.000 C 
BRANCH   2   3
ATOM      3  C   UNL     1      17.196  17.278  32.529  1.00  0.00     0.000 C 
BRANCH   3   4
ATOM      4  C   UNL     1      16.149  18.408  32.470  1.00  0.00     0.006 C 
BRANCH   4   5
ATOM      5  C   UNL     1      15.476  18.586  31.100  1.00  0.00     0.053 C 
BRANCH   5   6
ATOM      6  C   UNL     1      14.042  18.149  31.118  1.00  0.00     0.041 C 
ATOM      7  O   UNL     1      13.539  17.588  30.110  1.00  0.00    -0.550 OA
ATOM      8  O   UNL     1      13.274  18.332  32.261  1.00  0.00    -0.550 OA
ENDBRANCH   5   6
ENDBRANCH   4   5
ENDBRANCH   3   4
ENDBRANCH   2   3
ENDBRANCH   1   2
BRANCH   1   9
ATOM      9  C   UNL     1      19.976  19.468  33.836  1.00  0.00     0.000 C 
BRANCH   9  10
ATOM     10  C   UNL     1      19.491  20.125  35.141  1.00  0.00    -0.000 C 
BRANCH  10  11
ATOM     11  C   UNL     1      18.003  19.859  35.417  1.00  0.00    -0.000 C 
BRANCH  11  12
ATOM     12  C   UNL     1      17.778  19.038  36.695  1.00  0.00    -0.000 C 
BRANCH  12  13
ATOM     13  C   UNL     1      17.258  17.634  36.361  1.00  0.00    -0.003 C 
ATOM     14  C   UNL     1      18.409  16.669  36.093  1.00  0.00     0.004 C 
ENDBRANCH  12  13
ENDBRANCH  11  12
ENDBRANCH  10  11
ENDBRANCH   9  10
ENDBRANCH   1   9
TORSDOF 10
ENDMDL
