MODEL 1
REMARK VINA RESULT:    -3.252      0.000      0.000
REMARK INTER + INTRA:          -7.557
REMARK INTER:                  -6.294
REMARK INTRA:                  -1.262
REMARK UNBOUND:                -1.262
REMARK SMILES CCCCCCCCCCCCCCCCCC(=O)[O-]
REMARK SMILES IDX 10 1 11 2 12 3 13 4 14 5 15 6 16 7 17 8 18 9 19 10 20 11
REMARK SMILES IDX 9 12 8 13 7 14 6 15 5 16 4 17 3 18 2 19 1 20
REMARK H PARENT
REMARK Flexibility Score: inf
ROOT
ATOM      1  C   UNL     1     -16.097   9.673   9.212  1.00  0.00     0.000 C 
ENDROOT
BRANCH   1   2
ATOM      2  C   UNL     1     -16.722  10.047   7.860  1.00  0.00     0.000 C 
BRANCH   2   3
ATOM      3  C   UNL     1     -15.778  10.872   6.966  1.00  0.00     0.000 C 
BRANCH   3   4
ATOM      4  C   UNL     1     -15.853  12.397   7.163  1.00  0.00     0.000 C 
BRANCH   4   5
ATOM      5  C   UNL     1     -14.553  13.118   6.764  1.00  0.00     0.000 C 
BRANCH   5   6
ATOM      6  C   UNL     1     -13.742  13.609   7.977  1.00  0.00     0.000 C 
BRANCH   6   7
ATOM      7  C   UNL     1     -14.333  13.248   9.352  1.00  0.00     0.006 C 
BRANCH   7   8
ATOM      8  C   UNL     1     -13.987  14.269  10.442  1.00  0.00     0.053 C 
BRANCH   8   9
ATOM      9  C   UNL     1     -14.226  13.688  11.799  1.00  0.00     0.041 C 
ATOM     10  O   UNL     1     -14.842  12.596  11.922  1.00  0.00    -0.550 OA
ATOM     11  O   UNL     1     -13.727  14.328  12.928  1.00  0.00    -0.550 OA
ENDBRANCH   8   9
ENDBRANCH   7   8
ENDBRANCH   6   7
ENDBRANCH   5   6
ENDBRANCH   4   5
ENDBRANCH   3   4
ENDBRANCH   2   3
ENDBRANCH   1   2
BRANCH   1  12
ATOM     12  C   UNL     1     -16.951  10.193  10.375  1.00  0.00     0.000 C 
BRANCH  12  13
ATOM     13  C   UNL     1     -16.623   9.444  11.676  1.00  0.00    -0.000 C 
BRANCH  13  14
ATOM     14  C   UNL     1     -16.891   7.935  11.576  1.00  0.00    -0.000 C 
BRANCH  14  15
ATOM     15  C   UNL     1     -16.553   7.185  12.873  1.00  0.00    -0.000 C 
BRANCH  15  16
ATOM     16  C   UNL     1     -16.007   5.781  12.570  1.00  0.00    -0.000 C 
BRANCH  16  17
ATOM     17  C   UNL     1     -14.833   5.810  11.571  1.00  0.00    -0.000 C 
BRANCH  17  18
ATOM     18  C   UNL     1     -13.553   6.464  12.125  1.00  0.00    -0.000 C 
BRANCH  18  19
ATOM     19  C   UNL     1     -12.777   5.584  13.125  1.00  0.00    -0.003 C 
ATOM     20  C   UNL     1     -12.972   4.089  12.869  1.00  0.00     0.004 C 
ENDBRANCH  18  19
ENDBRANCH  17  18
ENDBRANCH  16  17
ENDBRANCH  15  16
ENDBRANCH  14  15
ENDBRANCH  13  14
ENDBRANCH  12  13
ENDBRANCH   1  12
TORSDOF 16
ENDMDL
MODEL 2
REMARK VINA RESULT:    -2.891      1.668      2.334
REMARK INTER + INTRA:          -6.858
REMARK INTER:                  -5.501
REMARK INTRA:                  -1.357
REMARK UNBOUND:                -1.262
REMARK SMILES CCCCCCCCCCCCCCCCCC(=O)[O-]
REMARK SMILES IDX 10 1 11 2 12 3 13 4 14 5 15 6 16 7 17 8 18 9 19 10 20 11
REMARK SMILES IDX 9 12 8 13 7 14 6 15 5 16 4 17 3 18 2 19 1 20
REMARK H PARENT
REMARK Flexibility Score: inf
ROOT
ATOM      1  C   UNL     1     -15.398   9.205   8.479  1.00  0.00     0.000 C 
ENDROOT
BRANCH   1   2
ATOM      2  C   UNL     1     -15.395  10.528   7.699  1.00  0.00     0.000 C 
BRANCH   2   3
ATOM      3  C   UNL     1     -16.696  11.333   7.873  1.00  0.00     0.000 C 
BRANCH   3   4
ATOM      4  C   UNL     1     -16.505  12.817   8.240  1.00  0.00     0.000 C 
BRANCH   4   5
ATOM      5  C   UNL     1     -17.119  13.180   9.604  1.00  0.00     0.000 C 
BRANCH   5   6
ATOM      6  C   UNL     1     -17.047  12.026  10.621  1.00  0.00     0.000 C 
BRANCH   6   7
ATOM      7  C   UNL     1     -15.861  12.086  11.600  1.00  0.00     0.006 C 
BRANCH   7   8
ATOM      8  C   UNL     1     -14.681  12.907  11.065  1.00  0.00     0.053 C 
BRANCH   8   9
ATOM      9  C   UNL     1     -14.151  13.817  12.127  1.00  0.00     0.041 C 
ATOM     10  O   UNL     1     -12.909  13.922  12.311  1.00  0.00    -0.550 OA
ATOM     11  O   UNL     1     -15.027  14.587  12.882  1.00  0.00    -0.550 OA
ENDBRANCH   8   9
ENDBRANCH   7   8
ENDBRANCH   6   7
ENDBRANCH   5   6
ENDBRANCH   4   5
ENDBRANCH   3   4
ENDBRANCH   2   3
ENDBRANCH   1   2
BRANCH   1  12
ATOM     12  C   UNL     1     -16.803   8.593   8.522  1.00  0.00     0.000 C 
BRANCH  12  13
ATOM     13  C   UNL     1     -16.749   7.118   8.947  1.00  0.00    -0.000 C 
BRANCH  13  14
ATOM     14  C   UNL     1     -16.666   6.943  10.471  1.00  0.00    -0.000 C 
BRANCH  14  15
ATOM     15  C   UNL     1     -17.115   5.548  10.933  1.00  0.00    -0.000 C 
BRANCH  15  16
ATOM     16  C   UNL     1     -16.455   5.172  12.269  1.00  0.00    -0.000 C 
BRANCH  16  17
ATOM     17  C   UNL     1     -15.608   3.888  12.165  1.00  0.00    -0.000 C 
BRANCH  17  18
ATOM     18  C   UNL     1     -14.106   4.103  12.432  1.00  0.00    -0.000 C 
BRANCH  18  19
ATOM     19  C   UNL     1     -13.481   5.256  11.621  1.00  0.00    -0.003 C 
ATOM     20  C   UNL     1     -13.185   6.487  12.478  1.00  0.00     0.004 C 
ENDBRANCH  18  19
ENDBRANCH  17  18
ENDBRANCH  16  17
ENDBRANCH  15  16
ENDBRANCH  14  15
ENDBRANCH  13  14
ENDBRANCH  12  13
ENDBRANCH   1  12
TORSDOF 16
ENDMDL
MODEL 3
REMARK VINA RESULT:    -2.875      2.052      3.582
REMARK INTER + INTRA:          -6.826
REMARK INTER:                  -5.309
REMARK INTRA:                  -1.518
REMARK UNBOUND:                -1.262
REMARK SMILES CCCCCCCCCCCCCCCCCC(=O)[O-]
REMARK SMILES IDX 10 1 11 2 12 3 13 4 14 5 15 6 16 7 17 8 18 9 19 10 20 11
REMARK SMILES IDX 9 12 8 13 7 14 6 15 5 16 4 17 3 18 2 19 1 20
REMARK H PARENT
REMARK Flexibility Score: inf
ROOT
ATOM      1  C   UNL     1     -16.657  10.265  11.005  1.00  0.00     0.000 C 
ENDROOT
BRANCH   1   2
ATOM      2  C   UNL     1     -16.988  11.707  11.415  1.00  0.00     0.000 C 
BRANCH   2   3
ATOM      3  C   UNL     1     -16.282  12.142  12.713  1.00  0.00     0.000 C 
BRANCH   3   4
ATOM      4  C   UNL     1     -15.465  13.443  12.612  1.00  0.00     0.000 C 
BRANCH   4   5
ATOM      5  C   UNL     1     -14.053  13.222  12.041  1.00  0.00     0.000 C 
BRANCH   5   6
ATOM      6  C   UNL     1     -13.814  13.979  10.721  1.00  0.00     0.000 C 
BRANCH   6   7
ATOM      7  C   UNL     1     -14.821  13.673   9.597  1.00  0.00     0.006 C 
BRANCH   7   8
ATOM      8  C   UNL     1     -14.161  13.089   8.342  1.00  0.00     0.053 C 
BRANCH   8   9
ATOM      9  C   UNL     1     -15.201  12.623   7.373  1.00  0.00     0.041 C 
ATOM     10  O   UNL     1     -14.997  11.600   6.666  1.00  0.00    -0.550 OA
ATOM     11  O   UNL     1     -16.417  13.290   7.284  1.00  0.00    -0.550 OA
ENDBRANCH   8   9
ENDBRANCH   7   8
ENDBRANCH   6   7
ENDBRANCH   5   6
ENDBRANCH   4   5
ENDBRANCH   3   4
ENDBRANCH   2   3
ENDBRANCH   1   2
BRANCH   1  12
ATOM     12  C   UNL     1     -16.613  10.123   9.479  1.00  0.00     0.000 C 
BRANCH  12  13
ATOM     13  C   UNL     1     -15.824   8.872   9.064  1.00  0.00    -0.000 C 
BRANCH  13  14
ATOM     14  C   UNL     1     -16.665   7.588   9.142  1.00  0.00    -0.000 C 
BRANCH  14  15
ATOM     15  C   UNL     1     -16.025   6.513  10.033  1.00  0.00    -0.000 C 
BRANCH  15  16
ATOM     16  C   UNL     1     -16.517   6.636  11.483  1.00  0.00    -0.000 C 
BRANCH  16  17
ATOM     17  C   UNL     1     -15.981   5.505  12.384  1.00  0.00    -0.000 C 
BRANCH  17  18
ATOM     18  C   UNL     1     -14.696   4.839  11.857  1.00  0.00    -0.000 C 
BRANCH  18  19
ATOM     19  C   UNL     1     -13.455   5.078  12.740  1.00  0.00    -0.003 C 
ATOM     20  C   UNL     1     -13.098   6.559  12.866  1.00  0.00     0.004 C 
ENDBRANCH  18  19
ENDBRANCH  17  18
ENDBRANCH  16  17
ENDBRANCH  15  16
ENDBRANCH  14  15
ENDBRANCH  13  14
ENDBRANCH  12  13
ENDBRANCH   1  12
TORSDOF 16
ENDMDL
MODEL 4
REMARK VINA RESULT:    -2.857      1.885      4.099
REMARK INTER + INTRA:          -6.791
REMARK INTER:                  -5.165
REMARK INTRA:                  -1.627
REMARK UNBOUND:                -1.262
REMARK SMILES CCCCCCCCCCCCCCCCCC(=O)[O-]
REMARK SMILES IDX 10 1 11 2 12 3 13 4 14 5 15 6 16 7 17 8 18 9 19 10 20 11
REMARK SMILES IDX 9 12 8 13 7 14 6 15 5 16 4 17 3 18 2 19 1 20
REMARK H PARENT
REMARK Flexibility Score: inf
ROOT
ATOM      1  C   UNL     1     -14.355  12.859   7.306  1.00  0.00     0.000 C 
ENDROOT
BRANCH   1   2
ATOM      2  C   UNL     1     -14.140  13.790   8.508  1.00  0.00     0.000 C 
BRANCH   2   3
ATOM      3  C   UNL     1     -14.124  13.044   9.854  1.00  0.00     0.000 C 
BRANCH   3   4
ATOM      4  C   UNL     1     -13.785  13.910  11.082  1.00  0.00     0.000 C 
BRANCH   4   5
ATOM      5  C   UNL     1     -14.099  13.208  12.415  1.00  0.00     0.000 C 
BRANCH   5   6
ATOM      6  C   UNL     1     -15.350  12.313  12.343  1.00  0.00     0.000 C 
BRANCH   6   7
ATOM      7  C   UNL     1     -16.681  13.059  12.140  1.00  0.00     0.006 C 
BRANCH   7   8
ATOM      8  C   UNL     1     -16.875  14.219  13.125  1.00  0.00     0.053 C 
BRANCH   8   9
ATOM      9  C   UNL     1     -17.007  15.514  12.389  1.00  0.00     0.041 C 
ATOM     10  O   UNL     1     -16.995  16.606  13.018  1.00  0.00    -0.550 OA
ATOM     11  O   UNL     1     -17.096  15.520  11.002  1.00  0.00    -0.550 OA
ENDBRANCH   8   9
ENDBRANCH   7   8
ENDBRANCH   6   7
ENDBRANCH   5   6
ENDBRANCH   4   5
ENDBRANCH   3   4
ENDBRANCH   2   3
ENDBRANCH   1   2
BRANCH   1  12
ATOM     12  C   UNL     1     -15.834  12.484   7.157  1.00  0.00     0.000 C 
BRANCH  12  13
ATOM     13  C   UNL     1     -16.015  10.959   7.122  1.00  0.00    -0.000 C 
BRANCH  13  14
ATOM     14  C   UNL     1     -16.961  10.448   8.219  1.00  0.00    -0.000 C 
BRANCH  14  15
ATOM     15  C   UNL     1     -16.227  10.110   9.525  1.00  0.00    -0.000 C 
BRANCH  15  16
ATOM     16  C   UNL     1     -17.095   9.224  10.431  1.00  0.00    -0.000 C 
BRANCH  16  17
ATOM     17  C   UNL     1     -16.257   8.218  11.246  1.00  0.00    -0.000 C 
BRANCH  17  18
ATOM     18  C   UNL     1     -15.311   7.352  10.393  1.00  0.00    -0.000 C 
BRANCH  18  19
ATOM     19  C   UNL     1     -14.461   6.357  11.207  1.00  0.00    -0.003 C 
ATOM     20  C   UNL     1     -14.281   6.788  12.663  1.00  0.00     0.004 C 
ENDBRANCH  18  19
ENDBRANCH  17  18
ENDBRANCH  16  17
ENDBRANCH  15  16
ENDBRANCH  14  15
ENDBRANCH  13  14
ENDBRANCH  12  13
ENDBRANCH   1  12
TORSDOF 16
ENDMDL
MODEL 5
REMARK VINA RESULT:    -2.847      2.787      6.025
REMARK INTER + INTRA:          -6.771
REMARK INTER:                  -4.734
REMARK INTRA:                  -2.037
REMARK UNBOUND:                -1.262
REMARK SMILES CCCCCCCCCCCCCCCCCC(=O)[O-]
REMARK SMILES IDX 10 1 11 2 12 3 13 4 14 5 15 6 16 7 17 8 18 9 19 10 20 11
REMARK SMILES IDX 9 12 8 13 7 14 6 15 5 16 4 17 3 18 2 19 1 20
REMARK H PARENT
REMARK Flexibility Score: inf
ROOT
ATOM      1  C   UNL     1     -13.887  13.165   8.162  1.00  0.00     0.000 C 
ENDROOT
BRANCH   1   2
ATOM      2  C   UNL     1     -14.729  12.627   6.997  1.00  0.00     0.000 C 
BRANCH   2   3
ATOM      3  C   UNL     1     -16.220  12.476   7.348  1.00  0.00     0.000 C 
BRANCH   3   4
ATOM      4  C   UNL     1     -16.822  11.085   7.075  1.00  0.00     0.000 C 
BRANCH   4   5
ATOM      5  C   UNL     1     -15.953   9.938   7.619  1.00  0.00     0.000 C 
BRANCH   5   6
ATOM      6  C   UNL     1     -16.559   9.265   8.865  1.00  0.00     0.000 C 
BRANCH   6   7
ATOM      7  C   UNL     1     -15.597   8.360   9.656  1.00  0.00     0.006 C 
BRANCH   7   8
ATOM      8  C   UNL     1     -16.323   7.378  10.585  1.00  0.00     0.053 C 
BRANCH   8   9
ATOM      9  C   UNL     1     -15.339   6.632  11.429  1.00  0.00     0.041 C 
ATOM     10  O   UNL     1     -14.223   6.291  10.952  1.00  0.00    -0.550 OA
ATOM     11  O   UNL     1     -15.633   6.354  12.758  1.00  0.00    -0.550 OA
ENDBRANCH   8   9
ENDBRANCH   7   8
ENDBRANCH   6   7
ENDBRANCH   5   6
ENDBRANCH   4   5
ENDBRANCH   3   4
ENDBRANCH   2   3
ENDBRANCH   1   2
BRANCH   1  12
ATOM     12  C   UNL     1     -14.451  12.699   9.510  1.00  0.00     0.000 C 
BRANCH  12  13
ATOM     13  C   UNL     1     -13.952  13.595  10.655  1.00  0.00    -0.000 C 
BRANCH  13  14
ATOM     14  C   UNL     1     -14.736  14.913  10.761  1.00  0.00    -0.000 C 
BRANCH  14  15
ATOM     15  C   UNL     1     -16.153  14.717  11.321  1.00  0.00    -0.000 C 
BRANCH  15  16
ATOM     16  C   UNL     1     -16.109  14.338  12.809  1.00  0.00    -0.000 C 
BRANCH  16  17
ATOM     17  C   UNL     1     -16.866  13.028  13.105  1.00  0.00    -0.000 C 
BRANCH  17  18
ATOM     18  C   UNL     1     -16.848  12.017  11.943  1.00  0.00    -0.000 C 
BRANCH  18  19
ATOM     19  C   UNL     1     -17.115  10.560  12.371  1.00  0.00    -0.003 C 
ATOM     20  C   UNL     1     -15.915   9.922  13.072  1.00  0.00     0.004 C 
ENDBRANCH  18  19
ENDBRANCH  17  18
ENDBRANCH  16  17
ENDBRANCH  15  16
ENDBRANCH  14  15
ENDBRANCH  13  14
ENDBRANCH  12  13
ENDBRANCH   1  12
TORSDOF 16
ENDMDL
MODEL 6
REMARK VINA RESULT:    -2.837      1.449      2.592
REMARK INTER + INTRA:          -6.754
REMARK INTER:                  -5.005
REMARK INTRA:                  -1.748
REMARK UNBOUND:                -1.262
REMARK SMILES CCCCCCCCCCCCCCCCCC(=O)[O-]
REMARK SMILES IDX 10 1 11 2 12 3 13 4 14 5 15 6 16 7 17 8 18 9 19 10 20 11
REMARK SMILES IDX 9 12 8 13 7 14 6 15 5 16 4 17 3 18 2 19 1 20
REMARK H PARENT
REMARK Flexibility Score: inf
ROOT
ATOM      1  C   UNL     1     -16.697  11.142   7.008  1.00  0.00     0.000 C 
ENDROOT
BRANCH   1   2
ATOM      2  C   UNL     1     -15.378  11.774   7.477  1.00  0.00     0.000 C 
BRANCH   2   3
ATOM      3  C   UNL     1     -15.579  12.872   8.537  1.00  0.00     0.000 C 
BRANCH   3   4
ATOM      4  C   UNL     1     -16.965  12.893   9.208  1.00  0.00     0.000 C 
BRANCH   4   5
ATOM      5  C   UNL     1     -16.998  12.121  10.539  1.00  0.00     0.000 C 
BRANCH   5   6
ATOM      6  C   UNL     1     -15.593  11.841  11.106  1.00  0.00     0.000 C 
BRANCH   6   7
ATOM      7  C   UNL     1     -15.479  11.907  12.640  1.00  0.00     0.006 C 
BRANCH   7   8
ATOM      8  C   UNL     1     -14.501  12.986  13.123  1.00  0.00     0.053 C 
BRANCH   8   9
ATOM      9  C   UNL     1     -14.702  14.255  12.358  1.00  0.00     0.041 C 
ATOM     10  O   UNL     1     -15.614  15.058  12.688  1.00  0.00    -0.550 OA
ATOM     11  O   UNL     1     -13.850  14.575  11.308  1.00  0.00    -0.550 OA
ENDBRANCH   8   9
ENDBRANCH   7   8
ENDBRANCH   6   7
ENDBRANCH   5   6
ENDBRANCH   4   5
ENDBRANCH   3   4
ENDBRANCH   2   3
ENDBRANCH   1   2
BRANCH   1  12
ATOM     12  C   UNL     1     -16.694   9.627   7.239  1.00  0.00     0.000 C 
BRANCH  12  13
ATOM     13  C   UNL     1     -15.776   9.250   8.412  1.00  0.00    -0.000 C 
BRANCH  13  14
ATOM     14  C   UNL     1     -16.349   8.112   9.272  1.00  0.00    -0.000 C 
BRANCH  14  15
ATOM     15  C   UNL     1     -16.356   8.447  10.771  1.00  0.00    -0.000 C 
BRANCH  15  16
ATOM     16  C   UNL     1     -16.433   7.168  11.619  1.00  0.00    -0.000 C 
BRANCH  16  17
ATOM     17  C   UNL     1     -15.438   6.089  11.149  1.00  0.00    -0.000 C 
BRANCH  17  18
ATOM     18  C   UNL     1     -13.962   6.432  11.427  1.00  0.00    -0.000 C 
BRANCH  18  19
ATOM     19  C   UNL     1     -13.364   5.700  12.646  1.00  0.00    -0.003 C 
ATOM     20  C   UNL     1     -13.396   4.180  12.494  1.00  0.00     0.004 C 
ENDBRANCH  18  19
ENDBRANCH  17  18
ENDBRANCH  16  17
ENDBRANCH  15  16
ENDBRANCH  14  15
ENDBRANCH  13  14
ENDBRANCH  12  13
ENDBRANCH   1  12
TORSDOF 16
ENDMDL
MODEL 7
REMARK VINA RESULT:    -2.765      2.848      7.582
REMARK INTER + INTRA:          -6.614
REMARK INTER:                  -5.393
REMARK INTRA:                  -1.220
REMARK UNBOUND:                -1.262
REMARK SMILES CCCCCCCCCCCCCCCCCC(=O)[O-]
REMARK SMILES IDX 10 1 11 2 12 3 13 4 14 5 15 6 16 7 17 8 18 9 19 10 20 11
REMARK SMILES IDX 9 12 8 13 7 14 6 15 5 16 4 17 3 18 2 19 1 20
REMARK H PARENT
REMARK Flexibility Score: inf
ROOT
ATOM      1  C   UNL     1     -15.448   9.311   8.280  1.00  0.00     0.000 C 
ENDROOT
BRANCH   1   2
ATOM      2  C   UNL     1     -16.596   8.323   8.530  1.00  0.00     0.000 C 
BRANCH   2   3
ATOM      3  C   UNL     1     -17.124   8.364   9.975  1.00  0.00     0.000 C 
BRANCH   3   4
ATOM      4  C   UNL     1     -16.047   8.267  11.072  1.00  0.00     0.000 C 
BRANCH   4   5
ATOM      5  C   UNL     1     -16.624   7.891  12.448  1.00  0.00     0.000 C 
BRANCH   5   6
ATOM      6  C   UNL     1     -16.321   6.435  12.849  1.00  0.00     0.000 C 
BRANCH   6   7
ATOM      7  C   UNL     1     -16.122   5.459  11.676  1.00  0.00     0.006 C 
BRANCH   7   8
ATOM      8  C   UNL     1     -15.217   4.271  12.029  1.00  0.00     0.053 C 
BRANCH   8   9
ATOM      9  C   UNL     1     -13.778   4.672  11.963  1.00  0.00     0.041 C 
ATOM     10  O   UNL     1     -13.439   5.721  11.353  1.00  0.00    -0.550 OA
ATOM     11  O   UNL     1     -12.814   3.913  12.616  1.00  0.00    -0.550 OA
ENDBRANCH   8   9
ENDBRANCH   7   8
ENDBRANCH   6   7
ENDBRANCH   5   6
ENDBRANCH   4   5
ENDBRANCH   3   4
ENDBRANCH   2   3
ENDBRANCH   1   2
BRANCH   1  12
ATOM     12  C   UNL     1     -15.791  10.278   7.141  1.00  0.00     0.000 C 
BRANCH  12  13
ATOM     13  C   UNL     1     -15.688  11.738   7.608  1.00  0.00    -0.000 C 
BRANCH  13  14
ATOM     14  C   UNL     1     -16.072  11.917   9.085  1.00  0.00    -0.000 C 
BRANCH  14  15
ATOM     15  C   UNL     1     -14.873  12.300   9.967  1.00  0.00    -0.000 C 
BRANCH  15  16
ATOM     16  C   UNL     1     -14.198  13.579   9.451  1.00  0.00    -0.000 C 
BRANCH  16  17
ATOM     17  C   UNL     1     -14.022  14.638  10.558  1.00  0.00    -0.000 C 
BRANCH  17  18
ATOM     18  C   UNL     1     -14.265  14.103  11.982  1.00  0.00    -0.000 C 
BRANCH  18  19
ATOM     19  C   UNL     1     -15.655  14.444  12.555  1.00  0.00    -0.003 C 
ATOM     20  C   UNL     1     -16.437  15.413  11.669  1.00  0.00     0.004 C 
ENDBRANCH  18  19
ENDBRANCH  17  18
ENDBRANCH  16  17
ENDBRANCH  15  16
ENDBRANCH  14  15
ENDBRANCH  13  14
ENDBRANCH  12  13
ENDBRANCH   1  12
TORSDOF 16
ENDMDL
MODEL 8
REMARK VINA RESULT:    -2.740      2.949      7.451
REMARK INTER + INTRA:          -6.565
REMARK INTER:                  -5.055
REMARK INTRA:                  -1.510
REMARK UNBOUND:                -1.262
REMARK SMILES CCCCCCCCCCCCCCCCCC(=O)[O-]
REMARK SMILES IDX 10 1 11 2 12 3 13 4 14 5 15 6 16 7 17 8 18 9 19 10 20 11
REMARK SMILES IDX 9 12 8 13 7 14 6 15 5 16 4 17 3 18 2 19 1 20
REMARK H PARENT
REMARK Flexibility Score: inf
ROOT
ATOM      1  C   UNL     1     -16.829  11.435   9.511  1.00  0.00     0.000 C 
ENDROOT
BRANCH   1   2
ATOM      2  C   UNL     1     -17.125   9.945   9.736  1.00  0.00     0.000 C 
BRANCH   2   3
ATOM      3  C   UNL     1     -16.183   9.017   8.947  1.00  0.00     0.000 C 
BRANCH   3   4
ATOM      4  C   UNL     1     -16.455   7.510   9.113  1.00  0.00     0.000 C 
BRANCH   4   5
ATOM      5  C   UNL     1     -16.799   7.119  10.561  1.00  0.00     0.000 C 
BRANCH   5   6
ATOM      6  C   UNL     1     -16.842   5.595  10.777  1.00  0.00     0.000 C 
BRANCH   6   7
ATOM      7  C   UNL     1     -16.194   5.098  12.082  1.00  0.00     0.006 C 
BRANCH   7   8
ATOM      8  C   UNL     1     -15.123   4.025  11.850  1.00  0.00     0.053 C 
BRANCH   8   9
ATOM      9  C   UNL     1     -13.755   4.617  11.964  1.00  0.00     0.041 C 
ATOM     10  O   UNL     1     -12.818   3.955  12.486  1.00  0.00    -0.550 OA
ATOM     11  O   UNL     1     -13.500   5.883  11.451  1.00  0.00    -0.550 OA
ENDBRANCH   8   9
ENDBRANCH   7   8
ENDBRANCH   6   7
ENDBRANCH   5   6
ENDBRANCH   4   5
ENDBRANCH   3   4
ENDBRANCH   2   3
ENDBRANCH   1   2
BRANCH   1  12
ATOM     12  C   UNL     1     -15.692  11.625   8.500  1.00  0.00     0.000 C 
BRANCH  12  13
ATOM     13  C   UNL     1     -14.420  12.139   9.191  1.00  0.00    -0.000 C 
BRANCH  13  14
ATOM     14  C   UNL     1     -14.152  13.626   8.911  1.00  0.00    -0.000 C 
BRANCH  14  15
ATOM     15  C   UNL     1     -14.091  14.469  10.193  1.00  0.00    -0.000 C 
BRANCH  15  16
ATOM     16  C   UNL     1     -13.730  13.599  11.407  1.00  0.00    -0.000 C 
BRANCH  16  17
ATOM     17  C   UNL     1     -14.533  13.984  12.666  1.00  0.00    -0.000 C 
BRANCH  17  18
ATOM     18  C   UNL     1     -15.923  14.576  12.366  1.00  0.00    -0.000 C 
BRANCH  18  19
ATOM     19  C   UNL     1     -17.096  13.633  12.703  1.00  0.00    -0.003 C 
ATOM     20  C   UNL     1     -16.630  12.240  13.124  1.00  0.00     0.004 C 
ENDBRANCH  18  19
ENDBRANCH  17  18
ENDBRANCH  16  17
ENDBRANCH  15  16
ENDBRANCH  14  15
ENDBRANCH  13  14
ENDBRANCH  12  13
ENDBRANCH   1  12
TORSDOF 16
ENDMDL
