MODEL 1
REMARK VINA RESULT:    -4.032      0.000      0.000
REMARK INTER + INTRA:         -12.118
REMARK INTER:                  -9.218
REMARK INTRA:                  -2.901
REMARK UNBOUND:                -2.901
REMARK SMILES CCCCCCCCCCCCCCCCCCCCCCCC(=O)[O-]
REMARK SMILES IDX 13 1 14 2 15 3 16 4 17 5 18 6 19 7 20 8 21 9 22 10 23 11
REMARK SMILES IDX 24 12 25 13 26 14 12 15 11 16 10 17 9 18 8 19 7 20 6 21 5 22
REMARK SMILES IDX 4 23 3 24 2 25 1 26
REMARK H PARENT
REMARK Flexibility Score: inf
ROOT
ATOM      1  C   UNL     1      -5.233  -0.012   0.655  1.00  0.00     0.000 C 
ENDROOT
BRANCH   1   2
ATOM      2  C   UNL     1      -5.431  -1.529   0.823  1.00  0.00     0.000 C 
BRANCH   2   3
ATOM      3  C   UNL     1      -6.774  -2.071   0.298  1.00  0.00     0.000 C 
BRANCH   3   4
ATOM      4  C   UNL     1      -7.600  -2.874   1.322  1.00  0.00     0.000 C 
BRANCH   4   5
ATOM      5  C   UNL     1      -7.259  -2.595   2.799  1.00  0.00     0.000 C 
BRANCH   5   6
ATOM      6  C   UNL     1      -6.458  -3.705   3.502  1.00  0.00     0.000 C 
BRANCH   6   7
ATOM      7  C   UNL     1      -6.577  -3.650   5.033  1.00  0.00     0.000 C 
BRANCH   7   8
ATOM      8  C   UNL     1      -5.334  -4.258   5.703  1.00  0.00     0.000 C 
BRANCH   8   9
ATOM      9  C   UNL     1      -4.592  -3.256   6.600  1.00  0.00     0.000 C 
BRANCH   9  10
ATOM     10  C   UNL     1      -3.092  -3.164   6.278  1.00  0.00     0.006 C 
BRANCH  10  11
ATOM     11  C   UNL     1      -2.764  -3.908   4.980  1.00  0.00     0.053 C 
BRANCH  11  12
ATOM     12  C   UNL     1      -1.850  -5.062   5.250  1.00  0.00     0.041 C 
ATOM     13  O   UNL     1      -1.690  -5.483   6.427  1.00  0.00    -0.550 OA
ATOM     14  O   UNL     1      -1.149  -5.654   4.206  1.00  0.00    -0.550 OA
ENDBRANCH  11  12
ENDBRANCH  10  11
ENDBRANCH   9  10
ENDBRANCH   8   9
ENDBRANCH   7   8
ENDBRANCH   6   7
ENDBRANCH   5   6
ENDBRANCH   4   5
ENDBRANCH   3   4
ENDBRANCH   2   3
ENDBRANCH   1   2
BRANCH   1  15
ATOM     15  C   UNL     1      -6.553   0.773   0.728  1.00  0.00     0.000 C 
BRANCH  15  16
ATOM     16  C   UNL     1      -6.908   1.471  -0.596  1.00  0.00     0.000 C 
BRANCH  16  17
ATOM     17  C   UNL     1      -6.691   2.998  -0.609  1.00  0.00     0.000 C 
BRANCH  17  18
ATOM     18  C   UNL     1      -5.710   3.510  -1.678  1.00  0.00    -0.000 C 
BRANCH  18  19
ATOM     19  C   UNL     1      -4.396   4.035  -1.083  1.00  0.00    -0.000 C 
BRANCH  19  20
ATOM     20  C   UNL     1      -3.416   2.883  -0.823  1.00  0.00    -0.000 C 
BRANCH  20  21
ATOM     21  C   UNL     1      -3.128   2.733   0.679  1.00  0.00    -0.000 C 
BRANCH  21  22
ATOM     22  C   UNL     1      -3.536   3.976   1.486  1.00  0.00    -0.000 C 
BRANCH  22  23
ATOM     23  C   UNL     1      -4.488   3.643   2.649  1.00  0.00    -0.000 C 
BRANCH  23  24
ATOM     24  C   UNL     1      -5.706   4.591   2.696  1.00  0.00    -0.000 C 
BRANCH  24  25
ATOM     25  C   UNL     1      -7.050   3.861   2.862  1.00  0.00    -0.003 C 
ATOM     26  C   UNL     1      -7.018   2.779   3.938  1.00  0.00     0.004 C 
ENDBRANCH  24  25
ENDBRANCH  23  24
ENDBRANCH  22  23
ENDBRANCH  21  22
ENDBRANCH  20  21
ENDBRANCH  19  20
ENDBRANCH  18  19
ENDBRANCH  17  18
ENDBRANCH  16  17
ENDBRANCH  15  16
ENDBRANCH   1  15
TORSDOF 22
ENDMDL
MODEL 2
REMARK VINA RESULT:    -3.950      4.548      9.047
REMARK INTER + INTRA:         -11.930
REMARK INTER:                  -9.393
REMARK INTRA:                  -2.537
REMARK UNBOUND:                -2.901
REMARK SMILES CCCCCCCCCCCCCCCCCCCCCCCC(=O)[O-]
REMARK SMILES IDX 13 1 14 2 15 3 16 4 17 5 18 6 19 7 20 8 21 9 22 10 23 11
REMARK SMILES IDX 24 12 25 13 26 14 12 15 11 16 10 17 9 18 8 19 7 20 6 21 5 22
REMARK SMILES IDX 4 23 3 24 2 25 1 26
REMARK H PARENT
REMARK Flexibility Score: inf
ROOT
ATOM      1  C   UNL     1      -6.555   0.536  -0.046  1.00  0.00     0.000 C 
ENDROOT
BRANCH   1   2
ATOM      2  C   UNL     1      -7.165   1.765   0.651  1.00  0.00     0.000 C 
BRANCH   2   3
ATOM      3  C   UNL     1      -7.063   3.080  -0.146  1.00  0.00     0.000 C 
BRANCH   3   4
ATOM      4  C   UNL     1      -6.097   3.042  -1.348  1.00  0.00     0.000 C 
BRANCH   4   5
ATOM      5  C   UNL     1      -4.926   4.042  -1.276  1.00  0.00     0.000 C 
BRANCH   5   6
ATOM      6  C   UNL     1      -3.526   3.401  -1.236  1.00  0.00     0.000 C 
BRANCH   6   7
ATOM      7  C   UNL     1      -3.311   2.512  -0.002  1.00  0.00     0.000 C 
BRANCH   7   8
ATOM      8  C   UNL     1      -3.156   3.363   1.268  1.00  0.00     0.000 C 
BRANCH   8   9
ATOM      9  C   UNL     1      -4.262   3.099   2.301  1.00  0.00     0.000 C 
BRANCH   9  10
ATOM     10  C   UNL     1      -5.061   4.362   2.656  1.00  0.00     0.006 C 
BRANCH  10  11
ATOM     11  C   UNL     1      -5.789   4.192   3.994  1.00  0.00     0.053 C 
BRANCH  11  12
ATOM     12  C   UNL     1      -5.129   5.008   5.060  1.00  0.00     0.041 C 
ATOM     13  O   UNL     1      -4.056   5.623   4.817  1.00  0.00    -0.550 OA
ATOM     14  O   UNL     1      -5.681   5.065   6.335  1.00  0.00    -0.550 OA
ENDBRANCH  11  12
ENDBRANCH  10  11
ENDBRANCH   9  10
ENDBRANCH   8   9
ENDBRANCH   7   8
ENDBRANCH   6   7
ENDBRANCH   5   6
ENDBRANCH   4   5
ENDBRANCH   3   4
ENDBRANCH   2   3
ENDBRANCH   1   2
BRANCH   1  15
ATOM     15  C   UNL     1      -5.436  -0.122   0.778  1.00  0.00     0.000 C 
BRANCH  15  16
ATOM     16  C   UNL     1      -5.489  -1.659   0.739  1.00  0.00     0.000 C 
BRANCH  16  17
ATOM     17  C   UNL     1      -6.899  -2.260   0.565  1.00  0.00     0.000 C 
BRANCH  17  18
ATOM     18  C   UNL     1      -7.136  -2.997  -0.765  1.00  0.00    -0.000 C 
BRANCH  18  19
ATOM     19  C   UNL     1      -7.914  -4.309  -0.592  1.00  0.00    -0.000 C 
BRANCH  19  20
ATOM     20  C   UNL     1      -7.561  -5.303  -1.706  1.00  0.00    -0.000 C 
BRANCH  20  21
ATOM     21  C   UNL     1      -6.601  -4.671  -2.726  1.00  0.00    -0.000 C 
BRANCH  21  22
ATOM     22  C   UNL     1      -5.289  -5.460  -2.869  1.00  0.00    -0.000 C 
BRANCH  22  23
ATOM     23  C   UNL     1      -5.378  -6.875  -2.271  1.00  0.00    -0.000 C 
BRANCH  23  24
ATOM     24  C   UNL     1      -4.907  -7.959  -3.263  1.00  0.00    -0.000 C 
BRANCH  24  25
ATOM     25  C   UNL     1      -3.385  -7.968  -3.492  1.00  0.00    -0.003 C 
ATOM     26  C   UNL     1      -2.582  -8.054  -2.196  1.00  0.00     0.004 C 
ENDBRANCH  24  25
ENDBRANCH  23  24
ENDBRANCH  22  23
ENDBRANCH  21  22
ENDBRANCH  20  21
ENDBRANCH  19  20
ENDBRANCH  18  19
ENDBRANCH  17  18
ENDBRANCH  16  17
ENDBRANCH  15  16
ENDBRANCH   1  15
TORSDOF 22
ENDMDL
MODEL 3
REMARK VINA RESULT:    -3.867      3.017      7.826
REMARK INTER + INTRA:         -11.741
REMARK INTER:                  -9.330
REMARK INTRA:                  -2.410
REMARK UNBOUND:                -2.901
REMARK SMILES CCCCCCCCCCCCCCCCCCCCCCCC(=O)[O-]
REMARK SMILES IDX 13 1 14 2 15 3 16 4 17 5 18 6 19 7 20 8 21 9 22 10 23 11
REMARK SMILES IDX 24 12 25 13 26 14 12 15 11 16 10 17 9 18 8 19 7 20 6 21 5 22
REMARK SMILES IDX 4 23 3 24 2 25 1 26
REMARK H PARENT
REMARK Flexibility Score: inf
ROOT
ATOM      1  C   UNL     1      -5.244  -1.327   0.703  1.00  0.00     0.000 C 
ENDROOT
BRANCH   1   2
ATOM      2  C   UNL     1      -5.365   0.168   1.044  1.00  0.00     0.000 C 
BRANCH   2   3
ATOM      3  C   UNL     1      -5.921   1.050  -0.091  1.00  0.00     0.000 C 
BRANCH   3   4
ATOM      4  C   UNL     1      -5.056   2.274  -0.451  1.00  0.00     0.000 C 
BRANCH   4   5
ATOM      5  C   UNL     1      -3.570   2.164  -0.053  1.00  0.00     0.000 C 
BRANCH   5   6
ATOM      6  C   UNL     1      -3.142   3.071   1.115  1.00  0.00     0.000 C 
BRANCH   6   7
ATOM      7  C   UNL     1      -3.677   4.505   0.986  1.00  0.00     0.000 C 
BRANCH   7   8
ATOM      8  C   UNL     1      -4.551   4.876   2.194  1.00  0.00     0.000 C 
BRANCH   8   9
ATOM      9  C   UNL     1      -4.698   3.723   3.199  1.00  0.00     0.000 C 
BRANCH   9  10
ATOM     10  C   UNL     1      -6.132   3.175   3.272  1.00  0.00     0.006 C 
BRANCH  10  11
ATOM     11  C   UNL     1      -6.768   3.483   4.632  1.00  0.00     0.053 C 
BRANCH  11  12
ATOM     12  C   UNL     1      -7.819   2.470   4.964  1.00  0.00     0.041 C 
ATOM     13  O   UNL     1      -8.872   2.400   4.275  1.00  0.00    -0.550 OA
ATOM     14  O   UNL     1      -7.652   1.625   6.054  1.00  0.00    -0.550 OA
ENDBRANCH  11  12
ENDBRANCH  10  11
ENDBRANCH   9  10
ENDBRANCH   8   9
ENDBRANCH   7   8
ENDBRANCH   6   7
ENDBRANCH   5   6
ENDBRANCH   4   5
ENDBRANCH   3   4
ENDBRANCH   2   3
ENDBRANCH   1   2
BRANCH   1  15
ATOM     15  C   UNL     1      -6.595  -2.059   0.743  1.00  0.00     0.000 C 
BRANCH  15  16
ATOM     16  C   UNL     1      -7.166  -2.183   2.167  1.00  0.00     0.000 C 
BRANCH  16  17
ATOM     17  C   UNL     1      -7.627  -3.599   2.565  1.00  0.00     0.000 C 
BRANCH  17  18
ATOM     18  C   UNL     1      -6.834  -4.247   3.714  1.00  0.00    -0.000 C 
BRANCH  18  19
ATOM     19  C   UNL     1      -5.544  -3.488   4.054  1.00  0.00    -0.000 C 
BRANCH  19  20
ATOM     20  C   UNL     1      -4.387  -4.464   4.304  1.00  0.00    -0.000 C 
BRANCH  20  21
ATOM     21  C   UNL     1      -3.057  -3.711   4.471  1.00  0.00    -0.000 C 
BRANCH  21  22
ATOM     22  C   UNL     1      -2.136  -4.365   5.514  1.00  0.00    -0.000 C 
BRANCH  22  23
ATOM     23  C   UNL     1      -2.479  -3.948   6.955  1.00  0.00    -0.000 C 
BRANCH  23  24
ATOM     24  C   UNL     1      -3.025  -2.506   7.032  1.00  0.00    -0.000 C 
BRANCH  24  25
ATOM     25  C   UNL     1      -4.456  -2.416   7.591  1.00  0.00    -0.003 C 
ATOM     26  C   UNL     1      -4.743  -1.095   8.300  1.00  0.00     0.004 C 
ENDBRANCH  24  25
ENDBRANCH  23  24
ENDBRANCH  22  23
ENDBRANCH  21  22
ENDBRANCH  20  21
ENDBRANCH  19  20
ENDBRANCH  18  19
ENDBRANCH  17  18
ENDBRANCH  16  17
ENDBRANCH  15  16
ENDBRANCH   1  15
TORSDOF 22
ENDMDL
MODEL 4
REMARK VINA RESULT:    -3.782      3.773      5.698
REMARK INTER + INTRA:         -11.547
REMARK INTER:                  -8.905
REMARK INTRA:                  -2.643
REMARK UNBOUND:                -2.901
REMARK SMILES CCCCCCCCCCCCCCCCCCCCCCCC(=O)[O-]
REMARK SMILES IDX 13 1 14 2 15 3 16 4 17 5 18 6 19 7 20 8 21 9 22 10 23 11
REMARK SMILES IDX 24 12 25 13 26 14 12 15 11 16 10 17 9 18 8 19 7 20 6 21 5 22
REMARK SMILES IDX 4 23 3 24 2 25 1 26
REMARK H PARENT
REMARK Flexibility Score: inf
ROOT
ATOM      1  C   UNL     1      -5.237  -0.447   0.693  1.00  0.00     0.000 C 
ENDROOT
BRANCH   1   2
ATOM      2  C   UNL     1      -5.718  -1.908   0.663  1.00  0.00     0.000 C 
BRANCH   2   3
ATOM      3  C   UNL     1      -6.968  -2.162  -0.202  1.00  0.00     0.000 C 
BRANCH   3   4
ATOM      4  C   UNL     1      -7.698  -3.490   0.080  1.00  0.00     0.000 C 
BRANCH   4   5
ATOM      5  C   UNL     1      -7.828  -4.434  -1.132  1.00  0.00     0.000 C 
BRANCH   5   6
ATOM      6  C   UNL     1      -7.100  -3.963  -2.405  1.00  0.00     0.000 C 
BRANCH   6   7
ATOM      7  C   UNL     1      -5.673  -4.520  -2.518  1.00  0.00     0.000 C 
BRANCH   7   8
ATOM      8  C   UNL     1      -5.660  -6.044  -2.322  1.00  0.00     0.000 C 
BRANCH   8   9
ATOM      9  C   UNL     1      -5.284  -6.805  -3.602  1.00  0.00     0.000 C 
BRANCH   9  10
ATOM     10  C   UNL     1      -3.887  -7.441  -3.530  1.00  0.00     0.006 C 
BRANCH  10  11
ATOM     11  C   UNL     1      -3.778  -8.390  -2.332  1.00  0.00     0.053 C 
BRANCH  11  12
ATOM     12  C   UNL     1      -2.353  -8.529  -1.898  1.00  0.00     0.041 C 
ATOM     13  O   UNL     1      -1.481  -7.720  -2.315  1.00  0.00    -0.550 OA
ATOM     14  O   UNL     1      -1.979  -9.572  -1.058  1.00  0.00    -0.550 OA
ENDBRANCH  11  12
ENDBRANCH  10  11
ENDBRANCH   9  10
ENDBRANCH   8   9
ENDBRANCH   7   8
ENDBRANCH   6   7
ENDBRANCH   5   6
ENDBRANCH   4   5
ENDBRANCH   3   4
ENDBRANCH   2   3
ENDBRANCH   1   2
BRANCH   1  15
ATOM     15  C   UNL     1      -6.360   0.557   0.383  1.00  0.00     0.000 C 
BRANCH  15  16
ATOM     16  C   UNL     1      -6.819   1.343   1.625  1.00  0.00     0.000 C 
BRANCH  16  17
ATOM     17  C   UNL     1      -7.492   2.698   1.328  1.00  0.00     0.000 C 
BRANCH  17  18
ATOM     18  C   UNL     1      -7.711   3.602   2.554  1.00  0.00    -0.000 C 
BRANCH  18  19
ATOM     19  C   UNL     1      -6.520   3.596   3.523  1.00  0.00    -0.000 C 
BRANCH  19  20
ATOM     20  C   UNL     1      -5.382   4.479   2.994  1.00  0.00    -0.000 C 
BRANCH  20  21
ATOM     21  C   UNL     1      -4.075   3.680   2.872  1.00  0.00    -0.000 C 
BRANCH  21  22
ATOM     22  C   UNL     1      -3.354   3.929   1.537  1.00  0.00    -0.000 C 
BRANCH  22  23
ATOM     23  C   UNL     1      -3.241   2.658   0.676  1.00  0.00    -0.000 C 
BRANCH  23  24
ATOM     24  C   UNL     1      -3.694   2.897  -0.780  1.00  0.00    -0.000 C 
BRANCH  24  25
ATOM     25  C   UNL     1      -4.743   4.013  -0.925  1.00  0.00    -0.003 C 
ATOM     26  C   UNL     1      -5.926   3.616  -1.804  1.00  0.00     0.004 C 
ENDBRANCH  24  25
ENDBRANCH  23  24
ENDBRANCH  22  23
ENDBRANCH  21  22
ENDBRANCH  20  21
ENDBRANCH  19  20
ENDBRANCH  18  19
ENDBRANCH  17  18
ENDBRANCH  16  17
ENDBRANCH  15  16
ENDBRANCH   1  15
TORSDOF 22
ENDMDL
MODEL 5
REMARK VINA RESULT:    -3.777      5.529      8.381
REMARK INTER + INTRA:         -11.536
REMARK INTER:                  -6.606
REMARK INTRA:                  -4.929
REMARK UNBOUND:                -2.901
REMARK SMILES CCCCCCCCCCCCCCCCCCCCCCCC(=O)[O-]
REMARK SMILES IDX 13 1 14 2 15 3 16 4 17 5 18 6 19 7 20 8 21 9 22 10 23 11
REMARK SMILES IDX 24 12 25 13 26 14 12 15 11 16 10 17 9 18 8 19 7 20 6 21 5 22
REMARK SMILES IDX 4 23 3 24 2 25 1 26
REMARK H PARENT
REMARK Flexibility Score: inf
ROOT
ATOM      1  C   UNL     1      -4.098   3.981   1.714  1.00  0.00     0.000 C 
ENDROOT
BRANCH   1   2
ATOM      2  C   UNL     1      -4.293   3.779   3.227  1.00  0.00     0.000 C 
BRANCH   2   3
ATOM      3  C   UNL     1      -5.751   3.892   3.713  1.00  0.00     0.000 C 
BRANCH   3   4
ATOM      4  C   UNL     1      -6.746   2.937   3.024  1.00  0.00     0.000 C 
BRANCH   4   5
ATOM      5  C   UNL     1      -7.857   3.627   2.208  1.00  0.00     0.000 C 
BRANCH   5   6
ATOM      6  C   UNL     1      -7.785   5.165   2.183  1.00  0.00     0.000 C 
BRANCH   6   7
ATOM      7  C   UNL     1      -7.357   5.721   0.816  1.00  0.00     0.000 C 
BRANCH   7   8
ATOM      8  C   UNL     1      -6.204   6.725   0.968  1.00  0.00     0.000 C 
BRANCH   8   9
ATOM      9  C   UNL     1      -6.147   7.360   2.366  1.00  0.00     0.000 C 
BRANCH   9  10
ATOM     10  C   UNL     1      -4.719   7.437   2.928  1.00  0.00     0.006 C 
BRANCH  10  11
ATOM     11  C   UNL     1      -3.948   8.606   2.307  1.00  0.00     0.053 C 
BRANCH  11  12
ATOM     12  C   UNL     1      -2.722   8.115   1.604  1.00  0.00     0.041 C 
ATOM     13  O   UNL     1      -2.317   6.935   1.784  1.00  0.00    -0.550 OA
ATOM     14  O   UNL     1      -2.006   8.969   0.774  1.00  0.00    -0.550 OA
ENDBRANCH  11  12
ENDBRANCH  10  11
ENDBRANCH   9  10
ENDBRANCH   8   9
ENDBRANCH   7   8
ENDBRANCH   6   7
ENDBRANCH   5   6
ENDBRANCH   4   5
ENDBRANCH   3   4
ENDBRANCH   2   3
ENDBRANCH   1   2
BRANCH   1  15
ATOM     15  C   UNL     1      -3.040   3.037   1.119  1.00  0.00     0.000 C 
BRANCH  15  16
ATOM     16  C   UNL     1      -3.598   2.147  -0.005  1.00  0.00     0.000 C 
BRANCH  16  17
ATOM     17  C   UNL     1      -4.669   1.130   0.437  1.00  0.00     0.000 C 
BRANCH  17  18
ATOM     18  C   UNL     1      -6.053   1.315  -0.209  1.00  0.00    -0.000 C 
BRANCH  18  19
ATOM     19  C   UNL     1      -6.181   2.635  -0.983  1.00  0.00    -0.000 C 
BRANCH  19  20
ATOM     20  C   UNL     1      -7.570   2.760  -1.621  1.00  0.00    -0.000 C 
BRANCH  20  21
ATOM     21  C   UNL     1      -7.560   3.781  -2.770  1.00  0.00    -0.000 C 
BRANCH  21  22
ATOM     22  C   UNL     1      -6.516   4.891  -2.563  1.00  0.00    -0.000 C 
BRANCH  22  23
ATOM     23  C   UNL     1      -5.439   4.908  -3.663  1.00  0.00    -0.000 C 
BRANCH  23  24
ATOM     24  C   UNL     1      -4.012   4.819  -3.083  1.00  0.00    -0.000 C 
BRANCH  24  25
ATOM     25  C   UNL     1      -3.871   5.456  -1.689  1.00  0.00    -0.003 C 
ATOM     26  C   UNL     1      -3.520   6.941  -1.738  1.00  0.00     0.004 C 
ENDBRANCH  24  25
ENDBRANCH  23  24
ENDBRANCH  22  23
ENDBRANCH  21  22
ENDBRANCH  20  21
ENDBRANCH  19  20
ENDBRANCH  18  19
ENDBRANCH  17  18
ENDBRANCH  16  17
ENDBRANCH  15  16
ENDBRANCH   1  15
TORSDOF 22
ENDMDL
MODEL 6
REMARK VINA RESULT:    -3.751      3.631      8.197
REMARK INTER + INTRA:         -11.476
REMARK INTER:                  -9.154
REMARK INTRA:                  -2.322
REMARK UNBOUND:                -2.901
REMARK SMILES CCCCCCCCCCCCCCCCCCCCCCCC(=O)[O-]
REMARK SMILES IDX 13 1 14 2 15 3 16 4 17 5 18 6 19 7 20 8 21 9 22 10 23 11
REMARK SMILES IDX 24 12 25 13 26 14 12 15 11 16 10 17 9 18 8 19 7 20 6 21 5 22
REMARK SMILES IDX 4 23 3 24 2 25 1 26
REMARK H PARENT
REMARK Flexibility Score: inf
ROOT
ATOM      1  C   UNL     1      -4.871  -0.171   0.751  1.00  0.00     0.000 C 
ENDROOT
BRANCH   1   2
ATOM      2  C   UNL     1      -5.881   0.752   0.048  1.00  0.00     0.000 C 
BRANCH   2   3
ATOM      3  C   UNL     1      -5.323   2.124  -0.375  1.00  0.00     0.000 C 
BRANCH   3   4
ATOM      4  C   UNL     1      -3.790   2.261  -0.288  1.00  0.00     0.000 C 
BRANCH   4   5
ATOM      5  C   UNL     1      -3.272   3.051   0.930  1.00  0.00     0.000 C 
BRANCH   5   6
ATOM      6  C   UNL     1      -3.723   4.522   0.990  1.00  0.00     0.000 C 
BRANCH   6   7
ATOM      7  C   UNL     1      -4.799   4.774   2.058  1.00  0.00     0.000 C 
BRANCH   7   8
ATOM      8  C   UNL     1      -4.845   3.623   3.074  1.00  0.00     0.000 C 
BRANCH   8   9
ATOM      9  C   UNL     1      -6.208   2.917   3.114  1.00  0.00     0.000 C 
BRANCH   9  10
ATOM     10  C   UNL     1      -6.935   3.097   4.455  1.00  0.00     0.006 C 
BRANCH  10  11
ATOM     11  C   UNL     1      -7.692   4.428   4.495  1.00  0.00     0.053 C 
BRANCH  11  12
ATOM     12  C   UNL     1      -7.123   5.327   5.548  1.00  0.00     0.041 C 
ATOM     13  O   UNL     1      -6.114   4.967   6.212  1.00  0.00    -0.550 OA
ATOM     14  O   UNL     1      -7.726   6.550   5.820  1.00  0.00    -0.550 OA
ENDBRANCH  11  12
ENDBRANCH  10  11
ENDBRANCH   9  10
ENDBRANCH   8   9
ENDBRANCH   7   8
ENDBRANCH   6   7
ENDBRANCH   5   6
ENDBRANCH   4   5
ENDBRANCH   3   4
ENDBRANCH   2   3
ENDBRANCH   1   2
BRANCH   1  15
ATOM     15  C   UNL     1      -5.359  -1.625   0.850  1.00  0.00     0.000 C 
BRANCH  15  16
ATOM     16  C   UNL     1      -6.800  -1.808   0.341  1.00  0.00     0.000 C 
BRANCH  16  17
ATOM     17  C   UNL     1      -7.738  -2.575   1.294  1.00  0.00     0.000 C 
BRANCH  17  18
ATOM     18  C   UNL     1      -7.268  -2.643   2.758  1.00  0.00    -0.000 C 
BRANCH  18  19
ATOM     19  C   UNL     1      -7.495  -4.021   3.397  1.00  0.00    -0.000 C 
BRANCH  19  20
ATOM     20  C   UNL     1      -6.499  -4.263   4.538  1.00  0.00    -0.000 C 
BRANCH  20  21
ATOM     21  C   UNL     1      -5.081  -3.826   4.136  1.00  0.00    -0.000 C 
BRANCH  21  22
ATOM     22  C   UNL     1      -4.001  -4.808   4.619  1.00  0.00    -0.000 C 
BRANCH  22  23
ATOM     23  C   UNL     1      -2.671  -4.111   4.956  1.00  0.00    -0.000 C 
BRANCH  23  24
ATOM     24  C   UNL     1      -2.849  -2.982   5.993  1.00  0.00    -0.000 C 
BRANCH  24  25
ATOM     25  C   UNL     1      -3.400  -3.468   7.346  1.00  0.00    -0.003 C 
ATOM     26  C   UNL     1      -4.236  -2.415   8.069  1.00  0.00     0.004 C 
ENDBRANCH  24  25
ENDBRANCH  23  24
ENDBRANCH  22  23
ENDBRANCH  21  22
ENDBRANCH  20  21
ENDBRANCH  19  20
ENDBRANCH  18  19
ENDBRANCH  17  18
ENDBRANCH  16  17
ENDBRANCH  15  16
ENDBRANCH   1  15
TORSDOF 22
ENDMDL
MODEL 7
REMARK VINA RESULT:    -3.703      3.843      5.230
REMARK INTER + INTRA:         -11.366
REMARK INTER:                  -8.477
REMARK INTRA:                  -2.889
REMARK UNBOUND:                -2.901
REMARK SMILES CCCCCCCCCCCCCCCCCCCCCCCC(=O)[O-]
REMARK SMILES IDX 13 1 14 2 15 3 16 4 17 5 18 6 19 7 20 8 21 9 22 10 23 11
REMARK SMILES IDX 24 12 25 13 26 14 12 15 11 16 10 17 9 18 8 19 7 20 6 21 5 22
REMARK SMILES IDX 4 23 3 24 2 25 1 26
REMARK H PARENT
REMARK Flexibility Score: inf
ROOT
ATOM      1  C   UNL     1      -4.490   1.175   0.250  1.00  0.00     0.000 C 
ENDROOT
BRANCH   1   2
ATOM      2  C   UNL     1      -5.455   0.215   0.966  1.00  0.00     0.000 C 
BRANCH   2   3
ATOM      3  C   UNL     1      -5.288  -1.271   0.594  1.00  0.00     0.000 C 
BRANCH   3   4
ATOM      4  C   UNL     1      -6.573  -2.117   0.685  1.00  0.00     0.000 C 
BRANCH   4   5
ATOM      5  C   UNL     1      -7.737  -1.633  -0.203  1.00  0.00     0.000 C 
BRANCH   5   6
ATOM      6  C   UNL     1      -8.172  -2.621  -1.301  1.00  0.00     0.000 C 
BRANCH   6   7
ATOM      7  C   UNL     1      -7.397  -3.947  -1.253  1.00  0.00     0.000 C 
BRANCH   7   8
ATOM      8  C   UNL     1      -7.020  -4.415  -2.667  1.00  0.00     0.000 C 
BRANCH   8   9
ATOM      9  C   UNL     1      -5.603  -5.002  -2.742  1.00  0.00     0.000 C 
BRANCH   9  10
ATOM     10  C   UNL     1      -5.595  -6.504  -3.066  1.00  0.00     0.006 C 
BRANCH  10  11
ATOM     11  C   UNL     1      -4.231  -6.940  -3.611  1.00  0.00     0.053 C 
BRANCH  11  12
ATOM     12  C   UNL     1      -3.531  -7.828  -2.630  1.00  0.00     0.041 C 
ATOM     13  O   UNL     1      -2.312  -8.110  -2.786  1.00  0.00    -0.550 OA
ATOM     14  O   UNL     1      -4.232  -8.374  -1.561  1.00  0.00    -0.550 OA
ENDBRANCH  11  12
ENDBRANCH  10  11
ENDBRANCH   9  10
ENDBRANCH   8   9
ENDBRANCH   7   8
ENDBRANCH   6   7
ENDBRANCH   5   6
ENDBRANCH   4   5
ENDBRANCH   3   4
ENDBRANCH   2   3
ENDBRANCH   1   2
BRANCH   1  15
ATOM     15  C   UNL     1      -5.218   2.213  -0.620  1.00  0.00     0.000 C 
BRANCH  15  16
ATOM     16  C   UNL     1      -6.716   1.903  -0.793  1.00  0.00     0.000 C 
BRANCH  16  17
ATOM     17  C   UNL     1      -7.672   3.012  -0.309  1.00  0.00     0.000 C 
BRANCH  17  18
ATOM     18  C   UNL     1      -7.325   4.431  -0.792  1.00  0.00    -0.000 C 
BRANCH  18  19
ATOM     19  C   UNL     1      -6.857   5.353   0.343  1.00  0.00    -0.000 C 
BRANCH  19  20
ATOM     20  C   UNL     1      -5.462   5.918   0.047  1.00  0.00    -0.000 C 
BRANCH  20  21
ATOM     21  C   UNL     1      -4.630   6.035   1.334  1.00  0.00    -0.000 C 
BRANCH  21  22
ATOM     22  C   UNL     1      -3.674   4.847   1.529  1.00  0.00    -0.000 C 
BRANCH  22  23
ATOM     23  C   UNL     1      -4.199   3.824   2.552  1.00  0.00    -0.000 C 
BRANCH  23  24
ATOM     24  C   UNL     1      -4.830   4.503   3.786  1.00  0.00    -0.000 C 
BRANCH  24  25
ATOM     25  C   UNL     1      -6.277   4.061   4.063  1.00  0.00    -0.003 C 
ATOM     26  C   UNL     1      -6.710   2.860   3.225  1.00  0.00     0.004 C 
ENDBRANCH  24  25
ENDBRANCH  23  24
ENDBRANCH  22  23
ENDBRANCH  21  22
ENDBRANCH  20  21
ENDBRANCH  19  20
ENDBRANCH  18  19
ENDBRANCH  17  18
ENDBRANCH  16  17
ENDBRANCH  15  16
ENDBRANCH   1  15
TORSDOF 22
ENDMDL
MODEL 8
REMARK VINA RESULT:    -3.675      5.419      6.896
REMARK INTER + INTRA:         -11.303
REMARK INTER:                  -9.763
REMARK INTRA:                  -1.540
REMARK UNBOUND:                -2.901
REMARK SMILES CCCCCCCCCCCCCCCCCCCCCCCC(=O)[O-]
REMARK SMILES IDX 13 1 14 2 15 3 16 4 17 5 18 6 19 7 20 8 21 9 22 10 23 11
REMARK SMILES IDX 24 12 25 13 26 14 12 15 11 16 10 17 9 18 8 19 7 20 6 21 5 22
REMARK SMILES IDX 4 23 3 24 2 25 1 26
REMARK H PARENT
REMARK Flexibility Score: inf
ROOT
ATOM      1  C   UNL     1      -5.632  -4.559  -2.726  1.00  0.00     0.000 C 
ENDROOT
BRANCH   1   2
ATOM      2  C   UNL     1      -5.440  -6.085  -2.691  1.00  0.00     0.000 C 
BRANCH   2   3
ATOM      3  C   UNL     1      -6.430  -6.884  -3.563  1.00  0.00     0.000 C 
BRANCH   3   4
ATOM      4  C   UNL     1      -5.781  -7.891  -4.532  1.00  0.00     0.000 C 
BRANCH   4   5
ATOM      5  C   UNL     1      -4.241  -7.847  -4.586  1.00  0.00     0.000 C 
BRANCH   5   6
ATOM      6  C   UNL     1      -3.556  -9.216  -4.748  1.00  0.00     0.000 C 
BRANCH   6   7
ATOM      7  C   UNL     1      -2.556  -9.523  -3.622  1.00  0.00     0.000 C 
BRANCH   7   8
ATOM      8  C   UNL     1      -2.827  -8.642  -2.393  1.00  0.00     0.000 C 
BRANCH   8   9
ATOM      9  C   UNL     1      -1.597  -7.830  -1.960  1.00  0.00     0.000 C 
BRANCH   9  10
ATOM     10  C   UNL     1      -0.558  -8.675  -1.207  1.00  0.00     0.006 C 
BRANCH  10  11
ATOM     11  C   UNL     1       0.865  -8.203  -1.520  1.00  0.00     0.053 C 
BRANCH  11  12
ATOM     12  C   UNL     1       1.434  -7.438  -0.366  1.00  0.00     0.041 C 
ATOM     13  O   UNL     1       0.702  -7.130   0.613  1.00  0.00    -0.550 OA
ATOM     14  O   UNL     1       2.764  -7.036  -0.384  1.00  0.00    -0.550 OA
ENDBRANCH  11  12
ENDBRANCH  10  11
ENDBRANCH   9  10
ENDBRANCH   8   9
ENDBRANCH   7   8
ENDBRANCH   6   7
ENDBRANCH   5   6
ENDBRANCH   4   5
ENDBRANCH   3   4
ENDBRANCH   2   3
ENDBRANCH   1   2
BRANCH   1  15
ATOM     15  C   UNL     1      -7.112  -4.145  -2.771  1.00  0.00     0.000 C 
BRANCH  15  16
ATOM     16  C   UNL     1      -7.790  -4.196  -1.390  1.00  0.00     0.000 C 
BRANCH  16  17
ATOM     17  C   UNL     1      -7.928  -2.835  -0.680  1.00  0.00     0.000 C 
BRANCH  17  18
ATOM     18  C   UNL     1      -6.632  -2.289  -0.054  1.00  0.00    -0.000 C 
BRANCH  18  19
ATOM     19  C   UNL     1      -6.783  -0.861   0.487  1.00  0.00    -0.000 C 
BRANCH  19  20
ATOM     20  C   UNL     1      -5.416  -0.268   0.852  1.00  0.00    -0.000 C 
BRANCH  20  21
ATOM     21  C   UNL     1      -5.503   1.257   1.021  1.00  0.00    -0.000 C 
BRANCH  21  22
ATOM     22  C   UNL     1      -4.880   2.018  -0.161  1.00  0.00    -0.000 C 
BRANCH  22  23
ATOM     23  C   UNL     1      -3.360   2.210  -0.010  1.00  0.00    -0.000 C 
BRANCH  23  24
ATOM     24  C   UNL     1      -3.003   3.131   1.175  1.00  0.00    -0.000 C 
BRANCH  24  25
ATOM     25  C   UNL     1      -3.756   4.473   1.163  1.00  0.00    -0.003 C 
ATOM     26  C   UNL     1      -4.475   4.772   2.476  1.00  0.00     0.004 C 
ENDBRANCH  24  25
ENDBRANCH  23  24
ENDBRANCH  22  23
ENDBRANCH  21  22
ENDBRANCH  20  21
ENDBRANCH  19  20
ENDBRANCH  18  19
ENDBRANCH  17  18
ENDBRANCH  16  17
ENDBRANCH  15  16
ENDBRANCH   1  15
TORSDOF 22
ENDMDL
MODEL 9
REMARK VINA RESULT:    -3.652      4.474      7.990
REMARK INTER + INTRA:         -11.250
REMARK INTER:                  -7.013
REMARK INTRA:                  -4.237
REMARK UNBOUND:                -2.901
REMARK SMILES CCCCCCCCCCCCCCCCCCCCCCCC(=O)[O-]
REMARK SMILES IDX 13 1 14 2 15 3 16 4 17 5 18 6 19 7 20 8 21 9 22 10 23 11
REMARK SMILES IDX 24 12 25 13 26 14 12 15 11 16 10 17 9 18 8 19 7 20 6 21 5 22
REMARK SMILES IDX 4 23 3 24 2 25 1 26
REMARK H PARENT
REMARK Flexibility Score: inf
ROOT
ATOM      1  C   UNL     1      -3.586   3.963  -0.116  1.00  0.00     0.000 C 
ENDROOT
BRANCH   1   2
ATOM      2  C   UNL     1      -4.047   3.701  -1.560  1.00  0.00     0.000 C 
BRANCH   2   3
ATOM      3  C   UNL     1      -4.112   4.952  -2.458  1.00  0.00     0.000 C 
BRANCH   3   4
ATOM      4  C   UNL     1      -5.534   5.426  -2.817  1.00  0.00     0.000 C 
BRANCH   4   5
ATOM      5  C   UNL     1      -6.675   4.609  -2.179  1.00  0.00     0.000 C 
BRANCH   5   6
ATOM      6  C   UNL     1      -7.520   5.371  -1.142  1.00  0.00     0.000 C 
BRANCH   6   7
ATOM      7  C   UNL     1      -6.801   5.543   0.205  1.00  0.00     0.000 C 
BRANCH   7   8
ATOM      8  C   UNL     1      -7.769   5.323   1.377  1.00  0.00     0.000 C 
BRANCH   8   9
ATOM      9  C   UNL     1      -7.052   5.218   2.731  1.00  0.00     0.000 C 
BRANCH   9  10
ATOM     10  C   UNL     1      -5.521   5.206   2.596  1.00  0.00     0.006 C 
BRANCH  10  11
ATOM     11  C   UNL     1      -4.870   4.522   3.802  1.00  0.00     0.053 C 
BRANCH  11  12
ATOM     12  C   UNL     1      -4.712   5.488   4.935  1.00  0.00     0.041 C 
ATOM     13  O   UNL     1      -3.928   6.469   4.827  1.00  0.00    -0.550 OA
ATOM     14  O   UNL     1      -5.405   5.287   6.123  1.00  0.00    -0.550 OA
ENDBRANCH  11  12
ENDBRANCH  10  11
ENDBRANCH   9  10
ENDBRANCH   8   9
ENDBRANCH   7   8
ENDBRANCH   6   7
ENDBRANCH   5   6
ENDBRANCH   4   5
ENDBRANCH   3   4
ENDBRANCH   2   3
ENDBRANCH   1   2
BRANCH   1  15
ATOM     15  C   UNL     1      -3.243   2.672   0.645  1.00  0.00     0.000 C 
BRANCH  15  16
ATOM     16  C   UNL     1      -4.325   1.587   0.498  1.00  0.00     0.000 C 
BRANCH  16  17
ATOM     17  C   UNL     1      -5.497   1.694   1.493  1.00  0.00     0.000 C 
BRANCH  17  18
ATOM     18  C   UNL     1      -6.886   1.861   0.852  1.00  0.00    -0.000 C 
BRANCH  18  19
ATOM     19  C   UNL     1      -6.893   1.551  -0.652  1.00  0.00    -0.000 C 
BRANCH  19  20
ATOM     20  C   UNL     1      -8.275   1.062  -1.102  1.00  0.00    -0.000 C 
BRANCH  20  21
ATOM     21  C   UNL     1      -9.156   0.707   0.106  1.00  0.00    -0.000 C 
BRANCH  21  22
ATOM     22  C   UNL     1      -9.195  -0.805   0.384  1.00  0.00    -0.000 C 
BRANCH  22  23
ATOM     23  C   UNL     1      -8.573  -1.635  -0.753  1.00  0.00    -0.000 C 
BRANCH  23  24
ATOM     24  C   UNL     1      -7.534  -2.652  -0.233  1.00  0.00    -0.000 C 
BRANCH  24  25
ATOM     25  C   UNL     1      -6.604  -2.083   0.853  1.00  0.00    -0.003 C 
ATOM     26  C   UNL     1      -5.184  -1.826   0.354  1.00  0.00     0.004 C 
ENDBRANCH  24  25
ENDBRANCH  23  24
ENDBRANCH  22  23
ENDBRANCH  21  22
ENDBRANCH  20  21
ENDBRANCH  19  20
ENDBRANCH  18  19
ENDBRANCH  17  18
ENDBRANCH  16  17
ENDBRANCH  15  16
ENDBRANCH   1  15
TORSDOF 22
ENDMDL
