MODEL 1
REMARK VINA RESULT:    -4.687      0.000      0.000
REMARK INTER + INTRA:         -16.964
REMARK INTER:                 -11.811
REMARK INTRA:                  -5.153
REMARK UNBOUND:                -5.153
REMARK SMILES CCCCCCCCCCCCCCCCCCCCCCCCCCCC(=O)[O-]
REMARK SMILES IDX 15 1 16 2 17 3 18 4 19 5 20 6 21 7 22 8 23 9 24 10 25 11
REMARK SMILES IDX 26 12 27 13 28 14 29 15 30 16 14 17 13 18 12 19 11 20 10 21
REMARK SMILES IDX 9 22 8 23 7 24 6 25 5 26 4 27 3 28 2 29 1 30
REMARK H PARENT
REMARK Flexibility Score: inf
ROOT
ATOM      1  C   UNL     1      30.979  -6.497  11.319  1.00  0.00     0.000 C 
ENDROOT
BRANCH   1   2
ATOM      2  C   UNL     1      32.511  -6.355  11.356  1.00  0.00     0.000 C 
BRANCH   2   3
ATOM      3  C   UNL     1      33.100  -5.932  10.001  1.00  0.00     0.000 C 
BRANCH   3   4
ATOM      4  C   UNL     1      32.142  -6.197   8.830  1.00  0.00     0.000 C 
BRANCH   4   5
ATOM      5  C   UNL     1      32.893  -6.796   7.632  1.00  0.00     0.000 C 
BRANCH   5   6
ATOM      6  C   UNL     1      32.981  -8.333   7.688  1.00  0.00     0.000 C 
BRANCH   6   7
ATOM      7  C   UNL     1      31.803  -9.032   8.397  1.00  0.00     0.000 C 
BRANCH   7   8
ATOM      8  C   UNL     1      32.183  -9.855   9.641  1.00  0.00     0.000 C 
BRANCH   8   9
ATOM      9  C   UNL     1      33.689 -10.146   9.726  1.00  0.00     0.000 C 
BRANCH   9  10
ATOM     10  C   UNL     1      34.271  -9.656  11.060  1.00  0.00     0.000 C 
BRANCH  10  11
ATOM     11  C   UNL     1      35.510  -8.756  10.860  1.00  0.00     0.000 C 
BRANCH  11  12
ATOM     12  C   UNL     1      35.826  -7.872  12.080  1.00  0.00     0.006 C 
BRANCH  12  13
ATOM     13  C   UNL     1      34.960  -8.177  13.313  1.00  0.00     0.053 C 
BRANCH  13  14
ATOM     14  C   UNL     1      35.703  -8.971  14.343  1.00  0.00     0.041 C 
ATOM     15  O   UNL     1      35.074  -9.694  15.160  1.00  0.00    -0.550 OA
ATOM     16  O   UNL     1      37.092  -8.933  14.387  1.00  0.00    -0.550 OA
ENDBRANCH  13  14
ENDBRANCH  12  13
ENDBRANCH  11  12
ENDBRANCH  10  11
ENDBRANCH   9  10
ENDBRANCH   8   9
ENDBRANCH   7   8
ENDBRANCH   6   7
ENDBRANCH   5   6
ENDBRANCH   4   5
ENDBRANCH   3   4
ENDBRANCH   2   3
ENDBRANCH   1   2
BRANCH   1  17
ATOM     17  C   UNL     1      30.428  -7.285  12.517  1.00  0.00     0.000 C 
BRANCH  17  18
ATOM     18  C   UNL     1      31.340  -8.456  12.927  1.00  0.00     0.000 C 
BRANCH  18  19
ATOM     19  C   UNL     1      30.628  -9.824  12.849  1.00  0.00     0.000 C 
BRANCH  19  20
ATOM     20  C   UNL     1      31.008 -10.794  13.984  1.00  0.00     0.000 C 
BRANCH  20  21
ATOM     21  C   UNL     1      31.501 -10.126  15.281  1.00  0.00     0.000 C 
BRANCH  21  22
ATOM     22  C   UNL     1      30.449 -10.026  16.405  1.00  0.00    -0.000 C 
BRANCH  22  23
ATOM     23  C   UNL     1      29.635  -8.718  16.419  1.00  0.00    -0.000 C 
BRANCH  23  24
ATOM     24  C   UNL     1      28.363  -8.735  15.548  1.00  0.00    -0.000 C 
BRANCH  24  25
ATOM     25  C   UNL     1      27.510 -10.014  15.669  1.00  0.00    -0.000 C 
BRANCH  25  26
ATOM     26  C   UNL     1      27.255 -10.758  14.341  1.00  0.00    -0.000 C 
BRANCH  26  27
ATOM     27  C   UNL     1      27.268 -12.294  14.446  1.00  0.00    -0.000 C 
BRANCH  27  28
ATOM     28  C   UNL     1      27.348 -12.790  15.901  1.00  0.00    -0.000 C 
BRANCH  28  29
ATOM     29  C   UNL     1      28.645 -13.558  16.189  1.00  0.00    -0.003 C 
ATOM     30  C   UNL     1      28.755 -14.850  15.379  1.00  0.00     0.004 C 
ENDBRANCH  28  29
ENDBRANCH  27  28
ENDBRANCH  26  27
ENDBRANCH  25  26
ENDBRANCH  24  25
ENDBRANCH  23  24
ENDBRANCH  22  23
ENDBRANCH  21  22
ENDBRANCH  20  21
ENDBRANCH  19  20
ENDBRANCH  18  19
ENDBRANCH  17  18
ENDBRANCH   1  17
TORSDOF 26
ENDMDL
MODEL 2
REMARK VINA RESULT:    -4.683      2.840      7.910
REMARK INTER + INTRA:         -16.953
REMARK INTER:                 -12.595
REMARK INTRA:                  -4.358
REMARK UNBOUND:                -5.153
REMARK SMILES CCCCCCCCCCCCCCCCCCCCCCCCCCCC(=O)[O-]
REMARK SMILES IDX 15 1 16 2 17 3 18 4 19 5 20 6 21 7 22 8 23 9 24 10 25 11
REMARK SMILES IDX 26 12 27 13 28 14 29 15 30 16 14 17 13 18 12 19 11 20 10 21
REMARK SMILES IDX 9 22 8 23 7 24 6 25 5 26 4 27 3 28 2 29 1 30
REMARK H PARENT
REMARK Flexibility Score: inf
ROOT
ATOM      1  C   UNL     1      29.716 -10.798  13.553  1.00  0.00     0.000 C 
ENDROOT
BRANCH   1   2
ATOM      2  C   UNL     1      28.177 -10.818  13.531  1.00  0.00     0.000 C 
BRANCH   2   3
ATOM      3  C   UNL     1      27.558 -10.205  14.798  1.00  0.00     0.000 C 
BRANCH   3   4
ATOM      4  C   UNL     1      28.377  -9.028  15.347  1.00  0.00     0.000 C 
BRANCH   4   5
ATOM      5  C   UNL     1      28.769  -9.268  16.812  1.00  0.00     0.000 C 
BRANCH   5   6
ATOM      6  C   UNL     1      29.987  -8.434  17.251  1.00  0.00     0.000 C 
BRANCH   6   7
ATOM      7  C   UNL     1      31.316  -9.213  17.344  1.00  0.00     0.000 C 
BRANCH   7   8
ATOM      8  C   UNL     1      31.854  -9.750  16.005  1.00  0.00     0.000 C 
BRANCH   8   9
ATOM      9  C   UNL     1      32.571 -11.100  16.150  1.00  0.00     0.000 C 
BRANCH   9  10
ATOM     10  C   UNL     1      31.698 -12.109  16.910  1.00  0.00     0.000 C 
BRANCH  10  11
ATOM     11  C   UNL     1      30.476 -12.563  16.081  1.00  0.00     0.000 C 
BRANCH  11  12
ATOM     12  C   UNL     1      29.265 -12.959  16.945  1.00  0.00     0.006 C 
BRANCH  12  13
ATOM     13  C   UNL     1      28.027 -13.372  16.132  1.00  0.00     0.053 C 
BRANCH  13  14
ATOM     14  C   UNL     1      28.339 -14.439  15.128  1.00  0.00     0.041 C 
ATOM     15  O   UNL     1      29.007 -15.451  15.467  1.00  0.00    -0.550 OA
ATOM     16  O   UNL     1      27.873 -14.329  13.824  1.00  0.00    -0.550 OA
ENDBRANCH  13  14
ENDBRANCH  12  13
ENDBRANCH  11  12
ENDBRANCH  10  11
ENDBRANCH   9  10
ENDBRANCH   8   9
ENDBRANCH   7   8
ENDBRANCH   6   7
ENDBRANCH   5   6
ENDBRANCH   4   5
ENDBRANCH   3   4
ENDBRANCH   2   3
ENDBRANCH   1   2
BRANCH   1  17
ATOM     17  C   UNL     1      30.323 -10.430  12.191  1.00  0.00     0.000 C 
BRANCH  17  18
ATOM     18  C   UNL     1      31.334  -9.272  12.286  1.00  0.00     0.000 C 
BRANCH  18  19
ATOM     19  C   UNL     1      30.730  -8.002  12.923  1.00  0.00     0.000 C 
BRANCH  19  20
ATOM     20  C   UNL     1      30.661  -6.794  11.969  1.00  0.00     0.000 C 
BRANCH  20  21
ATOM     21  C   UNL     1      31.079  -7.081  10.515  1.00  0.00     0.000 C 
BRANCH  21  22
ATOM     22  C   UNL     1      32.173  -6.150   9.954  1.00  0.00    -0.000 C 
BRANCH  22  23
ATOM     23  C   UNL     1      32.900  -5.290  11.007  1.00  0.00    -0.000 C 
BRANCH  23  24
ATOM     24  C   UNL     1      34.351  -5.717  11.305  1.00  0.00    -0.000 C 
BRANCH  24  25
ATOM     25  C   UNL     1      35.053  -6.476  10.161  1.00  0.00    -0.000 C 
BRANCH  25  26
ATOM     26  C   UNL     1      35.579  -7.878  10.532  1.00  0.00    -0.000 C 
BRANCH  26  27
ATOM     27  C   UNL     1      34.489  -8.909  10.878  1.00  0.00    -0.000 C 
BRANCH  27  28
ATOM     28  C   UNL     1      35.070 -10.248  11.365  1.00  0.00    -0.000 C 
BRANCH  28  29
ATOM     29  C   UNL     1      35.804 -10.116  12.707  1.00  0.00    -0.003 C 
ATOM     30  C   UNL     1      34.945  -9.455  13.785  1.00  0.00     0.004 C 
ENDBRANCH  28  29
ENDBRANCH  27  28
ENDBRANCH  26  27
ENDBRANCH  25  26
ENDBRANCH  24  25
ENDBRANCH  23  24
ENDBRANCH  22  23
ENDBRANCH  21  22
ENDBRANCH  20  21
ENDBRANCH  19  20
ENDBRANCH  18  19
ENDBRANCH  17  18
ENDBRANCH   1  17
TORSDOF 26
ENDMDL
MODEL 3
REMARK VINA RESULT:    -4.679      1.689      7.186
REMARK INTER + INTRA:         -16.945
REMARK INTER:                 -11.806
REMARK INTRA:                  -5.139
REMARK UNBOUND:                -5.153
REMARK SMILES CCCCCCCCCCCCCCCCCCCCCCCCCCCC(=O)[O-]
REMARK SMILES IDX 15 1 16 2 17 3 18 4 19 5 20 6 21 7 22 8 23 9 24 10 25 11
REMARK SMILES IDX 26 12 27 13 28 14 29 15 30 16 14 17 13 18 12 19 11 20 10 21
REMARK SMILES IDX 9 22 8 23 7 24 6 25 5 26 4 27 3 28 2 29 1 30
REMARK H PARENT
REMARK Flexibility Score: inf
ROOT
ATOM      1  C   UNL     1      30.692 -10.004  12.814  1.00  0.00     0.000 C 
ENDROOT
BRANCH   1   2
ATOM      2  C   UNL     1      29.503 -10.869  13.270  1.00  0.00     0.000 C 
BRANCH   2   3
ATOM      3  C   UNL     1      28.639 -10.175  14.334  1.00  0.00     0.000 C 
BRANCH   3   4
ATOM      4  C   UNL     1      27.214 -10.742  14.402  1.00  0.00     0.000 C 
BRANCH   4   5
ATOM      5  C   UNL     1      27.185 -12.208  13.947  1.00  0.00     0.000 C 
BRANCH   5   6
ATOM      6  C   UNL     1      27.014 -13.196  15.115  1.00  0.00     0.000 C 
BRANCH   6   7
ATOM      7  C   UNL     1      28.324 -13.815  15.647  1.00  0.00     0.000 C 
BRANCH   7   8
ATOM      8  C   UNL     1      29.075 -12.963  16.686  1.00  0.00     0.000 C 
BRANCH   8   9
ATOM      9  C   UNL     1      30.591 -12.926  16.443  1.00  0.00     0.000 C 
BRANCH   9  10
ATOM     10  C   UNL     1      31.134 -11.495  16.565  1.00  0.00     0.000 C 
BRANCH  10  11
ATOM     11  C   UNL     1      32.656 -11.470  16.830  1.00  0.00     0.000 C 
BRANCH  11  12
ATOM     12  C   UNL     1      33.469 -10.872  15.668  1.00  0.00     0.006 C 
BRANCH  12  13
ATOM     13  C   UNL     1      33.289 -11.614  14.334  1.00  0.00     0.053 C 
BRANCH  13  14
ATOM     14  C   UNL     1      34.505 -12.406  13.959  1.00  0.00     0.041 C 
ATOM     15  O   UNL     1      35.447 -12.547  14.781  1.00  0.00    -0.550 OA
ATOM     16  O   UNL     1      34.587 -13.008  12.709  1.00  0.00    -0.550 OA
ENDBRANCH  13  14
ENDBRANCH  12  13
ENDBRANCH  11  12
ENDBRANCH  10  11
ENDBRANCH   9  10
ENDBRANCH   8   9
ENDBRANCH   7   8
ENDBRANCH   6   7
ENDBRANCH   5   6
ENDBRANCH   4   5
ENDBRANCH   3   4
ENDBRANCH   2   3
ENDBRANCH   1   2
BRANCH   1  17
ATOM     17  C   UNL     1      30.795  -8.682  13.590  1.00  0.00     0.000 C 
BRANCH  17  18
ATOM     18  C   UNL     1      30.638  -7.447  12.682  1.00  0.00     0.000 C 
BRANCH  18  19
ATOM     19  C   UNL     1      30.981  -7.743  11.207  1.00  0.00     0.000 C 
BRANCH  19  20
ATOM     20  C   UNL     1      31.548  -6.533  10.440  1.00  0.00     0.000 C 
BRANCH  20  21
ATOM     21  C   UNL     1      32.089  -5.392  11.322  1.00  0.00     0.000 C 
BRANCH  21  22
ATOM     22  C   UNL     1      33.596  -5.102  11.164  1.00  0.00    -0.000 C 
BRANCH  22  23
ATOM     23  C   UNL     1      34.331  -6.007  10.156  1.00  0.00    -0.000 C 
BRANCH  23  24
ATOM     24  C   UNL     1      35.439  -6.890  10.763  1.00  0.00    -0.000 C 
BRANCH  24  25
ATOM     25  C   UNL     1      35.155  -7.399  12.191  1.00  0.00    -0.000 C 
BRANCH  25  26
ATOM     26  C   UNL     1      34.343  -8.710  12.268  1.00  0.00    -0.000 C 
BRANCH  26  27
ATOM     27  C   UNL     1      34.682  -9.748  11.184  1.00  0.00    -0.000 C 
BRANCH  27  28
ATOM     28  C   UNL     1      33.451 -10.183  10.371  1.00  0.00    -0.000 C 
BRANCH  28  29
ATOM     29  C   UNL     1      33.362  -9.473   9.013  1.00  0.00    -0.003 C 
ATOM     30  C   UNL     1      32.103  -9.850   8.234  1.00  0.00     0.004 C 
ENDBRANCH  28  29
ENDBRANCH  27  28
ENDBRANCH  26  27
ENDBRANCH  25  26
ENDBRANCH  24  25
ENDBRANCH  23  24
ENDBRANCH  22  23
ENDBRANCH  21  22
ENDBRANCH  20  21
ENDBRANCH  19  20
ENDBRANCH  18  19
ENDBRANCH  17  18
ENDBRANCH   1  17
TORSDOF 26
ENDMDL
MODEL 4
REMARK VINA RESULT:    -4.663      2.739      7.812
REMARK INTER + INTRA:         -16.904
REMARK INTER:                 -11.649
REMARK INTRA:                  -5.255
REMARK UNBOUND:                -5.153
REMARK SMILES CCCCCCCCCCCCCCCCCCCCCCCCCCCC(=O)[O-]
REMARK SMILES IDX 15 1 16 2 17 3 18 4 19 5 20 6 21 7 22 8 23 9 24 10 25 11
REMARK SMILES IDX 26 12 27 13 28 14 29 15 30 16 14 17 13 18 12 19 11 20 10 21
REMARK SMILES IDX 9 22 8 23 7 24 6 25 5 26 4 27 3 28 2 29 1 30
REMARK H PARENT
REMARK Flexibility Score: inf
ROOT
ATOM      1  C   UNL     1      31.587  -9.952  13.088  1.00  0.00     0.000 C 
ENDROOT
BRANCH   1   2
ATOM      2  C   UNL     1      30.177 -10.343  12.610  1.00  0.00     0.000 C 
BRANCH   2   3
ATOM      3  C   UNL     1      29.416 -11.192  13.641  1.00  0.00     0.000 C 
BRANCH   3   4
ATOM      4  C   UNL     1      28.039 -10.609  13.988  1.00  0.00     0.000 C 
BRANCH   4   5
ATOM      5  C   UNL     1      28.180  -9.279  14.743  1.00  0.00     0.000 C 
BRANCH   5   6
ATOM      6  C   UNL     1      28.804  -9.447  16.141  1.00  0.00     0.000 C 
BRANCH   6   7
ATOM      7  C   UNL     1      30.061  -8.592  16.405  1.00  0.00     0.000 C 
BRANCH   7   8
ATOM      8  C   UNL     1      31.051  -9.182  17.426  1.00  0.00     0.000 C 
BRANCH   8   9
ATOM      9  C   UNL     1      32.288  -9.807  16.764  1.00  0.00     0.000 C 
BRANCH   9  10
ATOM     10  C   UNL     1      32.371 -11.311  17.063  1.00  0.00     0.000 C 
BRANCH  10  11
ATOM     11  C   UNL     1      31.474 -12.143  16.120  1.00  0.00     0.000 C 
BRANCH  11  12
ATOM     12  C   UNL     1      30.563 -13.137  16.864  1.00  0.00     0.006 C 
BRANCH  12  13
ATOM     13  C   UNL     1      29.062 -12.856  16.693  1.00  0.00     0.053 C 
BRANCH  13  14
ATOM     14  C   UNL     1      28.382 -13.897  15.857  1.00  0.00     0.041 C 
ATOM     15  O   UNL     1      27.207 -13.710  15.444  1.00  0.00    -0.550 OA
ATOM     16  O   UNL     1      29.054 -15.064  15.513  1.00  0.00    -0.550 OA
ENDBRANCH  13  14
ENDBRANCH  12  13
ENDBRANCH  11  12
ENDBRANCH  10  11
ENDBRANCH   9  10
ENDBRANCH   8   9
ENDBRANCH   7   8
ENDBRANCH   6   7
ENDBRANCH   5   6
ENDBRANCH   4   5
ENDBRANCH   3   4
ENDBRANCH   2   3
ENDBRANCH   1   2
BRANCH   1  17
ATOM     17  C   UNL     1      31.789  -8.431  13.157  1.00  0.00     0.000 C 
BRANCH  17  18
ATOM     18  C   UNL     1      30.624  -7.648  12.523  1.00  0.00     0.000 C 
BRANCH  18  19
ATOM     19  C   UNL     1      31.104  -6.506  11.602  1.00  0.00     0.000 C 
BRANCH  19  20
ATOM     20  C   UNL     1      32.633  -6.311  11.590  1.00  0.00     0.000 C 
BRANCH  20  21
ATOM     21  C   UNL     1      33.245  -6.011  10.209  1.00  0.00     0.000 C 
BRANCH  21  22
ATOM     22  C   UNL     1      32.246  -6.027   9.034  1.00  0.00    -0.000 C 
BRANCH  22  23
ATOM     23  C   UNL     1      32.516  -7.101   7.962  1.00  0.00    -0.000 C 
BRANCH  23  24
ATOM     24  C   UNL     1      31.267  -7.861   7.474  1.00  0.00    -0.000 C 
BRANCH  24  25
ATOM     25  C   UNL     1      31.202  -9.343   7.895  1.00  0.00    -0.000 C 
BRANCH  25  26
ATOM     26  C   UNL     1      31.601  -9.625   9.359  1.00  0.00    -0.000 C 
BRANCH  26  27
ATOM     27  C   UNL     1      32.950 -10.345   9.536  1.00  0.00    -0.000 C 
BRANCH  27  28
ATOM     28  C   UNL     1      33.980  -9.498  10.303  1.00  0.00    -0.000 C 
BRANCH  28  29
ATOM     29  C   UNL     1      35.214  -9.162   9.454  1.00  0.00    -0.003 C 
ATOM     30  C   UNL     1      36.378  -8.633  10.292  1.00  0.00     0.004 C 
ENDBRANCH  28  29
ENDBRANCH  27  28
ENDBRANCH  26  27
ENDBRANCH  25  26
ENDBRANCH  24  25
ENDBRANCH  23  24
ENDBRANCH  22  23
ENDBRANCH  21  22
ENDBRANCH  20  21
ENDBRANCH  19  20
ENDBRANCH  18  19
ENDBRANCH  17  18
ENDBRANCH   1  17
TORSDOF 26
ENDMDL
MODEL 5
REMARK VINA RESULT:    -4.580      1.949      3.422
REMARK INTER + INTRA:         -16.695
REMARK INTER:                 -11.786
REMARK INTRA:                  -4.909
REMARK UNBOUND:                -5.153
REMARK SMILES CCCCCCCCCCCCCCCCCCCCCCCCCCCC(=O)[O-]
REMARK SMILES IDX 15 1 16 2 17 3 18 4 19 5 20 6 21 7 22 8 23 9 24 10 25 11
REMARK SMILES IDX 26 12 27 13 28 14 29 15 30 16 14 17 13 18 12 19 11 20 10 21
REMARK SMILES IDX 9 22 8 23 7 24 6 25 5 26 4 27 3 28 2 29 1 30
REMARK H PARENT
REMARK Flexibility Score: inf
ROOT
ATOM      1  C   UNL     1      31.827  -8.461  12.996  1.00  0.00     0.000 C 
ENDROOT
BRANCH   1   2
ATOM      2  C   UNL     1      30.545  -7.640  12.768  1.00  0.00     0.000 C 
BRANCH   2   3
ATOM      3  C   UNL     1      30.739  -6.507  11.748  1.00  0.00     0.000 C 
BRANCH   3   4
ATOM      4  C   UNL     1      31.201  -7.019  10.376  1.00  0.00     0.000 C 
BRANCH   4   5
ATOM      5  C   UNL     1      32.386  -6.194   9.854  1.00  0.00     0.000 C 
BRANCH   5   6
ATOM      6  C   UNL     1      33.058  -5.348  10.951  1.00  0.00     0.000 C 
BRANCH   6   7
ATOM      7  C   UNL     1      34.476  -5.805  11.355  1.00  0.00     0.000 C 
BRANCH   7   8
ATOM      8  C   UNL     1      34.722  -7.323  11.275  1.00  0.00     0.000 C 
BRANCH   8   9
ATOM      9  C   UNL     1      35.623  -7.718  10.096  1.00  0.00     0.000 C 
BRANCH   9  10
ATOM     10  C   UNL     1      35.210  -9.080   9.519  1.00  0.00     0.000 C 
BRANCH  10  11
ATOM     11  C   UNL     1      33.896  -9.603  10.142  1.00  0.00     0.000 C 
BRANCH  11  12
ATOM     12  C   UNL     1      34.016 -11.027  10.715  1.00  0.00     0.006 C 
BRANCH  12  13
ATOM     13  C   UNL     1      34.893 -11.966   9.871  1.00  0.00     0.053 C 
BRANCH  13  14
ATOM     14  C   UNL     1      35.937 -12.657  10.695  1.00  0.00     0.041 C 
ATOM     15  O   UNL     1      36.097 -12.345  11.904  1.00  0.00    -0.550 OA
ATOM     16  O   UNL     1      36.716 -13.662  10.135  1.00  0.00    -0.550 OA
ENDBRANCH  13  14
ENDBRANCH  12  13
ENDBRANCH  11  12
ENDBRANCH  10  11
ENDBRANCH   9  10
ENDBRANCH   8   9
ENDBRANCH   7   8
ENDBRANCH   6   7
ENDBRANCH   5   6
ENDBRANCH   4   5
ENDBRANCH   3   4
ENDBRANCH   2   3
ENDBRANCH   1   2
BRANCH   1  17
ATOM     17  C   UNL     1      31.552  -9.966  13.123  1.00  0.00     0.000 C 
BRANCH  17  18
ATOM     18  C   UNL     1      30.224 -10.385  12.465  1.00  0.00     0.000 C 
BRANCH  18  19
ATOM     19  C   UNL     1      29.368 -11.294  13.374  1.00  0.00     0.000 C 
BRANCH  19  20
ATOM     20  C   UNL     1      27.942 -10.767  13.622  1.00  0.00     0.000 C 
BRANCH  20  21
ATOM     21  C   UNL     1      27.678 -10.231  15.041  1.00  0.00     0.000 C 
BRANCH  21  22
ATOM     22  C   UNL     1      28.327  -8.867  15.355  1.00  0.00    -0.000 C 
BRANCH  22  23
ATOM     23  C   UNL     1      29.652  -8.940  16.137  1.00  0.00    -0.000 C 
BRANCH  23  24
ATOM     24  C   UNL     1      29.847 -10.225  16.967  1.00  0.00    -0.000 C 
BRANCH  24  25
ATOM     25  C   UNL     1      30.980 -11.149  16.478  1.00  0.00    -0.000 C 
BRANCH  25  26
ATOM     26  C   UNL     1      30.688 -12.660  16.593  1.00  0.00    -0.000 C 
BRANCH  26  27
ATOM     27  C   UNL     1      29.194 -13.030  16.632  1.00  0.00    -0.000 C 
BRANCH  27  28
ATOM     28  C   UNL     1      28.834 -14.150  15.641  1.00  0.00    -0.000 C 
BRANCH  28  29
ATOM     29  C   UNL     1      27.383 -14.055  15.150  1.00  0.00    -0.003 C 
ATOM     30  C   UNL     1      27.245 -14.361  13.659  1.00  0.00     0.004 C 
ENDBRANCH  28  29
ENDBRANCH  27  28
ENDBRANCH  26  27
ENDBRANCH  25  26
ENDBRANCH  24  25
ENDBRANCH  23  24
ENDBRANCH  22  23
ENDBRANCH  21  22
ENDBRANCH  20  21
ENDBRANCH  19  20
ENDBRANCH  18  19
ENDBRANCH  17  18
ENDBRANCH   1  17
TORSDOF 26
ENDMDL
MODEL 6
REMARK VINA RESULT:    -4.517      2.060      3.059
REMARK INTER + INTRA:         -16.536
REMARK INTER:                 -12.710
REMARK INTRA:                  -3.826
REMARK UNBOUND:                -5.153
REMARK SMILES CCCCCCCCCCCCCCCCCCCCCCCCCCCC(=O)[O-]
REMARK SMILES IDX 15 1 16 2 17 3 18 4 19 5 20 6 21 7 22 8 23 9 24 10 25 11
REMARK SMILES IDX 26 12 27 13 28 14 29 15 30 16 14 17 13 18 12 19 11 20 10 21
REMARK SMILES IDX 9 22 8 23 7 24 6 25 5 26 4 27 3 28 2 29 1 30
REMARK H PARENT
REMARK Flexibility Score: inf
ROOT
ATOM      1  C   UNL     1      30.627  -7.842  12.794  1.00  0.00     0.000 C 
ENDROOT
BRANCH   1   2
ATOM      2  C   UNL     1      30.636  -6.660  11.808  1.00  0.00     0.000 C 
BRANCH   2   3
ATOM      3  C   UNL     1      31.145  -7.057  10.413  1.00  0.00     0.000 C 
BRANCH   3   4
ATOM      4  C   UNL     1      32.245  -6.120   9.895  1.00  0.00     0.000 C 
BRANCH   4   5
ATOM      5  C   UNL     1      32.843  -5.290  11.041  1.00  0.00     0.000 C 
BRANCH   5   6
ATOM      6  C   UNL     1      34.259  -5.746  11.436  1.00  0.00     0.000 C 
BRANCH   6   7
ATOM      7  C   UNL     1      34.324  -7.057  12.246  1.00  0.00     0.000 C 
BRANCH   7   8
ATOM      8  C   UNL     1      34.851  -8.279  11.472  1.00  0.00     0.000 C 
BRANCH   8   9
ATOM      9  C   UNL     1      35.725  -9.200  12.336  1.00  0.00     0.000 C 
BRANCH   9  10
ATOM     10  C   UNL     1      37.194  -8.756  12.302  1.00  0.00     0.000 C 
BRANCH  10  11
ATOM     11  C   UNL     1      37.492  -7.814  11.114  1.00  0.00     0.000 C 
BRANCH  11  12
ATOM     12  C   UNL     1      38.261  -6.543  11.520  1.00  0.00     0.006 C 
BRANCH  12  13
ATOM     13  C   UNL     1      39.780  -6.640  11.309  1.00  0.00     0.053 C 
BRANCH  13  14
ATOM     14  C   UNL     1      40.525  -6.770  12.602  1.00  0.00     0.041 C 
ATOM     15  O   UNL     1      40.470  -7.843  13.259  1.00  0.00    -0.550 OA
ATOM     16  O   UNL     1      41.298  -5.715  13.072  1.00  0.00    -0.550 OA
ENDBRANCH  13  14
ENDBRANCH  12  13
ENDBRANCH  11  12
ENDBRANCH  10  11
ENDBRANCH   9  10
ENDBRANCH   8   9
ENDBRANCH   7   8
ENDBRANCH   6   7
ENDBRANCH   5   6
ENDBRANCH   4   5
ENDBRANCH   3   4
ENDBRANCH   2   3
ENDBRANCH   1   2
BRANCH   1  17
ATOM     17  C   UNL     1      31.193  -9.131  12.181  1.00  0.00     0.000 C 
BRANCH  17  18
ATOM     18  C   UNL     1      31.381 -10.251  13.221  1.00  0.00     0.000 C 
BRANCH  18  19
ATOM     19  C   UNL     1      32.413  -9.887  14.311  1.00  0.00     0.000 C 
BRANCH  19  20
ATOM     20  C   UNL     1      32.275 -10.713  15.604  1.00  0.00     0.000 C 
BRANCH  20  21
ATOM     21  C   UNL     1      31.070 -11.670  15.646  1.00  0.00     0.000 C 
BRANCH  21  22
ATOM     22  C   UNL     1      29.889 -11.196  16.519  1.00  0.00    -0.000 C 
BRANCH  22  23
ATOM     23  C   UNL     1      29.662  -9.672  16.535  1.00  0.00    -0.000 C 
BRANCH  23  24
ATOM     24  C   UNL     1      28.366  -9.201  15.845  1.00  0.00    -0.000 C 
BRANCH  24  25
ATOM     25  C   UNL     1      27.396 -10.332  15.444  1.00  0.00    -0.000 C 
BRANCH  25  26
ATOM     26  C   UNL     1      27.516 -10.807  13.981  1.00  0.00    -0.000 C 
BRANCH  26  27
ATOM     27  C   UNL     1      26.894 -12.186  13.694  1.00  0.00    -0.000 C 
BRANCH  27  28
ATOM     28  C   UNL     1      26.934 -13.121  14.915  1.00  0.00    -0.000 C 
BRANCH  28  29
ATOM     29  C   UNL     1      27.491 -14.510  14.573  1.00  0.00    -0.003 C 
ATOM     30  C   UNL     1      28.756 -14.847  15.362  1.00  0.00     0.004 C 
ENDBRANCH  28  29
ENDBRANCH  27  28
ENDBRANCH  26  27
ENDBRANCH  25  26
ENDBRANCH  24  25
ENDBRANCH  23  24
ENDBRANCH  22  23
ENDBRANCH  21  22
ENDBRANCH  20  21
ENDBRANCH  19  20
ENDBRANCH  18  19
ENDBRANCH  17  18
ENDBRANCH   1  17
TORSDOF 26
ENDMDL
MODEL 7
REMARK VINA RESULT:    -4.514      2.339      7.357
REMARK INTER + INTRA:         -16.527
REMARK INTER:                 -11.783
REMARK INTRA:                  -4.744
REMARK UNBOUND:                -5.153
REMARK SMILES CCCCCCCCCCCCCCCCCCCCCCCCCCCC(=O)[O-]
REMARK SMILES IDX 15 1 16 2 17 3 18 4 19 5 20 6 21 7 22 8 23 9 24 10 25 11
REMARK SMILES IDX 26 12 27 13 28 14 29 15 30 16 14 17 13 18 12 19 11 20 10 21
REMARK SMILES IDX 9 22 8 23 7 24 6 25 5 26 4 27 3 28 2 29 1 30
REMARK H PARENT
REMARK Flexibility Score: inf
ROOT
ATOM      1  C   UNL     1      30.791  -8.788  13.321  1.00  0.00     0.000 C 
ENDROOT
BRANCH   1   2
ATOM      2  C   UNL     1      30.722 -10.213  12.742  1.00  0.00     0.000 C 
BRANCH   2   3
ATOM      3  C   UNL     1      29.417 -10.938  13.109  1.00  0.00     0.000 C 
BRANCH   3   4
ATOM      4  C   UNL     1      28.591 -10.179  14.156  1.00  0.00     0.000 C 
BRANCH   4   5
ATOM      5  C   UNL     1      27.242 -10.871  14.398  1.00  0.00     0.000 C 
BRANCH   5   6
ATOM      6  C   UNL     1      27.257 -12.363  14.015  1.00  0.00     0.000 C 
BRANCH   6   7
ATOM      7  C   UNL     1      27.176 -13.345  15.202  1.00  0.00     0.000 C 
BRANCH   7   8
ATOM      8  C   UNL     1      28.534 -13.789  15.777  1.00  0.00     0.000 C 
BRANCH   8   9
ATOM      9  C   UNL     1      29.178 -12.723  16.675  1.00  0.00     0.000 C 
BRANCH   9  10
ATOM     10  C   UNL     1      30.707 -12.858  16.682  1.00  0.00     0.000 C 
BRANCH  10  11
ATOM     11  C   UNL     1      31.404 -11.629  16.057  1.00  0.00     0.000 C 
BRANCH  11  12
ATOM     12  C   UNL     1      31.737 -10.529  17.081  1.00  0.00     0.006 C 
BRANCH  12  13
ATOM     13  C   UNL     1      31.159  -9.150  16.725  1.00  0.00     0.053 C 
BRANCH  13  14
ATOM     14  C   UNL     1      30.037  -8.754  17.636  1.00  0.00     0.041 C 
ATOM     15  O   UNL     1      28.842  -8.940  17.286  1.00  0.00    -0.550 OA
ATOM     16  O   UNL     1      30.311  -8.201  18.882  1.00  0.00    -0.550 OA
ENDBRANCH  13  14
ENDBRANCH  12  13
ENDBRANCH  11  12
ENDBRANCH  10  11
ENDBRANCH   9  10
ENDBRANCH   8   9
ENDBRANCH   7   8
ENDBRANCH   6   7
ENDBRANCH   5   6
ENDBRANCH   4   5
ENDBRANCH   3   4
ENDBRANCH   2   3
ENDBRANCH   1   2
BRANCH   1  17
ATOM     17  C   UNL     1      31.567  -7.818  12.418  1.00  0.00     0.000 C 
BRANCH  17  18
ATOM     18  C   UNL     1      30.655  -6.777  11.743  1.00  0.00     0.000 C 
BRANCH  18  19
ATOM     19  C   UNL     1      31.028  -6.524  10.266  1.00  0.00     0.000 C 
BRANCH  19  20
ATOM     20  C   UNL     1      32.172  -7.417   9.748  1.00  0.00     0.000 C 
BRANCH  20  21
ATOM     21  C   UNL     1      33.416  -6.662   9.242  1.00  0.00     0.000 C 
BRANCH  21  22
ATOM     22  C   UNL     1      33.999  -5.630  10.229  1.00  0.00    -0.000 C 
BRANCH  22  23
ATOM     23  C   UNL     1      34.841  -6.227  11.373  1.00  0.00    -0.000 C 
BRANCH  23  24
ATOM     24  C   UNL     1      36.133  -6.939  10.926  1.00  0.00    -0.000 C 
BRANCH  24  25
ATOM     25  C   UNL     1      36.294  -8.381  11.448  1.00  0.00    -0.000 C 
BRANCH  25  26
ATOM     26  C   UNL     1      34.972  -9.133  11.711  1.00  0.00    -0.000 C 
BRANCH  26  27
ATOM     27  C   UNL     1      35.131 -10.503  12.394  1.00  0.00    -0.000 C 
BRANCH  27  28
ATOM     28  C   UNL     1      34.237 -10.655  13.637  1.00  0.00    -0.000 C 
BRANCH  28  29
ATOM     29  C   UNL     1      34.257  -9.407  14.531  1.00  0.00    -0.003 C 
ATOM     30  C   UNL     1      35.518  -9.319  15.390  1.00  0.00     0.004 C 
ENDBRANCH  28  29
ENDBRANCH  27  28
ENDBRANCH  26  27
ENDBRANCH  25  26
ENDBRANCH  24  25
ENDBRANCH  23  24
ENDBRANCH  22  23
ENDBRANCH  21  22
ENDBRANCH  20  21
ENDBRANCH  19  20
ENDBRANCH  18  19
ENDBRANCH  17  18
ENDBRANCH   1  17
TORSDOF 26
ENDMDL
MODEL 8
REMARK VINA RESULT:    -4.435      2.194      3.640
REMARK INTER + INTRA:         -16.328
REMARK INTER:                 -11.835
REMARK INTRA:                  -4.493
REMARK UNBOUND:                -5.153
REMARK SMILES CCCCCCCCCCCCCCCCCCCCCCCCCCCC(=O)[O-]
REMARK SMILES IDX 15 1 16 2 17 3 18 4 19 5 20 6 21 7 22 8 23 9 24 10 25 11
REMARK SMILES IDX 26 12 27 13 28 14 29 15 30 16 14 17 13 18 12 19 11 20 10 21
REMARK SMILES IDX 9 22 8 23 7 24 6 25 5 26 4 27 3 28 2 29 1 30
REMARK H PARENT
REMARK Flexibility Score: inf
ROOT
ATOM      1  C   UNL     1      30.828  -7.865  12.878  1.00  0.00     0.000 C 
ENDROOT
BRANCH   1   2
ATOM      2  C   UNL     1      30.535  -6.728  11.882  1.00  0.00     0.000 C 
BRANCH   2   3
ATOM      3  C   UNL     1      31.731  -6.417  10.969  1.00  0.00     0.000 C 
BRANCH   3   4
ATOM      4  C   UNL     1      32.532  -5.194  11.437  1.00  0.00     0.000 C 
BRANCH   4   5
ATOM      5  C   UNL     1      33.920  -5.164  10.783  1.00  0.00     0.000 C 
BRANCH   5   6
ATOM      6  C   UNL     1      34.175  -6.370   9.861  1.00  0.00     0.000 C 
BRANCH   6   7
ATOM      7  C   UNL     1      35.314  -7.310  10.309  1.00  0.00     0.000 C 
BRANCH   7   8
ATOM      8  C   UNL     1      35.578  -7.339  11.826  1.00  0.00     0.000 C 
BRANCH   8   9
ATOM      9  C   UNL     1      34.904  -8.528  12.525  1.00  0.00     0.000 C 
BRANCH   9  10
ATOM     10  C   UNL     1      35.589  -8.842  13.863  1.00  0.00     0.000 C 
BRANCH  10  11
ATOM     11  C   UNL     1      35.833 -10.355  14.053  1.00  0.00     0.000 C 
BRANCH  11  12
ATOM     12  C   UNL     1      35.070 -11.229  13.041  1.00  0.00     0.006 C 
BRANCH  12  13
ATOM     13  C   UNL     1      35.980 -12.010  12.080  1.00  0.00     0.053 C 
BRANCH  13  14
ATOM     14  C   UNL     1      35.228 -13.052  11.310  1.00  0.00     0.041 C 
ATOM     15  O   UNL     1      34.868 -14.119  11.874  1.00  0.00    -0.550 OA
ATOM     16  O   UNL     1      34.903 -12.836   9.976  1.00  0.00    -0.550 OA
ENDBRANCH  13  14
ENDBRANCH  12  13
ENDBRANCH  11  12
ENDBRANCH  10  11
ENDBRANCH   9  10
ENDBRANCH   8   9
ENDBRANCH   7   8
ENDBRANCH   6   7
ENDBRANCH   5   6
ENDBRANCH   4   5
ENDBRANCH   3   4
ENDBRANCH   2   3
ENDBRANCH   1   2
BRANCH   1  17
ATOM     17  C   UNL     1      31.077  -9.212  12.183  1.00  0.00     0.000 C 
BRANCH  17  18
ATOM     18  C   UNL     1      31.638 -10.279  13.142  1.00  0.00     0.000 C 
BRANCH  18  19
ATOM     19  C   UNL     1      32.018  -9.702  14.522  1.00  0.00     0.000 C 
BRANCH  19  20
ATOM     20  C   UNL     1      31.832 -10.692  15.688  1.00  0.00     0.000 C 
BRANCH  20  21
ATOM     21  C   UNL     1      30.854 -11.850  15.415  1.00  0.00     0.000 C 
BRANCH  21  22
ATOM     22  C   UNL     1      30.604 -12.790  16.613  1.00  0.00    -0.000 C 
BRANCH  22  23
ATOM     23  C   UNL     1      29.122 -13.101  16.898  1.00  0.00    -0.000 C 
BRANCH  23  24
ATOM     24  C   UNL     1      28.375 -13.811  15.751  1.00  0.00    -0.000 C 
BRANCH  24  25
ATOM     25  C   UNL     1      27.121 -13.073  15.238  1.00  0.00    -0.000 C 
BRANCH  25  26
ATOM     26  C   UNL     1      27.264 -12.435  13.840  1.00  0.00    -0.000 C 
BRANCH  26  27
ATOM     27  C   UNL     1      27.448 -10.907  13.840  1.00  0.00    -0.000 C 
BRANCH  27  28
ATOM     28  C   UNL     1      27.415 -10.305  15.256  1.00  0.00    -0.000 C 
BRANCH  28  29
ATOM     29  C   UNL     1      28.384  -9.125  15.414  1.00  0.00    -0.003 C 
ATOM     30  C   UNL     1      28.883  -8.963  16.850  1.00  0.00     0.004 C 
ENDBRANCH  28  29
ENDBRANCH  27  28
ENDBRANCH  26  27
ENDBRANCH  25  26
ENDBRANCH  24  25
ENDBRANCH  23  24
ENDBRANCH  22  23
ENDBRANCH  21  22
ENDBRANCH  20  21
ENDBRANCH  19  20
ENDBRANCH  18  19
ENDBRANCH  17  18
ENDBRANCH   1  17
TORSDOF 26
ENDMDL
MODEL 9
REMARK VINA RESULT:    -4.425      2.143      3.225
REMARK INTER + INTRA:         -16.305
REMARK INTER:                 -11.480
REMARK INTRA:                  -4.825
REMARK UNBOUND:                -5.153
REMARK SMILES CCCCCCCCCCCCCCCCCCCCCCCCCCCC(=O)[O-]
REMARK SMILES IDX 15 1 16 2 17 3 18 4 19 5 20 6 21 7 22 8 23 9 24 10 25 11
REMARK SMILES IDX 26 12 27 13 28 14 29 15 30 16 14 17 13 18 12 19 11 20 10 21
REMARK SMILES IDX 9 22 8 23 7 24 6 25 5 26 4 27 3 28 2 29 1 30
REMARK H PARENT
REMARK Flexibility Score: inf
ROOT
ATOM      1  C   UNL     1      30.719  -6.375  11.708  1.00  0.00     0.000 C 
ENDROOT
BRANCH   1   2
ATOM      2  C   UNL     1      31.956  -5.521  11.375  1.00  0.00     0.000 C 
BRANCH   2   3
ATOM      3  C   UNL     1      32.828  -6.146  10.274  1.00  0.00     0.000 C 
BRANCH   3   4
ATOM      4  C   UNL     1      34.276  -5.637  10.304  1.00  0.00     0.000 C 
BRANCH   4   5
ATOM      5  C   UNL     1      35.230  -6.726  10.816  1.00  0.00     0.000 C 
BRANCH   5   6
ATOM      6  C   UNL     1      34.695  -8.151  10.580  1.00  0.00     0.000 C 
BRANCH   6   7
ATOM      7  C   UNL     1      34.403  -8.962  11.859  1.00  0.00     0.000 C 
BRANCH   7   8
ATOM      8  C   UNL     1      34.617  -8.200  13.180  1.00  0.00     0.000 C 
BRANCH   8   9
ATOM      9  C   UNL     1      35.696  -8.838  14.068  1.00  0.00     0.000 C 
BRANCH   9  10
ATOM     10  C   UNL     1      35.606 -10.370  14.029  1.00  0.00     0.000 C 
BRANCH  10  11
ATOM     11  C   UNL     1      35.900 -11.006  15.406  1.00  0.00     0.000 C 
BRANCH  11  12
ATOM     12  C   UNL     1      34.876 -12.082  15.812  1.00  0.00     0.006 C 
BRANCH  12  13
ATOM     13  C   UNL     1      34.728 -13.220  14.790  1.00  0.00     0.053 C 
BRANCH  13  14
ATOM     14  C   UNL     1      35.906 -14.145  14.799  1.00  0.00     0.041 C 
ATOM     15  O   UNL     1      36.983 -13.804  14.242  1.00  0.00    -0.550 OA
ATOM     16  O   UNL     1      35.824 -15.375  15.441  1.00  0.00    -0.550 OA
ENDBRANCH  13  14
ENDBRANCH  12  13
ENDBRANCH  11  12
ENDBRANCH  10  11
ENDBRANCH   9  10
ENDBRANCH   8   9
ENDBRANCH   7   8
ENDBRANCH   6   7
ENDBRANCH   5   6
ENDBRANCH   4   5
ENDBRANCH   3   4
ENDBRANCH   2   3
ENDBRANCH   1   2
BRANCH   1  17
ATOM     17  C   UNL     1      31.020  -7.881  11.704  1.00  0.00     0.000 C 
BRANCH  17  18
ATOM     18  C   UNL     1      30.883  -8.517  13.100  1.00  0.00     0.000 C 
BRANCH  18  19
ATOM     19  C   UNL     1      30.902 -10.060  13.057  1.00  0.00     0.000 C 
BRANCH  19  20
ATOM     20  C   UNL     1      31.775 -10.707  14.151  1.00  0.00     0.000 C 
BRANCH  20  21
ATOM     21  C   UNL     1      32.163  -9.777  15.315  1.00  0.00     0.000 C 
BRANCH  21  22
ATOM     22  C   UNL     1      31.294  -9.919  16.582  1.00  0.00    -0.000 C 
BRANCH  22  23
ATOM     23  C   UNL     1      30.543  -8.641  17.004  1.00  0.00    -0.000 C 
BRANCH  23  24
ATOM     24  C   UNL     1      29.006  -8.759  17.000  1.00  0.00    -0.000 C 
BRANCH  24  25
ATOM     25  C   UNL     1      28.377  -9.000  15.612  1.00  0.00    -0.000 C 
BRANCH  25  26
ATOM     26  C   UNL     1      27.412 -10.202  15.532  1.00  0.00    -0.000 C 
BRANCH  26  27
ATOM     27  C   UNL     1      27.509 -11.025  14.235  1.00  0.00    -0.000 C 
BRANCH  27  28
ATOM     28  C   UNL     1      28.306 -12.328  14.416  1.00  0.00    -0.000 C 
BRANCH  28  29
ATOM     29  C   UNL     1      28.108 -12.950  15.805  1.00  0.00    -0.003 C 
ATOM     30  C   UNL     1      29.397 -12.980  16.625  1.00  0.00     0.004 C 
ENDBRANCH  28  29
ENDBRANCH  27  28
ENDBRANCH  26  27
ENDBRANCH  25  26
ENDBRANCH  24  25
ENDBRANCH  23  24
ENDBRANCH  22  23
ENDBRANCH  21  22
ENDBRANCH  20  21
ENDBRANCH  19  20
ENDBRANCH  18  19
ENDBRANCH  17  18
ENDBRANCH   1  17
TORSDOF 26
ENDMDL
