MODEL 1
REMARK VINA RESULT:    -4.206      0.000      0.000
REMARK INTER + INTRA:          -8.428
REMARK INTER:                  -7.157
REMARK INTRA:                  -1.271
REMARK UNBOUND:                -1.271
REMARK SMILES CCCCCCCCCCCCCC(=O)[O-]
REMARK SMILES IDX 8 1 9 2 10 3 11 4 12 5 13 6 14 7 15 8 16 9 7 10 6 11 5 12
REMARK SMILES IDX 4 13 3 14 2 15 1 16
REMARK H PARENT
REMARK Flexibility Score: inf
ROOT
ATOM      1  C   UNL     1      27.280  -2.084  -8.444  1.00  0.00     0.000 C 
ENDROOT
BRANCH   1   2
ATOM      2  C   UNL     1      27.525  -2.877  -7.155  1.00  0.00     0.000 C 
BRANCH   2   3
ATOM      3  C   UNL     1      26.968  -4.303  -7.273  1.00  0.00     0.000 C 
BRANCH   3   4
ATOM      4  C   UNL     1      25.450  -4.327  -7.511  1.00  0.00     0.000 C 
BRANCH   4   5
ATOM      5  C   UNL     1      25.047  -5.243  -8.681  1.00  0.00     0.006 C 
BRANCH   5   6
ATOM      6  C   UNL     1      23.552  -5.141  -9.008  1.00  0.00     0.053 C 
BRANCH   6   7
ATOM      7  C   UNL     1      23.044  -6.383  -9.674  1.00  0.00     0.041 C 
ATOM      8  O   UNL     1      21.815  -6.659  -9.646  1.00  0.00    -0.550 OA
ATOM      9  O   UNL     1      23.921  -7.216 -10.357  1.00  0.00    -0.550 OA
ENDBRANCH   6   7
ENDBRANCH   5   6
ENDBRANCH   4   5
ENDBRANCH   3   4
ENDBRANCH   2   3
ENDBRANCH   1   2
BRANCH   1  10
ATOM     10  C   UNL     1      26.787  -0.666  -8.134  1.00  0.00     0.000 C 
BRANCH  10  11
ATOM     11  C   UNL     1      25.577  -0.302  -9.007  1.00  0.00    -0.000 C 
BRANCH  11  12
ATOM     12  C   UNL     1      24.483  -1.383  -8.990  1.00  0.00    -0.000 C 
BRANCH  12  13
ATOM     13  C   UNL     1      23.866  -1.696 -10.366  1.00  0.00    -0.000 C 
BRANCH  13  14
ATOM     14  C   UNL     1      24.759  -1.273 -11.556  1.00  0.00    -0.000 C 
BRANCH  14  15
ATOM     15  C   UNL     1      24.001  -0.488 -12.641  1.00  0.00    -0.003 C 
ATOM     16  C   UNL     1      24.782   0.732 -13.130  1.00  0.00     0.004 C 
ENDBRANCH  14  15
ENDBRANCH  13  14
ENDBRANCH  12  13
ENDBRANCH  11  12
ENDBRANCH  10  11
ENDBRANCH   1  10
TORSDOF 12
ENDMDL
MODEL 2
REMARK VINA RESULT:    -4.161      3.201      5.733
REMARK INTER + INTRA:          -8.352
REMARK INTER:                  -7.106
REMARK INTRA:                  -1.246
REMARK UNBOUND:                -1.271
REMARK SMILES CCCCCCCCCCCCCC(=O)[O-]
REMARK SMILES IDX 8 1 9 2 10 3 11 4 12 5 13 6 14 7 15 8 16 9 7 10 6 11 5 12
REMARK SMILES IDX 4 13 3 14 2 15 1 16
REMARK H PARENT
REMARK Flexibility Score: inf
ROOT
ATOM      1  C   UNL     1      26.796  -0.268  -7.947  1.00  0.00     0.000 C 
ENDROOT
BRANCH   1   2
ATOM      2  C   UNL     1      26.208  -0.987  -9.166  1.00  0.00     0.000 C 
BRANCH   2   3
ATOM      3  C   UNL     1      24.695  -1.194  -9.005  1.00  0.00     0.000 C 
BRANCH   3   4
ATOM      4  C   UNL     1      24.011  -1.603 -10.319  1.00  0.00     0.000 C 
BRANCH   4   5
ATOM      5  C   UNL     1      24.779  -1.121 -11.562  1.00  0.00     0.006 C 
BRANCH   5   6
ATOM      6  C   UNL     1      23.913  -0.242 -12.473  1.00  0.00     0.053 C 
BRANCH   6   7
ATOM      7  C   UNL     1      24.716   0.374 -13.577  1.00  0.00     0.041 C 
ATOM      8  O   UNL     1      24.847  -0.227 -14.677  1.00  0.00    -0.550 OA
ATOM      9  O   UNL     1      25.290   1.628 -13.405  1.00  0.00    -0.550 OA
ENDBRANCH   6   7
ENDBRANCH   5   6
ENDBRANCH   4   5
ENDBRANCH   3   4
ENDBRANCH   2   3
ENDBRANCH   1   2
BRANCH   1  10
ATOM     10  C   UNL     1      27.892  -1.111  -7.284  1.00  0.00     0.000 C 
BRANCH  10  11
ATOM     11  C   UNL     1      27.935  -2.524  -7.882  1.00  0.00    -0.000 C 
BRANCH  11  12
ATOM     12  C   UNL     1      28.128  -3.617  -6.817  1.00  0.00    -0.000 C 
BRANCH  12  13
ATOM     13  C   UNL     1      27.006  -4.671  -6.768  1.00  0.00    -0.000 C 
BRANCH  13  14
ATOM     14  C   UNL     1      25.716  -4.238  -7.502  1.00  0.00    -0.000 C 
BRANCH  14  15
ATOM     15  C   UNL     1      25.249  -5.247  -8.567  1.00  0.00    -0.003 C 
ATOM     16  C   UNL     1      23.789  -5.036  -8.969  1.00  0.00     0.004 C 
ENDBRANCH  14  15
ENDBRANCH  13  14
ENDBRANCH  12  13
ENDBRANCH  11  12
ENDBRANCH  10  11
ENDBRANCH   1  10
TORSDOF 12
ENDMDL
MODEL 3
REMARK VINA RESULT:    -4.137      3.786      6.358
REMARK INTER + INTRA:          -8.311
REMARK INTER:                  -7.096
REMARK INTRA:                  -1.215
REMARK UNBOUND:                -1.271
REMARK SMILES CCCCCCCCCCCCCC(=O)[O-]
REMARK SMILES IDX 8 1 9 2 10 3 11 4 12 5 13 6 14 7 15 8 16 9 7 10 6 11 5 12
REMARK SMILES IDX 4 13 3 14 2 15 1 16
REMARK H PARENT
REMARK Flexibility Score: inf
ROOT
ATOM      1  C   UNL     1      24.639  -3.038  -9.201  1.00  0.00     0.000 C 
ENDROOT
BRANCH   1   2
ATOM      2  C   UNL     1      24.135  -1.635  -9.556  1.00  0.00     0.000 C 
BRANCH   2   3
ATOM      3  C   UNL     1      25.301  -0.712  -9.938  1.00  0.00     0.000 C 
BRANCH   3   4
ATOM      4  C   UNL     1      25.569  -0.693 -11.451  1.00  0.00     0.000 C 
BRANCH   4   5
ATOM      5  C   UNL     1      24.303  -0.393 -12.274  1.00  0.00     0.006 C 
BRANCH   5   6
ATOM      6  C   UNL     1      24.566  -0.454 -13.784  1.00  0.00     0.053 C 
BRANCH   6   7
ATOM      7  C   UNL     1      25.032   0.865 -14.320  1.00  0.00     0.041 C 
ATOM      8  O   UNL     1      24.928   1.906 -13.619  1.00  0.00    -0.550 OA
ATOM      9  O   UNL     1      25.615   0.938 -15.580  1.00  0.00    -0.550 OA
ENDBRANCH   6   7
ENDBRANCH   5   6
ENDBRANCH   4   5
ENDBRANCH   3   4
ENDBRANCH   2   3
ENDBRANCH   1   2
BRANCH   1  10
ATOM     10  C   UNL     1      24.846  -3.184  -7.689  1.00  0.00     0.000 C 
BRANCH  10  11
ATOM     11  C   UNL     1      26.109  -4.002  -7.384  1.00  0.00    -0.000 C 
BRANCH  11  12
ATOM     12  C   UNL     1      27.144  -3.947  -8.521  1.00  0.00    -0.000 C 
BRANCH  12  13
ATOM     13  C   UNL     1      28.404  -3.121  -8.203  1.00  0.00    -0.000 C 
BRANCH  13  14
ATOM     14  C   UNL     1      28.565  -2.787  -6.702  1.00  0.00    -0.000 C 
BRANCH  14  15
ATOM     15  C   UNL     1      28.578  -1.277  -6.407  1.00  0.00    -0.003 C 
ATOM     16  C   UNL     1      27.795  -0.473  -7.446  1.00  0.00     0.004 C 
ENDBRANCH  14  15
ENDBRANCH  13  14
ENDBRANCH  12  13
ENDBRANCH  11  12
ENDBRANCH  10  11
ENDBRANCH   1  10
TORSDOF 12
ENDMDL
MODEL 4
REMARK VINA RESULT:    -4.110      3.246      5.732
REMARK INTER + INTRA:          -8.265
REMARK INTER:                  -6.738
REMARK INTRA:                  -1.527
REMARK UNBOUND:                -1.271
REMARK SMILES CCCCCCCCCCCCCC(=O)[O-]
REMARK SMILES IDX 8 1 9 2 10 3 11 4 12 5 13 6 14 7 15 8 16 9 7 10 6 11 5 12
REMARK SMILES IDX 4 13 3 14 2 15 1 16
REMARK H PARENT
REMARK Flexibility Score: inf
ROOT
ATOM      1  C   UNL     1      24.881  -2.807  -7.862  1.00  0.00     0.000 C 
ENDROOT
BRANCH   1   2
ATOM      2  C   UNL     1      24.498  -1.745  -8.899  1.00  0.00     0.000 C 
BRANCH   2   3
ATOM      3  C   UNL     1      25.728  -0.938  -9.340  1.00  0.00     0.000 C 
BRANCH   3   4
ATOM      4  C   UNL     1      25.954  -0.989 -10.860  1.00  0.00     0.000 C 
BRANCH   4   5
ATOM      5  C   UNL     1      24.706  -1.458 -11.629  1.00  0.00     0.006 C 
BRANCH   5   6
ATOM      6  C   UNL     1      23.918  -0.284 -12.224  1.00  0.00     0.053 C 
BRANCH   6   7
ATOM      7  C   UNL     1      24.550   0.227 -13.483  1.00  0.00     0.041 C 
ATOM      8  O   UNL     1      24.591   1.465 -13.713  1.00  0.00    -0.550 OA
ATOM      9  O   UNL     1      25.124  -0.661 -14.384  1.00  0.00    -0.550 OA
ENDBRANCH   6   7
ENDBRANCH   5   6
ENDBRANCH   4   5
ENDBRANCH   3   4
ENDBRANCH   2   3
ENDBRANCH   1   2
BRANCH   1  10
ATOM     10  C   UNL     1      26.381  -3.121  -7.922  1.00  0.00     0.000 C 
BRANCH  10  11
ATOM     11  C   UNL     1      26.626  -4.527  -8.489  1.00  0.00    -0.000 C 
BRANCH  11  12
ATOM     12  C   UNL     1      26.493  -4.584 -10.020  1.00  0.00    -0.000 C 
BRANCH  12  13
ATOM     13  C   UNL     1      25.338  -5.466 -10.532  1.00  0.00    -0.000 C 
BRANCH  13  14
ATOM     14  C   UNL     1      24.504  -6.113  -9.402  1.00  0.00    -0.000 C 
BRANCH  14  15
ATOM     15  C   UNL     1      23.039  -5.640  -9.373  1.00  0.00    -0.003 C 
ATOM     16  C   UNL     1      22.067  -6.725  -9.835  1.00  0.00     0.004 C 
ENDBRANCH  14  15
ENDBRANCH  13  14
ENDBRANCH  12  13
ENDBRANCH  11  12
ENDBRANCH  10  11
ENDBRANCH   1  10
TORSDOF 12
ENDMDL
MODEL 5
REMARK VINA RESULT:    -4.096      3.704      6.142
REMARK INTER + INTRA:          -8.241
REMARK INTER:                  -6.529
REMARK INTRA:                  -1.712
REMARK UNBOUND:                -1.271
REMARK SMILES CCCCCCCCCCCCCC(=O)[O-]
REMARK SMILES IDX 8 1 9 2 10 3 11 4 12 5 13 6 14 7 15 8 16 9 7 10 6 11 5 12
REMARK SMILES IDX 4 13 3 14 2 15 1 16
REMARK H PARENT
REMARK Flexibility Score: inf
ROOT
ATOM      1  C   UNL     1      25.624  -3.449 -11.654  1.00  0.00     0.000 C 
ENDROOT
BRANCH   1   2
ATOM      2  C   UNL     1      26.641  -2.372 -11.262  1.00  0.00     0.000 C 
BRANCH   2   3
ATOM      3  C   UNL     1      25.994  -0.979 -11.260  1.00  0.00     0.000 C 
BRANCH   3   4
ATOM      4  C   UNL     1      24.459  -1.040 -11.274  1.00  0.00     0.000 C 
BRANCH   4   5
ATOM      5  C   UNL     1      23.842  -0.196 -12.404  1.00  0.00     0.006 C 
BRANCH   5   6
ATOM      6  C   UNL     1      24.553  -0.417 -13.745  1.00  0.00     0.053 C 
BRANCH   6   7
ATOM      7  C   UNL     1      25.053   0.870 -14.327  1.00  0.00     0.041 C 
ATOM      8  O   UNL     1      25.268   1.861 -13.581  1.00  0.00    -0.550 OA
ATOM      9  O   UNL     1      25.317   0.963 -15.688  1.00  0.00    -0.550 OA
ENDBRANCH   6   7
ENDBRANCH   5   6
ENDBRANCH   4   5
ENDBRANCH   3   4
ENDBRANCH   2   3
ENDBRANCH   1   2
BRANCH   1  10
ATOM     10  C   UNL     1      25.482  -4.504 -10.550  1.00  0.00     0.000 C 
BRANCH  10  11
ATOM     11  C   UNL     1      24.211  -4.265  -9.722  1.00  0.00    -0.000 C 
BRANCH  11  12
ATOM     12  C   UNL     1      24.507  -4.040  -8.229  1.00  0.00    -0.000 C 
BRANCH  12  13
ATOM     13  C   UNL     1      25.292  -2.753  -7.916  1.00  0.00    -0.000 C 
BRANCH  13  14
ATOM     14  C   UNL     1      26.739  -3.009  -7.436  1.00  0.00    -0.000 C 
BRANCH  14  15
ATOM     15  C   UNL     1      27.699  -1.844  -7.732  1.00  0.00    -0.003 C 
ATOM     16  C   UNL     1      26.972  -0.503  -7.842  1.00  0.00     0.004 C 
ENDBRANCH  14  15
ENDBRANCH  13  14
ENDBRANCH  12  13
ENDBRANCH  11  12
ENDBRANCH  10  11
ENDBRANCH   1  10
TORSDOF 12
ENDMDL
MODEL 6
REMARK VINA RESULT:    -4.072      2.992      5.356
REMARK INTER + INTRA:          -8.200
REMARK INTER:                  -6.878
REMARK INTRA:                  -1.322
REMARK UNBOUND:                -1.271
REMARK SMILES CCCCCCCCCCCCCC(=O)[O-]
REMARK SMILES IDX 8 1 9 2 10 3 11 4 12 5 13 6 14 7 15 8 16 9 7 10 6 11 5 12
REMARK SMILES IDX 4 13 3 14 2 15 1 16
REMARK H PARENT
REMARK Flexibility Score: inf
ROOT
ATOM      1  C   UNL     1      27.963  -1.079  -7.283  1.00  0.00     0.000 C 
ENDROOT
BRANCH   1   2
ATOM      2  C   UNL     1      26.813  -0.346  -7.982  1.00  0.00     0.000 C 
BRANCH   2   3
ATOM      3  C   UNL     1      26.438  -1.040  -9.299  1.00  0.00     0.000 C 
BRANCH   3   4
ATOM      4  C   UNL     1      24.962  -0.838  -9.675  1.00  0.00     0.000 C 
BRANCH   4   5
ATOM      5  C   UNL     1      24.583  -1.545 -10.989  1.00  0.00     0.006 C 
BRANCH   5   6
ATOM      6  C   UNL     1      23.742  -0.648 -11.906  1.00  0.00     0.053 C 
BRANCH   6   7
ATOM      7  C   UNL     1      24.561  -0.062 -13.014  1.00  0.00     0.041 C 
ATOM      8  O   UNL     1      25.295   0.939 -12.798  1.00  0.00    -0.550 OA
ATOM      9  O   UNL     1      24.543  -0.642 -14.277  1.00  0.00    -0.550 OA
ENDBRANCH   6   7
ENDBRANCH   5   6
ENDBRANCH   4   5
ENDBRANCH   3   4
ENDBRANCH   2   3
ENDBRANCH   1   2
BRANCH   1  10
ATOM     10  C   UNL     1      28.140  -2.494  -7.845  1.00  0.00     0.000 C 
BRANCH  10  11
ATOM     11  C   UNL     1      28.157  -3.536  -6.717  1.00  0.00    -0.000 C 
BRANCH  11  12
ATOM     12  C   UNL     1      26.995  -4.539  -6.815  1.00  0.00    -0.000 C 
BRANCH  12  13
ATOM     13  C   UNL     1      25.712  -3.976  -7.455  1.00  0.00    -0.000 C 
BRANCH  13  14
ATOM     14  C   UNL     1      25.277  -4.726  -8.735  1.00  0.00    -0.000 C 
BRANCH  14  15
ATOM     15  C   UNL     1      23.777  -4.580  -9.050  1.00  0.00    -0.003 C 
ATOM     16  C   UNL     1      23.123  -5.917  -9.402  1.00  0.00     0.004 C 
ENDBRANCH  14  15
ENDBRANCH  13  14
ENDBRANCH  12  13
ENDBRANCH  11  12
ENDBRANCH  10  11
ENDBRANCH   1  10
TORSDOF 12
ENDMDL
MODEL 7
REMARK VINA RESULT:    -4.001      1.167      2.383
REMARK INTER + INTRA:          -8.080
REMARK INTER:                  -7.088
REMARK INTRA:                  -0.991
REMARK UNBOUND:                -1.271
REMARK SMILES CCCCCCCCCCCCCC(=O)[O-]
REMARK SMILES IDX 8 1 9 2 10 3 11 4 12 5 13 6 14 7 15 8 16 9 7 10 6 11 5 12
REMARK SMILES IDX 4 13 3 14 2 15 1 16
REMARK H PARENT
REMARK Flexibility Score: inf
ROOT
ATOM      1  C   UNL     1      25.497  -0.738  -9.399  1.00  0.00     0.000 C 
ENDROOT
BRANCH   1   2
ATOM      2  C   UNL     1      25.997  -1.640  -8.265  1.00  0.00     0.000 C 
BRANCH   2   3
ATOM      3  C   UNL     1      24.941  -2.691  -7.892  1.00  0.00     0.000 C 
BRANCH   3   4
ATOM      4  C   UNL     1      25.559  -4.061  -7.569  1.00  0.00     0.000 C 
BRANCH   4   5
ATOM      5  C   UNL     1      25.169  -5.143  -8.593  1.00  0.00     0.006 C 
BRANCH   5   6
ATOM      6  C   UNL     1      23.741  -4.954  -9.119  1.00  0.00     0.053 C 
BRANCH   6   7
ATOM      7  C   UNL     1      23.175  -6.231  -9.659  1.00  0.00     0.041 C 
ATOM      8  O   UNL     1      21.946  -6.479  -9.541  1.00  0.00    -0.550 OA
ATOM      9  O   UNL     1      23.998  -7.131 -10.325  1.00  0.00    -0.550 OA
ENDBRANCH   6   7
ENDBRANCH   5   6
ENDBRANCH   4   5
ENDBRANCH   3   4
ENDBRANCH   2   3
ENDBRANCH   1   2
BRANCH   1  10
ATOM     10  C   UNL     1      24.340  -1.397 -10.159  1.00  0.00     0.000 C 
BRANCH  10  11
ATOM     11  C   UNL     1      24.822  -1.981 -11.495  1.00  0.00    -0.000 C 
BRANCH  11  12
ATOM     12  C   UNL     1      25.309  -0.901 -12.477  1.00  0.00    -0.000 C 
BRANCH  12  13
ATOM     13  C   UNL     1      24.268   0.187 -12.801  1.00  0.00    -0.000 C 
BRANCH  13  14
ATOM     14  C   UNL     1      24.810   1.311 -13.714  1.00  0.00    -0.000 C 
BRANCH  14  15
ATOM     15  C   UNL     1      25.154   0.833 -15.137  1.00  0.00    -0.003 C 
ATOM     16  C   UNL     1      26.646   0.950 -15.447  1.00  0.00     0.004 C 
ENDBRANCH  14  15
ENDBRANCH  13  14
ENDBRANCH  12  13
ENDBRANCH  11  12
ENDBRANCH  10  11
ENDBRANCH   1  10
TORSDOF 12
ENDMDL
MODEL 8
REMARK VINA RESULT:    -3.990      3.312      6.384
REMARK INTER + INTRA:          -8.060
REMARK INTER:                  -6.757
REMARK INTRA:                  -1.304
REMARK UNBOUND:                -1.271
REMARK SMILES CCCCCCCCCCCCCC(=O)[O-]
REMARK SMILES IDX 8 1 9 2 10 3 11 4 12 5 13 6 14 7 15 8 16 9 7 10 6 11 5 12
REMARK SMILES IDX 4 13 3 14 2 15 1 16
REMARK H PARENT
REMARK Flexibility Score: inf
ROOT
ATOM      1  C   UNL     1      24.541  -1.373  -9.048  1.00  0.00     0.000 C 
ENDROOT
BRANCH   1   2
ATOM      2  C   UNL     1      24.141  -1.662 -10.499  1.00  0.00     0.000 C 
BRANCH   2   3
ATOM      3  C   UNL     1      24.917  -0.763 -11.472  1.00  0.00     0.000 C 
BRANCH   3   4
ATOM      4  C   UNL     1      23.998  -0.039 -12.469  1.00  0.00     0.000 C 
BRANCH   4   5
ATOM      5  C   UNL     1      24.769   0.910 -13.404  1.00  0.00     0.006 C 
BRANCH   5   6
ATOM      6  C   UNL     1      24.989   0.300 -14.794  1.00  0.00     0.053 C 
BRANCH   6   7
ATOM      7  C   UNL     1      26.423  -0.070 -15.018  1.00  0.00     0.041 C 
ATOM      8  O   UNL     1      27.210   0.747 -15.566  1.00  0.00    -0.550 OA
ATOM      9  O   UNL     1      26.899  -1.303 -14.588  1.00  0.00    -0.550 OA
ENDBRANCH   6   7
ENDBRANCH   5   6
ENDBRANCH   4   5
ENDBRANCH   3   4
ENDBRANCH   2   3
ENDBRANCH   1   2
BRANCH   1  10
ATOM     10  C   UNL     1      25.755  -0.439  -8.985  1.00  0.00     0.000 C 
BRANCH  10  11
ATOM     11  C   UNL     1      26.856  -1.028  -8.090  1.00  0.00    -0.000 C 
BRANCH  11  12
ATOM     12  C   UNL     1      27.183  -2.491  -8.434  1.00  0.00    -0.000 C 
BRANCH  12  13
ATOM     13  C   UNL     1      27.090  -3.466  -7.245  1.00  0.00    -0.000 C 
BRANCH  13  14
ATOM     14  C   UNL     1      25.893  -4.440  -7.335  1.00  0.00    -0.000 C 
BRANCH  14  15
ATOM     15  C   UNL     1      25.555  -4.865  -8.775  1.00  0.00    -0.003 C 
ATOM     16  C   UNL     1      24.057  -5.086  -8.982  1.00  0.00     0.004 C 
ENDBRANCH  14  15
ENDBRANCH  13  14
ENDBRANCH  12  13
ENDBRANCH  11  12
ENDBRANCH  10  11
ENDBRANCH   1  10
TORSDOF 12
ENDMDL
MODEL 9
REMARK VINA RESULT:    -3.973      3.242      4.521
REMARK INTER + INTRA:          -8.032
REMARK INTER:                  -6.909
REMARK INTRA:                  -1.123
REMARK UNBOUND:                -1.271
REMARK SMILES CCCCCCCCCCCCCC(=O)[O-]
REMARK SMILES IDX 8 1 9 2 10 3 11 4 12 5 13 6 14 7 15 8 16 9 7 10 6 11 5 12
REMARK SMILES IDX 4 13 3 14 2 15 1 16
REMARK H PARENT
REMARK Flexibility Score: inf
ROOT
ATOM      1  C   UNL     1      24.136  -3.149  -9.739  1.00  0.00     0.000 C 
ENDROOT
BRANCH   1   2
ATOM      2  C   UNL     1      24.450  -4.196  -8.664  1.00  0.00     0.000 C 
BRANCH   2   3
ATOM      3  C   UNL     1      25.222  -3.568  -7.494  1.00  0.00     0.000 C 
BRANCH   3   4
ATOM      4  C   UNL     1      26.427  -4.417  -7.059  1.00  0.00     0.000 C 
BRANCH   4   5
ATOM      5  C   UNL     1      27.732  -3.603  -6.992  1.00  0.00     0.006 C 
BRANCH   5   6
ATOM      6  C   UNL     1      27.795  -2.520  -8.077  1.00  0.00     0.053 C 
BRANCH   6   7
ATOM      7  C   UNL     1      28.105  -1.173  -7.499  1.00  0.00     0.041 C 
ATOM      8  O   UNL     1      27.280  -0.229  -7.617  1.00  0.00    -0.550 OA
ATOM      9  O   UNL     1      29.289  -0.970  -6.801  1.00  0.00    -0.550 OA
ENDBRANCH   6   7
ENDBRANCH   5   6
ENDBRANCH   4   5
ENDBRANCH   3   4
ENDBRANCH   2   3
ENDBRANCH   1   2
BRANCH   1  10
ATOM     10  C   UNL     1      24.346  -1.728  -9.204  1.00  0.00     0.000 C 
BRANCH  10  11
ATOM     11  C   UNL     1      25.087  -0.858 -10.229  1.00  0.00    -0.000 C 
BRANCH  11  12
ATOM     12  C   UNL     1      24.972  -1.400 -11.664  1.00  0.00    -0.000 C 
BRANCH  12  13
ATOM     13  C   UNL     1      24.156  -0.514 -12.623  1.00  0.00    -0.000 C 
BRANCH  13  14
ATOM     14  C   UNL     1      24.937   0.713 -13.150  1.00  0.00    -0.000 C 
BRANCH  14  15
ATOM     15  C   UNL     1      24.871   0.870 -14.680  1.00  0.00    -0.003 C 
ATOM     16  C   UNL     1      25.118  -0.449 -15.413  1.00  0.00     0.004 C 
ENDBRANCH  14  15
ENDBRANCH  13  14
ENDBRANCH  12  13
ENDBRANCH  11  12
ENDBRANCH  10  11
ENDBRANCH   1  10
TORSDOF 12
ENDMDL
