MODEL 1
REMARK VINA RESULT:    -2.941      0.000      0.000
REMARK INTER + INTRA:          -7.595
REMARK INTER:                  -6.380
REMARK INTRA:                  -1.215
REMARK UNBOUND:                -1.215
REMARK SMILES CCCCCCCCCCCCCCCCCCCCCC(=O)[O-]
REMARK SMILES IDX 12 1 11 2 10 3 9 4 8 5 7 6 6 7 5 8 4 9 3 10 2 11 1 12 13 13
REMARK SMILES IDX 14 14 15 15 16 16 17 17 18 18 19 19 20 20 21 21 22 22 23 23
REMARK SMILES IDX 24 24
REMARK H PARENT
REMARK Flexibility Score: inf
ROOT
ATOM      1  C   UNL     1      -1.843 -50.702   2.682  1.00  0.00     0.000 C 
ENDROOT
BRANCH   1   2
ATOM      2  C   UNL     1      -0.832 -51.412   3.601  1.00  0.00     0.000 C 
BRANCH   2   3
ATOM      3  C   UNL     1      -0.969 -50.999   5.077  1.00  0.00     0.000 C 
BRANCH   3   4
ATOM      4  C   UNL     1      -1.688 -52.064   5.922  1.00  0.00    -0.000 C 
BRANCH   4   5
ATOM      5  C   UNL     1      -3.151 -51.693   6.218  1.00  0.00    -0.000 C 
BRANCH   5   6
ATOM      6  C   UNL     1      -3.325 -50.996   7.580  1.00  0.00    -0.000 C 
BRANCH   6   7
ATOM      7  C   UNL     1      -2.846 -51.809   8.800  1.00  0.00    -0.000 C 
BRANCH   7   8
ATOM      8  C   UNL     1      -3.823 -51.841   9.990  1.00  0.00    -0.000 C 
BRANCH   8   9
ATOM      9  C   UNL     1      -4.968 -50.826   9.850  1.00  0.00    -0.000 C 
BRANCH   9  10
ATOM     10  C   UNL     1      -6.219 -51.492   9.257  1.00  0.00    -0.000 C 
BRANCH  10  11
ATOM     11  C   UNL     1      -7.426 -50.542   9.207  1.00  0.00    -0.003 C 
ATOM     12  C   UNL     1      -8.571 -50.989  10.116  1.00  0.00     0.004 C 
ENDBRANCH  10  11
ENDBRANCH   9  10
ENDBRANCH   8   9
ENDBRANCH   7   8
ENDBRANCH   6   7
ENDBRANCH   5   6
ENDBRANCH   4   5
ENDBRANCH   3   4
ENDBRANCH   2   3
ENDBRANCH   1   2
BRANCH   1  13
ATOM     13  C   UNL     1      -2.755 -51.636   1.864  1.00  0.00     0.000 C 
BRANCH  13  14
ATOM     14  C   UNL     1      -3.990 -52.107   2.652  1.00  0.00     0.000 C 
BRANCH  14  15
ATOM     15  C   UNL     1      -5.279 -52.111   1.809  1.00  0.00     0.000 C 
BRANCH  15  16
ATOM     16  C   UNL     1      -5.087 -51.796   0.314  1.00  0.00     0.000 C 
BRANCH  16  17
ATOM     17  C   UNL     1      -6.272 -51.024  -0.292  1.00  0.00     0.000 C 
BRANCH  17  18
ATOM     18  C   UNL     1      -7.427 -50.820   0.704  1.00  0.00     0.000 C 
BRANCH  18  19
ATOM     19  C   UNL     1      -8.192 -52.101   1.088  1.00  0.00     0.000 C 
BRANCH  19  20
ATOM     20  C   UNL     1      -9.095 -51.985   2.333  1.00  0.00     0.006 C 
BRANCH  20  21
ATOM     21  C   UNL     1      -8.321 -51.935   3.663  1.00  0.00     0.053 C 
BRANCH  21  22
ATOM     22  C   UNL     1      -8.458 -50.612   4.353  1.00  0.00     0.041 C 
ATOM     23  O   UNL     1      -8.020 -50.457   5.524  1.00  0.00    -0.550 OA
ATOM     24  O   UNL     1      -9.045 -49.539   3.693  1.00  0.00    -0.550 OA
ENDBRANCH  21  22
ENDBRANCH  20  21
ENDBRANCH  19  20
ENDBRANCH  18  19
ENDBRANCH  17  18
ENDBRANCH  16  17
ENDBRANCH  15  16
ENDBRANCH  14  15
ENDBRANCH  13  14
ENDBRANCH   1  13
TORSDOF 20
ENDMDL
MODEL 2
REMARK VINA RESULT:    -2.754      1.696      6.788
REMARK INTER + INTRA:          -7.189
REMARK INTER:                  -5.413
REMARK INTRA:                  -1.776
REMARK UNBOUND:                -1.215
REMARK SMILES CCCCCCCCCCCCCCCCCCCCCC(=O)[O-]
REMARK SMILES IDX 12 1 11 2 10 3 9 4 8 5 7 6 6 7 5 8 4 9 3 10 2 11 1 12 13 13
REMARK SMILES IDX 14 14 15 15 16 16 17 17 18 18 19 19 20 20 21 21 22 22 23 23
REMARK SMILES IDX 24 24
REMARK H PARENT
REMARK Flexibility Score: inf
ROOT
ATOM      1  C   UNL     1      -2.498 -51.241   3.534  1.00  0.00     0.000 C 
ENDROOT
BRANCH   1   2
ATOM      2  C   UNL     1      -2.624 -50.832   2.054  1.00  0.00     0.000 C 
BRANCH   2   3
ATOM      3  C   UNL     1      -2.726 -52.039   1.105  1.00  0.00     0.000 C 
BRANCH   3   4
ATOM      4  C   UNL     1      -2.884 -51.620  -0.367  1.00  0.00    -0.000 C 
BRANCH   4   5
ATOM      5  C   UNL     1      -4.300 -51.109  -0.685  1.00  0.00    -0.000 C 
BRANCH   5   6
ATOM      6  C   UNL     1      -5.396 -52.125  -0.316  1.00  0.00    -0.000 C 
BRANCH   6   7
ATOM      7  C   UNL     1      -6.025 -51.935   1.079  1.00  0.00    -0.000 C 
BRANCH   7   8
ATOM      8  C   UNL     1      -7.271 -51.030   1.119  1.00  0.00    -0.000 C 
BRANCH   8   9
ATOM      9  C   UNL     1      -8.576 -51.819   1.299  1.00  0.00    -0.000 C 
BRANCH   9  10
ATOM     10  C   UNL     1      -8.939 -51.943   2.787  1.00  0.00    -0.000 C 
BRANCH  10  11
ATOM     11  C   UNL     1      -8.119 -50.995   3.676  1.00  0.00    -0.003 C 
ATOM     12  C   UNL     1      -7.988 -51.496   5.114  1.00  0.00     0.004 C 
ENDBRANCH  10  11
ENDBRANCH   9  10
ENDBRANCH   8   9
ENDBRANCH   7   8
ENDBRANCH   6   7
ENDBRANCH   5   6
ENDBRANCH   4   5
ENDBRANCH   3   4
ENDBRANCH   2   3
ENDBRANCH   1   2
BRANCH   1  13
ATOM     13  C   UNL     1      -3.736 -51.935   4.132  1.00  0.00     0.000 C 
BRANCH  13  14
ATOM     14  C   UNL     1      -3.694 -52.011   5.668  1.00  0.00     0.000 C 
BRANCH  14  15
ATOM     15  C   UNL     1      -2.264 -51.940   6.237  1.00  0.00     0.000 C 
BRANCH  15  16
ATOM     16  C   UNL     1      -2.010 -50.794   7.234  1.00  0.00     0.000 C 
BRANCH  16  17
ATOM     17  C   UNL     1      -1.682 -51.295   8.651  1.00  0.00     0.000 C 
BRANCH  17  18
ATOM     18  C   UNL     1      -2.820 -52.122   9.275  1.00  0.00     0.000 C 
BRANCH  18  19
ATOM     19  C   UNL     1      -3.923 -51.298   9.966  1.00  0.00     0.000 C 
BRANCH  19  20
ATOM     20  C   UNL     1      -5.322 -51.945   9.983  1.00  0.00     0.006 C 
BRANCH  20  21
ATOM     21  C   UNL     1      -6.081 -51.827   8.648  1.00  0.00     0.053 C 
BRANCH  21  22
ATOM     22  C   UNL     1      -7.423 -51.178   8.810  1.00  0.00     0.041 C 
ATOM     23  O   UNL     1      -7.509 -49.934   8.988  1.00  0.00    -0.550 OA
ATOM     24  O   UNL     1      -8.581 -51.943   8.736  1.00  0.00    -0.550 OA
ENDBRANCH  21  22
ENDBRANCH  20  21
ENDBRANCH  19  20
ENDBRANCH  18  19
ENDBRANCH  17  18
ENDBRANCH  16  17
ENDBRANCH  15  16
ENDBRANCH  14  15
ENDBRANCH  13  14
ENDBRANCH   1  13
TORSDOF 20
ENDMDL
MODEL 3
REMARK VINA RESULT:    -1.521      2.038      4.905
REMARK INTER + INTRA:          -4.514
REMARK INTER:                  -2.804
REMARK INTRA:                  -1.710
REMARK UNBOUND:                -1.215
REMARK SMILES CCCCCCCCCCCCCCCCCCCCCC(=O)[O-]
REMARK SMILES IDX 12 1 11 2 10 3 9 4 8 5 7 6 6 7 5 8 4 9 3 10 2 11 1 12 13 13
REMARK SMILES IDX 14 14 15 15 16 16 17 17 18 18 19 19 20 20 21 21 22 22 23 23
REMARK SMILES IDX 24 24
REMARK H PARENT
REMARK Flexibility Score: inf
ROOT
ATOM      1  C   UNL     1      -5.024 -50.041   0.631  1.00  0.00     0.000 C 
ENDROOT
BRANCH   1   2
ATOM      2  C   UNL     1      -3.558 -49.817   0.215  1.00  0.00     0.000 C 
BRANCH   2   3
ATOM      3  C   UNL     1      -2.881 -51.095  -0.310  1.00  0.00     0.000 C 
BRANCH   3   4
ATOM      4  C   UNL     1      -1.374 -51.134  -0.003  1.00  0.00    -0.000 C 
BRANCH   4   5
ATOM      5  C   UNL     1      -1.071 -50.916   1.490  1.00  0.00    -0.000 C 
BRANCH   5   6
ATOM      6  C   UNL     1      -1.462 -52.125   2.359  1.00  0.00    -0.000 C 
BRANCH   6   7
ATOM      7  C   UNL     1      -2.908 -52.110   2.895  1.00  0.00    -0.000 C 
BRANCH   7   8
ATOM      8  C   UNL     1      -3.151 -51.181   4.099  1.00  0.00    -0.000 C 
BRANCH   8   9
ATOM      9  C   UNL     1      -3.472 -51.949   5.390  1.00  0.00    -0.000 C 
BRANCH   9  10
ATOM     10  C   UNL     1      -2.698 -51.364   6.581  1.00  0.00    -0.000 C 
BRANCH  10  11
ATOM     11  C   UNL     1      -3.075 -52.029   7.914  1.00  0.00    -0.003 C 
ATOM     12  C   UNL     1      -4.238 -51.330   8.617  1.00  0.00     0.004 C 
ENDBRANCH  10  11
ENDBRANCH   9  10
ENDBRANCH   8   9
ENDBRANCH   7   8
ENDBRANCH   6   7
ENDBRANCH   5   6
ENDBRANCH   4   5
ENDBRANCH   3   4
ENDBRANCH   2   3
ENDBRANCH   1   2
BRANCH   1  13
ATOM     13  C   UNL     1      -5.691 -51.297   0.039  1.00  0.00     0.000 C 
BRANCH  13  14
ATOM     14  C   UNL     1      -6.996 -51.676   0.759  1.00  0.00     0.000 C 
BRANCH  14  15
ATOM     15  C   UNL     1      -6.869 -51.650   2.294  1.00  0.00     0.000 C 
BRANCH  15  16
ATOM     16  C   UNL     1      -8.048 -51.000   3.040  1.00  0.00     0.000 C 
BRANCH  16  17
ATOM     17  C   UNL     1      -9.007 -52.032   3.658  1.00  0.00     0.000 C 
BRANCH  17  18
ATOM     18  C   UNL     1      -8.994 -52.017   5.197  1.00  0.00     0.000 C 
BRANCH  18  19
ATOM     19  C   UNL     1      -7.604 -51.830   5.836  1.00  0.00     0.000 C 
BRANCH  19  20
ATOM     20  C   UNL     1      -7.526 -52.124   7.348  1.00  0.00     0.006 C 
BRANCH  20  21
ATOM     21  C   UNL     1      -7.417 -50.863   8.225  1.00  0.00     0.053 C 
BRANCH  21  22
ATOM     22  C   UNL     1      -8.270 -50.948   9.454  1.00  0.00     0.041 C 
ATOM     23  O   UNL     1      -8.574 -52.070   9.940  1.00  0.00    -0.550 OA
ATOM     24  O   UNL     1      -8.707 -49.787  10.081  1.00  0.00    -0.550 OA
ENDBRANCH  21  22
ENDBRANCH  20  21
ENDBRANCH  19  20
ENDBRANCH  18  19
ENDBRANCH  17  18
ENDBRANCH  16  17
ENDBRANCH  15  16
ENDBRANCH  14  15
ENDBRANCH  13  14
ENDBRANCH   1  13
TORSDOF 20
ENDMDL
MODEL 4
REMARK VINA RESULT:    -1.412      1.918      4.417
REMARK INTER + INTRA:          -4.278
REMARK INTER:                  -4.497
REMARK INTRA:                   0.219
REMARK UNBOUND:                -1.215
REMARK SMILES CCCCCCCCCCCCCCCCCCCCCC(=O)[O-]
REMARK SMILES IDX 12 1 11 2 10 3 9 4 8 5 7 6 6 7 5 8 4 9 3 10 2 11 1 12 13 13
REMARK SMILES IDX 14 14 15 15 16 16 17 17 18 18 19 19 20 20 21 21 22 22 23 23
REMARK SMILES IDX 24 24
REMARK H PARENT
REMARK Flexibility Score: inf
ROOT
ATOM      1  C   UNL     1      -1.993 -51.357   6.597  1.00  0.00     0.000 C 
ENDROOT
BRANCH   1   2
ATOM      2  C   UNL     1      -2.958 -51.689   7.750  1.00  0.00     0.000 C 
BRANCH   2   3
ATOM      3  C   UNL     1      -3.300 -50.467   8.619  1.00  0.00     0.000 C 
BRANCH   3   4
ATOM      4  C   UNL     1      -4.445 -50.747   9.607  1.00  0.00    -0.000 C 
BRANCH   4   5
ATOM      5  C   UNL     1      -5.618 -49.765   9.443  1.00  0.00    -0.000 C 
BRANCH   5   6
ATOM      6  C   UNL     1      -6.982 -50.410   9.749  1.00  0.00    -0.000 C 
BRANCH   6   7
ATOM      7  C   UNL     1      -7.126 -51.881   9.309  1.00  0.00    -0.000 C 
BRANCH   7   8
ATOM      8  C   UNL     1      -7.836 -52.095   7.960  1.00  0.00    -0.000 C 
BRANCH   8   9
ATOM      9  C   UNL     1      -6.977 -51.672   6.760  1.00  0.00    -0.000 C 
BRANCH   9  10
ATOM     10  C   UNL     1      -7.623 -52.120   5.439  1.00  0.00    -0.000 C 
BRANCH  10  11
ATOM     11  C   UNL     1      -7.914 -50.944   4.495  1.00  0.00    -0.003 C 
ATOM     12  C   UNL     1      -9.123 -51.194   3.593  1.00  0.00     0.004 C 
ENDBRANCH  10  11
ENDBRANCH   9  10
ENDBRANCH   8   9
ENDBRANCH   7   8
ENDBRANCH   6   7
ENDBRANCH   5   6
ENDBRANCH   4   5
ENDBRANCH   3   4
ENDBRANCH   2   3
ENDBRANCH   1   2
BRANCH   1  13
ATOM     13  C   UNL     1      -2.561 -51.571   5.182  1.00  0.00     0.000 C 
BRANCH  13  14
ATOM     14  C   UNL     1      -1.499 -52.054   4.178  1.00  0.00     0.000 C 
BRANCH  14  15
ATOM     15  C   UNL     1      -1.991 -52.021   2.718  1.00  0.00     0.000 C 
BRANCH  15  16
ATOM     16  C   UNL     1      -1.100 -51.229   1.743  1.00  0.00     0.000 C 
BRANCH  16  17
ATOM     17  C   UNL     1      -1.556 -51.356   0.279  1.00  0.00     0.000 C 
BRANCH  17  18
ATOM     18  C   UNL     1      -3.073 -51.161   0.104  1.00  0.00     0.000 C 
BRANCH  18  19
ATOM     19  C   UNL     1      -3.879 -51.099   1.415  1.00  0.00     0.000 C 
BRANCH  19  20
ATOM     20  C   UNL     1      -5.027 -52.121   1.535  1.00  0.00     0.006 C 
BRANCH  20  21
ATOM     21  C   UNL     1      -6.428 -51.483   1.590  1.00  0.00     0.053 C 
BRANCH  21  22
ATOM     22  C   UNL     1      -7.245 -51.796   0.374  1.00  0.00     0.041 C 
ATOM     23  O   UNL     1      -6.697 -51.872  -0.758  1.00  0.00    -0.550 OA
ATOM     24  O   UNL     1      -8.610 -52.034   0.493  1.00  0.00    -0.550 OA
ENDBRANCH  21  22
ENDBRANCH  20  21
ENDBRANCH  19  20
ENDBRANCH  18  19
ENDBRANCH  17  18
ENDBRANCH  16  17
ENDBRANCH  15  16
ENDBRANCH  14  15
ENDBRANCH  13  14
ENDBRANCH   1  13
TORSDOF 20
ENDMDL
MODEL 5
REMARK VINA RESULT:    -1.233      1.358      2.291
REMARK INTER + INTRA:          -3.889
REMARK INTER:                  -3.254
REMARK INTRA:                  -0.635
REMARK UNBOUND:                -1.215
REMARK SMILES CCCCCCCCCCCCCCCCCCCCCC(=O)[O-]
REMARK SMILES IDX 12 1 11 2 10 3 9 4 8 5 7 6 6 7 5 8 4 9 3 10 2 11 1 12 13 13
REMARK SMILES IDX 14 14 15 15 16 16 17 17 18 18 19 19 20 20 21 21 22 22 23 23
REMARK SMILES IDX 24 24
REMARK H PARENT
REMARK Flexibility Score: inf
ROOT
ATOM      1  C   UNL     1      -2.211 -51.814   4.089  1.00  0.00     0.000 C 
ENDROOT
BRANCH   1   2
ATOM      2  C   UNL     1      -1.619 -51.862   5.510  1.00  0.00     0.000 C 
BRANCH   2   3
ATOM      3  C   UNL     1      -1.553 -50.478   6.180  1.00  0.00     0.000 C 
BRANCH   3   4
ATOM      4  C   UNL     1      -2.933 -49.983   6.649  1.00  0.00    -0.000 C 
BRANCH   4   5
ATOM      5  C   UNL     1      -3.155 -50.199   8.155  1.00  0.00    -0.000 C 
BRANCH   5   6
ATOM      6  C   UNL     1      -2.921 -51.657   8.589  1.00  0.00    -0.000 C 
BRANCH   6   7
ATOM      7  C   UNL     1      -3.753 -52.125   9.801  1.00  0.00    -0.000 C 
BRANCH   7   8
ATOM      8  C   UNL     1      -5.038 -51.317  10.064  1.00  0.00    -0.000 C 
BRANCH   8   9
ATOM      9  C   UNL     1      -6.294 -51.991   9.493  1.00  0.00    -0.000 C 
BRANCH   9  10
ATOM     10  C   UNL     1      -7.567 -51.294   9.999  1.00  0.00    -0.000 C 
BRANCH  10  11
ATOM     11  C   UNL     1      -7.913 -50.036   9.187  1.00  0.00    -0.003 C 
ATOM     12  C   UNL     1      -8.922 -49.132   9.896  1.00  0.00     0.004 C 
ENDBRANCH  10  11
ENDBRANCH   9  10
ENDBRANCH   8   9
ENDBRANCH   7   8
ENDBRANCH   6   7
ENDBRANCH   5   6
ENDBRANCH   4   5
ENDBRANCH   3   4
ENDBRANCH   2   3
ENDBRANCH   1   2
BRANCH   1  13
ATOM     13  C   UNL     1      -1.236 -51.359   2.986  1.00  0.00     0.000 C 
BRANCH  13  14
ATOM     14  C   UNL     1      -1.953 -50.765   1.762  1.00  0.00     0.000 C 
BRANCH  14  15
ATOM     15  C   UNL     1      -1.532 -51.427   0.436  1.00  0.00     0.000 C 
BRANCH  15  16
ATOM     16  C   UNL     1      -2.504 -51.220  -0.740  1.00  0.00     0.000 C 
BRANCH  16  17
ATOM     17  C   UNL     1      -3.746 -52.125  -0.656  1.00  0.00     0.000 C 
BRANCH  17  18
ATOM     18  C   UNL     1      -4.590 -51.869   0.605  1.00  0.00     0.000 C 
BRANCH  18  19
ATOM     19  C   UNL     1      -5.891 -51.077   0.370  1.00  0.00     0.000 C 
BRANCH  19  20
ATOM     20  C   UNL     1      -7.160 -51.930   0.176  1.00  0.00     0.006 C 
BRANCH  20  21
ATOM     21  C   UNL     1      -8.276 -51.630   1.194  1.00  0.00     0.053 C 
BRANCH  21  22
ATOM     22  C   UNL     1      -7.737 -51.338   2.562  1.00  0.00     0.041 C 
ATOM     23  O   UNL     1      -6.915 -52.125   3.102  1.00  0.00    -0.550 OA
ATOM     24  O   UNL     1      -8.120 -50.181   3.230  1.00  0.00    -0.550 OA
ENDBRANCH  21  22
ENDBRANCH  20  21
ENDBRANCH  19  20
ENDBRANCH  18  19
ENDBRANCH  17  18
ENDBRANCH  16  17
ENDBRANCH  15  16
ENDBRANCH  14  15
ENDBRANCH  13  14
ENDBRANCH   1  13
TORSDOF 20
ENDMDL
MODEL 6
REMARK VINA RESULT:    -1.087      1.675      6.895
REMARK INTER + INTRA:          -3.573
REMARK INTER:                  -2.858
REMARK INTRA:                  -0.716
REMARK UNBOUND:                -1.215
REMARK SMILES CCCCCCCCCCCCCCCCCCCCCC(=O)[O-]
REMARK SMILES IDX 12 1 11 2 10 3 9 4 8 5 7 6 6 7 5 8 4 9 3 10 2 11 1 12 13 13
REMARK SMILES IDX 14 14 15 15 16 16 17 17 18 18 19 19 20 20 21 21 22 22 23 23
REMARK SMILES IDX 24 24
REMARK H PARENT
REMARK Flexibility Score: inf
ROOT
ATOM      1  C   UNL     1      -1.957 -51.917   2.257  1.00  0.00     0.000 C 
ENDROOT
BRANCH   1   2
ATOM      2  C   UNL     1      -3.182 -50.992   2.384  1.00  0.00     0.000 C 
BRANCH   2   3
ATOM      3  C   UNL     1      -4.456 -51.596   1.771  1.00  0.00     0.000 C 
BRANCH   3   4
ATOM      4  C   UNL     1      -4.287 -51.944   0.282  1.00  0.00    -0.000 C 
BRANCH   4   5
ATOM      5  C   UNL     1      -5.074 -50.996  -0.638  1.00  0.00    -0.000 C 
BRANCH   5   6
ATOM      6  C   UNL     1      -6.542 -50.828  -0.206  1.00  0.00    -0.000 C 
BRANCH   6   7
ATOM      7  C   UNL     1      -7.377 -52.125  -0.199  1.00  0.00    -0.000 C 
BRANCH   7   8
ATOM      8  C   UNL     1      -8.580 -52.125   0.762  1.00  0.00    -0.000 C 
BRANCH   8   9
ATOM      9  C   UNL     1      -8.484 -51.033   1.838  1.00  0.00    -0.000 C 
BRANCH   9  10
ATOM     10  C   UNL     1      -9.018 -51.544   3.185  1.00  0.00    -0.000 C 
BRANCH  10  11
ATOM     11  C   UNL     1      -8.267 -50.944   4.383  1.00  0.00    -0.003 C 
ATOM     12  C   UNL     1      -7.743 -52.008   5.348  1.00  0.00     0.004 C 
ENDBRANCH  10  11
ENDBRANCH   9  10
ENDBRANCH   8   9
ENDBRANCH   7   8
ENDBRANCH   6   7
ENDBRANCH   5   6
ENDBRANCH   4   5
ENDBRANCH   3   4
ENDBRANCH   2   3
ENDBRANCH   1   2
BRANCH   1  13
ATOM     13  C   UNL     1      -0.798 -51.611   3.224  1.00  0.00     0.000 C 
BRANCH  13  14
ATOM     14  C   UNL     1      -1.125 -51.975   4.683  1.00  0.00     0.000 C 
BRANCH  14  15
ATOM     15  C   UNL     1      -2.569 -51.617   5.085  1.00  0.00     0.000 C 
BRANCH  15  16
ATOM     16  C   UNL     1      -3.009 -52.121   6.471  1.00  0.00     0.000 C 
BRANCH  16  17
ATOM     17  C   UNL     1      -2.562 -51.194   7.615  1.00  0.00     0.000 C 
BRANCH  17  18
ATOM     18  C   UNL     1      -2.015 -51.963   8.831  1.00  0.00     0.000 C 
BRANCH  18  19
ATOM     19  C   UNL     1      -2.853 -51.832  10.117  1.00  0.00     0.000 C 
BRANCH  19  20
ATOM     20  C   UNL     1      -4.375 -51.989   9.934  1.00  0.00     0.006 C 
BRANCH  20  21
ATOM     21  C   UNL     1      -5.117 -50.659   9.704  1.00  0.00     0.053 C 
BRANCH  21  22
ATOM     22  C   UNL     1      -6.514 -50.865   9.201  1.00  0.00     0.041 C 
ATOM     23  O   UNL     1      -7.313 -49.894   9.130  1.00  0.00    -0.550 OA
ATOM     24  O   UNL     1      -6.925 -52.124   8.782  1.00  0.00    -0.550 OA
ENDBRANCH  21  22
ENDBRANCH  20  21
ENDBRANCH  19  20
ENDBRANCH  18  19
ENDBRANCH  17  18
ENDBRANCH  16  17
ENDBRANCH  15  16
ENDBRANCH  14  15
ENDBRANCH  13  14
ENDBRANCH   1  13
TORSDOF 20
ENDMDL
MODEL 7
REMARK VINA RESULT:    -0.039      1.427      2.145
REMARK INTER + INTRA:          -1.300
REMARK INTER:                  -0.508
REMARK INTRA:                  -0.792
REMARK UNBOUND:                -1.215
REMARK SMILES CCCCCCCCCCCCCCCCCCCCCC(=O)[O-]
REMARK SMILES IDX 12 1 11 2 10 3 9 4 8 5 7 6 6 7 5 8 4 9 3 10 2 11 1 12 13 13
REMARK SMILES IDX 14 14 15 15 16 16 17 17 18 18 19 19 20 20 21 21 22 22 23 23
REMARK SMILES IDX 24 24
REMARK H PARENT
REMARK Flexibility Score: inf
ROOT
ATOM      1  C   UNL     1      -2.464 -50.019   0.836  1.00  0.00     0.000 C 
ENDROOT
BRANCH   1   2
ATOM      2  C   UNL     1      -2.036 -51.226   1.691  1.00  0.00     0.000 C 
BRANCH   2   3
ATOM      3  C   UNL     1      -2.148 -50.961   3.202  1.00  0.00     0.000 C 
BRANCH   3   4
ATOM      4  C   UNL     1      -0.933 -51.488   3.985  1.00  0.00    -0.000 C 
BRANCH   4   5
ATOM      5  C   UNL     1      -1.329 -52.125   5.328  1.00  0.00    -0.000 C 
BRANCH   5   6
ATOM      6  C   UNL     1      -1.494 -51.088   6.453  1.00  0.00    -0.000 C 
BRANCH   6   7
ATOM      7  C   UNL     1      -1.072 -51.567   7.857  1.00  0.00    -0.000 C 
BRANCH   7   8
ATOM      8  C   UNL     1      -2.231 -51.841   8.832  1.00  0.00    -0.000 C 
BRANCH   8   9
ATOM      9  C   UNL     1      -3.467 -50.975   8.549  1.00  0.00    -0.000 C 
BRANCH   9  10
ATOM     10  C   UNL     1      -4.726 -51.598   9.171  1.00  0.00    -0.000 C 
BRANCH  10  11
ATOM     11  C   UNL     1      -5.836 -50.565   9.418  1.00  0.00    -0.003 C 
ATOM     12  C   UNL     1      -7.213 -51.205   9.595  1.00  0.00     0.004 C 
ENDBRANCH  10  11
ENDBRANCH   9  10
ENDBRANCH   8   9
ENDBRANCH   7   8
ENDBRANCH   6   7
ENDBRANCH   5   6
ENDBRANCH   4   5
ENDBRANCH   3   4
ENDBRANCH   2   3
ENDBRANCH   1   2
BRANCH   1  13
ATOM     13  C   UNL     1      -3.759 -50.213   0.025  1.00  0.00     0.000 C 
BRANCH  13  14
ATOM     14  C   UNL     1      -4.128 -51.694  -0.167  1.00  0.00     0.000 C 
BRANCH  14  15
ATOM     15  C   UNL     1      -5.645 -51.926  -0.297  1.00  0.00     0.000 C 
BRANCH  15  16
ATOM     16  C   UNL     1      -6.489 -50.654  -0.504  1.00  0.00     0.000 C 
BRANCH  16  17
ATOM     17  C   UNL     1      -7.905 -50.773   0.084  1.00  0.00     0.000 C 
BRANCH  17  18
ATOM     18  C   UNL     1      -8.147 -52.113   0.800  1.00  0.00     0.000 C 
BRANCH  18  19
ATOM     19  C   UNL     1      -7.805 -52.122   2.302  1.00  0.00     0.000 C 
BRANCH  19  20
ATOM     20  C   UNL     1      -7.895 -50.756   3.010  1.00  0.00     0.006 C 
BRANCH  20  21
ATOM     21  C   UNL     1      -8.112 -50.853   4.532  1.00  0.00     0.053 C 
BRANCH  21  22
ATOM     22  C   UNL     1      -6.964 -51.517   5.230  1.00  0.00     0.041 C 
ATOM     23  O   UNL     1      -5.890 -51.743   4.613  1.00  0.00    -0.550 OA
ATOM     24  O   UNL     1      -7.069 -51.860   6.573  1.00  0.00    -0.550 OA
ENDBRANCH  21  22
ENDBRANCH  20  21
ENDBRANCH  19  20
ENDBRANCH  18  19
ENDBRANCH  17  18
ENDBRANCH  16  17
ENDBRANCH  15  16
ENDBRANCH  14  15
ENDBRANCH  13  14
ENDBRANCH   1  13
TORSDOF 20
ENDMDL
