MODEL 1
REMARK VINA RESULT:    -5.036      0.000      0.000
REMARK INTER + INTRA:          -6.045
REMARK INTER:                  -5.919
REMARK INTRA:                  -0.125
REMARK UNBOUND:                -0.125
REMARK SMILES O=C([O-])C=Cc1ccc(O)c(O)c1
REMARK SMILES IDX 6 1 13 2 7 3 11 4 8 5 9 6 5 7 4 8 2 9 1 10 3 11 12 12 10 14
REMARK H PARENT 12 13 10 15
REMARK Flexibility Score: inf
ROOT
ATOM      1  C   UNL     1      -5.258 -17.428 -22.326  1.00  0.00    -0.022 A 
ATOM      2  C   UNL     1      -5.344 -16.152 -21.734  1.00  0.00     0.058 A 
ATOM      3  C   UNL     1      -6.376 -17.934 -23.010  1.00  0.00     0.012 A 
ATOM      4  C   UNL     1      -6.517 -15.391 -21.848  1.00  0.00     0.157 A 
ATOM      5  C   UNL     1      -7.544 -17.175 -23.125  1.00  0.00     0.051 A 
ATOM      6  C   UNL     1      -7.616 -15.902 -22.546  1.00  0.00     0.157 A 
ENDROOT
BRANCH   1   7
ATOM      7  C   UNL     1      -4.045 -18.276 -22.225  1.00  0.00     0.010 C 
ATOM      8  C   UNL     1      -3.197 -18.243 -21.187  1.00  0.00     0.025 C 
BRANCH   8   9
ATOM      9  C   UNL     1      -1.996 -19.092 -21.126  1.00  0.00     0.064 C 
ATOM     10  O   UNL     1      -1.221 -19.056 -20.134  1.00  0.00    -0.545 OA
ATOM     11  O   UNL     1      -1.711 -19.947 -22.184  1.00  0.00    -0.545 OA
ENDBRANCH   8   9
ENDBRANCH   1   7
BRANCH   4  12
ATOM     12  O   UNL     1      -6.598 -14.127 -21.264  1.00  0.00    -0.504 OA
ATOM     13  H   UNL     1      -6.543 -13.282 -21.820  1.00  0.00     0.293 HD
ENDBRANCH   4  12
BRANCH   6  14
ATOM     14  O   UNL     1      -8.779 -15.141 -22.660  1.00  0.00    -0.504 OA
ATOM     15  H   UNL     1      -9.481 -15.133 -21.931  1.00  0.00     0.293 HD
ENDBRANCH   6  14
TORSDOF 4
ENDMDL
MODEL 2
REMARK VINA RESULT:    -4.126     15.365     15.842
REMARK INTER + INTRA:          -4.975
REMARK INTER:                  -4.844
REMARK INTRA:                  -0.131
REMARK UNBOUND:                -0.125
REMARK SMILES O=C([O-])C=Cc1ccc(O)c(O)c1
REMARK SMILES IDX 6 1 13 2 7 3 11 4 8 5 9 6 5 7 4 8 2 9 1 10 3 11 12 12 10 14
REMARK H PARENT 12 13 10 15
REMARK Flexibility Score: inf
ROOT
ATOM      1  C   UNL     1      10.362 -16.181 -19.434  1.00  0.00    -0.022 A 
ATOM      2  C   UNL     1      10.666 -16.669 -20.721  1.00  0.00     0.058 A 
ATOM      3  C   UNL     1       9.896 -14.862 -19.302  1.00  0.00     0.012 A 
ATOM      4  C   UNL     1      10.481 -15.861 -21.852  1.00  0.00     0.157 A 
ATOM      5  C   UNL     1       9.711 -14.057 -20.430  1.00  0.00     0.051 A 
ATOM      6  C   UNL     1      10.000 -14.555 -21.706  1.00  0.00     0.157 A 
ENDROOT
BRANCH   1   7
ATOM      7  C   UNL     1      10.550 -16.992 -18.206  1.00  0.00     0.010 C 
ATOM      8  C   UNL     1       9.544 -17.563 -17.529  1.00  0.00     0.025 C 
BRANCH   8   9
ATOM      9  C   UNL     1       9.767 -18.353 -16.307  1.00  0.00     0.064 C 
ATOM     10  O   UNL     1      10.912 -18.786 -16.011  1.00  0.00    -0.545 OA
ATOM     11  O   UNL     1       8.695 -18.627 -15.466  1.00  0.00    -0.545 OA
ENDBRANCH   8   9
ENDBRANCH   1   7
BRANCH   4  12
ATOM     12  O   UNL     1      10.779 -16.348 -23.124  1.00  0.00    -0.504 OA
ATOM     13  H   UNL     1      10.374 -15.937 -23.957  1.00  0.00     0.293 HD
ENDBRANCH   4  12
BRANCH   6  14
ATOM     14  O   UNL     1       9.815 -13.755 -22.834  1.00  0.00    -0.504 OA
ATOM     15  H   UNL     1       9.153 -12.989 -22.837  1.00  0.00     0.293 HD
ENDBRANCH   6  14
TORSDOF 4
ENDMDL
MODEL 3
REMARK VINA RESULT:    -4.082     13.215     14.102
REMARK INTER + INTRA:          -4.923
REMARK INTER:                  -4.800
REMARK INTRA:                  -0.123
REMARK UNBOUND:                -0.125
REMARK SMILES O=C([O-])C=Cc1ccc(O)c(O)c1
REMARK SMILES IDX 6 1 13 2 7 3 11 4 8 5 9 6 5 7 4 8 2 9 1 10 3 11 12 12 10 14
REMARK H PARENT 12 13 10 15
REMARK Flexibility Score: inf
ROOT
ATOM      1  C   UNL     1      -5.208 -18.350  -8.400  1.00  0.00    -0.022 A 
ATOM      2  C   UNL     1      -6.492 -17.884  -8.751  1.00  0.00     0.058 A 
ATOM      3  C   UNL     1      -4.568 -19.273  -9.243  1.00  0.00     0.012 A 
ATOM      4  C   UNL     1      -7.107 -18.317  -9.935  1.00  0.00     0.157 A 
ATOM      5  C   UNL     1      -5.180 -19.703 -10.423  1.00  0.00     0.051 A 
ATOM      6  C   UNL     1      -6.449 -19.225 -10.773  1.00  0.00     0.157 A 
ENDROOT
BRANCH   1   7
ATOM      7  C   UNL     1      -4.520 -17.931  -7.154  1.00  0.00     0.010 C 
ATOM      8  C   UNL     1      -4.633 -16.709  -6.615  1.00  0.00     0.025 C 
BRANCH   8   9
ATOM      9  C   UNL     1      -3.926 -16.325  -5.382  1.00  0.00     0.064 C 
ATOM     10  O   UNL     1      -4.010 -15.157  -4.918  1.00  0.00    -0.545 OA
ATOM     11  O   UNL     1      -3.149 -17.268  -4.720  1.00  0.00    -0.545 OA
ENDBRANCH   8   9
ENDBRANCH   1   7
BRANCH   4  12
ATOM     12  O   UNL     1      -8.375 -17.853 -10.282  1.00  0.00    -0.504 OA
ATOM     13  H   UNL     1      -8.883 -18.238 -11.070  1.00  0.00     0.293 HD
ENDBRANCH   4  12
BRANCH   6  14
ATOM     14  O   UNL     1      -7.063 -19.650 -11.951  1.00  0.00    -0.504 OA
ATOM     15  H   UNL     1      -6.633 -19.501 -12.856  1.00  0.00     0.293 HD
ENDBRANCH   6  14
TORSDOF 4
ENDMDL
MODEL 4
REMARK VINA RESULT:    -4.070     15.135     16.002
REMARK INTER + INTRA:          -4.909
REMARK INTER:                  -4.757
REMARK INTRA:                  -0.152
REMARK UNBOUND:                -0.125
REMARK SMILES O=C([O-])C=Cc1ccc(O)c(O)c1
REMARK SMILES IDX 6 1 13 2 7 3 11 4 8 5 9 6 5 7 4 8 2 9 1 10 3 11 12 12 10 14
REMARK H PARENT 12 13 10 15
REMARK Flexibility Score: inf
ROOT
ATOM      1  C   UNL     1      -4.779 -16.630  -6.329  1.00  0.00    -0.022 A 
ATOM      2  C   UNL     1      -3.909 -15.896  -5.497  1.00  0.00     0.058 A 
ATOM      3  C   UNL     1      -6.148 -16.663  -6.016  1.00  0.00     0.012 A 
ATOM      4  C   UNL     1      -4.406 -15.191  -4.391  1.00  0.00     0.157 A 
ATOM      5  C   UNL     1      -6.643 -15.959  -4.914  1.00  0.00     0.051 A 
ATOM      6  C   UNL     1      -5.775 -15.221  -4.101  1.00  0.00     0.157 A 
ENDROOT
BRANCH   1   7
ATOM      7  C   UNL     1      -4.301 -17.400  -7.504  1.00  0.00     0.010 C 
ATOM      8  C   UNL     1      -5.034 -18.329  -8.133  1.00  0.00     0.025 C 
BRANCH   8   9
ATOM      9  C   UNL     1      -4.522 -19.082  -9.290  1.00  0.00     0.064 C 
ATOM     10  O   UNL     1      -3.303 -19.382  -9.386  1.00  0.00    -0.545 OA
ATOM     11  O   UNL     1      -5.401 -19.468 -10.296  1.00  0.00    -0.545 OA
ENDBRANCH   8   9
ENDBRANCH   1   7
BRANCH   4  12
ATOM     12  O   UNL     1      -3.544 -14.464  -3.571  1.00  0.00    -0.504 OA
ATOM     13  H   UNL     1      -2.692 -14.871  -3.205  1.00  0.00     0.293 HD
ENDBRANCH   4  12
BRANCH   6  14
ATOM     14  O   UNL     1      -6.266 -14.516  -3.003  1.00  0.00    -0.504 OA
ATOM     15  H   UNL     1      -7.241 -14.251  -2.935  1.00  0.00     0.293 HD
ENDBRANCH   6  14
TORSDOF 4
ENDMDL
MODEL 5
REMARK VINA RESULT:    -4.014     14.306     15.467
REMARK INTER + INTRA:          -4.844
REMARK INTER:                  -4.719
REMARK INTRA:                  -0.124
REMARK UNBOUND:                -0.125
REMARK SMILES O=C([O-])C=Cc1ccc(O)c(O)c1
REMARK SMILES IDX 6 1 13 2 7 3 11 4 8 5 9 6 5 7 4 8 2 9 1 10 3 11 12 12 10 14
REMARK H PARENT 12 13 10 15
REMARK Flexibility Score: inf
ROOT
ATOM      1  C   UNL     1      -5.263 -17.199  -7.195  1.00  0.00    -0.022 A 
ATOM      2  C   UNL     1      -4.097 -17.838  -7.664  1.00  0.00     0.058 A 
ATOM      3  C   UNL     1      -6.465 -17.382  -7.898  1.00  0.00     0.012 A 
ATOM      4  C   UNL     1      -4.143 -18.661  -8.799  1.00  0.00     0.157 A 
ATOM      5  C   UNL     1      -6.510 -18.203  -9.029  1.00  0.00     0.051 A 
ATOM      6  C   UNL     1      -5.351 -18.846  -9.480  1.00  0.00     0.157 A 
ENDROOT
BRANCH   1   7
ATOM      7  C   UNL     1      -5.265 -16.312  -6.006  1.00  0.00     0.010 C 
ATOM      8  C   UNL     1      -4.158 -15.960  -5.337  1.00  0.00     0.025 C 
BRANCH   8   9
ATOM      9  C   UNL     1      -4.199 -15.085  -4.154  1.00  0.00     0.064 C 
ATOM     10  O   UNL     1      -3.166 -14.494  -3.742  1.00  0.00    -0.545 OA
ATOM     11  O   UNL     1      -5.401 -14.909  -3.477  1.00  0.00    -0.545 OA
ENDBRANCH   8   9
ENDBRANCH   1   7
BRANCH   4  12
ATOM     12  O   UNL     1      -2.989 -19.294  -9.259  1.00  0.00    -0.504 OA
ATOM     13  H   UNL     1      -2.568 -19.050 -10.148  1.00  0.00     0.293 HD
ENDBRANCH   4  12
BRANCH   6  14
ATOM     14  O   UNL     1      -5.393 -19.667 -10.606  1.00  0.00    -0.504 OA
ATOM     15  H   UNL     1      -5.295 -20.673 -10.533  1.00  0.00     0.293 HD
ENDBRANCH   6  14
TORSDOF 4
ENDMDL
MODEL 6
REMARK VINA RESULT:    -3.894     21.259     22.102
REMARK INTER + INTRA:          -4.702
REMARK INTER:                  -4.581
REMARK INTRA:                  -0.122
REMARK UNBOUND:                -0.125
REMARK SMILES O=C([O-])C=Cc1ccc(O)c(O)c1
REMARK SMILES IDX 6 1 13 2 7 3 11 4 8 5 9 6 5 7 4 8 2 9 1 10 3 11 12 12 10 14
REMARK H PARENT 12 13 10 15
REMARK Flexibility Score: inf
ROOT
ATOM      1  C   UNL     1      -5.633  -2.870  -5.714  1.00  0.00    -0.022 A 
ATOM      2  C   UNL     1      -5.371  -3.943  -4.838  1.00  0.00     0.058 A 
ATOM      3  C   UNL     1      -6.878  -2.223  -5.639  1.00  0.00     0.012 A 
ATOM      4  C   UNL     1      -6.328  -4.341  -3.893  1.00  0.00     0.157 A 
ATOM      5  C   UNL     1      -7.830  -2.619  -4.696  1.00  0.00     0.051 A 
ATOM      6  C   UNL     1      -7.557  -3.676  -3.819  1.00  0.00     0.157 A 
ENDROOT
BRANCH   1   7
ATOM      7  C   UNL     1      -4.660  -2.418  -6.738  1.00  0.00     0.010 C 
ATOM      8  C   UNL     1      -3.386  -2.100  -6.467  1.00  0.00     0.025 C 
BRANCH   8   9
ATOM      9  C   UNL     1      -2.451  -1.644  -7.508  1.00  0.00     0.064 C 
ATOM     10  O   UNL     1      -2.573  -0.511  -8.044  1.00  0.00    -0.545 OA
ATOM     11  O   UNL     1      -1.416  -2.480  -7.908  1.00  0.00    -0.545 OA
ENDBRANCH   8   9
ENDBRANCH   1   7
BRANCH   4  12
ATOM     12  O   UNL     1      -6.065  -5.401  -3.025  1.00  0.00    -0.504 OA
ATOM     13  H   UNL     1      -5.156  -5.847  -2.994  1.00  0.00     0.293 HD
ENDBRANCH   4  12
BRANCH   6  14
ATOM     14  O   UNL     1      -8.503  -4.072  -2.875  1.00  0.00    -0.504 OA
ATOM     15  H   UNL     1      -8.577  -5.035  -2.569  1.00  0.00     0.293 HD
ENDBRANCH   6  14
TORSDOF 4
ENDMDL
MODEL 7
REMARK VINA RESULT:    -3.751     21.201     22.113
REMARK INTER + INTRA:          -4.534
REMARK INTER:                  -4.398
REMARK INTRA:                  -0.136
REMARK UNBOUND:                -0.125
REMARK SMILES O=C([O-])C=Cc1ccc(O)c(O)c1
REMARK SMILES IDX 6 1 13 2 7 3 11 4 8 5 9 6 5 7 4 8 2 9 1 10 3 11 12 12 10 14
REMARK H PARENT 12 13 10 15
REMARK Flexibility Score: inf
ROOT
ATOM      1  C   UNL     1      -5.653  -2.796  -5.867  1.00  0.00    -0.022 A 
ATOM      2  C   UNL     1      -6.914  -2.165  -5.848  1.00  0.00     0.058 A 
ATOM      3  C   UNL     1      -5.364  -3.764  -4.892  1.00  0.00     0.012 A 
ATOM      4  C   UNL     1      -7.872  -2.518  -4.886  1.00  0.00     0.157 A 
ATOM      5  C   UNL     1      -6.320  -4.116  -3.934  1.00  0.00     0.051 A 
ATOM      6  C   UNL     1      -7.575  -3.496  -3.930  1.00  0.00     0.157 A 
ENDROOT
BRANCH   1   7
ATOM      7  C   UNL     1      -4.602  -2.451  -6.856  1.00  0.00     0.010 C 
ATOM      8  C   UNL     1      -3.373  -2.034  -6.523  1.00  0.00     0.025 C 
BRANCH   8   9
ATOM      9  C   UNL     1      -2.359  -1.690  -7.533  1.00  0.00     0.064 C 
ATOM     10  O   UNL     1      -1.436  -2.494  -7.832  1.00  0.00    -0.545 OA
ATOM     11  O   UNL     1      -2.419  -0.455  -8.168  1.00  0.00    -0.545 OA
ENDBRANCH   8   9
ENDBRANCH   1   7
BRANCH   4  12
ATOM     12  O   UNL     1      -9.119  -1.895  -4.870  1.00  0.00    -0.504 OA
ATOM     13  H   UNL     1      -9.959  -2.383  -5.157  1.00  0.00     0.293 HD
ENDBRANCH   4  12
BRANCH   6  14
ATOM     14  O   UNL     1      -8.532  -3.846  -2.978  1.00  0.00    -0.504 OA
ATOM     15  H   UNL     1      -9.522  -3.732  -3.154  1.00  0.00     0.293 HD
ENDBRANCH   6  14
TORSDOF 4
ENDMDL
MODEL 8
REMARK VINA RESULT:    -3.721     13.471     14.820
REMARK INTER + INTRA:          -4.499
REMARK INTER:                  -4.360
REMARK INTRA:                  -0.139
REMARK UNBOUND:                -0.125
REMARK SMILES O=C([O-])C=Cc1ccc(O)c(O)c1
REMARK SMILES IDX 6 1 13 2 7 3 11 4 8 5 9 6 5 7 4 8 2 9 1 10 3 11 12 12 10 14
REMARK H PARENT 12 13 10 15
REMARK Flexibility Score: inf
ROOT
ATOM      1  C   UNL     1      -4.824 -18.474  -8.087  1.00  0.00    -0.022 A 
ATOM      2  C   UNL     1      -4.514 -19.214  -6.928  1.00  0.00     0.058 A 
ATOM      3  C   UNL     1      -4.695 -17.076  -8.053  1.00  0.00     0.012 A 
ATOM      4  C   UNL     1      -4.060 -18.566  -5.769  1.00  0.00     0.157 A 
ATOM      5  C   UNL     1      -4.242 -16.431  -6.899  1.00  0.00     0.051 A 
ATOM      6  C   UNL     1      -3.921 -17.174  -5.756  1.00  0.00     0.157 A 
ENDROOT
BRANCH   1   7
ATOM      7  C   UNL     1      -5.318 -19.110  -9.333  1.00  0.00     0.010 C 
ATOM      8  C   UNL     1      -6.470 -18.779  -9.933  1.00  0.00     0.025 C 
BRANCH   8   9
ATOM      9  C   UNL     1      -6.934 -19.441 -11.163  1.00  0.00     0.064 C 
ATOM     10  O   UNL     1      -6.148 -20.125 -11.872  1.00  0.00    -0.545 OA
ATOM     11  O   UNL     1      -8.261 -19.307 -11.551  1.00  0.00    -0.545 OA
ENDBRANCH   8   9
ENDBRANCH   1   7
BRANCH   4  12
ATOM     12  O   UNL     1      -3.751 -19.300  -4.625  1.00  0.00    -0.504 OA
ATOM     13  H   UNL     1      -2.823 -19.679  -4.473  1.00  0.00     0.293 HD
ENDBRANCH   4  12
BRANCH   6  14
ATOM     14  O   UNL     1      -3.466 -16.534  -4.604  1.00  0.00    -0.504 OA
ATOM     15  H   UNL     1      -2.896 -15.698  -4.651  1.00  0.00     0.293 HD
ENDBRANCH   6  14
TORSDOF 4
ENDMDL
MODEL 9
REMARK VINA RESULT:    -3.091     19.895     21.966
REMARK INTER + INTRA:          -3.758
REMARK INTER:                  -3.634
REMARK INTRA:                  -0.125
REMARK UNBOUND:                -0.125
REMARK SMILES O=C([O-])C=Cc1ccc(O)c(O)c1
REMARK SMILES IDX 6 1 13 2 7 3 11 4 8 5 9 6 5 7 4 8 2 9 1 10 3 11 12 12 10 14
REMARK H PARENT 12 13 10 15
REMARK Flexibility Score: inf
ROOT
ATOM      1  C   UNL     1      -5.503  -2.393  -6.473  1.00  0.00    -0.022 A 
ATOM      2  C   UNL     1      -5.776  -3.605  -5.806  1.00  0.00     0.058 A 
ATOM      3  C   UNL     1      -4.579  -1.501  -5.904  1.00  0.00     0.012 A 
ATOM      4  C   UNL     1      -5.118  -3.924  -4.609  1.00  0.00     0.157 A 
ATOM      5  C   UNL     1      -3.923  -1.820  -4.711  1.00  0.00     0.051 A 
ATOM      6  C   UNL     1      -4.188  -3.032  -4.063  1.00  0.00     0.157 A 
ENDROOT
BRANCH   1   7
ATOM      7  C   UNL     1      -6.179  -2.005  -7.734  1.00  0.00     0.010 C 
ATOM      8  C   UNL     1      -7.362  -2.498  -8.128  1.00  0.00     0.025 C 
BRANCH   8   9
ATOM      9  C   UNL     1      -7.998  -2.097  -9.394  1.00  0.00     0.064 C 
ATOM     10  O   UNL     1      -7.620  -1.070 -10.018  1.00  0.00    -0.545 OA
ATOM     11  O   UNL     1      -9.036  -2.865  -9.908  1.00  0.00    -0.545 OA
ENDBRANCH   8   9
ENDBRANCH   1   7
BRANCH   4  12
ATOM     12  O   UNL     1      -5.388  -5.125  -3.954  1.00  0.00    -0.504 OA
ATOM     13  H   UNL     1      -5.937  -5.153  -3.103  1.00  0.00     0.293 HD
ENDBRANCH   4  12
BRANCH   6  14
ATOM     14  O   UNL     1      -3.534  -3.355  -2.875  1.00  0.00    -0.504 OA
ATOM     15  H   UNL     1      -3.892  -3.058  -1.975  1.00  0.00     0.293 HD
ENDBRANCH   6  14
TORSDOF 4
ENDMDL
