MODEL 1
REMARK VINA RESULT:    35.612      0.000      0.000
REMARK INTER + INTRA:          42.707
REMARK INTER:                  42.899
REMARK INTRA:                  -0.192
REMARK UNBOUND:                -0.192
REMARK SMILES O=c1c(O)c(-c2ccc(O)c(O)c2)oc2cc(O)cc(O)c12
REMARK SMILES IDX 5 1 3 2 2 3 1 4 22 5 20 6 19 7 17 8 16 9 15 10 14 11 6 12
REMARK SMILES IDX 7 13 8 14 9 15 13 16 11 17 10 18 12 20 4 22 21 24 18 26
REMARK H PARENT 10 19 12 21 4 23 21 25 18 27
REMARK Flexibility Score: inf
ROOT
ATOM      1  C   UNL     1      15.988  49.817  58.849  1.00  0.00     0.180 A 
ATOM      2  C   UNL     1      15.005  50.712  58.384  1.00  0.00     0.208 A 
ATOM      3  C   UNL     1      14.918  51.986  58.967  1.00  0.00     0.238 A 
ATOM      4  O   UNL     1      14.049  52.800  58.550  1.00  0.00    -0.285 OA
ATOM      5  C   UNL     1      15.797  52.336  60.012  1.00  0.00     0.111 A 
ATOM      6  C   UNL     1      15.772  53.597  60.655  1.00  0.00     0.134 A 
ATOM      7  C   UNL     1      16.674  53.865  61.695  1.00  0.00     0.093 A 
ATOM      8  C   UNL     1      17.599  52.897  62.104  1.00  0.00     0.123 A 
ATOM      9  C   UNL     1      17.627  51.652  61.473  1.00  0.00     0.094 A 
ATOM     10  C   UNL     1      16.737  51.366  60.434  1.00  0.00     0.146 A 
ATOM     11  O   UNL     1      16.790  50.176  59.848  1.00  0.00    -0.452 OA
ENDROOT
BRANCH   1  12
ATOM     12  C   UNL     1      16.155  48.463  58.273  1.00  0.00     0.025 A 
ATOM     13  C   UNL     1      17.313  48.108  57.559  1.00  0.00     0.016 A 
ATOM     14  C   UNL     1      17.459  46.817  57.047  1.00  0.00     0.051 A 
ATOM     15  C   UNL     1      16.458  45.858  57.250  1.00  0.00     0.157 A 
ATOM     16  C   UNL     1      15.164  47.492  58.493  1.00  0.00     0.062 A 
ATOM     17  C   UNL     1      15.307  46.197  57.979  1.00  0.00     0.158 A 
BRANCH  15  18
ATOM     18  O   UNL     1      16.606  44.570  56.734  1.00  0.00    -0.504 OA
ATOM     19  H   UNL     1      15.872  44.126  56.197  1.00  0.00     0.293 HD
ENDBRANCH  15  18
BRANCH  17  20
ATOM     20  O   UNL     1      14.296  45.263  58.205  1.00  0.00    -0.504 OA
ATOM     21  H   UNL     1      14.431  44.457  58.803  1.00  0.00     0.293 HD
ENDBRANCH  17  20
ENDBRANCH   1  12
BRANCH   2  22
ATOM     22  O   UNL     1      14.114  50.323  57.380  1.00  0.00    -0.502 OA
ATOM     23  H   UNL     1      14.231  49.467  56.852  1.00  0.00     0.293 HD
ENDBRANCH   2  22
BRANCH   6  24
ATOM     24  O   UNL     1      14.862  54.582  60.270  1.00  0.00    -0.507 OA
ATOM     25  H   UNL     1      14.960  55.090  59.399  1.00  0.00     0.293 HD
ENDBRANCH   6  24
BRANCH   8  26
ATOM     26  O   UNL     1      18.494  53.163  63.138  1.00  0.00    -0.508 OA
ATOM     27  H   UNL     1      18.915  54.077  63.252  1.00  0.00     0.293 HD
ENDBRANCH   8  26
TORSDOF 6
ENDMDL
MODEL 2
REMARK VINA RESULT:    36.013      1.763      2.690
REMARK INTER + INTRA:          43.190
REMARK INTER:                  43.494
REMARK INTRA:                  -0.304
REMARK UNBOUND:                -0.192
REMARK SMILES O=c1c(O)c(-c2ccc(O)c(O)c2)oc2cc(O)cc(O)c12
REMARK SMILES IDX 5 1 3 2 2 3 1 4 22 5 20 6 19 7 17 8 16 9 15 10 14 11 6 12
REMARK SMILES IDX 7 13 8 14 9 15 13 16 11 17 10 18 12 20 4 22 21 24 18 26
REMARK H PARENT 10 19 12 21 4 23 21 25 18 27
REMARK Flexibility Score: inf
ROOT
ATOM      1  C   UNL     1      15.861  49.188  59.550  1.00  0.00     0.180 A 
ATOM      2  C   UNL     1      15.476  49.024  60.895  1.00  0.00     0.208 A 
ATOM      3  C   UNL     1      15.086  50.154  61.631  1.00  0.00     0.238 A 
ATOM      4  O   UNL     1      14.728  50.017  62.833  1.00  0.00    -0.285 OA
ATOM      5  C   UNL     1      15.106  51.425  61.021  1.00  0.00     0.111 A 
ATOM      6  C   UNL     1      14.732  52.613  61.694  1.00  0.00     0.134 A 
ATOM      7  C   UNL     1      14.789  53.841  61.020  1.00  0.00     0.093 A 
ATOM      8  C   UNL     1      15.212  53.904  59.687  1.00  0.00     0.123 A 
ATOM      9  C   UNL     1      15.581  52.735  59.020  1.00  0.00     0.094 A 
ATOM     10  C   UNL     1      15.531  51.501  59.673  1.00  0.00     0.146 A 
ATOM     11  O   UNL     1      15.883  50.405  59.013  1.00  0.00    -0.452 OA
ENDROOT
BRANCH   1  12
ATOM     12  C   UNL     1      16.268  48.044  58.703  1.00  0.00     0.025 A 
ATOM     13  C   UNL     1      17.622  47.713  58.520  1.00  0.00     0.016 A 
ATOM     14  C   UNL     1      17.981  46.614  57.736  1.00  0.00     0.051 A 
ATOM     15  C   UNL     1      16.995  45.822  57.135  1.00  0.00     0.157 A 
ATOM     16  C   UNL     1      15.282  47.234  58.116  1.00  0.00     0.062 A 
ATOM     17  C   UNL     1      15.639  46.132  57.329  1.00  0.00     0.158 A 
BRANCH  15  18
ATOM     18  O   UNL     1      17.357  44.727  56.352  1.00  0.00    -0.504 OA
ATOM     19  H   UNL     1      17.105  44.669  55.372  1.00  0.00     0.293 HD
ENDBRANCH  15  18
BRANCH  17  20
ATOM     20  O   UNL     1      14.632  45.359  56.750  1.00  0.00    -0.504 OA
ATOM     21  H   UNL     1      13.895  45.769  56.190  1.00  0.00     0.293 HD
ENDBRANCH  17  20
ENDBRANCH   1  12
BRANCH   2  22
ATOM     22  O   UNL     1      15.512  47.761  61.491  1.00  0.00    -0.502 OA
ATOM     23  H   UNL     1      14.683  47.192  61.610  1.00  0.00     0.293 HD
ENDBRANCH   2  22
BRANCH   6  24
ATOM     24  O   UNL     1      14.308  52.582  63.023  1.00  0.00    -0.507 OA
ATOM     25  H   UNL     1      14.837  52.103  63.742  1.00  0.00     0.293 HD
ENDBRANCH   6  24
BRANCH   8  26
ATOM     26  O   UNL     1      15.269  55.125  59.018  1.00  0.00    -0.508 OA
ATOM     27  H   UNL     1      14.954  55.219  58.060  1.00  0.00     0.293 HD
ENDBRANCH   8  26
TORSDOF 6
ENDMDL
MODEL 3
REMARK VINA RESULT:    37.388      1.675      2.681
REMARK INTER + INTRA:          44.845
REMARK INTER:                  44.384
REMARK INTRA:                   0.461
REMARK UNBOUND:                -0.192
REMARK SMILES O=c1c(O)c(-c2ccc(O)c(O)c2)oc2cc(O)cc(O)c12
REMARK SMILES IDX 5 1 3 2 2 3 1 4 22 5 20 6 19 7 17 8 16 9 15 10 14 11 6 12
REMARK SMILES IDX 7 13 8 14 9 15 13 16 11 17 10 18 12 20 4 22 21 24 18 26
REMARK H PARENT 10 19 12 21 4 23 21 25 18 27
REMARK Flexibility Score: inf
ROOT
ATOM      1  C   UNL     1      16.636  49.634  59.572  1.00  0.00     0.180 A 
ATOM      2  C   UNL     1      17.778  50.446  59.715  1.00  0.00     0.208 A 
ATOM      3  C   UNL     1      17.715  51.563  60.563  1.00  0.00     0.238 A 
ATOM      4  O   UNL     1      18.735  52.290  60.707  1.00  0.00    -0.285 OA
ATOM      5  C   UNL     1      16.511  51.860  61.235  1.00  0.00     0.111 A 
ATOM      6  C   UNL     1      16.364  52.967  62.105  1.00  0.00     0.134 A 
ATOM      7  C   UNL     1      15.130  53.201  62.729  1.00  0.00     0.093 A 
ATOM      8  C   UNL     1      14.043  52.349  62.502  1.00  0.00     0.123 A 
ATOM      9  C   UNL     1      14.184  51.256  61.646  1.00  0.00     0.094 A 
ATOM     10  C   UNL     1      15.406  51.005  61.014  1.00  0.00     0.146 A 
ATOM     11  O   UNL     1      15.513  49.955  60.210  1.00  0.00    -0.452 OA
ENDROOT
BRANCH   1  12
ATOM     12  C   UNL     1      16.629  48.430  58.710  1.00  0.00     0.025 A 
ATOM     13  C   UNL     1      17.784  48.013  58.026  1.00  0.00     0.016 A 
ATOM     14  C   UNL     1      17.761  46.859  57.239  1.00  0.00     0.051 A 
ATOM     15  C   UNL     1      16.589  46.099  57.133  1.00  0.00     0.157 A 
ATOM     16  C   UNL     1      15.464  47.653  58.618  1.00  0.00     0.062 A 
ATOM     17  C   UNL     1      15.436  46.496  57.829  1.00  0.00     0.158 A 
BRANCH  15  18
ATOM     18  O   UNL     1      16.569  44.949  56.344  1.00  0.00    -0.504 OA
ATOM     19  H   UNL     1      15.981  44.157  56.575  1.00  0.00     0.293 HD
ENDBRANCH  15  18
BRANCH  17  20
ATOM     20  O   UNL     1      14.256  45.758  57.750  1.00  0.00    -0.504 OA
ATOM     21  H   UNL     1      13.506  46.009  57.118  1.00  0.00     0.293 HD
ENDBRANCH  17  20
ENDBRANCH   1  12
BRANCH   2  22
ATOM     22  O   UNL     1      18.943  50.158  58.998  1.00  0.00    -0.502 OA
ATOM     23  H   UNL     1      19.102  49.261  58.558  1.00  0.00     0.293 HD
ENDBRANCH   2  22
BRANCH   6  24
ATOM     24  O   UNL     1      17.429  53.835  62.350  1.00  0.00    -0.507 OA
ATOM     25  H   UNL     1      18.328  53.499  62.675  1.00  0.00     0.293 HD
ENDBRANCH   6  24
BRANCH   8  26
ATOM     26  O   UNL     1      12.817  52.583  63.121  1.00  0.00    -0.508 OA
ATOM     27  H   UNL     1      12.627  53.449  63.611  1.00  0.00     0.293 HD
ENDBRANCH   8  26
TORSDOF 6
ENDMDL
