MODEL 1
REMARK VINA RESULT:    -7.595      0.000      0.000
REMARK INTER + INTRA:          -8.308
REMARK INTER:                  -8.261
REMARK INTRA:                  -0.047
REMARK UNBOUND:                -0.047
REMARK SMILES C[C@@H]1[C@@H](C)CC[C@@]2(C(=O)[O-])CC[C@]3(C)C(=CC[C@H]4[C@@]5(C)CC[C@H](O)C(C)(C)[C@H]5CC[C@]43C)[C@@H]12
REMARK SMILES IDX 7 1 6 2 11 3 33 4 5 5 12 6 15 7 2 8 3 9 13 10 16 11 1 12
REMARK SMILES IDX 4 13 14 14 31 15 17 16 18 17 30 18 32 19 19 20 29 21 28 22
REMARK SMILES IDX 21 23 20 24 25 25 22 26 23 27 26 28 27 29 8 30 9 31 10 32
REMARK SMILES IDX 24 33
REMARK H PARENT 24 34
REMARK Flexibility Score: inf
ROOT
ATOM      1  C   UNL     1      31.826  28.415  13.841  1.00  0.00     0.017 C 
ATOM      2  C   UNL     1      32.073  28.869  15.306  1.00  0.00     0.014 C 
ATOM      3  C   UNL     1      31.530  26.870  13.590  1.00  0.00     0.014 C 
ATOM      4  C   UNL     1      30.632  29.531  13.356  1.00  0.00     0.030 C 
ATOM      5  C   UNL     1      32.237  30.408  15.472  1.00  0.00     0.004 C 
ATOM      6  C   UNL     1      30.040  26.540  13.575  1.00  0.00     0.013 C 
ATOM      7  C   UNL     1      29.524  28.878  12.565  1.00  0.00    -0.063 C 
ATOM      8  C   UNL     1      29.863  30.301  14.609  1.00  0.00    -0.003 C 
ATOM      9  C   UNL     1      30.868  30.963  15.579  1.00  0.00    -0.011 C 
ATOM     10  C   UNL     1      29.254  27.375  12.508  1.00  0.00    -0.006 C 
ATOM     11  C   UNL     1      28.673  29.684  11.849  1.00  0.00    -0.027 C 
ATOM     12  C   UNL     1      28.745  31.279  14.254  1.00  0.00     0.008 C 
ATOM     13  C   UNL     1      30.371  30.992  17.063  1.00  0.00     0.008 C 
ATOM     14  C   UNL     1      29.777  26.972  11.041  1.00  0.00     0.017 C 
ATOM     15  C   UNL     1      27.708  27.099  12.807  1.00  0.00    -0.020 C 
ATOM     16  C   UNL     1      27.455  29.197  11.170  1.00  0.00     0.032 C 
ATOM     17  C   UNL     1      26.767  27.998  11.914  1.00  0.00     0.006 C 
ATOM     18  C   UNL     1      27.493  25.579  12.579  1.00  0.00     0.008 C 
ATOM     19  C   UNL     1      27.256  27.321  14.371  1.00  0.00     0.012 C 
ATOM     20  C   UNL     1      25.760  27.210  10.972  1.00  0.00    -0.025 C 
ATOM     21  C   UNL     1      26.053  25.150  12.615  1.00  0.00     0.005 C 
ATOM     22  C   UNL     1      25.072  26.061  11.797  1.00  0.00     0.003 C 
ATOM     23  C   UNL     1      26.470  26.629   9.682  1.00  0.00     0.010 C 
ATOM     24  C   UNL     1      24.703  28.280  10.513  1.00  0.00     0.012 C 
ATOM     25  C   UNL     1      24.093  25.157  10.948  1.00  0.00    -0.006 C 
ATOM     26  C   UNL     1      25.506  25.816   8.826  1.00  0.00     0.033 C 
ATOM     27  C   UNL     1      24.813  24.702   9.638  1.00  0.00     0.120 C 
ATOM     28  C   UNL     1      23.685  23.875  11.723  1.00  0.00     0.014 C 
ATOM     29  C   UNL     1      22.753  25.934  10.623  1.00  0.00     0.014 C 
ENDROOT
BRANCH   1  30
ATOM     30  C   UNL     1      33.214  28.363  13.118  1.00  0.00     0.048 C 
ATOM     31  O   UNL     1      33.184  28.666  11.801  1.00  0.00    -0.550 OA
ATOM     32  O   UNL     1      34.320  27.626  13.559  1.00  0.00    -0.550 OA
ENDBRANCH   1  30
BRANCH  27  33
ATOM     33  O   UNL     1      23.915  23.995   8.829  1.00  0.00    -0.393 OA
ATOM     34  H   UNL     1      23.188  23.665   9.406  1.00  0.00     0.210 HD
ENDBRANCH  27  33
TORSDOF 2
ENDMDL
MODEL 2
REMARK VINA RESULT:    -6.991      1.866      3.538
REMARK INTER + INTRA:          -7.651
REMARK INTER:                  -7.450
REMARK INTRA:                  -0.201
REMARK UNBOUND:                -0.047
REMARK SMILES C[C@@H]1[C@@H](C)CC[C@@]2(C(=O)[O-])CC[C@]3(C)C(=CC[C@H]4[C@@]5(C)CC[C@H](O)C(C)(C)[C@H]5CC[C@]43C)[C@@H]12
REMARK SMILES IDX 7 1 6 2 11 3 33 4 5 5 12 6 15 7 2 8 3 9 13 10 16 11 1 12
REMARK SMILES IDX 4 13 14 14 31 15 17 16 18 17 30 18 32 19 19 20 29 21 28 22
REMARK SMILES IDX 21 23 20 24 25 25 22 26 23 27 26 28 27 29 8 30 9 31 10 32
REMARK SMILES IDX 24 33
REMARK H PARENT 24 34
REMARK Flexibility Score: inf
ROOT
ATOM      1  C   UNL     1      31.359  28.473  14.112  1.00  0.00     0.017 C 
ATOM      2  C   UNL     1      32.712  27.712  14.052  1.00  0.00     0.014 C 
ATOM      3  C   UNL     1      30.826  29.131  12.763  1.00  0.00     0.014 C 
ATOM      4  C   UNL     1      30.368  27.306  14.860  1.00  0.00     0.030 C 
ATOM      5  C   UNL     1      33.099  27.003  15.382  1.00  0.00     0.004 C 
ATOM      6  C   UNL     1      29.880  28.220  11.985  1.00  0.00     0.013 C 
ATOM      7  C   UNL     1      29.007  27.209  14.213  1.00  0.00    -0.063 C 
ATOM      8  C   UNL     1      30.972  25.761  14.814  1.00  0.00    -0.003 C 
ATOM      9  C   UNL     1      32.413  25.691  15.368  1.00  0.00    -0.011 C 
ATOM     10  C   UNL     1      28.646  27.771  12.839  1.00  0.00    -0.006 C 
ATOM     11  C   UNL     1      28.009  26.554  14.892  1.00  0.00    -0.027 C 
ATOM     12  C   UNL     1      30.114  24.652  15.421  1.00  0.00     0.008 C 
ATOM     13  C   UNL     1      33.288  24.588  14.684  1.00  0.00     0.008 C 
ATOM     14  C   UNL     1      27.762  29.064  13.201  1.00  0.00     0.017 C 
ATOM     15  C   UNL     1      27.921  26.639  11.974  1.00  0.00    -0.020 C 
ATOM     16  C   UNL     1      26.687  26.242  14.311  1.00  0.00     0.032 C 
ATOM     17  C   UNL     1      26.738  25.960  12.768  1.00  0.00     0.006 C 
ATOM     18  C   UNL     1      27.457  27.333  10.665  1.00  0.00     0.008 C 
ATOM     19  C   UNL     1      28.906  25.436  11.442  1.00  0.00     0.012 C 
ATOM     20  C   UNL     1      25.305  26.076  12.093  1.00  0.00    -0.025 C 
ATOM     21  C   UNL     1      26.571  26.481   9.799  1.00  0.00     0.005 C 
ATOM     22  C   UNL     1      25.425  25.730  10.563  1.00  0.00     0.003 C 
ATOM     23  C   UNL     1      24.655  27.505  12.297  1.00  0.00     0.010 C 
ATOM     24  C   UNL     1      24.412  25.017  12.838  1.00  0.00     0.012 C 
ATOM     25  C   UNL     1      24.070  25.877   9.762  1.00  0.00    -0.006 C 
ATOM     26  C   UNL     1      23.313  27.622  11.583  1.00  0.00     0.033 C 
ATOM     27  C   UNL     1      23.424  27.262  10.087  1.00  0.00     0.120 C 
ATOM     28  C   UNL     1      24.307  25.822   8.228  1.00  0.00     0.014 C 
ATOM     29  C   UNL     1      23.083  24.689  10.110  1.00  0.00     0.014 C 
ENDROOT
BRANCH   1  30
ATOM     30  C   UNL     1      31.621  29.858  14.794  1.00  0.00     0.048 C 
ATOM     31  O   UNL     1      30.801  30.855  14.395  1.00  0.00    -0.550 OA
ATOM     32  O   UNL     1      32.833  30.248  15.375  1.00  0.00    -0.550 OA
ENDBRANCH   1  30
BRANCH  27  33
ATOM     33  O   UNL     1      22.170  27.352   9.470  1.00  0.00    -0.393 OA
ATOM     34  H   UNL     1      22.068  26.568   8.883  1.00  0.00     0.210 HD
ENDBRANCH  27  33
TORSDOF 2
ENDMDL
MODEL 3
REMARK VINA RESULT:    -5.932      1.974      8.013
REMARK INTER + INTRA:          -6.499
REMARK INTER:                  -6.381
REMARK INTRA:                  -0.118
REMARK UNBOUND:                -0.047
REMARK SMILES C[C@@H]1[C@@H](C)CC[C@@]2(C(=O)[O-])CC[C@]3(C)C(=CC[C@H]4[C@@]5(C)CC[C@H](O)C(C)(C)[C@H]5CC[C@]43C)[C@@H]12
REMARK SMILES IDX 7 1 6 2 11 3 33 4 5 5 12 6 15 7 2 8 3 9 13 10 16 11 1 12
REMARK SMILES IDX 4 13 14 14 31 15 17 16 18 17 30 18 32 19 19 20 29 21 28 22
REMARK SMILES IDX 21 23 20 24 25 25 22 26 23 27 26 28 27 29 8 30 9 31 10 32
REMARK SMILES IDX 24 33
REMARK H PARENT 24 34
REMARK Flexibility Score: inf
ROOT
ATOM      1  C   UNL     1      24.220  27.430  10.850  1.00  0.00     0.017 C 
ATOM      2  C   UNL     1      23.562  26.172  10.219  1.00  0.00     0.014 C 
ATOM      3  C   UNL     1      24.535  27.390  12.411  1.00  0.00     0.014 C 
ATOM      4  C   UNL     1      25.533  27.670   9.790  1.00  0.00     0.030 C 
ATOM      5  C   UNL     1      23.397  26.251   8.673  1.00  0.00     0.004 C 
ATOM      6  C   UNL     1      25.954  26.920  12.723  1.00  0.00     0.013 C 
ATOM      7  C   UNL     1      26.809  28.008  10.525  1.00  0.00    -0.063 C 
ATOM      8  C   UNL     1      25.916  26.348   8.861  1.00  0.00    -0.003 C 
ATOM      9  C   UNL     1      24.687  25.810   8.095  1.00  0.00    -0.011 C 
ATOM     10  C   UNL     1      27.043  27.798  12.020  1.00  0.00    -0.006 C 
ATOM     11  C   UNL     1      27.855  28.531   9.805  1.00  0.00    -0.027 C 
ATOM     12  C   UNL     1      27.115  26.471   7.923  1.00  0.00     0.008 C 
ATOM     13  C   UNL     1      24.721  24.261   7.875  1.00  0.00     0.008 C 
ATOM     14  C   UNL     1      26.969  29.294  12.608  1.00  0.00     0.017 C 
ATOM     15  C   UNL     1      28.423  27.021  12.239  1.00  0.00    -0.020 C 
ATOM     16  C   UNL     1      29.206  28.751  10.359  1.00  0.00     0.032 C 
ATOM     17  C   UNL     1      29.610  27.696  11.448  1.00  0.00     0.006 C 
ATOM     18  C   UNL     1      28.655  26.987  13.774  1.00  0.00     0.008 C 
ATOM     19  C   UNL     1      28.396  25.432  11.819  1.00  0.00     0.012 C 
ATOM     20  C   UNL     1      30.830  28.191  12.337  1.00  0.00    -0.025 C 
ATOM     21  C   UNL     1      30.007  26.471  14.179  1.00  0.00     0.005 C 
ATOM     22  C   UNL     1      31.211  27.064  13.366  1.00  0.00     0.003 C 
ATOM     23  C   UNL     1      30.520  29.553  13.082  1.00  0.00     0.010 C 
ATOM     24  C   UNL     1      32.004  28.441  11.320  1.00  0.00     0.012 C 
ATOM     25  C   UNL     1      32.374  27.466  14.359  1.00  0.00    -0.006 C 
ATOM     26  C   UNL     1      31.673  29.976  13.985  1.00  0.00     0.033 C 
ATOM     27  C   UNL     1      32.063  28.865  14.981  1.00  0.00     0.120 C 
ATOM     28  C   UNL     1      32.499  26.453  15.529  1.00  0.00     0.014 C 
ATOM     29  C   UNL     1      33.770  27.469  13.612  1.00  0.00     0.014 C 
ENDROOT
BRANCH   1  30
ATOM     30  C   UNL     1      23.109  28.521  11.007  1.00  0.00     0.048 C 
ATOM     31  O   UNL     1      21.867  28.042  11.243  1.00  0.00    -0.550 OA
ATOM     32  O   UNL     1      23.183  29.821  10.492  1.00  0.00    -0.550 OA
ENDBRANCH   1  30
BRANCH  27  33
ATOM     33  O   UNL     1      33.141  29.276  15.773  1.00  0.00    -0.393 OA
ATOM     34  H   UNL     1      33.333  28.556  16.417  1.00  0.00     0.210 HD
ENDBRANCH  27  33
TORSDOF 2
ENDMDL
MODEL 4
REMARK VINA RESULT:    -5.775      2.006      4.164
REMARK INTER + INTRA:          -6.328
REMARK INTER:                  -6.184
REMARK INTRA:                  -0.144
REMARK UNBOUND:                -0.047
REMARK SMILES C[C@@H]1[C@@H](C)CC[C@@]2(C(=O)[O-])CC[C@]3(C)C(=CC[C@H]4[C@@]5(C)CC[C@H](O)C(C)(C)[C@H]5CC[C@]43C)[C@@H]12
REMARK SMILES IDX 7 1 6 2 11 3 33 4 5 5 12 6 15 7 2 8 3 9 13 10 16 11 1 12
REMARK SMILES IDX 4 13 14 14 31 15 17 16 18 17 30 18 32 19 19 20 29 21 28 22
REMARK SMILES IDX 21 23 20 24 25 25 22 26 23 27 26 28 27 29 8 30 9 31 10 32
REMARK SMILES IDX 24 33
REMARK H PARENT 24 34
REMARK Flexibility Score: inf
ROOT
ATOM      1  C   UNL     1      32.243  27.991  13.444  1.00  0.00     0.017 C 
ATOM      2  C   UNL     1      33.540  28.394  12.689  1.00  0.00     0.014 C 
ATOM      3  C   UNL     1      31.176  29.137  13.736  1.00  0.00     0.014 C 
ATOM      4  C   UNL     1      31.730  26.660  12.512  1.00  0.00     0.030 C 
ATOM      5  C   UNL     1      34.470  27.194  12.343  1.00  0.00     0.004 C 
ATOM      6  C   UNL     1      30.100  29.241  12.658  1.00  0.00     0.013 C 
ATOM      7  C   UNL     1      30.241  26.678  12.256  1.00  0.00    -0.063 C 
ATOM      8  C   UNL     1      32.419  26.571  11.005  1.00  0.00    -0.003 C 
ATOM      9  C   UNL     1      33.961  26.626  11.074  1.00  0.00    -0.011 C 
ATOM     10  C   UNL     1      29.333  27.892  12.448  1.00  0.00    -0.006 C 
ATOM     11  C   UNL     1      29.645  25.528  11.801  1.00  0.00    -0.027 C 
ATOM     12  C   UNL     1      31.968  25.432  10.092  1.00  0.00     0.008 C 
ATOM     13  C   UNL     1      34.615  27.315   9.830  1.00  0.00     0.008 C 
ATOM     14  C   UNL     1      28.530  27.531  13.794  1.00  0.00     0.017 C 
ATOM     15  C   UNL     1      28.448  28.107  11.134  1.00  0.00    -0.020 C 
ATOM     16  C   UNL     1      28.239  25.452  11.355  1.00  0.00     0.032 C 
ATOM     17  C   UNL     1      27.727  26.776  10.687  1.00  0.00     0.006 C 
ATOM     18  C   UNL     1      27.456  29.253  11.471  1.00  0.00     0.008 C 
ATOM     19  C   UNL     1      29.270  28.680   9.832  1.00  0.00     0.012 C 
ATOM     20  C   UNL     1      26.141  26.842  10.631  1.00  0.00    -0.025 C 
ATOM     21  C   UNL     1      26.396  29.473  10.428  1.00  0.00     0.005 C 
ATOM     22  C   UNL     1      25.704  28.167   9.902  1.00  0.00     0.003 C 
ATOM     23  C   UNL     1      25.482  26.745  12.066  1.00  0.00     0.010 C 
ATOM     24  C   UNL     1      25.706  25.578   9.801  1.00  0.00     0.012 C 
ATOM     25  C   UNL     1      24.139  28.382   9.843  1.00  0.00    -0.006 C 
ATOM     26  C   UNL     1      23.965  26.882  12.000  1.00  0.00     0.033 C 
ATOM     27  C   UNL     1      23.534  28.169  11.268  1.00  0.00     0.120 C 
ATOM     28  C   UNL     1      23.780  29.825   9.396  1.00  0.00     0.014 C 
ATOM     29  C   UNL     1      23.480  27.404   8.788  1.00  0.00     0.014 C 
ENDROOT
BRANCH   1  30
ATOM     30  C   UNL     1      32.608  27.816  14.957  1.00  0.00     0.048 C 
ATOM     31  O   UNL     1      32.847  28.968  15.623  1.00  0.00    -0.550 OA
ATOM     32  O   UNL     1      33.139  26.651  15.524  1.00  0.00    -0.550 OA
ENDBRANCH   1  30
BRANCH  27  33
ATOM     33  O   UNL     1      22.137  28.247  11.200  1.00  0.00    -0.393 OA
ATOM     34  H   UNL     1      21.777  27.931  12.061  1.00  0.00     0.210 HD
ENDBRANCH  27  33
TORSDOF 2
ENDMDL
MODEL 5
REMARK VINA RESULT:    -5.745      2.310      3.902
REMARK INTER + INTRA:          -6.295
REMARK INTER:                  -6.148
REMARK INTRA:                  -0.147
REMARK UNBOUND:                -0.047
REMARK SMILES C[C@@H]1[C@@H](C)CC[C@@]2(C(=O)[O-])CC[C@]3(C)C(=CC[C@H]4[C@@]5(C)CC[C@H](O)C(C)(C)[C@H]5CC[C@]43C)[C@@H]12
REMARK SMILES IDX 7 1 6 2 11 3 33 4 5 5 12 6 15 7 2 8 3 9 13 10 16 11 1 12
REMARK SMILES IDX 4 13 14 14 31 15 17 16 18 17 30 18 32 19 19 20 29 21 28 22
REMARK SMILES IDX 21 23 20 24 25 25 22 26 23 27 26 28 27 29 8 30 9 31 10 32
REMARK SMILES IDX 24 33
REMARK H PARENT 24 34
REMARK Flexibility Score: inf
ROOT
ATOM      1  C   UNL     1      32.248  29.162   9.654  1.00  0.00     0.017 C 
ATOM      2  C   UNL     1      33.621  28.437   9.620  1.00  0.00     0.014 C 
ATOM      3  C   UNL     1      31.174  28.753   8.551  1.00  0.00     0.014 C 
ATOM      4  C   UNL     1      31.813  28.950  11.288  1.00  0.00     0.030 C 
ATOM      5  C   UNL     1      34.564  28.811  10.801  1.00  0.00     0.004 C 
ATOM      6  C   UNL     1      30.216  27.662   9.023  1.00  0.00     0.013 C 
ATOM      7  C   UNL     1      30.360  28.573  11.452  1.00  0.00    -0.063 C 
ATOM      8  C   UNL     1      32.654  27.751  12.072  1.00  0.00    -0.003 C 
ATOM      9  C   UNL     1      34.181  27.935  11.932  1.00  0.00    -0.011 C 
ATOM     10  C   UNL     1      29.455  28.060  10.333  1.00  0.00    -0.006 C 
ATOM     11  C   UNL     1      29.797  28.678  12.700  1.00  0.00    -0.027 C 
ATOM     12  C   UNL     1      32.283  27.468  13.526  1.00  0.00     0.008 C 
ATOM     13  C   UNL     1      34.971  26.584  11.909  1.00  0.00     0.008 C 
ATOM     14  C   UNL     1      28.512  29.326  10.025  1.00  0.00     0.017 C 
ATOM     15  C   UNL     1      28.714  26.728  10.815  1.00  0.00    -0.020 C 
ATOM     16  C   UNL     1      28.444  28.191  13.036  1.00  0.00     0.032 C 
ATOM     17  C   UNL     1      28.024  26.916  12.222  1.00  0.00     0.006 C 
ATOM     18  C   UNL     1      27.710  26.366   9.688  1.00  0.00     0.008 C 
ATOM     19  C   UNL     1      29.675  25.399  10.915  1.00  0.00     0.012 C 
ATOM     20  C   UNL     1      26.453  26.680  12.251  1.00  0.00    -0.025 C 
ATOM     21  C   UNL     1      26.767  25.250  10.041  1.00  0.00     0.005 C 
ATOM     22  C   UNL     1      26.114  25.361  11.463  1.00  0.00     0.003 C 
ATOM     23  C   UNL     1      25.647  27.910  11.664  1.00  0.00     0.010 C 
ATOM     24  C   UNL     1      26.088  26.532  13.774  1.00  0.00     0.012 C 
ATOM     25  C   UNL     1      24.567  25.052  11.362  1.00  0.00    -0.006 C 
ATOM     26  C   UNL     1      24.148  27.638  11.633  1.00  0.00     0.033 C 
ATOM     27  C   UNL     1      23.814  26.333  10.880  1.00  0.00     0.120 C 
ATOM     28  C   UNL     1      24.278  23.927  10.332  1.00  0.00     0.014 C 
ATOM     29  C   UNL     1      24.006  24.547  12.753  1.00  0.00     0.014 C 
ENDROOT
BRANCH   1  30
ATOM     30  C   UNL     1      32.451  30.596   9.059  1.00  0.00     0.048 C 
ATOM     31  O   UNL     1      31.461  31.022   8.245  1.00  0.00    -0.550 OA
ATOM     32  O   UNL     1      33.688  31.236   8.918  1.00  0.00    -0.550 OA
ENDBRANCH   1  30
BRANCH  27  33
ATOM     33  O   UNL     1      22.434  26.100  10.896  1.00  0.00    -0.393 OA
ATOM     34  H   UNL     1      22.131  26.154  11.832  1.00  0.00     0.210 HD
ENDBRANCH  27  33
TORSDOF 2
ENDMDL
MODEL 6
REMARK VINA RESULT:    -5.686      3.580      7.613
REMARK INTER + INTRA:          -6.232
REMARK INTER:                  -6.135
REMARK INTRA:                  -0.097
REMARK UNBOUND:                -0.047
REMARK SMILES C[C@@H]1[C@@H](C)CC[C@@]2(C(=O)[O-])CC[C@]3(C)C(=CC[C@H]4[C@@]5(C)CC[C@H](O)C(C)(C)[C@H]5CC[C@]43C)[C@@H]12
REMARK SMILES IDX 7 1 6 2 11 3 33 4 5 5 12 6 15 7 2 8 3 9 13 10 16 11 1 12
REMARK SMILES IDX 4 13 14 14 31 15 17 16 18 17 30 18 32 19 19 20 29 21 28 22
REMARK SMILES IDX 21 23 20 24 25 25 22 26 23 27 26 28 27 29 8 30 9 31 10 32
REMARK SMILES IDX 24 33
REMARK H PARENT 24 34
REMARK Flexibility Score: inf
ROOT
ATOM      1  C   UNL     1      28.024  25.230  14.977  1.00  0.00     0.017 C 
ATOM      2  C   UNL     1      26.581  25.235  14.401  1.00  0.00     0.014 C 
ATOM      3  C   UNL     1      28.920  23.943  14.702  1.00  0.00     0.014 C 
ATOM      4  C   UNL     1      28.603  26.726  14.403  1.00  0.00     0.030 C 
ATOM      5  C   UNL     1      25.818  26.576  14.615  1.00  0.00     0.004 C 
ATOM      6  C   UNL     1      29.792  24.074  13.456  1.00  0.00     0.013 C 
ATOM      7  C   UNL     1      30.013  26.629  13.870  1.00  0.00    -0.063 C 
ATOM      8  C   UNL     1      27.721  27.370  13.153  1.00  0.00    -0.003 C 
ATOM      9  C   UNL     1      26.218  27.463  13.499  1.00  0.00    -0.011 C 
ATOM     10  C   UNL     1      30.729  25.328  13.513  1.00  0.00    -0.006 C 
ATOM     11  C   UNL     1      30.715  27.793  13.672  1.00  0.00    -0.027 C 
ATOM     12  C   UNL     1      28.210  28.687  12.551  1.00  0.00     0.008 C 
ATOM     13  C   UNL     1      25.282  27.287  12.257  1.00  0.00     0.008 C 
ATOM     14  C   UNL     1      31.772  25.147  14.724  1.00  0.00     0.017 C 
ATOM     15  C   UNL     1      31.361  25.452  12.049  1.00  0.00    -0.020 C 
ATOM     16  C   UNL     1      32.032  27.856  13.006  1.00  0.00     0.032 C 
ATOM     17  C   UNL     1      32.215  26.770  11.888  1.00  0.00     0.006 C 
ATOM     18  C   UNL     1      32.191  24.158  11.831  1.00  0.00     0.008 C 
ATOM     19  C   UNL     1      30.271  25.422  10.820  1.00  0.00     0.012 C 
ATOM     20  C   UNL     1      33.742  26.553  11.510  1.00  0.00    -0.025 C 
ATOM     21  C   UNL     1      33.033  24.172  10.586  1.00  0.00     0.005 C 
ATOM     22  C   UNL     1      33.843  25.495  10.350  1.00  0.00     0.003 C 
ATOM     23  C   UNL     1      34.616  26.111  12.753  1.00  0.00     0.010 C 
ATOM     24  C   UNL     1      34.250  27.962  11.026  1.00  0.00     0.012 C 
ATOM     25  C   UNL     1      35.324  25.141   9.929  1.00  0.00    -0.006 C 
ATOM     26  C   UNL     1      36.062  25.839  12.358  1.00  0.00     0.033 C 
ATOM     27  C   UNL     1      36.162  24.817  11.207  1.00  0.00     0.120 C 
ATOM     28  C   UNL     1      35.372  23.889   9.011  1.00  0.00     0.014 C 
ATOM     29  C   UNL     1      35.970  26.328   9.106  1.00  0.00     0.014 C 
ENDROOT
BRANCH   1  30
ATOM     30  C   UNL     1      27.922  24.947  16.513  1.00  0.00     0.048 C 
ATOM     31  O   UNL     1      28.623  23.875  16.944  1.00  0.00    -0.550 OA
ATOM     32  O   UNL     1      26.876  25.376  17.340  1.00  0.00    -0.550 OA
ENDBRANCH   1  30
BRANCH  27  33
ATOM     33  O   UNL     1      37.501  24.613  10.851  1.00  0.00    -0.393 OA
ATOM     34  H   UNL     1      37.595  24.833   9.895  1.00  0.00     0.210 HD
ENDBRANCH  27  33
TORSDOF 2
ENDMDL
MODEL 7
REMARK VINA RESULT:    -5.603      2.153      7.648
REMARK INTER + INTRA:          -6.141
REMARK INTER:                  -5.879
REMARK INTRA:                  -0.262
REMARK UNBOUND:                -0.047
REMARK SMILES C[C@@H]1[C@@H](C)CC[C@@]2(C(=O)[O-])CC[C@]3(C)C(=CC[C@H]4[C@@]5(C)CC[C@H](O)C(C)(C)[C@H]5CC[C@]43C)[C@@H]12
REMARK SMILES IDX 7 1 6 2 11 3 33 4 5 5 12 6 15 7 2 8 3 9 13 10 16 11 1 12
REMARK SMILES IDX 4 13 14 14 31 15 17 16 18 17 30 18 32 19 19 20 29 21 28 22
REMARK SMILES IDX 21 23 20 24 25 25 22 26 23 27 26 28 27 29 8 30 9 31 10 32
REMARK SMILES IDX 24 33
REMARK H PARENT 24 34
REMARK Flexibility Score: inf
ROOT
ATOM      1  C   UNL     1      25.546  25.349  12.326  1.00  0.00     0.017 C 
ATOM      2  C   UNL     1      24.445  25.471  11.238  1.00  0.00     0.014 C 
ATOM      3  C   UNL     1      26.694  24.270  12.092  1.00  0.00     0.014 C 
ATOM      4  C   UNL     1      26.022  26.978  12.486  1.00  0.00     0.030 C 
ATOM      5  C   UNL     1      23.432  26.627  11.488  1.00  0.00     0.004 C 
ATOM      6  C   UNL     1      27.929  24.848  11.404  1.00  0.00     0.013 C 
ATOM      7  C   UNL     1      27.521  27.132  12.574  1.00  0.00    -0.063 C 
ATOM      8  C   UNL     1      25.568  27.952  11.222  1.00  0.00    -0.003 C 
ATOM      9  C   UNL     1      24.053  27.851  10.934  1.00  0.00    -0.011 C 
ATOM     10  C   UNL     1      28.538  26.058  12.190  1.00  0.00    -0.006 C 
ATOM     11  C   UNL     1      28.028  28.329  13.016  1.00  0.00    -0.027 C 
ATOM     12  C   UNL     1      26.003  29.416  11.270  1.00  0.00     0.008 C 
ATOM     13  C   UNL     1      23.693  28.047   9.423  1.00  0.00     0.008 C 
ATOM     14  C   UNL     1      29.070  25.541  13.617  1.00  0.00     0.017 C 
ATOM     15  C   UNL     1      29.636  26.689  11.213  1.00  0.00    -0.020 C 
ATOM     16  C   UNL     1      29.464  28.674  12.995  1.00  0.00     0.032 C 
ATOM     17  C   UNL     1      30.239  28.027  11.794  1.00  0.00     0.006 C 
ATOM     18  C   UNL     1      30.703  25.582  10.999  1.00  0.00     0.008 C 
ATOM     19  C   UNL     1      29.105  27.011   9.691  1.00  0.00     0.012 C 
ATOM     20  C   UNL     1      31.810  28.024  12.029  1.00  0.00    -0.025 C 
ATOM     21  C   UNL     1      31.931  26.047  10.267  1.00  0.00     0.005 C 
ATOM     22  C   UNL     1      32.521  27.413  10.765  1.00  0.00     0.003 C 
ATOM     23  C   UNL     1      32.222  27.240  13.341  1.00  0.00     0.010 C 
ATOM     24  C   UNL     1      32.201  29.536  12.214  1.00  0.00     0.012 C 
ATOM     25  C   UNL     1      34.090  27.291  10.906  1.00  0.00    -0.006 C 
ATOM     26  C   UNL     1      33.736  27.186  13.513  1.00  0.00     0.033 C 
ATOM     27  C   UNL     1      34.437  26.607  12.267  1.00  0.00     0.120 C 
ATOM     28  C   UNL     1      34.697  26.416   9.777  1.00  0.00     0.014 C 
ATOM     29  C   UNL     1      34.773  28.715  10.791  1.00  0.00     0.014 C 
ENDROOT
BRANCH   1  30
ATOM     30  C   UNL     1      24.933  24.571  13.539  1.00  0.00     0.048 C 
ATOM     31  O   UNL     1      25.824  24.183  14.478  1.00  0.00    -0.550 OA
ATOM     32  O   UNL     1      23.718  23.875  13.513  1.00  0.00    -0.550 OA
ENDBRANCH   1  30
BRANCH  27  33
ATOM     33  O   UNL     1      35.825  26.599  12.449  1.00  0.00    -0.393 OA
ATOM     34  H   UNL     1      36.014  26.136  13.298  1.00  0.00     0.210 HD
ENDBRANCH  27  33
TORSDOF 2
ENDMDL
MODEL 8
REMARK VINA RESULT:    -5.539      2.097      2.662
REMARK INTER + INTRA:          -6.071
REMARK INTER:                  -5.810
REMARK INTRA:                  -0.261
REMARK UNBOUND:                -0.047
REMARK SMILES C[C@@H]1[C@@H](C)CC[C@@]2(C(=O)[O-])CC[C@]3(C)C(=CC[C@H]4[C@@]5(C)CC[C@H](O)C(C)(C)[C@H]5CC[C@]43C)[C@@H]12
REMARK SMILES IDX 7 1 6 2 11 3 33 4 5 5 12 6 15 7 2 8 3 9 13 10 16 11 1 12
REMARK SMILES IDX 4 13 14 14 31 15 17 16 18 17 30 18 32 19 19 20 29 21 28 22
REMARK SMILES IDX 21 23 20 24 25 25 22 26 23 27 26 28 27 29 8 30 9 31 10 32
REMARK SMILES IDX 24 33
REMARK H PARENT 24 34
REMARK Flexibility Score: inf
ROOT
ATOM      1  C   UNL     1      31.576  25.895  13.758  1.00  0.00     0.017 C 
ATOM      2  C   UNL     1      32.139  26.429  15.104  1.00  0.00     0.014 C 
ATOM      3  C   UNL     1      30.245  25.022  13.814  1.00  0.00     0.014 C 
ATOM      4  C   UNL     1      31.536  27.327  12.836  1.00  0.00     0.030 C 
ATOM      5  C   UNL     1      33.371  27.367  14.947  1.00  0.00     0.004 C 
ATOM      6  C   UNL     1      28.977  25.849  13.615  1.00  0.00     0.013 C 
ATOM      7  C   UNL     1      30.264  27.458  12.033  1.00  0.00    -0.063 C 
ATOM      8  C   UNL     1      31.618  28.723  13.732  1.00  0.00    -0.003 C 
ATOM      9  C   UNL     1      32.832  28.722  14.687  1.00  0.00    -0.011 C 
ATOM     10  C   UNL     1      28.990  26.648  12.268  1.00  0.00    -0.006 C 
ATOM     11  C   UNL     1      30.228  28.382  11.018  1.00  0.00    -0.027 C 
ATOM     12  C   UNL     1      31.536  30.049  12.977  1.00  0.00     0.008 C 
ATOM     13  C   UNL     1      32.576  29.506  16.018  1.00  0.00     0.008 C 
ATOM     14  C   UNL     1      28.995  25.606  11.042  1.00  0.00     0.017 C 
ATOM     15  C   UNL     1      27.737  27.638  12.349  1.00  0.00    -0.020 C 
ATOM     16  C   UNL     1      29.005  28.729  10.265  1.00  0.00     0.032 C 
ATOM     17  C   UNL     1      27.698  28.636  11.128  1.00  0.00     0.006 C 
ATOM     18  C   UNL     1      26.481  26.730  12.434  1.00  0.00     0.008 C 
ATOM     19  C   UNL     1      27.654  28.539  13.721  1.00  0.00     0.012 C 
ATOM     20  C   UNL     1      26.392  28.564  10.227  1.00  0.00    -0.025 C 
ATOM     21  C   UNL     1      25.179  27.471  12.315  1.00  0.00     0.005 C 
ATOM     22  C   UNL     1      25.123  28.528  11.157  1.00  0.00     0.003 C 
ATOM     23  C   UNL     1      26.404  27.324   9.243  1.00  0.00     0.010 C 
ATOM     24  C   UNL     1      26.414  29.879   9.363  1.00  0.00     0.012 C 
ATOM     25  C   UNL     1      23.757  28.386  10.375  1.00  0.00    -0.006 C 
ATOM     26  C   UNL     1      25.114  27.229   8.438  1.00  0.00     0.033 C 
ATOM     27  C   UNL     1      23.868  27.215   9.347  1.00  0.00     0.120 C 
ATOM     28  C   UNL     1      22.584  28.052  11.336  1.00  0.00     0.014 C 
ATOM     29  C   UNL     1      23.379  29.745   9.658  1.00  0.00     0.014 C 
ENDROOT
BRANCH   1  30
ATOM     30  C   UNL     1      32.464  24.683  13.318  1.00  0.00     0.048 C 
ATOM     31  O   UNL     1      31.958  23.942  12.307  1.00  0.00    -0.550 OA
ATOM     32  O   UNL     1      33.424  24.059  14.123  1.00  0.00    -0.550 OA
ENDBRANCH   1  30
BRANCH  27  33
ATOM     33  O   UNL     1      22.701  27.157   8.574  1.00  0.00    -0.393 OA
ATOM     34  H   UNL     1      22.015  26.685   9.100  1.00  0.00     0.210 HD
ENDBRANCH  27  33
TORSDOF 2
ENDMDL
