MODEL 1
REMARK VINA RESULT:    -2.625      0.000      0.000
REMARK INTER + INTRA:          -3.081
REMARK INTER:                  -3.162
REMARK INTRA:                   0.081
REMARK UNBOUND:                 0.081
REMARK SMILES O=c1c(O)c(-c2ccc(O)c(O)c2)oc2cc(O)cc(O)c12
REMARK SMILES IDX 5 1 3 2 2 3 1 4 22 5 20 6 19 7 17 8 16 9 15 10 14 11 6 12
REMARK SMILES IDX 7 13 8 14 9 15 13 16 11 17 10 18 12 20 4 22 21 24 18 26
REMARK H PARENT 10 19 12 21 4 23 21 25 18 27
REMARK Flexibility Score: inf
ROOT
ATOM      1  C   UNL     1      94.799 104.603  98.677  1.00  0.00     0.180 A 
ATOM      2  C   UNL     1      95.669 104.010  97.741  1.00  0.00     0.208 A 
ATOM      3  C   UNL     1      95.595 102.625  97.528  1.00  0.00     0.238 A 
ATOM      4  O   UNL     1      96.361 102.086  96.683  1.00  0.00    -0.285 OA
ATOM      5  C   UNL     1      94.671 101.855  98.263  1.00  0.00     0.111 A 
ATOM      6  C   UNL     1      94.536 100.454  98.111  1.00  0.00     0.134 A 
ATOM      7  C   UNL     1      93.599  99.757  98.888  1.00  0.00     0.093 A 
ATOM      8  C   UNL     1      92.797 100.431  99.813  1.00  0.00     0.123 A 
ATOM      9  C   UNL     1      92.926 101.815  99.967  1.00  0.00     0.094 A 
ATOM     10  C   UNL     1      93.853 102.528  99.201  1.00  0.00     0.146 A 
ATOM     11  O   UNL     1      93.952 103.842  99.364  1.00  0.00    -0.452 OA
ENDROOT
BRANCH   1  12
ATOM     12  C   UNL     1      94.804 106.059  98.945  1.00  0.00     0.025 A 
ATOM     13  C   UNL     1      94.846 106.959  97.869  1.00  0.00     0.016 A 
ATOM     14  C   UNL     1      94.873 108.336  98.098  1.00  0.00     0.051 A 
ATOM     15  C   UNL     1      94.875 108.836  99.403  1.00  0.00     0.157 A 
ATOM     16  C   UNL     1      94.827 106.562 100.258  1.00  0.00     0.062 A 
ATOM     17  C   UNL     1      94.856 107.945 100.490  1.00  0.00     0.158 A 
BRANCH  15  18
ATOM     18  O   UNL     1      94.900 110.216  99.601  1.00  0.00    -0.504 OA
ATOM     19  H   UNL     1      95.603 110.808  99.176  1.00  0.00     0.293 HD
ENDBRANCH  15  18
BRANCH  17  20
ATOM     20  O   UNL     1      94.872 108.436 101.795  1.00  0.00    -0.504 OA
ATOM     21  H   UNL     1      94.489 107.905 102.567  1.00  0.00     0.293 HD
ENDBRANCH  17  20
ENDBRANCH   1  12
BRANCH   2  22
ATOM     22  O   UNL     1      96.609 104.788  97.060  1.00  0.00    -0.502 OA
ATOM     23  H   UNL     1      97.483 105.078  97.483  1.00  0.00     0.293 HD
ENDBRANCH   2  22
BRANCH   6  24
ATOM     24  O   UNL     1      95.323  99.751  97.197  1.00  0.00    -0.507 OA
ATOM     25  H   UNL     1      94.950  98.981  96.655  1.00  0.00     0.293 HD
ENDBRANCH   6  24
BRANCH   8  26
ATOM     26  O   UNL     1      91.876  99.714 100.572  1.00  0.00    -0.508 OA
ATOM     27  H   UNL     1      91.924  98.705 100.649  1.00  0.00     0.293 HD
ENDBRANCH   8  26
TORSDOF 6
ENDMDL
MODEL 2
REMARK VINA RESULT:    -2.513      1.552      1.580
REMARK INTER + INTRA:          -2.947
REMARK INTER:                  -2.735
REMARK INTRA:                  -0.211
REMARK UNBOUND:                 0.081
REMARK SMILES O=c1c(O)c(-c2ccc(O)c(O)c2)oc2cc(O)cc(O)c12
REMARK SMILES IDX 5 1 3 2 2 3 1 4 22 5 20 6 19 7 17 8 16 9 15 10 14 11 6 12
REMARK SMILES IDX 7 13 8 14 9 15 13 16 11 17 10 18 12 20 4 22 21 24 18 26
REMARK H PARENT 10 19 12 21 4 23 21 25 18 27
REMARK Flexibility Score: inf
ROOT
ATOM      1  C   UNL     1      95.164 104.601  99.269  1.00  0.00     0.180 A 
ATOM      2  C   UNL     1      96.361 103.977  99.673  1.00  0.00     0.208 A 
ATOM      3  C   UNL     1      96.440 102.577  99.639  1.00  0.00     0.238 A 
ATOM      4  O   UNL     1      97.511 102.008  99.987  1.00  0.00    -0.285 OA
ATOM      5  C   UNL     1      95.324 101.824  99.221  1.00  0.00     0.111 A 
ATOM      6  C   UNL     1      95.321 100.409  99.161  1.00  0.00     0.134 A 
ATOM      7  C   UNL     1      94.165  99.733  98.744  1.00  0.00     0.093 A 
ATOM      8  C   UNL     1      93.015 100.441  98.388  1.00  0.00     0.123 A 
ATOM      9  C   UNL     1      93.012 101.838  98.445  1.00  0.00     0.094 A 
ATOM     10  C   UNL     1      94.154 102.531  98.856  1.00  0.00     0.146 A 
ATOM     11  O   UNL     1      94.125 103.857  98.897  1.00  0.00    -0.452 OA
ENDROOT
BRANCH   1  12
ATOM     12  C   UNL     1      95.007 106.073  99.261  1.00  0.00     0.025 A 
ATOM     13  C   UNL     1      94.964 106.756  98.035  1.00  0.00     0.016 A 
ATOM     14  C   UNL     1      94.838 108.146  98.004  1.00  0.00     0.051 A 
ATOM     15  C   UNL     1      94.770 108.878  99.193  1.00  0.00     0.157 A 
ATOM     16  C   UNL     1      94.960 106.811 100.457  1.00  0.00     0.062 A 
ATOM     17  C   UNL     1      94.836 108.208 100.427  1.00  0.00     0.158 A 
BRANCH  15  18
ATOM     18  O   UNL     1      94.643 110.265  99.131  1.00  0.00    -0.504 OA
ATOM     19  H   UNL     1      94.708 110.848  99.956  1.00  0.00     0.293 HD
ENDBRANCH  15  18
BRANCH  17  20
ATOM     20  O   UNL     1      94.784 108.932 101.618  1.00  0.00    -0.504 OA
ATOM     21  H   UNL     1      94.090 108.735 102.330  1.00  0.00     0.293 HD
ENDBRANCH  17  20
ENDBRANCH   1  12
BRANCH   2  22
ATOM     22  O   UNL     1      97.436 104.743 100.129  1.00  0.00    -0.502 OA
ATOM     23  H   UNL     1      98.148 104.368 100.745  1.00  0.00     0.293 HD
ENDBRANCH   2  22
BRANCH   6  24
ATOM     24  O   UNL     1      96.454  99.674  99.512  1.00  0.00    -0.507 OA
ATOM     25  H   UNL     1      96.803  98.923  98.928  1.00  0.00     0.293 HD
ENDBRANCH   6  24
BRANCH   8  26
ATOM     26  O   UNL     1      91.880  99.744  97.978  1.00  0.00    -0.508 OA
ATOM     27  H   UNL     1      91.174  99.445  98.642  1.00  0.00     0.293 HD
ENDBRANCH   8  26
TORSDOF 6
ENDMDL
MODEL 3
REMARK VINA RESULT:    -0.877      1.687      2.868
REMARK INTER + INTRA:          -0.975
REMARK INTER:                  -0.643
REMARK INTRA:                  -0.332
REMARK UNBOUND:                 0.081
REMARK SMILES O=c1c(O)c(-c2ccc(O)c(O)c2)oc2cc(O)cc(O)c12
REMARK SMILES IDX 5 1 3 2 2 3 1 4 22 5 20 6 19 7 17 8 16 9 15 10 14 11 6 12
REMARK SMILES IDX 7 13 8 14 9 15 13 16 11 17 10 18 12 20 4 22 21 24 18 26
REMARK H PARENT 10 19 12 21 4 23 21 25 18 27
REMARK Flexibility Score: inf
ROOT
ATOM      1  C   UNL     1      94.496 104.281  99.664  1.00  0.00     0.180 A 
ATOM      2  C   UNL     1      93.241 103.642  99.715  1.00  0.00     0.208 A 
ATOM      3  C   UNL     1      93.196 102.241  99.785  1.00  0.00     0.238 A 
ATOM      4  O   UNL     1      92.078 101.659  99.843  1.00  0.00    -0.285 OA
ATOM      5  C   UNL     1      94.397 101.503  99.784  1.00  0.00     0.111 A 
ATOM      6  C   UNL     1      94.438 100.090  99.849  1.00  0.00     0.134 A 
ATOM      7  C   UNL     1      95.675  99.429  99.833  1.00  0.00     0.093 A 
ATOM      8  C   UNL     1      96.868 100.150  99.753  1.00  0.00     0.123 A 
ATOM      9  C   UNL     1      96.834 101.546  99.690  1.00  0.00     0.094 A 
ATOM     10  C   UNL     1      95.612 102.225  99.705  1.00  0.00     0.146 A 
ATOM     11  O   UNL     1      95.608 103.551  99.648  1.00  0.00    -0.452 OA
ENDROOT
BRANCH   1  12
ATOM     12  C   UNL     1      94.627 105.754  99.606  1.00  0.00     0.025 A 
ATOM     13  C   UNL     1      94.736 106.390  98.360  1.00  0.00     0.016 A 
ATOM     14  C   UNL     1      94.882 107.776  98.283  1.00  0.00     0.051 A 
ATOM     15  C   UNL     1      94.936 108.548  99.447  1.00  0.00     0.157 A 
ATOM     16  C   UNL     1      94.702 106.529 100.777  1.00  0.00     0.062 A 
ATOM     17  C   UNL     1      94.850 107.922 100.702  1.00  0.00     0.158 A 
BRANCH  15  18
ATOM     18  O   UNL     1      95.079 109.931  99.339  1.00  0.00    -0.504 OA
ATOM     19  H   UNL     1      95.897 110.356  98.918  1.00  0.00     0.293 HD
ENDBRANCH  15  18
BRANCH  17  20
ATOM     20  O   UNL     1      94.918 108.683 101.868  1.00  0.00    -0.504 OA
ATOM     21  H   UNL     1      95.314 108.312 102.723  1.00  0.00     0.293 HD
ENDBRANCH  17  20
ENDBRANCH   1  12
BRANCH   2  22
ATOM     22  O   UNL     1      92.064 104.393  99.665  1.00  0.00    -0.502 OA
ATOM     23  H   UNL     1      91.735 104.832  98.813  1.00  0.00     0.293 HD
ENDBRANCH   2  22
BRANCH   6  24
ATOM     24  O   UNL     1      93.264  99.340  99.929  1.00  0.00    -0.507 OA
ATOM     25  H   UNL     1      93.178  98.436  99.481  1.00  0.00     0.293 HD
ENDBRANCH   6  24
BRANCH   8  26
ATOM     26  O   UNL     1      98.083  99.468  99.738  1.00  0.00    -0.508 OA
ATOM     27  H   UNL     1      98.154  98.506 100.051  1.00  0.00     0.293 HD
ENDBRANCH   8  26
TORSDOF 6
ENDMDL
