MODEL 1
REMARK VINA RESULT:    -7.608      0.000      0.000
REMARK INTER + INTRA:          -9.131
REMARK INTER:                  -8.942
REMARK INTRA:                  -0.189
REMARK UNBOUND:                -0.189
REMARK SMILES O=c1c(O)c(-c2ccc(O)cc2)oc2cc(O)cc(O)c12
REMARK SMILES IDX 5 1 3 2 2 3 1 4 21 5 19 6 18 7 16 8 15 9 14 10 13 11 6 12
REMARK SMILES IDX 7 13 8 14 9 15 12 16 11 17 10 18 4 20 20 22 17 24
REMARK H PARENT 10 19 4 21 20 23 17 25
REMARK Flexibility Score: inf
ROOT
ATOM      1  C   UNL     1     -24.877  61.008  31.694  1.00  0.00     0.180 A 
ATOM      2  C   UNL     1     -25.284  60.168  30.643  1.00  0.00     0.208 A 
ATOM      3  C   UNL     1     -24.415  59.960  29.561  1.00  0.00     0.238 A 
ATOM      4  O   UNL     1     -24.763  59.163  28.650  1.00  0.00    -0.285 OA
ATOM      5  C   UNL     1     -23.156  60.606  29.534  1.00  0.00     0.111 A 
ATOM      6  C   UNL     1     -22.212  60.499  28.469  1.00  0.00     0.134 A 
ATOM      7  C   UNL     1     -20.945  61.077  28.608  1.00  0.00     0.093 A 
ATOM      8  C   UNL     1     -20.610  61.814  29.743  1.00  0.00     0.123 A 
ATOM      9  C   UNL     1     -21.547  61.976  30.766  1.00  0.00     0.094 A 
ATOM     10  C   UNL     1     -22.806  61.379  30.672  1.00  0.00     0.146 A 
ATOM     11  O   UNL     1     -23.664  61.549  31.671  1.00  0.00    -0.452 OA
ENDROOT
BRANCH   1  12
ATOM     12  C   UNL     1     -25.748  61.297  32.855  1.00  0.00     0.021 A 
ATOM     13  C   UNL     1     -25.358  60.868  34.135  1.00  0.00     0.016 A 
ATOM     14  C   UNL     1     -26.155  61.149  35.249  1.00  0.00     0.047 A 
ATOM     15  C   UNL     1     -27.341  61.874  35.103  1.00  0.00     0.115 A 
ATOM     16  C   UNL     1     -26.932  62.043  32.716  1.00  0.00     0.016 A 
ATOM     17  C   UNL     1     -27.727  62.324  33.833  1.00  0.00     0.047 A 
BRANCH  15  18
ATOM     18  O   UNL     1     -28.125  62.147  36.221  1.00  0.00    -0.508 OA
ATOM     19  H   UNL     1     -28.149  61.517  37.016  1.00  0.00     0.293 HD
ENDBRANCH  15  18
ENDBRANCH   1  12
BRANCH   2  20
ATOM     20  O   UNL     1     -26.523  59.521  30.700  1.00  0.00    -0.502 OA
ATOM     21  H   UNL     1     -26.772  58.888  31.450  1.00  0.00     0.293 HD
ENDBRANCH   2  20
BRANCH   6  22
ATOM     22  O   UNL     1     -22.477  59.864  27.252  1.00  0.00    -0.507 OA
ATOM     23  H   UNL     1     -22.292  58.890  27.059  1.00  0.00     0.293 HD
ENDBRANCH   6  22
BRANCH   8  24
ATOM     24  O   UNL     1     -19.345  62.390  29.841  1.00  0.00    -0.508 OA
ATOM     25  H   UNL     1     -18.511  61.822  29.939  1.00  0.00     0.293 HD
ENDBRANCH   8  24
TORSDOF 5
ENDMDL
MODEL 2
REMARK VINA RESULT:    -6.850      1.879      2.777
REMARK INTER + INTRA:          -8.241
REMARK INTER:                  -8.261
REMARK INTRA:                   0.020
REMARK UNBOUND:                -0.189
REMARK SMILES O=c1c(O)c(-c2ccc(O)cc2)oc2cc(O)cc(O)c12
REMARK SMILES IDX 5 1 3 2 2 3 1 4 21 5 19 6 18 7 16 8 15 9 14 10 13 11 6 12
REMARK SMILES IDX 7 13 8 14 9 15 12 16 11 17 10 18 4 20 20 22 17 24
REMARK H PARENT 10 19 4 21 20 23 17 25
REMARK Flexibility Score: inf
ROOT
ATOM      1  C   UNL     1     -25.294  60.864  31.607  1.00  0.00     0.180 A 
ATOM      2  C   UNL     1     -24.977  61.796  30.605  1.00  0.00     0.208 A 
ATOM      3  C   UNL     1     -24.228  61.376  29.494  1.00  0.00     0.238 A 
ATOM      4  O   UNL     1     -23.994  62.202  28.574  1.00  0.00    -0.285 OA
ATOM      5  C   UNL     1     -23.793  60.031  29.407  1.00  0.00     0.111 A 
ATOM      6  C   UNL     1     -22.995  59.505  28.347  1.00  0.00     0.134 A 
ATOM      7  C   UNL     1     -22.732  58.131  28.296  1.00  0.00     0.093 A 
ATOM      8  C   UNL     1     -23.182  57.275  29.301  1.00  0.00     0.123 A 
ATOM      9  C   UNL     1     -23.912  57.788  30.374  1.00  0.00     0.094 A 
ATOM     10  C   UNL     1     -24.221  59.149  30.432  1.00  0.00     0.146 A 
ATOM     11  O   UNL     1     -24.927  59.595  31.464  1.00  0.00    -0.452 OA
ENDROOT
BRANCH   1  12
ATOM     12  C   UNL     1     -26.057  61.237  32.819  1.00  0.00     0.021 A 
ATOM     13  C   UNL     1     -25.517  60.967  34.088  1.00  0.00     0.016 A 
ATOM     14  C   UNL     1     -26.211  61.331  35.245  1.00  0.00     0.047 A 
ATOM     15  C   UNL     1     -27.444  61.983  35.152  1.00  0.00     0.115 A 
ATOM     16  C   UNL     1     -27.290  61.911  32.731  1.00  0.00     0.016 A 
ATOM     17  C   UNL     1     -27.981  62.275  33.891  1.00  0.00     0.047 A 
BRANCH  15  18
ATOM     18  O   UNL     1     -28.125  62.339  36.314  1.00  0.00    -0.508 OA
ATOM     19  H   UNL     1     -28.154  61.724  37.119  1.00  0.00     0.293 HD
ENDBRANCH  15  18
ENDBRANCH   1  12
BRANCH   2  20
ATOM     20  O   UNL     1     -25.436  63.114  30.700  1.00  0.00    -0.502 OA
ATOM     21  H   UNL     1     -24.826  63.912  30.574  1.00  0.00     0.293 HD
ENDBRANCH   2  20
BRANCH   6  22
ATOM     22  O   UNL     1     -22.418  60.287  27.341  1.00  0.00    -0.507 OA
ATOM     23  H   UNL     1     -22.131  59.941  26.438  1.00  0.00     0.293 HD
ENDBRANCH   6  22
BRANCH   8  24
ATOM     24  O   UNL     1     -22.888  55.915  29.227  1.00  0.00    -0.508 OA
ATOM     25  H   UNL     1     -22.003  55.545  29.552  1.00  0.00     0.293 HD
ENDBRANCH   8  24
TORSDOF 5
ENDMDL
MODEL 3
REMARK VINA RESULT:    -6.850      1.695      1.924
REMARK INTER + INTRA:          -8.241
REMARK INTER:                  -8.145
REMARK INTRA:                  -0.096
REMARK UNBOUND:                -0.189
REMARK SMILES O=c1c(O)c(-c2ccc(O)cc2)oc2cc(O)cc(O)c12
REMARK SMILES IDX 5 1 3 2 2 3 1 4 21 5 19 6 18 7 16 8 15 9 14 10 13 11 6 12
REMARK SMILES IDX 7 13 8 14 9 15 12 16 11 17 10 18 4 20 20 22 17 24
REMARK H PARENT 10 19 4 21 20 23 17 25
REMARK Flexibility Score: inf
ROOT
ATOM      1  C   UNL     1     -24.991  60.246  31.895  1.00  0.00     0.180 A 
ATOM      2  C   UNL     1     -24.680  58.876  31.889  1.00  0.00     0.208 A 
ATOM      3  C   UNL     1     -23.897  58.359  30.844  1.00  0.00     0.238 A 
ATOM      4  O   UNL     1     -23.576  57.142  30.875  1.00  0.00    -0.285 OA
ATOM      5  C   UNL     1     -23.448  59.215  29.811  1.00  0.00     0.111 A 
ATOM      6  C   UNL     1     -22.683  58.792  28.683  1.00  0.00     0.134 A 
ATOM      7  C   UNL     1     -22.183  59.747  27.789  1.00  0.00     0.093 A 
ATOM      8  C   UNL     1     -22.475  61.102  27.945  1.00  0.00     0.123 A 
ATOM      9  C   UNL     1     -23.272  61.520  29.012  1.00  0.00     0.094 A 
ATOM     10  C   UNL     1     -23.755  60.595  29.940  1.00  0.00     0.146 A 
ATOM     11  O   UNL     1     -24.501  61.036  30.946  1.00  0.00    -0.452 OA
ENDROOT
BRANCH   1  12
ATOM     12  C   UNL     1     -25.832  60.859  32.947  1.00  0.00     0.021 A 
ATOM     13  C   UNL     1     -25.377  60.874  34.276  1.00  0.00     0.016 A 
ATOM     14  C   UNL     1     -26.146  61.467  35.282  1.00  0.00     0.047 A 
ATOM     15  C   UNL     1     -27.369  62.067  34.972  1.00  0.00     0.115 A 
ATOM     16  C   UNL     1     -27.055  61.482  32.638  1.00  0.00     0.016 A 
ATOM     17  C   UNL     1     -27.822  62.076  33.646  1.00  0.00     0.047 A 
BRANCH  15  18
ATOM     18  O   UNL     1     -28.125  62.654  35.985  1.00  0.00    -0.508 OA
ATOM     19  H   UNL     1     -28.649  63.507  35.826  1.00  0.00     0.293 HD
ENDBRANCH  15  18
ENDBRANCH   1  12
BRANCH   2  20
ATOM     20  O   UNL     1     -25.114  58.051  32.932  1.00  0.00    -0.502 OA
ATOM     21  H   UNL     1     -25.587  57.171  32.768  1.00  0.00     0.293 HD
ENDBRANCH   2  20
BRANCH   6  22
ATOM     22  O   UNL     1     -22.411  57.454  28.381  1.00  0.00    -0.507 OA
ATOM     23  H   UNL     1     -21.881  56.828  28.970  1.00  0.00     0.293 HD
ENDBRANCH   6  22
BRANCH   8  24
ATOM     24  O   UNL     1     -21.973  62.023  27.028  1.00  0.00    -0.508 OA
ATOM     25  H   UNL     1     -22.377  62.947  26.931  1.00  0.00     0.293 HD
ENDBRANCH   8  24
TORSDOF 5
ENDMDL
MODEL 4
REMARK VINA RESULT:    -6.741      3.270      6.253
REMARK INTER + INTRA:          -8.112
REMARK INTER:                  -7.824
REMARK INTRA:                  -0.288
REMARK UNBOUND:                -0.189
REMARK SMILES O=c1c(O)c(-c2ccc(O)cc2)oc2cc(O)cc(O)c12
REMARK SMILES IDX 5 1 3 2 2 3 1 4 21 5 19 6 18 7 16 8 15 9 14 10 13 11 6 12
REMARK SMILES IDX 7 13 8 14 9 15 12 16 11 17 10 18 4 20 20 22 17 24
REMARK H PARENT 10 19 4 21 20 23 17 25
REMARK Flexibility Score: inf
ROOT
ATOM      1  C   UNL     1     -22.207  60.800  33.234  1.00  0.00     0.180 A 
ATOM      2  C   UNL     1     -22.265  61.261  31.908  1.00  0.00     0.208 A 
ATOM      3  C   UNL     1     -23.513  61.361  31.274  1.00  0.00     0.238 A 
ATOM      4  O   UNL     1     -23.563  61.827  30.106  1.00  0.00    -0.285 OA
ATOM      5  C   UNL     1     -24.688  60.984  31.969  1.00  0.00     0.111 A 
ATOM      6  C   UNL     1     -26.001  61.007  31.412  1.00  0.00     0.134 A 
ATOM      7  C   UNL     1     -27.104  60.737  32.231  1.00  0.00     0.093 A 
ATOM      8  C   UNL     1     -26.937  60.381  33.569  1.00  0.00     0.123 A 
ATOM      9  C   UNL     1     -25.653  60.297  34.109  1.00  0.00     0.094 A 
ATOM     10  C   UNL     1     -24.536  60.597  33.326  1.00  0.00     0.146 A 
ATOM     11  O   UNL     1     -23.332  60.516  33.881  1.00  0.00    -0.452 OA
ENDROOT
BRANCH   1  12
ATOM     12  C   UNL     1     -20.927  60.643  33.960  1.00  0.00     0.021 A 
ATOM     13  C   UNL     1     -20.233  59.424  33.883  1.00  0.00     0.016 A 
ATOM     14  C   UNL     1     -19.011  59.261  34.544  1.00  0.00     0.047 A 
ATOM     15  C   UNL     1     -18.460  60.317  35.275  1.00  0.00     0.115 A 
ATOM     16  C   UNL     1     -20.358  61.708  34.681  1.00  0.00     0.016 A 
ATOM     17  C   UNL     1     -19.135  61.544  35.340  1.00  0.00     0.047 A 
BRANCH  15  18
ATOM     18  O   UNL     1     -17.242  60.141  35.928  1.00  0.00    -0.508 OA
ATOM     19  H   UNL     1     -16.582  60.904  36.032  1.00  0.00     0.293 HD
ENDBRANCH  15  18
ENDBRANCH   1  12
BRANCH   2  20
ATOM     20  O   UNL     1     -21.095  61.649  31.248  1.00  0.00    -0.502 OA
ATOM     21  H   UNL     1     -20.952  61.493  30.258  1.00  0.00     0.293 HD
ENDBRANCH   2  20
BRANCH   6  22
ATOM     22  O   UNL     1     -26.274  61.260  30.064  1.00  0.00    -0.507 OA
ATOM     23  H   UNL     1     -26.316  60.554  29.344  1.00  0.00     0.293 HD
ENDBRANCH   6  22
BRANCH   8  24
ATOM     24  O   UNL     1     -28.057  60.103  34.351  1.00  0.00    -0.508 OA
ATOM     25  H   UNL     1     -28.965  59.935  33.935  1.00  0.00     0.293 HD
ENDBRANCH   8  24
TORSDOF 5
ENDMDL
MODEL 5
REMARK VINA RESULT:    -6.685      3.196      6.564
REMARK INTER + INTRA:          -8.047
REMARK INTER:                  -7.750
REMARK INTRA:                  -0.297
REMARK UNBOUND:                -0.189
REMARK SMILES O=c1c(O)c(-c2ccc(O)cc2)oc2cc(O)cc(O)c12
REMARK SMILES IDX 5 1 3 2 2 3 1 4 21 5 19 6 18 7 16 8 15 9 14 10 13 11 6 12
REMARK SMILES IDX 7 13 8 14 9 15 12 16 11 17 10 18 4 20 20 22 17 24
REMARK H PARENT 10 19 4 21 20 23 17 25
REMARK Flexibility Score: inf
ROOT
ATOM      1  C   UNL     1     -22.692  60.629  33.762  1.00  0.00     0.180 A 
ATOM      2  C   UNL     1     -23.017  60.635  32.395  1.00  0.00     0.208 A 
ATOM      3  C   UNL     1     -24.360  60.780  32.013  1.00  0.00     0.238 A 
ATOM      4  O   UNL     1     -24.638  60.840  30.787  1.00  0.00    -0.285 OA
ATOM      5  C   UNL     1     -25.364  60.903  33.004  1.00  0.00     0.111 A 
ATOM      6  C   UNL     1     -26.761  61.016  32.732  1.00  0.00     0.134 A 
ATOM      7  C   UNL     1     -27.651  61.264  33.784  1.00  0.00     0.093 A 
ATOM      8  C   UNL     1     -27.205  61.336  35.103  1.00  0.00     0.123 A 
ATOM      9  C   UNL     1     -25.849  61.168  35.387  1.00  0.00     0.094 A 
ATOM     10  C   UNL     1     -24.931  60.957  34.354  1.00  0.00     0.146 A 
ATOM     11  O   UNL     1     -23.649  60.812  34.666  1.00  0.00    -0.452 OA
ENDROOT
BRANCH   1  12
ATOM     12  C   UNL     1     -21.303  60.454  34.243  1.00  0.00     0.021 A 
ATOM     13  C   UNL     1     -20.512  61.586  34.500  1.00  0.00     0.016 A 
ATOM     14  C   UNL     1     -19.205  61.444  34.975  1.00  0.00     0.047 A 
ATOM     15  C   UNL     1     -18.677  60.172  35.214  1.00  0.00     0.115 A 
ATOM     16  C   UNL     1     -20.774  59.177  34.504  1.00  0.00     0.016 A 
ATOM     17  C   UNL     1     -19.466  59.037  34.980  1.00  0.00     0.047 A 
BRANCH  15  18
ATOM     18  O   UNL     1     -17.373  60.045  35.687  1.00  0.00    -0.508 OA
ATOM     19  H   UNL     1     -16.575  60.136  35.068  1.00  0.00     0.293 HD
ENDBRANCH  15  18
ENDBRANCH   1  12
BRANCH   2  20
ATOM     20  O   UNL     1     -22.008  60.534  31.432  1.00  0.00    -0.502 OA
ATOM     21  H   UNL     1     -21.025  60.602  31.666  1.00  0.00     0.293 HD
ENDBRANCH   2  20
BRANCH   6  22
ATOM     22  O   UNL     1     -27.324  60.868  31.461  1.00  0.00    -0.507 OA
ATOM     23  H   UNL     1     -28.250  61.174  31.203  1.00  0.00     0.293 HD
ENDBRANCH   6  22
BRANCH   8  24
ATOM     24  O   UNL     1     -28.121  61.568  36.127  1.00  0.00    -0.508 OA
ATOM     25  H   UNL     1     -28.794  60.864  36.406  1.00  0.00     0.293 HD
ENDBRANCH   8  24
TORSDOF 5
ENDMDL
MODEL 6
REMARK VINA RESULT:    -6.454      2.079      6.423
REMARK INTER + INTRA:          -7.775
REMARK INTER:                  -7.487
REMARK INTRA:                  -0.289
REMARK UNBOUND:                -0.189
REMARK SMILES O=c1c(O)c(-c2ccc(O)cc2)oc2cc(O)cc(O)c12
REMARK SMILES IDX 5 1 3 2 2 3 1 4 21 5 19 6 18 7 16 8 15 9 14 10 13 11 6 12
REMARK SMILES IDX 7 13 8 14 9 15 12 16 11 17 10 18 4 20 20 22 17 24
REMARK H PARENT 10 19 4 21 20 23 17 25
REMARK Flexibility Score: inf
ROOT
ATOM      1  C   UNL     1     -24.101  60.260  30.866  1.00  0.00     0.180 A 
ATOM      2  C   UNL     1     -25.375  60.824  31.052  1.00  0.00     0.208 A 
ATOM      3  C   UNL     1     -25.805  61.123  32.355  1.00  0.00     0.238 A 
ATOM      4  O   UNL     1     -26.924  61.678  32.509  1.00  0.00    -0.285 OA
ATOM      5  C   UNL     1     -24.962  60.842  33.456  1.00  0.00     0.111 A 
ATOM      6  C   UNL     1     -25.311  61.067  34.822  1.00  0.00     0.134 A 
ATOM      7  C   UNL     1     -24.350  60.874  35.821  1.00  0.00     0.093 A 
ATOM      8  C   UNL     1     -23.076  60.400  35.513  1.00  0.00     0.123 A 
ATOM      9  C   UNL     1     -22.743  60.119  34.187  1.00  0.00     0.094 A 
ATOM     10  C   UNL     1     -23.668  60.338  33.164  1.00  0.00     0.146 A 
ATOM     11  O   UNL     1     -23.308  60.068  31.915  1.00  0.00    -0.452 OA
ENDROOT
BRANCH   1  12
ATOM     12  C   UNL     1     -23.589  59.893  29.527  1.00  0.00     0.021 A 
ATOM     13  C   UNL     1     -23.887  58.628  28.995  1.00  0.00     0.016 A 
ATOM     14  C   UNL     1     -23.431  58.269  27.723  1.00  0.00     0.047 A 
ATOM     15  C   UNL     1     -22.686  59.173  26.960  1.00  0.00     0.115 A 
ATOM     16  C   UNL     1     -22.855  60.806  28.748  1.00  0.00     0.016 A 
ATOM     17  C   UNL     1     -22.401  60.445  27.475  1.00  0.00     0.047 A 
BRANCH  15  18
ATOM     18  O   UNL     1     -22.238  58.802  25.695  1.00  0.00    -0.508 OA
ATOM     19  H   UNL     1     -22.743  59.065  24.857  1.00  0.00     0.293 HD
ENDBRANCH  15  18
ENDBRANCH   1  12
BRANCH   2  20
ATOM     20  O   UNL     1     -26.183  61.114  29.948  1.00  0.00    -0.502 OA
ATOM     21  H   UNL     1     -26.412  60.423  29.245  1.00  0.00     0.293 HD
ENDBRANCH   2  20
BRANCH   6  22
ATOM     22  O   UNL     1     -26.586  61.453  35.249  1.00  0.00    -0.507 OA
ATOM     23  H   UNL     1     -26.774  61.999  36.076  1.00  0.00     0.293 HD
ENDBRANCH   6  22
BRANCH   8  24
ATOM     24  O   UNL     1     -22.149  60.204  36.535  1.00  0.00    -0.508 OA
ATOM     25  H   UNL     1     -22.433  60.166  37.507  1.00  0.00     0.293 HD
ENDBRANCH   8  24
TORSDOF 5
ENDMDL
MODEL 7
REMARK VINA RESULT:    -6.443      3.385      6.038
REMARK INTER + INTRA:          -7.762
REMARK INTER:                  -7.508
REMARK INTRA:                  -0.254
REMARK UNBOUND:                -0.189
REMARK SMILES O=c1c(O)c(-c2ccc(O)cc2)oc2cc(O)cc(O)c12
REMARK SMILES IDX 5 1 3 2 2 3 1 4 21 5 19 6 18 7 16 8 15 9 14 10 13 11 6 12
REMARK SMILES IDX 7 13 8 14 9 15 12 16 11 17 10 18 4 20 20 22 17 24
REMARK H PARENT 10 19 4 21 20 23 17 25
REMARK Flexibility Score: inf
ROOT
ATOM      1  C   UNL     1     -20.731  60.824  32.102  1.00  0.00     0.180 A 
ATOM      2  C   UNL     1     -20.250  61.140  30.820  1.00  0.00     0.208 A 
ATOM      3  C   UNL     1     -21.163  61.511  29.820  1.00  0.00     0.238 A 
ATOM      4  O   UNL     1     -20.720  61.845  28.691  1.00  0.00    -0.285 OA
ATOM      5  C   UNL     1     -22.548  61.546  30.111  1.00  0.00     0.111 A 
ATOM      6  C   UNL     1     -23.566  61.869  29.164  1.00  0.00     0.134 A 
ATOM      7  C   UNL     1     -24.892  62.000  29.593  1.00  0.00     0.093 A 
ATOM      8  C   UNL     1     -25.247  61.756  30.919  1.00  0.00     0.123 A 
ATOM      9  C   UNL     1     -24.269  61.381  31.841  1.00  0.00     0.094 A 
ATOM     10  C   UNL     1     -22.931  61.278  31.451  1.00  0.00     0.146 A 
ATOM     11  O   UNL     1     -22.030  60.930  32.361  1.00  0.00    -0.452 OA
ENDROOT
BRANCH   1  12
ATOM     12  C   UNL     1     -19.834  60.400  33.200  1.00  0.00     0.021 A 
ATOM     13  C   UNL     1     -19.559  61.289  34.252  1.00  0.00     0.016 A 
ATOM     14  C   UNL     1     -18.731  60.901  35.310  1.00  0.00     0.047 A 
ATOM     15  C   UNL     1     -18.181  59.616  35.339  1.00  0.00     0.115 A 
ATOM     16  C   UNL     1     -19.293  59.102  33.244  1.00  0.00     0.016 A 
ATOM     17  C   UNL     1     -18.466  58.715  34.304  1.00  0.00     0.047 A 
BRANCH  15  18
ATOM     18  O   UNL     1     -17.357  59.244  36.399  1.00  0.00    -0.508 OA
ATOM     19  H   UNL     1     -16.701  59.896  36.813  1.00  0.00     0.293 HD
ENDBRANCH  15  18
ENDBRANCH   1  12
BRANCH   2  20
ATOM     20  O   UNL     1     -18.876  61.120  30.561  1.00  0.00    -0.502 OA
ATOM     21  H   UNL     1     -18.323  61.966  30.491  1.00  0.00     0.293 HD
ENDBRANCH   2  20
BRANCH   6  22
ATOM     22  O   UNL     1     -23.334  62.042  27.796  1.00  0.00    -0.507 OA
ATOM     23  H   UNL     1     -22.729  61.459  27.237  1.00  0.00     0.293 HD
ENDBRANCH   6  22
BRANCH   8  24
ATOM     24  O   UNL     1     -26.580  61.881  31.308  1.00  0.00    -0.508 OA
ATOM     25  H   UNL     1     -27.298  62.166  30.653  1.00  0.00     0.293 HD
ENDBRANCH   8  24
TORSDOF 5
ENDMDL
MODEL 8
REMARK VINA RESULT:    -6.394     17.890     20.234
REMARK INTER + INTRA:          -7.705
REMARK INTER:                  -7.492
REMARK INTRA:                  -0.213
REMARK UNBOUND:                -0.189
REMARK SMILES O=c1c(O)c(-c2ccc(O)cc2)oc2cc(O)cc(O)c12
REMARK SMILES IDX 5 1 3 2 2 3 1 4 21 5 19 6 18 7 16 8 15 9 14 10 13 11 6 12
REMARK SMILES IDX 7 13 8 14 9 15 12 16 11 17 10 18 4 20 20 22 17 24
REMARK H PARENT 10 19 4 21 20 23 17 25
REMARK Flexibility Score: inf
ROOT
ATOM      1  C   UNL     1     -14.984  45.074  25.043  1.00  0.00     0.180 A 
ATOM      2  C   UNL     1     -13.832  45.865  25.183  1.00  0.00     0.208 A 
ATOM      3  C   UNL     1     -12.898  45.902  24.135  1.00  0.00     0.238 A 
ATOM      4  O   UNL     1     -11.896  46.656  24.244  1.00  0.00    -0.285 OA
ATOM      5  C   UNL     1     -13.122  45.136  22.966  1.00  0.00     0.111 A 
ATOM      6  C   UNL     1     -12.224  45.067  21.858  1.00  0.00     0.134 A 
ATOM      7  C   UNL     1     -12.608  44.380  20.700  1.00  0.00     0.093 A 
ATOM      8  C   UNL     1     -13.826  43.705  20.633  1.00  0.00     0.123 A 
ATOM      9  C   UNL     1     -14.686  43.716  21.733  1.00  0.00     0.094 A 
ATOM     10  C   UNL     1     -14.347  44.423  22.889  1.00  0.00     0.146 A 
ATOM     11  O   UNL     1     -15.198  44.418  23.908  1.00  0.00    -0.452 OA
ENDROOT
BRANCH   1  12
ATOM     12  C   UNL     1     -16.000  44.963  26.114  1.00  0.00     0.021 A 
ATOM     13  C   UNL     1     -16.886  46.030  26.340  1.00  0.00     0.016 A 
ATOM     14  C   UNL     1     -17.867  45.938  27.332  1.00  0.00     0.047 A 
ATOM     15  C   UNL     1     -17.987  44.775  28.099  1.00  0.00     0.115 A 
ATOM     16  C   UNL     1     -16.138  43.788  26.875  1.00  0.00     0.016 A 
ATOM     17  C   UNL     1     -17.121  43.698  27.866  1.00  0.00     0.047 A 
BRANCH  15  18
ATOM     18  O   UNL     1     -18.969  44.697  29.084  1.00  0.00    -0.508 OA
ATOM     19  H   UNL     1     -19.927  44.457  28.857  1.00  0.00     0.293 HD
ENDBRANCH  15  18
ENDBRANCH   1  12
BRANCH   2  20
ATOM     20  O   UNL     1     -13.641  46.632  26.336  1.00  0.00    -0.502 OA
ATOM     21  H   UNL     1     -12.957  46.391  27.043  1.00  0.00     0.293 HD
ENDBRANCH   2  20
BRANCH   6  22
ATOM     22  O   UNL     1     -10.944  45.628  21.855  1.00  0.00    -0.507 OA
ATOM     23  H   UNL     1     -10.227  45.420  21.175  1.00  0.00     0.293 HD
ENDBRANCH   6  22
BRANCH   8  24
ATOM     24  O   UNL     1     -14.169  43.018  19.470  1.00  0.00    -0.508 OA
ATOM     25  H   UNL     1     -13.623  43.109  18.621  1.00  0.00     0.293 HD
ENDBRANCH   8  24
TORSDOF 5
ENDMDL
MODEL 9
REMARK VINA RESULT:    -6.389      3.444      5.375
REMARK INTER + INTRA:          -7.699
REMARK INTER:                  -7.407
REMARK INTRA:                  -0.292
REMARK UNBOUND:                -0.189
REMARK SMILES O=c1c(O)c(-c2ccc(O)cc2)oc2cc(O)cc(O)c12
REMARK SMILES IDX 5 1 3 2 2 3 1 4 21 5 19 6 18 7 16 8 15 9 14 10 13 11 6 12
REMARK SMILES IDX 7 13 8 14 9 15 12 16 11 17 10 18 4 20 20 22 17 24
REMARK H PARENT 10 19 4 21 20 23 17 25
REMARK Flexibility Score: inf
ROOT
ATOM      1  C   UNL     1     -21.396  60.756  32.523  1.00  0.00     0.180 A 
ATOM      2  C   UNL     1     -22.755  60.911  32.844  1.00  0.00     0.208 A 
ATOM      3  C   UNL     1     -23.659  61.274  31.833  1.00  0.00     0.238 A 
ATOM      4  O   UNL     1     -24.882  61.356  32.116  1.00  0.00    -0.285 OA
ATOM      5  C   UNL     1     -23.189  61.493  30.515  1.00  0.00     0.111 A 
ATOM      6  C   UNL     1     -24.009  61.902  29.421  1.00  0.00     0.134 A 
ATOM      7  C   UNL     1     -23.463  61.963  28.133  1.00  0.00     0.093 A 
ATOM      8  C   UNL     1     -22.113  61.693  27.911  1.00  0.00     0.123 A 
ATOM      9  C   UNL     1     -21.288  61.350  28.983  1.00  0.00     0.094 A 
ATOM     10  C   UNL     1     -21.813  61.245  30.274  1.00  0.00     0.146 A 
ATOM     11  O   UNL     1     -20.997  60.905  31.264  1.00  0.00    -0.452 OA
ENDROOT
BRANCH   1  12
ATOM     12  C   UNL     1     -20.380  60.401  33.539  1.00  0.00     0.021 A 
ATOM     13  C   UNL     1     -19.956  59.067  33.657  1.00  0.00     0.016 A 
ATOM     14  C   UNL     1     -18.982  58.714  34.596  1.00  0.00     0.047 A 
ATOM     15  C   UNL     1     -18.407  59.689  35.416  1.00  0.00     0.115 A 
ATOM     16  C   UNL     1     -19.784  61.382  34.353  1.00  0.00     0.016 A 
ATOM     17  C   UNL     1     -18.809  61.025  35.291  1.00  0.00     0.047 A 
BRANCH  15  18
ATOM     18  O   UNL     1     -17.438  59.322  36.347  1.00  0.00    -0.508 OA
ATOM     19  H   UNL     1     -17.668  59.190  37.325  1.00  0.00     0.293 HD
ENDBRANCH  15  18
ENDBRANCH   1  12
BRANCH   2  20
ATOM     20  O   UNL     1     -23.201  60.668  34.147  1.00  0.00    -0.502 OA
ATOM     21  H   UNL     1     -22.700  60.995  34.964  1.00  0.00     0.293 HD
ENDBRANCH   2  20
BRANCH   6  22
ATOM     22  O   UNL     1     -25.348  62.284  29.548  1.00  0.00    -0.507 OA
ATOM     23  H   UNL     1     -26.110  61.895  29.012  1.00  0.00     0.293 HD
ENDBRANCH   6  22
BRANCH   8  24
ATOM     24  O   UNL     1     -21.599  61.778  26.618  1.00  0.00    -0.508 OA
ATOM     25  H   UNL     1     -20.899  61.127  26.283  1.00  0.00     0.293 HD
ENDBRANCH   8  24
TORSDOF 5
ENDMDL
