MODEL 1
REMARK VINA RESULT:     7.738      0.000      0.000
REMARK INTER + INTRA:          13.828
REMARK INTER:                  14.072
REMARK INTRA:                  -0.244
REMARK UNBOUND:                -0.244
REMARK SMILES CCCCCCCCCCCCCCCC(=O)[O-]
REMARK SMILES IDX 9 1 10 2 11 3 12 4 13 5 14 6 15 7 16 8 17 9 18 10 8 11 7 12
REMARK SMILES IDX 6 13 5 14 4 15 3 16 2 17 1 18
REMARK H PARENT
REMARK Flexibility Score: inf
ROOT
ATOM      1  C   UNL     1       9.309 -31.675 -16.612  1.00  0.00     0.000 C 
ENDROOT
BRANCH   1   2
ATOM      2  C   UNL     1       9.223 -31.570 -15.085  1.00  0.00     0.000 C 
BRANCH   2   3
ATOM      3  C   UNL     1       9.233 -30.102 -14.634  1.00  0.00     0.000 C 
BRANCH   3   4
ATOM      4  C   UNL     1       8.156 -29.794 -13.579  1.00  0.00     0.000 C 
BRANCH   4   5
ATOM      5  C   UNL     1       8.566 -30.082 -12.120  1.00  0.00     0.000 C 
BRANCH   5   6
ATOM      6  C   UNL     1       7.784 -29.294 -11.055  1.00  0.00     0.006 C 
BRANCH   6   7
ATOM      7  C   UNL     1       8.441 -29.351  -9.670  1.00  0.00     0.053 C 
BRANCH   7   8
ATOM      8  C   UNL     1       9.879 -28.950  -9.757  1.00  0.00     0.041 C 
ATOM      9  O   UNL     1      10.218 -27.755  -9.547  1.00  0.00    -0.550 OA
ATOM     10  O   UNL     1      10.841 -29.885 -10.118  1.00  0.00    -0.550 OA
ENDBRANCH   7   8
ENDBRANCH   6   7
ENDBRANCH   5   6
ENDBRANCH   4   5
ENDBRANCH   3   4
ENDBRANCH   2   3
ENDBRANCH   1   2
BRANCH   1  11
ATOM     11  C   UNL     1       9.929 -30.406 -17.217  1.00  0.00     0.000 C 
BRANCH  11  12
ATOM     12  C   UNL     1       8.935 -29.618 -18.085  1.00  0.00    -0.000 C 
BRANCH  12  13
ATOM     13  C   UNL     1       7.887 -28.864 -17.248  1.00  0.00    -0.000 C 
BRANCH  13  14
ATOM     14  C   UNL     1       6.636 -28.499 -18.064  1.00  0.00    -0.000 C 
BRANCH  14  15
ATOM     15  C   UNL     1       6.646 -29.124 -19.469  1.00  0.00    -0.000 C 
BRANCH  15  16
ATOM     16  C   UNL     1       6.552 -28.074 -20.591  1.00  0.00    -0.000 C 
BRANCH  16  17
ATOM     17  C   UNL     1       6.210 -28.643 -21.979  1.00  0.00    -0.003 C 
ATOM     18  C   UNL     1       6.680 -27.748 -23.125  1.00  0.00     0.004 C 
ENDBRANCH  16  17
ENDBRANCH  15  16
ENDBRANCH  14  15
ENDBRANCH  13  14
ENDBRANCH  12  13
ENDBRANCH  11  12
ENDBRANCH   1  11
TORSDOF 14
ENDMDL
MODEL 2
REMARK VINA RESULT:     7.812      4.431      8.948
REMARK INTER + INTRA:          13.961
REMARK INTER:                  14.312
REMARK INTRA:                  -0.351
REMARK UNBOUND:                -0.244
REMARK SMILES CCCCCCCCCCCCCCCC(=O)[O-]
REMARK SMILES IDX 9 1 10 2 11 3 12 4 13 5 14 6 15 7 16 8 17 9 18 10 8 11 7 12
REMARK SMILES IDX 6 13 5 14 4 15 3 16 2 17 1 18
REMARK H PARENT
REMARK Flexibility Score: inf
ROOT
ATOM      1  C   UNL     1       9.482 -31.720 -16.359  1.00  0.00     0.000 C 
ENDROOT
BRANCH   1   2
ATOM      2  C   UNL     1       9.931 -30.382 -16.957  1.00  0.00     0.000 C 
BRANCH   2   3
ATOM      3  C   UNL     1       8.850 -29.803 -17.881  1.00  0.00     0.000 C 
BRANCH   3   4
ATOM      4  C   UNL     1       7.758 -29.034 -17.116  1.00  0.00     0.000 C 
BRANCH   4   5
ATOM      5  C   UNL     1       6.570 -28.555 -17.975  1.00  0.00     0.000 C 
BRANCH   5   6
ATOM      6  C   UNL     1       6.575 -29.056 -19.430  1.00  0.00     0.006 C 
BRANCH   6   7
ATOM      7  C   UNL     1       6.484 -27.916 -20.453  1.00  0.00     0.053 C 
BRANCH   7   8
ATOM      8  C   UNL     1       6.563 -28.457 -21.846  1.00  0.00     0.041 C 
ATOM      9  O   UNL     1       6.063 -27.813 -22.805  1.00  0.00    -0.550 OA
ATOM     10  O   UNL     1       7.147 -29.695 -22.078  1.00  0.00    -0.550 OA
ENDBRANCH   7   8
ENDBRANCH   6   7
ENDBRANCH   5   6
ENDBRANCH   4   5
ENDBRANCH   3   4
ENDBRANCH   2   3
ENDBRANCH   1   2
BRANCH   1  11
ATOM     11  C   UNL     1       9.082 -31.558 -14.885  1.00  0.00     0.000 C 
BRANCH  11  12
ATOM     12  C   UNL     1       9.044 -30.088 -14.441  1.00  0.00    -0.000 C 
BRANCH  12  13
ATOM     13  C   UNL     1       8.127 -29.860 -13.226  1.00  0.00    -0.000 C 
BRANCH  13  14
ATOM     14  C   UNL     1       8.877 -29.991 -11.891  1.00  0.00    -0.000 C 
BRANCH  14  15
ATOM     15  C   UNL     1       8.136 -29.308 -10.729  1.00  0.00    -0.000 C 
BRANCH  15  16
ATOM     16  C   UNL     1       8.985 -29.222  -9.448  1.00  0.00    -0.000 C 
BRANCH  16  17
ATOM     17  C   UNL     1       9.917 -27.999  -9.376  1.00  0.00    -0.003 C 
ATOM     18  C   UNL     1       9.170 -26.692  -9.115  1.00  0.00     0.004 C 
ENDBRANCH  16  17
ENDBRANCH  15  16
ENDBRANCH  14  15
ENDBRANCH  13  14
ENDBRANCH  12  13
ENDBRANCH  11  12
ENDBRANCH   1  11
TORSDOF 14
ENDMDL
MODEL 3
REMARK VINA RESULT:     8.023      4.292      8.774
REMARK INTER + INTRA:          14.346
REMARK INTER:                  14.727
REMARK INTRA:                  -0.381
REMARK UNBOUND:                -0.244
REMARK SMILES CCCCCCCCCCCCCCCC(=O)[O-]
REMARK SMILES IDX 9 1 10 2 11 3 12 4 13 5 14 6 15 7 16 8 17 9 18 10 8 11 7 12
REMARK SMILES IDX 6 13 5 14 4 15 3 16 2 17 1 18
REMARK H PARENT
REMARK Flexibility Score: inf
ROOT
ATOM      1  C   UNL     1       9.246 -31.979 -15.244  1.00  0.00     0.000 C 
ENDROOT
BRANCH   1   2
ATOM      2  C   UNL     1       9.332 -31.786 -16.762  1.00  0.00     0.000 C 
BRANCH   2   3
ATOM      3  C   UNL     1       9.713 -30.340 -17.112  1.00  0.00     0.000 C 
BRANCH   3   4
ATOM      4  C   UNL     1       8.852 -29.753 -18.245  1.00  0.00     0.000 C 
BRANCH   4   5
ATOM      5  C   UNL     1       7.570 -29.029 -17.785  1.00  0.00     0.000 C 
BRANCH   5   6
ATOM      6  C   UNL     1       6.481 -28.885 -18.863  1.00  0.00     0.006 C 
BRANCH   6   7
ATOM      7  C   UNL     1       6.930 -28.028 -20.053  1.00  0.00     0.053 C 
BRANCH   7   8
ATOM      8  C   UNL     1       6.695 -28.757 -21.339  1.00  0.00     0.041 C 
ATOM      9  O   UNL     1       6.971 -29.982 -21.432  1.00  0.00    -0.550 OA
ATOM     10  O   UNL     1       6.216 -28.072 -22.448  1.00  0.00    -0.550 OA
ENDBRANCH   7   8
ENDBRANCH   6   7
ENDBRANCH   5   6
ENDBRANCH   4   5
ENDBRANCH   3   4
ENDBRANCH   2   3
ENDBRANCH   1   2
BRANCH   1  11
ATOM     11  C   UNL     1       9.580 -30.674 -14.504  1.00  0.00     0.000 C 
BRANCH  11  12
ATOM     12  C   UNL     1       8.406 -29.682 -14.497  1.00  0.00    -0.000 C 
BRANCH  12  13
ATOM     13  C   UNL     1       7.749 -29.554 -13.111  1.00  0.00    -0.000 C 
BRANCH  13  14
ATOM     14  C   UNL     1       8.763 -29.696 -11.965  1.00  0.00    -0.000 C 
BRANCH  14  15
ATOM     15  C   UNL     1       8.173 -29.292 -10.603  1.00  0.00    -0.000 C 
BRANCH  15  16
ATOM     16  C   UNL     1       9.211 -29.333  -9.467  1.00  0.00    -0.000 C 
BRANCH  16  17
ATOM     17  C   UNL     1       9.967 -28.012  -9.239  1.00  0.00    -0.003 C 
ATOM     18  C   UNL     1       9.091 -26.777  -9.448  1.00  0.00     0.004 C 
ENDBRANCH  16  17
ENDBRANCH  15  16
ENDBRANCH  14  15
ENDBRANCH  13  14
ENDBRANCH  12  13
ENDBRANCH  11  12
ENDBRANCH   1  11
TORSDOF 14
ENDMDL
MODEL 4
REMARK VINA RESULT:     9.009      3.246      5.117
REMARK INTER + INTRA:          16.138
REMARK INTER:                  14.468
REMARK INTRA:                   1.670
REMARK UNBOUND:                -0.244
REMARK SMILES CCCCCCCCCCCCCCCC(=O)[O-]
REMARK SMILES IDX 9 1 10 2 11 3 12 4 13 5 14 6 15 7 16 8 17 9 18 10 8 11 7 12
REMARK SMILES IDX 6 13 5 14 4 15 3 16 2 17 1 18
REMARK H PARENT
REMARK Flexibility Score: inf
ROOT
ATOM      1  C   UNL     1       6.782 -29.026 -18.262  1.00  0.00     0.000 C 
ENDROOT
BRANCH   1   2
ATOM      2  C   UNL     1       6.221 -28.000 -17.271  1.00  0.00     0.000 C 
BRANCH   2   3
ATOM      3  C   UNL     1       7.050 -27.974 -15.978  1.00  0.00     0.000 C 
BRANCH   3   4
ATOM      4  C   UNL     1       8.111 -29.088 -15.927  1.00  0.00     0.000 C 
BRANCH   4   5
ATOM      5  C   UNL     1       8.393 -29.660 -14.522  1.00  0.00     0.000 C 
BRANCH   5   6
ATOM      6  C   UNL     1       9.336 -30.876 -14.491  1.00  0.00     0.006 C 
BRANCH   6   7
ATOM      7  C   UNL     1       9.771 -31.329 -15.891  1.00  0.00     0.053 C 
BRANCH   7   8
ATOM      8  C   UNL     1       9.242 -32.697 -16.185  1.00  0.00     0.041 C 
ATOM      9  O   UNL     1       8.779 -33.410 -15.256  1.00  0.00    -0.550 OA
ATOM     10  O   UNL     1       9.305 -33.204 -17.476  1.00  0.00    -0.550 OA
ENDBRANCH   7   8
ENDBRANCH   6   7
ENDBRANCH   5   6
ENDBRANCH   4   5
ENDBRANCH   3   4
ENDBRANCH   2   3
ENDBRANCH   1   2
BRANCH   1  11
ATOM     11  C   UNL     1       6.005 -28.994 -19.586  1.00  0.00     0.000 C 
BRANCH  11  12
ATOM     12  C   UNL     1       6.147 -27.652 -20.322  1.00  0.00    -0.000 C 
BRANCH  12  13
ATOM     13  C   UNL     1       6.216 -27.820 -21.850  1.00  0.00    -0.000 C 
BRANCH  13  14
ATOM     14  C   UNL     1       7.366 -28.741 -22.289  1.00  0.00    -0.000 C 
BRANCH  14  15
ATOM     15  C   UNL     1       7.685 -29.824 -21.244  1.00  0.00    -0.000 C 
BRANCH  15  16
ATOM     16  C   UNL     1       9.109 -29.703 -20.673  1.00  0.00    -0.000 C 
BRANCH  16  17
ATOM     17  C   UNL     1       9.308 -30.360 -19.296  1.00  0.00    -0.003 C 
ATOM     18  C   UNL     1      10.080 -29.475 -18.317  1.00  0.00     0.004 C 
ENDBRANCH  16  17
ENDBRANCH  15  16
ENDBRANCH  14  15
ENDBRANCH  13  14
ENDBRANCH  12  13
ENDBRANCH  11  12
ENDBRANCH   1  11
TORSDOF 14
ENDMDL
MODEL 5
REMARK VINA RESULT:     9.681      3.874      5.480
REMARK INTER + INTRA:          17.361
REMARK INTER:                  17.404
REMARK INTRA:                  -0.043
REMARK UNBOUND:                -0.244
REMARK SMILES CCCCCCCCCCCCCCCC(=O)[O-]
REMARK SMILES IDX 9 1 10 2 11 3 12 4 13 5 14 6 15 7 16 8 17 9 18 10 8 11 7 12
REMARK SMILES IDX 6 13 5 14 4 15 3 16 2 17 1 18
REMARK H PARENT
REMARK Flexibility Score: inf
ROOT
ATOM      1  C   UNL     1       6.652 -29.101 -18.612  1.00  0.00     0.000 C 
ENDROOT
BRANCH   1   2
ATOM      2  C   UNL     1       6.983 -28.401 -17.289  1.00  0.00     0.000 C 
BRANCH   2   3
ATOM      3  C   UNL     1       8.016 -29.205 -16.487  1.00  0.00     0.000 C 
BRANCH   3   4
ATOM      4  C   UNL     1       7.832 -29.064 -14.965  1.00  0.00     0.000 C 
BRANCH   4   5
ATOM      5  C   UNL     1       8.738 -29.972 -14.108  1.00  0.00     0.000 C 
BRANCH   5   6
ATOM      6  C   UNL     1       9.825 -30.730 -14.890  1.00  0.00     0.006 C 
BRANCH   6   7
ATOM      7  C   UNL     1       9.390 -32.143 -15.299  1.00  0.00     0.053 C 
BRANCH   7   8
ATOM      8  C   UNL     1       9.402 -32.281 -16.789  1.00  0.00     0.041 C 
ATOM      9  O   UNL     1       9.306 -33.419 -17.320  1.00  0.00    -0.550 OA
ATOM     10  O   UNL     1       9.570 -31.159 -17.590  1.00  0.00    -0.550 OA
ENDBRANCH   7   8
ENDBRANCH   6   7
ENDBRANCH   5   6
ENDBRANCH   4   5
ENDBRANCH   3   4
ENDBRANCH   2   3
ENDBRANCH   1   2
BRANCH   1  11
ATOM     11  C   UNL     1       6.542 -28.085 -19.760  1.00  0.00     0.000 C 
BRANCH  11  12
ATOM     12  C   UNL     1       7.454 -28.433 -20.947  1.00  0.00    -0.000 C 
BRANCH  12  13
ATOM     13  C   UNL     1       7.401 -29.926 -21.316  1.00  0.00    -0.000 C 
BRANCH  13  14
ATOM     14  C   UNL     1       8.736 -30.643 -21.055  1.00  0.00    -0.000 C 
BRANCH  14  15
ATOM     15  C   UNL     1       8.760 -32.070 -21.630  1.00  0.00    -0.000 C 
BRANCH  15  16
ATOM     16  C   UNL     1      10.164 -32.699 -21.604  1.00  0.00    -0.000 C 
BRANCH  16  17
ATOM     17  C   UNL     1      10.789 -32.936 -22.990  1.00  0.00    -0.003 C 
ATOM     18  C   UNL     1      12.190 -32.339 -23.125  1.00  0.00     0.004 C 
ENDBRANCH  16  17
ENDBRANCH  15  16
ENDBRANCH  14  15
ENDBRANCH  13  14
ENDBRANCH  12  13
ENDBRANCH  11  12
ENDBRANCH   1  11
TORSDOF 14
ENDMDL
