MODEL 1
REMARK VINA RESULT:     8.309      0.000      0.000
REMARK INTER + INTRA:          13.638
REMARK INTER:                  14.138
REMARK INTRA:                  -0.500
REMARK UNBOUND:                -0.500
REMARK SMILES CCCCCCCCCCCCCC(=O)[O-]
REMARK SMILES IDX 8 1 9 2 10 3 11 4 12 5 13 6 14 7 15 8 16 9 7 10 6 11 5 12
REMARK SMILES IDX 4 13 3 14 2 15 1 16
REMARK H PARENT
REMARK Flexibility Score: inf
ROOT
ATOM      1  C   UNL     1      14.345  14.353  16.655  1.00  0.00     0.000 C 
ENDROOT
BRANCH   1   2
ATOM      2  C   UNL     1      14.161  13.293  17.755  1.00  0.00     0.000 C 
BRANCH   2   3
ATOM      3  C   UNL     1      13.487  12.014  17.234  1.00  0.00     0.000 C 
BRANCH   3   4
ATOM      4  C   UNL     1      12.005  11.917  17.636  1.00  0.00     0.000 C 
BRANCH   4   5
ATOM      5  C   UNL     1      11.061  12.465  16.554  1.00  0.00     0.006 C 
BRANCH   5   6
ATOM      6  C   UNL     1       9.851  11.555  16.312  1.00  0.00     0.053 C 
BRANCH   6   7
ATOM      7  C   UNL     1       8.786  12.291  15.562  1.00  0.00     0.041 C 
ATOM      8  O   UNL     1       7.982  13.041  16.176  1.00  0.00    -0.550 OA
ATOM      9  O   UNL     1       8.648  12.110  14.192  1.00  0.00    -0.550 OA
ENDBRANCH   6   7
ENDBRANCH   5   6
ENDBRANCH   4   5
ENDBRANCH   3   4
ENDBRANCH   2   3
ENDBRANCH   1   2
BRANCH   1  10
ATOM     10  C   UNL     1      13.894  15.753  17.104  1.00  0.00     0.000 C 
BRANCH  10  11
ATOM     11  C   UNL     1      14.753  16.309  18.252  1.00  0.00    -0.000 C 
BRANCH  11  12
ATOM     12  C   UNL     1      15.432  17.644  17.897  1.00  0.00    -0.000 C 
BRANCH  12  13
ATOM     13  C   UNL     1      16.723  17.950  18.683  1.00  0.00    -0.000 C 
BRANCH  13  14
ATOM     14  C   UNL     1      16.574  18.989  19.811  1.00  0.00    -0.000 C 
BRANCH  14  15
ATOM     15  C   UNL     1      17.096  20.396  19.467  1.00  0.00    -0.003 C 
ATOM     16  C   UNL     1      16.023  21.476  19.593  1.00  0.00     0.004 C 
ENDBRANCH  14  15
ENDBRANCH  13  14
ENDBRANCH  12  13
ENDBRANCH  11  12
ENDBRANCH  10  11
ENDBRANCH   1  10
TORSDOF 12
ENDMDL
MODEL 2
REMARK VINA RESULT:     9.035      4.413      8.981
REMARK INTER + INTRA:          14.874
REMARK INTER:                  15.291
REMARK INTRA:                  -0.418
REMARK UNBOUND:                -0.500
REMARK SMILES CCCCCCCCCCCCCC(=O)[O-]
REMARK SMILES IDX 8 1 9 2 10 3 11 4 12 5 13 6 14 7 15 8 16 9 7 10 6 11 5 12
REMARK SMILES IDX 4 13 3 14 2 15 1 16
REMARK H PARENT
REMARK Flexibility Score: inf
ROOT
ATOM      1  C   UNL     1      14.241  13.589  17.694  1.00  0.00     0.000 C 
ENDROOT
BRANCH   1   2
ATOM      2  C   UNL     1      14.169  14.753  16.690  1.00  0.00     0.000 C 
BRANCH   2   3
ATOM      3  C   UNL     1      14.161  16.126  17.380  1.00  0.00     0.000 C 
BRANCH   3   4
ATOM      4  C   UNL     1      15.513  16.473  18.028  1.00  0.00     0.000 C 
BRANCH   4   5
ATOM      5  C   UNL     1      15.692  17.984  18.248  1.00  0.00     0.006 C 
BRANCH   5   6
ATOM      6  C   UNL     1      16.932  18.314  19.089  1.00  0.00     0.053 C 
BRANCH   6   7
ATOM      7  C   UNL     1      16.768  19.639  19.764  1.00  0.00     0.041 C 
ATOM      8  O   UNL     1      16.452  19.695  20.981  1.00  0.00    -0.550 OA
ATOM      9  O   UNL     1      16.914  20.813  19.036  1.00  0.00    -0.550 OA
ENDBRANCH   6   7
ENDBRANCH   5   6
ENDBRANCH   4   5
ENDBRANCH   3   4
ENDBRANCH   2   3
ENDBRANCH   1   2
BRANCH   1  10
ATOM     10  C   UNL     1      13.742  12.264  17.096  1.00  0.00     0.000 C 
BRANCH  10  11
ATOM     11  C   UNL     1      12.299  11.934  17.514  1.00  0.00    -0.000 C 
BRANCH  11  12
ATOM     12  C   UNL     1      11.248  12.588  16.598  1.00  0.00    -0.000 C 
BRANCH  12  13
ATOM     13  C   UNL     1       9.878  11.881  16.566  1.00  0.00    -0.000 C 
BRANCH  13  14
ATOM     14  C   UNL     1       8.706  12.743  16.057  1.00  0.00    -0.000 C 
BRANCH  14  15
ATOM     15  C   UNL     1       8.049  12.237  14.759  1.00  0.00    -0.003 C 
ATOM     16  C   UNL     1       9.061  11.688  13.755  1.00  0.00     0.004 C 
ENDBRANCH  14  15
ENDBRANCH  13  14
ENDBRANCH  12  13
ENDBRANCH  11  12
ENDBRANCH  10  11
ENDBRANCH   1  10
TORSDOF 12
ENDMDL
MODEL 3
REMARK VINA RESULT:     9.224      1.059      1.713
REMARK INTER + INTRA:          15.195
REMARK INTER:                  15.413
REMARK INTRA:                  -0.218
REMARK UNBOUND:                -0.500
REMARK SMILES CCCCCCCCCCCCCC(=O)[O-]
REMARK SMILES IDX 8 1 9 2 10 3 11 4 12 5 13 6 14 7 15 8 16 9 7 10 6 11 5 12
REMARK SMILES IDX 4 13 3 14 2 15 1 16
REMARK H PARENT
REMARK Flexibility Score: inf
ROOT
ATOM      1  C   UNL     1      14.022  12.680  17.012  1.00  0.00     0.000 C 
ENDROOT
BRANCH   1   2
ATOM      2  C   UNL     1      12.646  12.156  17.460  1.00  0.00     0.000 C 
BRANCH   2   3
ATOM      3  C   UNL     1      11.495  12.732  16.619  1.00  0.00     0.000 C 
BRANCH   3   4
ATOM      4  C   UNL     1      10.215  11.883  16.704  1.00  0.00     0.000 C 
BRANCH   4   5
ATOM      5  C   UNL     1       8.950  12.737  16.886  1.00  0.00     0.006 C 
BRANCH   5   6
ATOM      6  C   UNL     1       7.941  12.544  15.748  1.00  0.00     0.053 C 
BRANCH   6   7
ATOM      7  C   UNL     1       8.651  12.240  14.466  1.00  0.00     0.041 C 
ATOM      8  O   UNL     1       9.330  13.131  13.891  1.00  0.00    -0.550 OA
ATOM      9  O   UNL     1       8.523  10.987  13.881  1.00  0.00    -0.550 OA
ENDBRANCH   6   7
ENDBRANCH   5   6
ENDBRANCH   4   5
ENDBRANCH   3   4
ENDBRANCH   2   3
ENDBRANCH   1   2
BRANCH   1  10
ATOM     10  C   UNL     1      14.039  14.206  16.822  1.00  0.00     0.000 C 
BRANCH  10  11
ATOM     11  C   UNL     1      14.884  14.924  17.887  1.00  0.00    -0.000 C 
BRANCH  11  12
ATOM     12  C   UNL     1      14.874  16.455  17.726  1.00  0.00    -0.000 C 
BRANCH  12  13
ATOM     13  C   UNL     1      16.102  17.182  18.308  1.00  0.00    -0.000 C 
BRANCH  13  14
ATOM     14  C   UNL     1      15.901  18.682  18.598  1.00  0.00    -0.000 C 
BRANCH  14  15
ATOM     15  C   UNL     1      16.823  19.259  19.687  1.00  0.00    -0.003 C 
ATOM     16  C   UNL     1      16.865  20.786  19.684  1.00  0.00     0.004 C 
ENDBRANCH  14  15
ENDBRANCH  13  14
ENDBRANCH  12  13
ENDBRANCH  11  12
ENDBRANCH  10  11
ENDBRANCH   1  10
TORSDOF 12
ENDMDL
MODEL 4
REMARK VINA RESULT:     9.478      2.082      2.620
REMARK INTER + INTRA:          15.627
REMARK INTER:                  16.182
REMARK INTRA:                  -0.555
REMARK UNBOUND:                -0.500
REMARK SMILES CCCCCCCCCCCCCC(=O)[O-]
REMARK SMILES IDX 8 1 9 2 10 3 11 4 12 5 13 6 14 7 15 8 16 9 7 10 6 11 5 12
REMARK SMILES IDX 4 13 3 14 2 15 1 16
REMARK H PARENT
REMARK Flexibility Score: inf
ROOT
ATOM      1  C   UNL     1      14.586  14.752  17.741  1.00  0.00     0.000 C 
ENDROOT
BRANCH   1   2
ATOM      2  C   UNL     1      13.895  13.846  16.707  1.00  0.00     0.000 C 
BRANCH   2   3
ATOM      3  C   UNL     1      13.650  12.425  17.240  1.00  0.00     0.000 C 
BRANCH   3   4
ATOM      4  C   UNL     1      12.179  12.176  17.616  1.00  0.00     0.000 C 
BRANCH   4   5
ATOM      5  C   UNL     1      11.205  12.608  16.508  1.00  0.00     0.006 C 
BRANCH   5   6
ATOM      6  C   UNL     1      10.075  11.594  16.291  1.00  0.00     0.053 C 
BRANCH   6   7
ATOM      7  C   UNL     1       8.917  12.244  15.600  1.00  0.00     0.041 C 
ATOM      8  O   UNL     1       8.742  12.075  14.364  1.00  0.00    -0.550 OA
ATOM      9  O   UNL     1       8.060  13.075  16.309  1.00  0.00    -0.550 OA
ENDBRANCH   6   7
ENDBRANCH   5   6
ENDBRANCH   4   5
ENDBRANCH   3   4
ENDBRANCH   2   3
ENDBRANCH   1   2
BRANCH   1  10
ATOM     10  C   UNL     1      14.402  16.247  17.430  1.00  0.00     0.000 C 
BRANCH  10  11
ATOM     11  C   UNL     1      13.593  16.486  16.145  1.00  0.00    -0.000 C 
BRANCH  11  12
ATOM     12  C   UNL     1      13.194  17.962  15.956  1.00  0.00    -0.000 C 
BRANCH  12  13
ATOM     13  C   UNL     1      14.356  18.913  15.608  1.00  0.00    -0.000 C 
BRANCH  13  14
ATOM     14  C   UNL     1      13.996  20.411  15.593  1.00  0.00    -0.000 C 
BRANCH  14  15
ATOM     15  C   UNL     1      15.143  21.355  15.997  1.00  0.00    -0.003 C 
ATOM     16  C   UNL     1      16.276  21.387  14.972  1.00  0.00     0.004 C 
ENDBRANCH  14  15
ENDBRANCH  13  14
ENDBRANCH  12  13
ENDBRANCH  11  12
ENDBRANCH  10  11
ENDBRANCH   1  10
TORSDOF 12
ENDMDL
MODEL 5
REMARK VINA RESULT:     9.895      1.319      2.135
REMARK INTER + INTRA:          16.337
REMARK INTER:                  16.639
REMARK INTRA:                  -0.303
REMARK UNBOUND:                -0.500
REMARK SMILES CCCCCCCCCCCCCC(=O)[O-]
REMARK SMILES IDX 8 1 9 2 10 3 11 4 12 5 13 6 14 7 15 8 16 9 7 10 6 11 5 12
REMARK SMILES IDX 4 13 3 14 2 15 1 16
REMARK H PARENT
REMARK Flexibility Score: inf
ROOT
ATOM      1  C   UNL     1      13.557  13.168  17.796  1.00  0.00     0.000 C 
ENDROOT
BRANCH   1   2
ATOM      2  C   UNL     1      12.410  12.208  17.432  1.00  0.00     0.000 C 
BRANCH   2   3
ATOM      3  C   UNL     1      11.518  12.757  16.306  1.00  0.00     0.000 C 
BRANCH   3   4
ATOM      4  C   UNL     1      10.278  11.882  16.050  1.00  0.00     0.000 C 
BRANCH   4   5
ATOM      5  C   UNL     1       9.228  12.587  15.177  1.00  0.00     0.006 C 
BRANCH   5   6
ATOM      6  C   UNL     1       7.876  12.735  15.887  1.00  0.00     0.053 C 
BRANCH   6   7
ATOM      7  C   UNL     1       8.049  13.435  17.198  1.00  0.00     0.041 C 
ATOM      8  O   UNL     1       8.238  12.770  18.250  1.00  0.00    -0.550 OA
ATOM      9  O   UNL     1       7.950  14.819  17.266  1.00  0.00    -0.550 OA
ENDBRANCH   6   7
ENDBRANCH   5   6
ENDBRANCH   4   5
ENDBRANCH   3   4
ENDBRANCH   2   3
ENDBRANCH   1   2
BRANCH   1  10
ATOM     10  C   UNL     1      13.936  14.100  16.634  1.00  0.00     0.000 C 
BRANCH  10  11
ATOM     11  C   UNL     1      13.945  15.582  17.046  1.00  0.00    -0.000 C 
BRANCH  11  12
ATOM     12  C   UNL     1      15.190  15.966  17.866  1.00  0.00    -0.000 C 
BRANCH  12  13
ATOM     13  C   UNL     1      15.097  17.318  18.601  1.00  0.00    -0.000 C 
BRANCH  13  14
ATOM     14  C   UNL     1      16.376  18.177  18.561  1.00  0.00    -0.000 C 
BRANCH  14  15
ATOM     15  C   UNL     1      16.574  19.099  19.778  1.00  0.00    -0.003 C 
ATOM     16  C   UNL     1      16.888  20.541  19.387  1.00  0.00     0.004 C 
ENDBRANCH  14  15
ENDBRANCH  13  14
ENDBRANCH  12  13
ENDBRANCH  11  12
ENDBRANCH  10  11
ENDBRANCH   1  10
TORSDOF 12
ENDMDL
