MODEL 1
REMARK VINA RESULT:    -4.582      0.000      0.000
REMARK INTER + INTRA:          -7.815
REMARK INTER:                  -6.324
REMARK INTRA:                  -1.491
REMARK UNBOUND:                -1.491
REMARK SMILES CC[C@@H](CC[C@@H](C)[C@@H]1CC[C@H]2[C@H]3CC=C4C[C@@H](O)CC[C@]4(C)[C@@H]3CC[C@]21C)C(C)C
REMARK SMILES IDX 5 1 4 2 3 3 2 4 1 5 28 6 29 7 30 8 6 9 7 10 8 11 9 12 26 13
REMARK SMILES IDX 10 14 11 15 25 16 27 17 12 18 24 19 23 20 13 21 21 22 14 23
REMARK SMILES IDX 15 24 20 25 22 26 16 27 19 28 17 29 18 30
REMARK H PARENT 18 31
REMARK Flexibility Score: inf
ROOT
ATOM      1  C   UNL     1      -2.682   9.981   5.760  1.00  0.00     0.004 C 
ENDROOT
BRANCH   1   2
ATOM      2  C   UNL     1      -3.050  10.392   7.204  1.00  0.00     0.004 C 
BRANCH   2   3
ATOM      3  C   UNL     1      -2.070   9.817   8.274  1.00  0.00    -0.009 C 
BRANCH   3   4
ATOM      4  C   UNL     1      -2.500   8.405   8.761  1.00  0.00     0.000 C 
ATOM      5  C   UNL     1      -1.479   7.316   8.434  1.00  0.00     0.004 C 
ENDBRANCH   3   4
BRANCH   3   6
ATOM      6  C   UNL     1      -1.884  10.782   9.493  1.00  0.00    -0.014 C 
ATOM      7  C   UNL     1      -3.125  10.878  10.402  1.00  0.00     0.007 C 
ATOM      8  C   UNL     1      -1.432  12.186   9.053  1.00  0.00     0.007 C 
ENDBRANCH   3   6
ENDBRANCH   2   3
ENDBRANCH   1   2
BRANCH   1   9
ATOM      9  C   UNL     1      -1.176  10.140   5.411  1.00  0.00    -0.011 C 
ATOM     10  C   UNL     1      -0.526   8.770   5.119  1.00  0.00     0.008 C 
BRANCH   9  11
ATOM     11  C   UNL     1      -0.919  11.265   4.341  1.00  0.00    -0.002 C 
ATOM     12  C   UNL     1      -0.751  10.827   2.868  1.00  0.00     0.005 C 
ATOM     13  C   UNL     1       0.269  12.227   4.627  1.00  0.00    -0.026 C 
ATOM     14  C   UNL     1       0.213  11.826   2.226  1.00  0.00     0.005 C 
ATOM     15  C   UNL     1       0.422  12.957   3.252  1.00  0.00    -0.001 C 
ATOM     16  C   UNL     1      -0.005  13.172   5.851  1.00  0.00     0.007 C 
ATOM     17  C   UNL     1       1.583  11.448   4.926  1.00  0.00     0.012 C 
ATOM     18  C   UNL     1      -0.484  14.242   3.034  1.00  0.00     0.000 C 
ATOM     19  C   UNL     1      -0.046  14.654   5.484  1.00  0.00     0.005 C 
ATOM     20  C   UNL     1      -1.052  14.846   4.341  1.00  0.00     0.003 C 
ATOM     21  C   UNL     1      -1.668  14.136   2.046  1.00  0.00     0.031 C 
ATOM     22  C   UNL     1      -1.562  16.323   4.141  1.00  0.00    -0.008 C 
ATOM     23  C   UNL     1      -2.345  15.476   1.875  1.00  0.00    -0.027 C 
ATOM     24  C   UNL     1      -2.291  16.469   2.795  1.00  0.00    -0.065 C 
ATOM     25  C   UNL     1      -0.380  17.344   4.153  1.00  0.00     0.014 C 
ATOM     26  C   UNL     1      -2.559  16.656   5.286  1.00  0.00     0.016 C 
ATOM     27  C   UNL     1      -2.746  17.856   2.395  1.00  0.00     0.063 C 
ATOM     28  C   UNL     1      -0.801  18.774   3.751  1.00  0.00     0.033 C 
ATOM     29  C   UNL     1      -1.536  18.800   2.393  1.00  0.00     0.118 C 
BRANCH  29  30
ATOM     30  O   UNL     1      -1.960  20.105   2.098  1.00  0.00    -0.393 OA
ATOM     31  H   UNL     1      -2.418  20.072   1.216  1.00  0.00     0.210 HD
ENDBRANCH  29  30
ENDBRANCH   9  11
ENDBRANCH   1   9
TORSDOF 7
ENDMDL
MODEL 2
REMARK VINA RESULT:    -3.763      3.379      7.663
REMARK INTER + INTRA:          -6.684
REMARK INTER:                  -5.217
REMARK INTRA:                  -1.467
REMARK UNBOUND:                -1.491
REMARK SMILES CC[C@@H](CC[C@@H](C)[C@@H]1CC[C@H]2[C@H]3CC=C4C[C@@H](O)CC[C@]4(C)[C@@H]3CC[C@]21C)C(C)C
REMARK SMILES IDX 5 1 4 2 3 3 2 4 1 5 28 6 29 7 30 8 6 9 7 10 8 11 9 12 26 13
REMARK SMILES IDX 10 14 11 15 25 16 27 17 12 18 24 19 23 20 13 21 21 22 14 23
REMARK SMILES IDX 15 24 20 25 22 26 16 27 19 28 17 29 18 30
REMARK H PARENT 18 31
REMARK Flexibility Score: inf
ROOT
ATOM      1  C   UNL     1      -1.714  17.472   6.290  1.00  0.00     0.004 C 
ENDROOT
BRANCH   1   2
ATOM      2  C   UNL     1      -2.993  18.317   6.484  1.00  0.00     0.004 C 
BRANCH   2   3
ATOM      3  C   UNL     1      -2.870  19.360   7.638  1.00  0.00    -0.009 C 
BRANCH   3   4
ATOM      4  C   UNL     1      -2.864  20.821   7.108  1.00  0.00     0.000 C 
ATOM      5  C   UNL     1      -2.954  20.912   5.585  1.00  0.00     0.004 C 
ENDBRANCH   3   4
BRANCH   3   6
ATOM      6  C   UNL     1      -1.619  19.104   8.544  1.00  0.00    -0.014 C 
ATOM      7  C   UNL     1      -1.937  18.322   9.833  1.00  0.00     0.007 C 
ATOM      8  C   UNL     1      -0.872  20.407   8.878  1.00  0.00     0.007 C 
ENDBRANCH   3   6
ENDBRANCH   2   3
ENDBRANCH   1   2
BRANCH   1   9
ATOM      9  C   UNL     1      -1.119  17.530   4.855  1.00  0.00    -0.011 C 
ATOM     10  C   UNL     1      -0.100  18.682   4.722  1.00  0.00     0.008 C 
BRANCH   9  11
ATOM     11  C   UNL     1      -0.634  16.122   4.344  1.00  0.00    -0.002 C 
ATOM     12  C   UNL     1       0.816  16.011   3.821  1.00  0.00     0.005 C 
ATOM     13  C   UNL     1      -1.520  15.441   3.263  1.00  0.00    -0.026 C 
ATOM     14  C   UNL     1       0.802  14.939   2.730  1.00  0.00     0.005 C 
ATOM     15  C   UNL     1      -0.590  14.281   2.779  1.00  0.00    -0.001 C 
ATOM     16  C   UNL     1      -2.912  14.982   3.828  1.00  0.00     0.007 C 
ATOM     17  C   UNL     1      -1.797  16.393   2.061  1.00  0.00     0.012 C 
ATOM     18  C   UNL     1      -0.668  12.927   3.604  1.00  0.00     0.000 C 
ATOM     19  C   UNL     1      -3.125  13.471   3.778  1.00  0.00     0.005 C 
ATOM     20  C   UNL     1      -1.940  12.788   4.474  1.00  0.00     0.003 C 
ATOM     21  C   UNL     1       0.529  12.560   4.510  1.00  0.00     0.031 C 
ATOM     22  C   UNL     1      -2.196  11.299   4.920  1.00  0.00    -0.008 C 
ATOM     23  C   UNL     1       0.336  11.193   5.125  1.00  0.00    -0.027 C 
ATOM     24  C   UNL     1      -0.874  10.610   5.298  1.00  0.00    -0.065 C 
ATOM     25  C   UNL     1      -2.856  10.464   3.777  1.00  0.00     0.014 C 
ATOM     26  C   UNL     1      -3.124  11.314   6.167  1.00  0.00     0.016 C 
ATOM     27  C   UNL     1      -0.928   9.136   5.641  1.00  0.00     0.063 C 
ATOM     28  C   UNL     1      -2.932   8.953   4.087  1.00  0.00     0.033 C 
ATOM     29  C   UNL     1      -1.554   8.371   4.468  1.00  0.00     0.118 C 
BRANCH  29  30
ATOM     30  O   UNL     1      -1.679   7.014   4.807  1.00  0.00    -0.393 OA
ATOM     31  H   UNL     1      -0.812   6.577   4.592  1.00  0.00     0.210 HD
ENDBRANCH  29  30
ENDBRANCH   9  11
ENDBRANCH   1   9
TORSDOF 7
ENDMDL
MODEL 3
REMARK VINA RESULT:    -3.366      2.109      4.901
REMARK INTER + INTRA:          -6.137
REMARK INTER:                  -4.317
REMARK INTRA:                  -1.820
REMARK UNBOUND:                -1.491
REMARK SMILES CC[C@@H](CC[C@@H](C)[C@@H]1CC[C@H]2[C@H]3CC=C4C[C@@H](O)CC[C@]4(C)[C@@H]3CC[C@]21C)C(C)C
REMARK SMILES IDX 5 1 4 2 3 3 2 4 1 5 28 6 29 7 30 8 6 9 7 10 8 11 9 12 26 13
REMARK SMILES IDX 10 14 11 15 25 16 27 17 12 18 24 19 23 20 13 21 21 22 14 23
REMARK SMILES IDX 15 24 20 25 22 26 16 27 19 28 17 29 18 30
REMARK H PARENT 18 31
REMARK Flexibility Score: inf
ROOT
ATOM      1  C   UNL     1       1.315  10.820   4.478  1.00  0.00     0.004 C 
ENDROOT
BRANCH   1   2
ATOM      2  C   UNL     1       1.661  12.326   4.499  1.00  0.00     0.004 C 
BRANCH   2   3
ATOM      3  C   UNL     1       1.869  12.928   3.075  1.00  0.00    -0.009 C 
BRANCH   3   4
ATOM      4  C   UNL     1       3.295  12.647   2.524  1.00  0.00     0.000 C 
ATOM      5  C   UNL     1       4.401  12.914   3.545  1.00  0.00     0.004 C 
ENDBRANCH   3   4
BRANCH   3   6
ATOM      6  C   UNL     1       1.556  14.461   3.022  1.00  0.00    -0.014 C 
ATOM      7  C   UNL     1       2.534  15.263   2.143  1.00  0.00     0.007 C 
ATOM      8  C   UNL     1       1.469  15.079   4.429  1.00  0.00     0.007 C 
ENDBRANCH   3   6
ENDBRANCH   2   3
ENDBRANCH   1   2
BRANCH   1   9
ATOM      9  C   UNL     1      -0.198  10.511   4.304  1.00  0.00    -0.011 C 
ATOM     10  C   UNL     1      -0.552   9.125   4.888  1.00  0.00     0.008 C 
BRANCH   9  11
ATOM     11  C   UNL     1      -1.115  11.705   4.761  1.00  0.00    -0.002 C 
ATOM     12  C   UNL     1      -1.776  11.606   6.155  1.00  0.00     0.005 C 
ATOM     13  C   UNL     1      -2.259  12.105   3.786  1.00  0.00    -0.026 C 
ATOM     14  C   UNL     1      -3.113  12.342   6.053  1.00  0.00     0.005 C 
ATOM     15  C   UNL     1      -3.123  13.049   4.684  1.00  0.00    -0.001 C 
ATOM     16  C   UNL     1      -1.719  12.760   2.464  1.00  0.00     0.007 C 
ATOM     17  C   UNL     1      -3.124  10.876   3.376  1.00  0.00     0.012 C 
ATOM     18  C   UNL     1      -2.697  14.578   4.712  1.00  0.00     0.000 C 
ATOM     19  C   UNL     1      -2.162  14.209   2.274  1.00  0.00     0.005 C 
ATOM     20  C   UNL     1      -1.788  15.003   3.533  1.00  0.00     0.003 C 
ATOM     21  C   UNL     1      -2.036  15.124   5.997  1.00  0.00     0.031 C 
ATOM     22  C   UNL     1      -1.747  16.567   3.348  1.00  0.00    -0.008 C 
ATOM     23  C   UNL     1      -1.805  16.613   5.890  1.00  0.00    -0.027 C 
ATOM     24  C   UNL     1      -1.691  17.274   4.713  1.00  0.00    -0.065 C 
ATOM     25  C   UNL     1      -3.011  17.089   2.595  1.00  0.00     0.014 C 
ATOM     26  C   UNL     1      -0.466  16.931   2.547  1.00  0.00     0.016 C 
ATOM     27  C   UNL     1      -1.761  18.786   4.719  1.00  0.00     0.063 C 
ATOM     28  C   UNL     1      -3.121  18.629   2.576  1.00  0.00     0.033 C 
ATOM     29  C   UNL     1      -3.039  19.232   3.995  1.00  0.00     0.118 C 
BRANCH  29  30
ATOM     30  O   UNL     1      -3.074  20.633   3.928  1.00  0.00    -0.393 OA
ATOM     31  H   UNL     1      -3.743  20.877   3.234  1.00  0.00     0.210 HD
ENDBRANCH  29  30
ENDBRANCH   9  11
ENDBRANCH   1   9
TORSDOF 7
ENDMDL
MODEL 4
REMARK VINA RESULT:    -3.066      3.310      8.180
REMARK INTER + INTRA:          -5.723
REMARK INTER:                  -5.017
REMARK INTRA:                  -0.706
REMARK UNBOUND:                -1.491
REMARK SMILES CC[C@@H](CC[C@@H](C)[C@@H]1CC[C@H]2[C@H]3CC=C4C[C@@H](O)CC[C@]4(C)[C@@H]3CC[C@]21C)C(C)C
REMARK SMILES IDX 5 1 4 2 3 3 2 4 1 5 28 6 29 7 30 8 6 9 7 10 8 11 9 12 26 13
REMARK SMILES IDX 10 14 11 15 25 16 27 17 12 18 24 19 23 20 13 21 21 22 14 23
REMARK SMILES IDX 15 24 20 25 22 26 16 27 19 28 17 29 18 30
REMARK H PARENT 18 31
REMARK Flexibility Score: inf
ROOT
ATOM      1  C   UNL     1       0.234  17.065   3.934  1.00  0.00     0.004 C 
ENDROOT
BRANCH   1   2
ATOM      2  C   UNL     1       0.068  18.289   3.004  1.00  0.00     0.004 C 
BRANCH   2   3
ATOM      3  C   UNL     1      -1.131  19.204   3.402  1.00  0.00    -0.009 C 
BRANCH   3   4
ATOM      4  C   UNL     1      -1.989  18.582   4.540  1.00  0.00     0.000 C 
ATOM      5  C   UNL     1      -2.225  19.537   5.710  1.00  0.00     0.004 C 
ENDBRANCH   3   4
BRANCH   3   6
ATOM      6  C   UNL     1      -2.035  19.572   2.177  1.00  0.00    -0.014 C 
ATOM      7  C   UNL     1      -2.727  20.942   2.307  1.00  0.00     0.007 C 
ATOM      8  C   UNL     1      -3.070  18.474   1.875  1.00  0.00     0.007 C 
ENDBRANCH   3   6
ENDBRANCH   2   3
ENDBRANCH   1   2
BRANCH   1   9
ATOM      9  C   UNL     1       0.384  15.709   3.190  1.00  0.00    -0.011 C 
ATOM     10  C   UNL     1       1.826  15.168   3.308  1.00  0.00     0.008 C 
BRANCH   9  11
ATOM     11  C   UNL     1      -0.763  14.693   3.546  1.00  0.00    -0.002 C 
ATOM     12  C   UNL     1      -2.207  15.076   3.149  1.00  0.00     0.005 C 
ATOM     13  C   UNL     1      -0.845  14.243   5.032  1.00  0.00    -0.026 C 
ATOM     14  C   UNL     1      -3.125  14.457   4.205  1.00  0.00     0.005 C 
ATOM     15  C   UNL     1      -2.242  13.540   5.072  1.00  0.00    -0.001 C 
ATOM     16  C   UNL     1       0.365  13.335   5.453  1.00  0.00     0.007 C 
ATOM     17  C   UNL     1      -0.873  15.461   6.003  1.00  0.00     0.012 C 
ATOM     18  C   UNL     1      -2.267  12.004   4.672  1.00  0.00     0.000 C 
ATOM     19  C   UNL     1      -0.042  11.921   5.858  1.00  0.00     0.005 C 
ATOM     20  C   UNL     1      -0.883  11.313   4.727  1.00  0.00     0.003 C 
ATOM     21  C   UNL     1      -2.898  11.618   3.315  1.00  0.00     0.031 C 
ATOM     22  C   UNL     1      -1.004   9.742   4.756  1.00  0.00    -0.008 C 
ATOM     23  C   UNL     1      -2.941  10.117   3.152  1.00  0.00    -0.027 C 
ATOM     24  C   UNL     1      -2.112   9.265   3.802  1.00  0.00    -0.065 C 
ATOM     25  C   UNL     1      -1.351   9.219   6.186  1.00  0.00     0.014 C 
ATOM     26  C   UNL     1       0.350   9.139   4.287  1.00  0.00     0.016 C 
ATOM     27  C   UNL     1      -2.437   7.786   3.795  1.00  0.00     0.063 C 
ATOM     28  C   UNL     1      -1.688   7.713   6.223  1.00  0.00     0.033 C 
ATOM     29  C   UNL     1      -2.801   7.345   5.218  1.00  0.00     0.118 C 
BRANCH  29  30
ATOM     30  O   UNL     1      -3.029   5.960   5.235  1.00  0.00    -0.393 OA
ATOM     31  H   UNL     1      -3.506   5.751   6.083  1.00  0.00     0.210 HD
ENDBRANCH  29  30
ENDBRANCH   9  11
ENDBRANCH   1   9
TORSDOF 7
ENDMDL
MODEL 5
REMARK VINA RESULT:    -2.778     13.140     15.993
REMARK INTER + INTRA:          -5.325
REMARK INTER:                  -3.208
REMARK INTRA:                  -2.117
REMARK UNBOUND:                -1.491
REMARK SMILES CC[C@@H](CC[C@@H](C)[C@@H]1CC[C@H]2[C@H]3CC=C4C[C@@H](O)CC[C@]4(C)[C@@H]3CC[C@]21C)C(C)C
REMARK SMILES IDX 5 1 4 2 3 3 2 4 1 5 28 6 29 7 30 8 6 9 7 10 8 11 9 12 26 13
REMARK SMILES IDX 10 14 11 15 25 16 27 17 12 18 24 19 23 20 13 21 21 22 14 23
REMARK SMILES IDX 15 24 20 25 22 26 16 27 19 28 17 29 18 30
REMARK H PARENT 18 31
REMARK Flexibility Score: inf
ROOT
ATOM      1  C   UNL     1       3.748  12.962  18.440  1.00  0.00     0.004 C 
ENDROOT
BRANCH   1   2
ATOM      2  C   UNL     1       3.339  13.548  17.070  1.00  0.00     0.004 C 
BRANCH   2   3
ATOM      3  C   UNL     1       4.232  14.748  16.625  1.00  0.00    -0.009 C 
BRANCH   3   4
ATOM      4  C   UNL     1       3.411  15.850  15.899  1.00  0.00     0.000 C 
ATOM      5  C   UNL     1       1.934  15.494  15.734  1.00  0.00     0.004 C 
ENDBRANCH   3   4
BRANCH   3   6
ATOM      6  C   UNL     1       5.442  14.297  15.740  1.00  0.00    -0.014 C 
ATOM      7  C   UNL     1       6.233  15.469  15.127  1.00  0.00     0.007 C 
ATOM      8  C   UNL     1       5.015  13.306  14.642  1.00  0.00     0.007 C 
ENDBRANCH   3   6
ENDBRANCH   2   3
ENDBRANCH   1   2
BRANCH   1   9
ATOM      9  C   UNL     1       5.005  12.049  18.399  1.00  0.00    -0.011 C 
ATOM     10  C   UNL     1       4.876  10.975  17.298  1.00  0.00     0.008 C 
BRANCH   9  11
ATOM     11  C   UNL     1       6.349  12.870  18.404  1.00  0.00    -0.002 C 
ATOM     12  C   UNL     1       7.643  12.126  18.003  1.00  0.00     0.005 C 
ATOM     13  C   UNL     1       6.691  13.619  19.723  1.00  0.00    -0.026 C 
ATOM     14  C   UNL     1       8.778  12.772  18.798  1.00  0.00     0.005 C 
ATOM     15  C   UNL     1       8.183  14.019  19.479  1.00  0.00    -0.001 C 
ATOM     16  C   UNL     1       5.720  14.821  20.000  1.00  0.00     0.007 C 
ATOM     17  C   UNL     1       6.624  12.673  20.958  1.00  0.00     0.012 C 
ATOM     18  C   UNL     1       8.428  15.387  18.713  1.00  0.00     0.000 C 
ATOM     19  C   UNL     1       6.416  16.180  20.011  1.00  0.00     0.005 C 
ATOM     20  C   UNL     1       7.204  16.336  18.704  1.00  0.00     0.003 C 
ATOM     21  C   UNL     1       8.945  15.322  17.258  1.00  0.00     0.031 C 
ATOM     22  C   UNL     1       7.601  17.815  18.336  1.00  0.00    -0.008 C 
ATOM     23  C   UNL     1       9.230  16.707  16.727  1.00  0.00    -0.027 C 
ATOM     24  C   UNL     1       8.650  17.832  17.211  1.00  0.00    -0.065 C 
ATOM     25  C   UNL     1       8.209  18.568  19.562  1.00  0.00     0.014 C 
ATOM     26  C   UNL     1       6.328  18.554  17.839  1.00  0.00     0.016 C 
ATOM     27  C   UNL     1       9.226  19.175  16.814  1.00  0.00     0.063 C 
ATOM     28  C   UNL     1       8.807  19.945  19.200  1.00  0.00     0.033 C 
ATOM     29  C   UNL     1       9.835  19.846  18.053  1.00  0.00     0.118 C 
BRANCH  29  30
ATOM     30  O   UNL     1      10.303  21.124  17.710  1.00  0.00    -0.393 OA
ATOM     31  H   UNL     1      11.243  21.187  18.029  1.00  0.00     0.210 HD
ENDBRANCH  29  30
ENDBRANCH   9  11
ENDBRANCH   1   9
TORSDOF 7
ENDMDL
MODEL 6
REMARK VINA RESULT:    -1.867     13.973     17.390
REMARK INTER + INTRA:          -4.068
REMARK INTER:                  -3.177
REMARK INTRA:                  -0.891
REMARK UNBOUND:                -1.491
REMARK SMILES CC[C@@H](CC[C@@H](C)[C@@H]1CC[C@H]2[C@H]3CC=C4C[C@@H](O)CC[C@]4(C)[C@@H]3CC[C@]21C)C(C)C
REMARK SMILES IDX 5 1 4 2 3 3 2 4 1 5 28 6 29 7 30 8 6 9 7 10 8 11 9 12 26 13
REMARK SMILES IDX 10 14 11 15 25 16 27 17 12 18 24 19 23 20 13 21 21 22 14 23
REMARK SMILES IDX 15 24 20 25 22 26 16 27 19 28 17 29 18 30
REMARK H PARENT 18 31
REMARK Flexibility Score: inf
ROOT
ATOM      1  C   UNL     1       7.345  19.537  18.963  1.00  0.00     0.004 C 
ENDROOT
BRANCH   1   2
ATOM      2  C   UNL     1       6.426  18.627  19.809  1.00  0.00     0.004 C 
BRANCH   2   3
ATOM      3  C   UNL     1       6.614  18.823  21.345  1.00  0.00    -0.009 C 
BRANCH   3   4
ATOM      4  C   UNL     1       7.893  19.642  21.678  1.00  0.00     0.000 C 
ATOM      5  C   UNL     1       7.773  21.123  21.320  1.00  0.00     0.004 C 
ENDBRANCH   3   4
BRANCH   3   6
ATOM      6  C   UNL     1       6.617  17.465  22.125  1.00  0.00    -0.014 C 
ATOM      7  C   UNL     1       7.920  16.659  21.959  1.00  0.00     0.007 C 
ATOM      8  C   UNL     1       5.399  16.595  21.771  1.00  0.00     0.007 C 
ENDBRANCH   3   6
ENDBRANCH   2   3
ENDBRANCH   1   2
BRANCH   1   9
ATOM      9  C   UNL     1       8.294  18.773  17.998  1.00  0.00    -0.011 C 
ATOM     10  C   UNL     1       9.685  19.442  17.942  1.00  0.00     0.008 C 
BRANCH   9  11
ATOM     11  C   UNL     1       8.289  17.219  18.249  1.00  0.00    -0.002 C 
ATOM     12  C   UNL     1       9.299  16.656  19.275  1.00  0.00     0.005 C 
ATOM     13  C   UNL     1       8.430  16.319  16.989  1.00  0.00    -0.026 C 
ATOM     14  C   UNL     1       9.668  15.253  18.794  1.00  0.00     0.005 C 
ATOM     15  C   UNL     1       8.714  14.922  17.631  1.00  0.00    -0.001 C 
ATOM     16  C   UNL     1       7.163  16.378  16.064  1.00  0.00     0.007 C 
ATOM     17  C   UNL     1       9.658  16.728  16.123  1.00  0.00     0.012 C 
ATOM     18  C   UNL     1       7.441  14.059  18.026  1.00  0.00     0.000 C 
ATOM     19  C   UNL     1       6.440  15.040  15.929  1.00  0.00     0.005 C 
ATOM     20  C   UNL     1       6.131  14.509  17.336  1.00  0.00     0.003 C 
ATOM     21  C   UNL     1       7.114  13.895  19.528  1.00  0.00     0.031 C 
ATOM     22  C   UNL     1       5.014  13.400  17.400  1.00  0.00    -0.008 C 
ATOM     23  C   UNL     1       5.948  12.954  19.722  1.00  0.00    -0.027 C 
ATOM     24  C   UNL     1       5.011  12.711  18.775  1.00  0.00    -0.065 C 
ATOM     25  C   UNL     1       5.236  12.298  16.317  1.00  0.00     0.014 C 
ATOM     26  C   UNL     1       3.634  14.083  17.184  1.00  0.00     0.016 C 
ATOM     27  C   UNL     1       4.071  11.539  18.966  1.00  0.00     0.063 C 
ATOM     28  C   UNL     1       4.295  11.084  16.475  1.00  0.00     0.033 C 
ATOM     29  C   UNL     1       4.364  10.481  17.894  1.00  0.00     0.118 C 
BRANCH  29  30
ATOM     30  O   UNL     1       3.446   9.426  18.016  1.00  0.00    -0.393 OA
ATOM     31  H   UNL     1       3.653   8.772  17.296  1.00  0.00     0.210 HD
ENDBRANCH  29  30
ENDBRANCH   9  11
ENDBRANCH   1   9
TORSDOF 7
ENDMDL
MODEL 7
REMARK VINA RESULT:    -1.777     14.192     17.690
REMARK INTER + INTRA:          -3.944
REMARK INTER:                  -3.937
REMARK INTRA:                  -0.007
REMARK UNBOUND:                -1.491
REMARK SMILES CC[C@@H](CC[C@@H](C)[C@@H]1CC[C@H]2[C@H]3CC=C4C[C@@H](O)CC[C@]4(C)[C@@H]3CC[C@]21C)C(C)C
REMARK SMILES IDX 5 1 4 2 3 3 2 4 1 5 28 6 29 7 30 8 6 9 7 10 8 11 9 12 26 13
REMARK SMILES IDX 10 14 11 15 25 16 27 17 12 18 24 19 23 20 13 21 21 22 14 23
REMARK SMILES IDX 15 24 20 25 22 26 16 27 19 28 17 29 18 30
REMARK H PARENT 18 31
REMARK Flexibility Score: inf
ROOT
ATOM      1  C   UNL     1       9.274  19.488  18.728  1.00  0.00     0.004 C 
ENDROOT
BRANCH   1   2
ATOM      2  C   UNL     1       8.631  20.892  18.760  1.00  0.00     0.004 C 
BRANCH   2   3
ATOM      3  C   UNL     1       7.726  21.125  20.011  1.00  0.00    -0.009 C 
BRANCH   3   4
ATOM      4  C   UNL     1       8.248  20.361  21.260  1.00  0.00     0.000 C 
ATOM      5  C   UNL     1       9.325  21.125  22.029  1.00  0.00     0.004 C 
ENDBRANCH   3   4
BRANCH   3   6
ATOM      6  C   UNL     1       6.227  20.765  19.738  1.00  0.00    -0.014 C 
ATOM      7  C   UNL     1       5.821  19.371  20.253  1.00  0.00     0.007 C 
ATOM      8  C   UNL     1       5.859  20.916  18.251  1.00  0.00     0.007 C 
ENDBRANCH   3   6
ENDBRANCH   2   3
ENDBRANCH   1   2
BRANCH   1   9
ATOM      9  C   UNL     1       8.582  18.487  17.761  1.00  0.00    -0.011 C 
ATOM     10  C   UNL     1       9.464  18.211  16.524  1.00  0.00     0.008 C 
BRANCH   9  11
ATOM     11  C   UNL     1       8.022  17.217  18.504  1.00  0.00    -0.002 C 
ATOM     12  C   UNL     1       7.758  17.335  20.022  1.00  0.00     0.005 C 
ATOM     13  C   UNL     1       8.833  15.902  18.323  1.00  0.00    -0.026 C 
ATOM     14  C   UNL     1       8.012  15.948  20.614  1.00  0.00     0.005 C 
ATOM     15  C   UNL     1       8.200  14.989  19.424  1.00  0.00    -0.001 C 
ATOM     16  C   UNL     1       8.742  15.337  16.861  1.00  0.00     0.007 C 
ATOM     17  C   UNL     1      10.342  16.105  18.650  1.00  0.00     0.012 C 
ATOM     18  C   UNL     1       6.905  14.174  19.002  1.00  0.00     0.000 C 
ATOM     19  C   UNL     1       8.071  13.968  16.774  1.00  0.00     0.005 C 
ATOM     20  C   UNL     1       6.706  14.049  17.471  1.00  0.00     0.003 C 
ATOM     21  C   UNL     1       5.546  14.617  19.588  1.00  0.00     0.031 C 
ATOM     22  C   UNL     1       5.696  12.900  17.096  1.00  0.00    -0.008 C 
ATOM     23  C   UNL     1       4.448  13.665  19.175  1.00  0.00    -0.027 C 
ATOM     24  C   UNL     1       4.508  12.880  18.073  1.00  0.00    -0.065 C 
ATOM     25  C   UNL     1       6.377  11.496  17.148  1.00  0.00     0.014 C 
ATOM     26  C   UNL     1       5.156  13.173  15.664  1.00  0.00     0.016 C 
ATOM     27  C   UNL     1       3.500  11.761  17.922  1.00  0.00     0.063 C 
ATOM     28  C   UNL     1       5.382  10.325  16.996  1.00  0.00     0.033 C 
ATOM     29  C   UNL     1       4.227  10.413  18.016  1.00  0.00     0.118 C 
BRANCH  29  30
ATOM     30  O   UNL     1       3.311   9.371  17.800  1.00  0.00    -0.393 OA
ATOM     31  H   UNL     1       2.985   9.456  16.865  1.00  0.00     0.210 HD
ENDBRANCH  29  30
ENDBRANCH   9  11
ENDBRANCH   1   9
TORSDOF 7
ENDMDL
