MODEL 1
REMARK VINA RESULT:    -3.785      0.000      0.000
REMARK INTER + INTRA:          -9.628
REMARK INTER:                  -7.325
REMARK INTRA:                  -2.303
REMARK UNBOUND:                -2.303
REMARK SMILES CCCCCCCCCCCCCCCCCC(=O)[O-]
REMARK SMILES IDX 10 1 11 2 12 3 13 4 14 5 15 6 16 7 17 8 18 9 19 10 20 11
REMARK SMILES IDX 9 12 8 13 7 14 6 15 5 16 4 17 3 18 2 19 1 20
REMARK H PARENT
REMARK Flexibility Score: inf
ROOT
ATOM      1  C   UNL     1       0.779   8.444  -8.080  1.00  0.00     0.000 C 
ENDROOT
BRANCH   1   2
ATOM      2  C   UNL     1      -0.683   8.055  -8.364  1.00  0.00     0.000 C 
BRANCH   2   3
ATOM      3  C   UNL     1      -0.808   6.770  -9.200  1.00  0.00     0.000 C 
BRANCH   3   4
ATOM      4  C   UNL     1      -1.347   7.028 -10.620  1.00  0.00     0.000 C 
BRANCH   4   5
ATOM      5  C   UNL     1      -2.019   8.399 -10.822  1.00  0.00     0.000 C 
BRANCH   5   6
ATOM      6  C   UNL     1      -3.532   8.371 -10.541  1.00  0.00     0.000 C 
BRANCH   6   7
ATOM      7  C   UNL     1      -4.382   8.693 -11.783  1.00  0.00     0.006 C 
BRANCH   7   8
ATOM      8  C   UNL     1      -4.623  10.198 -11.998  1.00  0.00     0.053 C 
BRANCH   8   9
ATOM      9  C   UNL     1      -5.433  10.814 -10.898  1.00  0.00     0.041 C 
ATOM     10  O   UNL     1      -4.881  11.563 -10.049  1.00  0.00    -0.550 OA
ATOM     11  O   UNL     1      -6.802  10.587 -10.826  1.00  0.00    -0.550 OA
ENDBRANCH   8   9
ENDBRANCH   7   8
ENDBRANCH   6   7
ENDBRANCH   5   6
ENDBRANCH   4   5
ENDBRANCH   3   4
ENDBRANCH   2   3
ENDBRANCH   1   2
BRANCH   1  12
ATOM     12  C   UNL     1       1.843   7.532  -8.724  1.00  0.00     0.000 C 
BRANCH  12  13
ATOM     13  C   UNL     1       2.663   8.175  -9.860  1.00  0.00    -0.000 C 
BRANCH  13  14
ATOM     14  C   UNL     1       2.252   7.670 -11.253  1.00  0.00    -0.000 C 
BRANCH  14  15
ATOM     15  C   UNL     1       1.493   8.728 -12.075  1.00  0.00    -0.000 C 
BRANCH  15  16
ATOM     16  C   UNL     1       1.924  10.184 -11.821  1.00  0.00    -0.000 C 
BRANCH  16  17
ATOM     17  C   UNL     1       0.870  10.993 -11.045  1.00  0.00    -0.000 C 
BRANCH  17  18
ATOM     18  C   UNL     1       1.482  12.152 -10.237  1.00  0.00    -0.000 C 
BRANCH  18  19
ATOM     19  C   UNL     1       2.338  11.717  -9.035  1.00  0.00    -0.003 C 
ATOM     20  C   UNL     1       3.550  12.622  -8.805  1.00  0.00     0.004 C 
ENDBRANCH  18  19
ENDBRANCH  17  18
ENDBRANCH  16  17
ENDBRANCH  15  16
ENDBRANCH  14  15
ENDBRANCH  13  14
ENDBRANCH  12  13
ENDBRANCH   1  12
TORSDOF 16
ENDMDL
MODEL 2
REMARK VINA RESULT:    -3.757      2.829      5.705
REMARK INTER + INTRA:          -9.574
REMARK INTER:                  -6.853
REMARK INTRA:                  -2.722
REMARK UNBOUND:                -2.303
REMARK SMILES CCCCCCCCCCCCCCCCCC(=O)[O-]
REMARK SMILES IDX 10 1 11 2 12 3 13 4 14 5 15 6 16 7 17 8 18 9 19 10 20 11
REMARK SMILES IDX 9 12 8 13 7 14 6 15 5 16 4 17 3 18 2 19 1 20
REMARK H PARENT
REMARK Flexibility Score: inf
ROOT
ATOM      1  C   UNL     1       1.856   7.542  -8.665  1.00  0.00     0.000 C 
ENDROOT
BRANCH   1   2
ATOM      2  C   UNL     1       2.489   8.383  -9.788  1.00  0.00     0.000 C 
BRANCH   2   3
ATOM      3  C   UNL     1       2.221   7.808 -11.189  1.00  0.00     0.000 C 
BRANCH   3   4
ATOM      4  C   UNL     1       1.256   8.676 -12.019  1.00  0.00     0.000 C 
BRANCH   4   5
ATOM      5  C   UNL     1       0.540   9.789 -11.231  1.00  0.00     0.000 C 
BRANCH   5   6
ATOM      6  C   UNL     1       0.789  11.190 -11.816  1.00  0.00     0.000 C 
BRANCH   6   7
ATOM      7  C   UNL     1       1.283  12.203 -10.767  1.00  0.00     0.006 C 
BRANCH   7   8
ATOM      8  C   UNL     1       2.787  12.092 -10.457  1.00  0.00     0.053 C 
BRANCH   8   9
ATOM      9  C   UNL     1       3.073  12.100  -8.986  1.00  0.00     0.041 C 
ATOM     10  O   UNL     1       4.140  12.607  -8.552  1.00  0.00    -0.550 OA
ATOM     11  O   UNL     1       2.148  11.576  -8.091  1.00  0.00    -0.550 OA
ENDBRANCH   8   9
ENDBRANCH   7   8
ENDBRANCH   6   7
ENDBRANCH   5   6
ENDBRANCH   4   5
ENDBRANCH   3   4
ENDBRANCH   2   3
ENDBRANCH   1   2
BRANCH   1  12
ATOM     12  C   UNL     1       0.780   8.260  -7.826  1.00  0.00     0.000 C 
BRANCH  12  13
ATOM     13  C   UNL     1      -0.675   8.031  -8.280  1.00  0.00    -0.000 C 
BRANCH  13  14
ATOM     14  C   UNL     1      -0.822   6.827  -9.226  1.00  0.00    -0.000 C 
BRANCH  14  15
ATOM     15  C   UNL     1      -2.230   6.714  -9.838  1.00  0.00    -0.000 C 
BRANCH  15  16
ATOM     16  C   UNL     1      -2.454   7.538 -11.119  1.00  0.00    -0.000 C 
BRANCH  16  17
ATOM     17  C   UNL     1      -3.605   8.550 -10.985  1.00  0.00    -0.000 C 
BRANCH  17  18
ATOM     18  C   UNL     1      -3.117   9.967 -10.632  1.00  0.00    -0.000 C 
BRANCH  18  19
ATOM     19  C   UNL     1      -2.949  10.909 -11.836  1.00  0.00    -0.003 C 
ATOM     20  C   UNL     1      -2.866  12.383 -11.436  1.00  0.00     0.004 C 
ENDBRANCH  18  19
ENDBRANCH  17  18
ENDBRANCH  16  17
ENDBRANCH  15  16
ENDBRANCH  14  15
ENDBRANCH  13  14
ENDBRANCH  12  13
ENDBRANCH   1  12
TORSDOF 16
ENDMDL
MODEL 3
REMARK VINA RESULT:    -3.690      0.987      2.047
REMARK INTER + INTRA:          -9.444
REMARK INTER:                  -7.008
REMARK INTRA:                  -2.436
REMARK UNBOUND:                -2.303
REMARK SMILES CCCCCCCCCCCCCCCCCC(=O)[O-]
REMARK SMILES IDX 10 1 11 2 12 3 13 4 14 5 15 6 16 7 17 8 18 9 19 10 20 11
REMARK SMILES IDX 9 12 8 13 7 14 6 15 5 16 4 17 3 18 2 19 1 20
REMARK H PARENT
REMARK Flexibility Score: inf
ROOT
ATOM      1  C   UNL     1       2.297   8.095  -9.446  1.00  0.00     0.000 C 
ENDROOT
BRANCH   1   2
ATOM      2  C   UNL     1       1.240   7.411  -8.560  1.00  0.00     0.000 C 
BRANCH   2   3
ATOM      3  C   UNL     1       0.150   8.381  -8.073  1.00  0.00     0.000 C 
BRANCH   3   4
ATOM      4  C   UNL     1      -1.266   7.960  -8.510  1.00  0.00     0.000 C 
BRANCH   4   5
ATOM      5  C   UNL     1      -1.325   6.711  -9.408  1.00  0.00     0.000 C 
BRANCH   5   6
ATOM      6  C   UNL     1      -2.154   6.930 -10.685  1.00  0.00     0.000 C 
BRANCH   6   7
ATOM      7  C   UNL     1      -2.625   8.386 -10.857  1.00  0.00     0.006 C 
BRANCH   7   8
ATOM      8  C   UNL     1      -4.150   8.532 -11.003  1.00  0.00     0.053 C 
BRANCH   8   9
ATOM      9  C   UNL     1      -4.642   9.881 -10.576  1.00  0.00     0.041 C 
ATOM     10  O   UNL     1      -3.827  10.758 -10.187  1.00  0.00    -0.550 OA
ATOM     11  O   UNL     1      -5.998  10.182 -10.636  1.00  0.00    -0.550 OA
ENDBRANCH   8   9
ENDBRANCH   7   8
ENDBRANCH   6   7
ENDBRANCH   5   6
ENDBRANCH   4   5
ENDBRANCH   3   4
ENDBRANCH   2   3
ENDBRANCH   1   2
BRANCH   1  12
ATOM     12  C   UNL     1       2.221   7.755 -10.948  1.00  0.00     0.000 C 
BRANCH  12  13
ATOM     13  C   UNL     1       1.079   8.439 -11.724  1.00  0.00    -0.000 C 
BRANCH  13  14
ATOM     14  C   UNL     1       1.299   9.950 -11.903  1.00  0.00    -0.000 C 
BRANCH  14  15
ATOM     15  C   UNL     1       0.144  10.796 -11.335  1.00  0.00    -0.000 C 
BRANCH  15  16
ATOM     16  C   UNL     1       0.056  12.232 -11.883  1.00  0.00    -0.000 C 
BRANCH  16  17
ATOM     17  C   UNL     1       0.244  13.300 -10.792  1.00  0.00    -0.000 C 
BRANCH  17  18
ATOM     18  C   UNL     1       1.711  13.449 -10.350  1.00  0.00    -0.000 C 
BRANCH  18  19
ATOM     19  C   UNL     1       1.969  13.148  -8.863  1.00  0.00    -0.003 C 
ATOM     20  C   UNL     1       2.531  11.745  -8.626  1.00  0.00     0.004 C 
ENDBRANCH  18  19
ENDBRANCH  17  18
ENDBRANCH  16  17
ENDBRANCH  15  16
ENDBRANCH  14  15
ENDBRANCH  13  14
ENDBRANCH  12  13
ENDBRANCH   1  12
TORSDOF 16
ENDMDL
MODEL 4
REMARK VINA RESULT:    -3.449     15.648     18.205
REMARK INTER + INTRA:          -8.978
REMARK INTER:                  -7.160
REMARK INTRA:                  -1.817
REMARK UNBOUND:                -2.303
REMARK SMILES CCCCCCCCCCCCCCCCCC(=O)[O-]
REMARK SMILES IDX 10 1 11 2 12 3 13 4 14 5 15 6 16 7 17 8 18 9 19 10 20 11
REMARK SMILES IDX 9 12 8 13 7 14 6 15 5 16 4 17 3 18 2 19 1 20
REMARK H PARENT
REMARK Flexibility Score: inf
ROOT
ATOM      1  C   UNL     1      -0.403  12.847   4.014  1.00  0.00     0.000 C 
ENDROOT
BRANCH   1   2
ATOM      2  C   UNL     1       0.631  12.342   5.036  1.00  0.00     0.000 C 
BRANCH   2   3
ATOM      3  C   UNL     1       0.690  13.210   6.305  1.00  0.00     0.000 C 
BRANCH   3   4
ATOM      4  C   UNL     1       2.025  13.964   6.454  1.00  0.00     0.000 C 
BRANCH   4   5
ATOM      5  C   UNL     1       3.042  13.716   5.325  1.00  0.00     0.000 C 
BRANCH   5   6
ATOM      6  C   UNL     1       4.380  13.154   5.837  1.00  0.00     0.000 C 
BRANCH   6   7
ATOM      7  C   UNL     1       4.205  11.999   6.840  1.00  0.00     0.006 C 
BRANCH   7   8
ATOM      8  C   UNL     1       5.512  11.253   7.162  1.00  0.00     0.053 C 
BRANCH   8   9
ATOM      9  C   UNL     1       5.991  10.411   6.019  1.00  0.00     0.041 C 
ATOM     10  O   UNL     1       7.100  10.656   5.474  1.00  0.00    -0.550 OA
ATOM     11  O   UNL     1       5.229   9.337   5.574  1.00  0.00    -0.550 OA
ENDBRANCH   8   9
ENDBRANCH   7   8
ENDBRANCH   6   7
ENDBRANCH   5   6
ENDBRANCH   4   5
ENDBRANCH   3   4
ENDBRANCH   2   3
ENDBRANCH   1   2
BRANCH   1  12
ATOM     12  C   UNL     1      -1.346  13.958   4.520  1.00  0.00     0.000 C 
BRANCH  12  13
ATOM     13  C   UNL     1      -2.805  13.526   4.763  1.00  0.00    -0.000 C 
BRANCH  13  14
ATOM     14  C   UNL     1      -3.160  13.432   6.256  1.00  0.00    -0.000 C 
BRANCH  14  15
ATOM     15  C   UNL     1      -3.468  11.993   6.710  1.00  0.00    -0.000 C 
BRANCH  15  16
ATOM     16  C   UNL     1      -3.157  10.900   5.671  1.00  0.00    -0.000 C 
BRANCH  16  17
ATOM     17  C   UNL     1      -1.967  10.013   6.074  1.00  0.00    -0.000 C 
BRANCH  17  18
ATOM     18  C   UNL     1      -2.354   8.531   6.236  1.00  0.00    -0.000 C 
BRANCH  18  19
ATOM     19  C   UNL     1      -3.483   8.267   7.247  1.00  0.00    -0.003 C 
ATOM     20  C   UNL     1      -4.407   7.123   6.826  1.00  0.00     0.004 C 
ENDBRANCH  18  19
ENDBRANCH  17  18
ENDBRANCH  16  17
ENDBRANCH  15  16
ENDBRANCH  14  15
ENDBRANCH  13  14
ENDBRANCH  12  13
ENDBRANCH   1  12
TORSDOF 16
ENDMDL
MODEL 5
REMARK VINA RESULT:    -3.446     15.302     16.527
REMARK INTER + INTRA:          -8.971
REMARK INTER:                  -8.138
REMARK INTRA:                  -0.833
REMARK UNBOUND:                -2.303
REMARK SMILES CCCCCCCCCCCCCCCCCC(=O)[O-]
REMARK SMILES IDX 10 1 11 2 12 3 13 4 14 5 15 6 16 7 17 8 18 9 19 10 20 11
REMARK SMILES IDX 9 12 8 13 7 14 6 15 5 16 4 17 3 18 2 19 1 20
REMARK H PARENT
REMARK Flexibility Score: inf
ROOT
ATOM      1  C   UNL     1      -0.874  11.018   4.699  1.00  0.00     0.000 C 
ENDROOT
BRANCH   1   2
ATOM      2  C   UNL     1      -1.874   9.904   5.060  1.00  0.00     0.000 C 
BRANCH   2   3
ATOM      3  C   UNL     1      -2.639  10.188   6.364  1.00  0.00     0.000 C 
BRANCH   3   4
ATOM      4  C   UNL     1      -4.071   9.619   6.356  1.00  0.00     0.000 C 
BRANCH   4   5
ATOM      5  C   UNL     1      -4.369   8.591   7.462  1.00  0.00     0.000 C 
BRANCH   5   6
ATOM      6  C   UNL     1      -4.492   7.154   6.925  1.00  0.00     0.000 C 
BRANCH   6   7
ATOM      7  C   UNL     1      -5.932   6.612   6.976  1.00  0.00     0.006 C 
BRANCH   7   8
ATOM      8  C   UNL     1      -6.961   7.514   6.271  1.00  0.00     0.053 C 
BRANCH   8   9
ATOM      9  C   UNL     1      -6.826   7.485   4.780  1.00  0.00     0.041 C 
ATOM     10  O   UNL     1      -6.808   8.560   4.125  1.00  0.00    -0.550 OA
ATOM     11  O   UNL     1      -6.689   6.272   4.113  1.00  0.00    -0.550 OA
ENDBRANCH   8   9
ENDBRANCH   7   8
ENDBRANCH   6   7
ENDBRANCH   5   6
ENDBRANCH   4   5
ENDBRANCH   3   4
ENDBRANCH   2   3
ENDBRANCH   1   2
BRANCH   1  12
ATOM     12  C   UNL     1      -1.312  12.448   5.074  1.00  0.00     0.000 C 
BRANCH  12  13
ATOM     13  C   UNL     1      -0.530  13.582   4.383  1.00  0.00    -0.000 C 
BRANCH  13  14
ATOM     14  C   UNL     1       0.989  13.348   4.387  1.00  0.00    -0.000 C 
BRANCH  14  15
ATOM     15  C   UNL     1       1.692  13.988   5.599  1.00  0.00    -0.000 C 
BRANCH  15  16
ATOM     16  C   UNL     1       3.207  13.733   5.685  1.00  0.00    -0.000 C 
BRANCH  16  17
ATOM     17  C   UNL     1       3.551  12.393   6.357  1.00  0.00    -0.000 C 
BRANCH  17  18
ATOM     18  C   UNL     1       5.066  12.125   6.414  1.00  0.00    -0.000 C 
BRANCH  18  19
ATOM     19  C   UNL     1       5.458  10.637   6.395  1.00  0.00    -0.003 C 
ATOM     20  C   UNL     1       6.724  10.362   5.582  1.00  0.00     0.004 C 
ENDBRANCH  18  19
ENDBRANCH  17  18
ENDBRANCH  16  17
ENDBRANCH  15  16
ENDBRANCH  14  15
ENDBRANCH  13  14
ENDBRANCH  12  13
ENDBRANCH   1  12
TORSDOF 16
ENDMDL
MODEL 6
REMARK VINA RESULT:    -3.429     15.088     16.452
REMARK INTER + INTRA:          -8.939
REMARK INTER:                  -7.875
REMARK INTRA:                  -1.064
REMARK UNBOUND:                -2.303
REMARK SMILES CCCCCCCCCCCCCCCCCC(=O)[O-]
REMARK SMILES IDX 10 1 11 2 12 3 13 4 14 5 15 6 16 7 17 8 18 9 19 10 20 11
REMARK SMILES IDX 9 12 8 13 7 14 6 15 5 16 4 17 3 18 2 19 1 20
REMARK H PARENT
REMARK Flexibility Score: inf
ROOT
ATOM      1  C   UNL     1      -0.398  11.451   4.599  1.00  0.00     0.000 C 
ENDROOT
BRANCH   1   2
ATOM      2  C   UNL     1      -1.689  11.144   5.380  1.00  0.00     0.000 C 
BRANCH   2   3
ATOM      3  C   UNL     1      -2.783  12.204   5.165  1.00  0.00     0.000 C 
BRANCH   3   4
ATOM      4  C   UNL     1      -4.183  11.712   5.580  1.00  0.00     0.000 C 
BRANCH   4   5
ATOM      5  C   UNL     1      -5.222  11.674   4.445  1.00  0.00     0.000 C 
BRANCH   5   6
ATOM      6  C   UNL     1      -5.754  10.257   4.169  1.00  0.00     0.000 C 
BRANCH   6   7
ATOM      7  C   UNL     1      -5.220   9.207   5.160  1.00  0.00     0.006 C 
BRANCH   7   8
ATOM      8  C   UNL     1      -6.324   8.440   5.908  1.00  0.00     0.053 C 
BRANCH   8   9
ATOM      9  C   UNL     1      -6.518   7.051   5.382  1.00  0.00     0.041 C 
ATOM     10  O   UNL     1      -6.572   6.846   4.140  1.00  0.00    -0.550 OA
ATOM     11  O   UNL     1      -6.608   5.976   6.259  1.00  0.00    -0.550 OA
ENDBRANCH   8   9
ENDBRANCH   7   8
ENDBRANCH   6   7
ENDBRANCH   5   6
ENDBRANCH   4   5
ENDBRANCH   3   4
ENDBRANCH   2   3
ENDBRANCH   1   2
BRANCH   1  12
ATOM     12  C   UNL     1      -0.220  12.921   4.167  1.00  0.00     0.000 C 
BRANCH  12  13
ATOM     13  C   UNL     1       1.098  13.585   4.608  1.00  0.00    -0.000 C 
BRANCH  13  14
ATOM     14  C   UNL     1       1.134  13.900   6.113  1.00  0.00    -0.000 C 
BRANCH  14  15
ATOM     15  C   UNL     1       2.517  13.655   6.745  1.00  0.00    -0.000 C 
BRANCH  15  16
ATOM     16  C   UNL     1       3.575  13.068   5.793  1.00  0.00    -0.000 C 
BRANCH  16  17
ATOM     17  C   UNL     1       4.343  11.886   6.409  1.00  0.00    -0.000 C 
BRANCH  17  18
ATOM     18  C   UNL     1       5.710  12.299   6.987  1.00  0.00    -0.000 C 
BRANCH  18  19
ATOM     19  C   UNL     1       6.897  11.448   6.502  1.00  0.00    -0.003 C 
ATOM     20  C   UNL     1       6.481  10.334   5.541  1.00  0.00     0.004 C 
ENDBRANCH  18  19
ENDBRANCH  17  18
ENDBRANCH  16  17
ENDBRANCH  15  16
ENDBRANCH  14  15
ENDBRANCH  13  14
ENDBRANCH  12  13
ENDBRANCH   1  12
TORSDOF 16
ENDMDL
MODEL 7
REMARK VINA RESULT:    -3.416      1.320      2.142
REMARK INTER + INTRA:          -8.914
REMARK INTER:                  -6.821
REMARK INTRA:                  -2.093
REMARK UNBOUND:                -2.303
REMARK SMILES CCCCCCCCCCCCCCCCCC(=O)[O-]
REMARK SMILES IDX 10 1 11 2 12 3 13 4 14 5 15 6 16 7 17 8 18 9 19 10 20 11
REMARK SMILES IDX 9 12 8 13 7 14 6 15 5 16 4 17 3 18 2 19 1 20
REMARK H PARENT
REMARK Flexibility Score: inf
ROOT
ATOM      1  C   UNL     1       1.883   8.252  -9.491  1.00  0.00     0.000 C 
ENDROOT
BRANCH   1   2
ATOM      2  C   UNL     1       1.229   7.411  -8.381  1.00  0.00     0.000 C 
BRANCH   2   3
ATOM      3  C   UNL     1      -0.083   6.745  -8.831  1.00  0.00     0.000 C 
BRANCH   3   4
ATOM      4  C   UNL     1      -1.294   7.694  -8.754  1.00  0.00     0.000 C 
BRANCH   4   5
ATOM      5  C   UNL     1      -1.830   8.178 -10.114  1.00  0.00     0.000 C 
BRANCH   5   6
ATOM      6  C   UNL     1      -2.853   7.210 -10.732  1.00  0.00     0.000 C 
BRANCH   6   7
ATOM      7  C   UNL     1      -3.804   7.894 -11.731  1.00  0.00     0.006 C 
BRANCH   7   8
ATOM      8  C   UNL     1      -3.677   9.428 -11.759  1.00  0.00     0.053 C 
BRANCH   8   9
ATOM      9  C   UNL     1      -4.919  10.117 -11.282  1.00  0.00     0.041 C 
ATOM     10  O   UNL     1      -5.623   9.597 -10.377  1.00  0.00    -0.550 OA
ATOM     11  O   UNL     1      -5.282  11.350 -11.812  1.00  0.00    -0.550 OA
ENDBRANCH   8   9
ENDBRANCH   7   8
ENDBRANCH   6   7
ENDBRANCH   5   6
ENDBRANCH   4   5
ENDBRANCH   3   4
ENDBRANCH   2   3
ENDBRANCH   1   2
BRANCH   1  12
ATOM     12  C   UNL     1       1.789   7.660 -10.913  1.00  0.00     0.000 C 
BRANCH  12  13
ATOM     13  C   UNL     1       2.824   8.196 -11.921  1.00  0.00    -0.000 C 
BRANCH  13  14
ATOM     14  C   UNL     1       3.834   9.164 -11.283  1.00  0.00    -0.000 C 
BRANCH  14  15
ATOM     15  C   UNL     1       4.061  10.434 -12.124  1.00  0.00    -0.000 C 
BRANCH  15  16
ATOM     16  C   UNL     1       3.873  11.761 -11.368  1.00  0.00    -0.000 C 
BRANCH  16  17
ATOM     17  C   UNL     1       2.953  11.625 -10.142  1.00  0.00    -0.000 C 
BRANCH  17  18
ATOM     18  C   UNL     1       1.706  12.524 -10.228  1.00  0.00    -0.000 C 
BRANCH  18  19
ATOM     19  C   UNL     1       0.835  12.298 -11.476  1.00  0.00    -0.003 C 
ATOM     20  C   UNL     1       0.200  10.907 -11.519  1.00  0.00     0.004 C 
ENDBRANCH  18  19
ENDBRANCH  17  18
ENDBRANCH  16  17
ENDBRANCH  15  16
ENDBRANCH  14  15
ENDBRANCH  13  14
ENDBRANCH  12  13
ENDBRANCH   1  12
TORSDOF 16
ENDMDL
MODEL 8
REMARK VINA RESULT:    -3.402      9.969     12.834
REMARK INTER + INTRA:          -8.886
REMARK INTER:                  -6.462
REMARK INTRA:                  -2.424
REMARK UNBOUND:                -2.303
REMARK SMILES CCCCCCCCCCCCCCCCCC(=O)[O-]
REMARK SMILES IDX 10 1 11 2 12 3 13 4 14 5 15 6 16 7 17 8 18 9 19 10 20 11
REMARK SMILES IDX 9 12 8 13 7 14 6 15 5 16 4 17 3 18 2 19 1 20
REMARK H PARENT
REMARK Flexibility Score: inf
ROOT
ATOM      1  C   UNL     1       6.775  12.759  -5.684  1.00  0.00     0.000 C 
ENDROOT
BRANCH   1   2
ATOM      2  C   UNL     1       7.249  13.901  -4.768  1.00  0.00     0.000 C 
BRANCH   2   3
ATOM      3  C   UNL     1       8.731  13.776  -4.374  1.00  0.00     0.000 C 
BRANCH   3   4
ATOM      4  C   UNL     1       9.442  12.606  -5.082  1.00  0.00     0.000 C 
BRANCH   4   5
ATOM      5  C   UNL     1      10.672  13.002  -5.919  1.00  0.00     0.000 C 
BRANCH   5   6
ATOM      6  C   UNL     1      11.927  12.189  -5.560  1.00  0.00     0.000 C 
BRANCH   6   7
ATOM      7  C   UNL     1      11.660  11.100  -4.505  1.00  0.00     0.006 C 
BRANCH   7   8
ATOM      8  C   UNL     1      11.973   9.674  -4.991  1.00  0.00     0.053 C 
BRANCH   8   9
ATOM      9  C   UNL     1      10.801   8.750  -4.857  1.00  0.00     0.041 C 
ATOM     10  O   UNL     1       9.651   9.133  -5.198  1.00  0.00    -0.550 OA
ATOM     11  O   UNL     1      10.982   7.455  -4.386  1.00  0.00    -0.550 OA
ENDBRANCH   8   9
ENDBRANCH   7   8
ENDBRANCH   6   7
ENDBRANCH   5   6
ENDBRANCH   4   5
ENDBRANCH   3   4
ENDBRANCH   2   3
ENDBRANCH   1   2
BRANCH   1  12
ATOM     12  C   UNL     1       6.386  13.178  -7.116  1.00  0.00     0.000 C 
BRANCH  12  13
ATOM     13  C   UNL     1       7.555  13.624  -8.015  1.00  0.00    -0.000 C 
BRANCH  13  14
ATOM     14  C   UNL     1       7.792  12.677  -9.202  1.00  0.00    -0.000 C 
BRANCH  14  15
ATOM     15  C   UNL     1       9.192  12.034  -9.186  1.00  0.00    -0.000 C 
BRANCH  15  16
ATOM     16  C   UNL     1       9.284  10.688  -8.445  1.00  0.00    -0.000 C 
BRANCH  16  17
ATOM     17  C   UNL     1      10.706  10.103  -8.442  1.00  0.00    -0.000 C 
BRANCH  17  18
ATOM     18  C   UNL     1      10.725   8.577  -8.645  1.00  0.00    -0.000 C 
BRANCH  18  19
ATOM     19  C   UNL     1      12.050   7.893  -8.266  1.00  0.00    -0.003 C 
ATOM     20  C   UNL     1      12.360   6.669  -9.129  1.00  0.00     0.004 C 
ENDBRANCH  18  19
ENDBRANCH  17  18
ENDBRANCH  16  17
ENDBRANCH  15  16
ENDBRANCH  14  15
ENDBRANCH  13  14
ENDBRANCH  12  13
ENDBRANCH   1  12
TORSDOF 16
ENDMDL
MODEL 9
REMARK VINA RESULT:    -3.298     15.639     17.666
REMARK INTER + INTRA:          -8.685
REMARK INTER:                  -7.177
REMARK INTRA:                  -1.508
REMARK UNBOUND:                -2.303
REMARK SMILES CCCCCCCCCCCCCCCCCC(=O)[O-]
REMARK SMILES IDX 10 1 11 2 12 3 13 4 14 5 15 6 16 7 17 8 18 9 19 10 20 11
REMARK SMILES IDX 9 12 8 13 7 14 6 15 5 16 4 17 3 18 2 19 1 20
REMARK H PARENT
REMARK Flexibility Score: inf
ROOT
ATOM      1  C   UNL     1      -0.821  11.222   5.560  1.00  0.00     0.000 C 
ENDROOT
BRANCH   1   2
ATOM      2  C   UNL     1      -0.342  12.011   4.328  1.00  0.00     0.000 C 
BRANCH   2   3
ATOM      3  C   UNL     1      -0.212  13.520   4.598  1.00  0.00     0.000 C 
BRANCH   3   4
ATOM      4  C   UNL     1       0.962  13.861   5.536  1.00  0.00     0.000 C 
BRANCH   4   5
ATOM      5  C   UNL     1       2.331  13.315   5.091  1.00  0.00     0.000 C 
BRANCH   5   6
ATOM      6  C   UNL     1       3.131  12.690   6.248  1.00  0.00     0.000 C 
BRANCH   6   7
ATOM      7  C   UNL     1       4.651  12.703   6.007  1.00  0.00     0.006 C 
BRANCH   7   8
ATOM      8  C   UNL     1       5.422  11.668   6.846  1.00  0.00     0.053 C 
BRANCH   8   9
ATOM      9  C   UNL     1       5.933  10.525   6.023  1.00  0.00     0.041 C 
ATOM     10  O   UNL     1       7.085  10.575   5.517  1.00  0.00    -0.550 OA
ATOM     11  O   UNL     1       5.150   9.391   5.839  1.00  0.00    -0.550 OA
ENDBRANCH   8   9
ENDBRANCH   7   8
ENDBRANCH   6   7
ENDBRANCH   5   6
ENDBRANCH   4   5
ENDBRANCH   3   4
ENDBRANCH   2   3
ENDBRANCH   1   2
BRANCH   1  12
ATOM     12  C   UNL     1      -1.876  10.132   5.278  1.00  0.00     0.000 C 
BRANCH  12  13
ATOM     13  C   UNL     1      -2.949   9.955   6.369  1.00  0.00    -0.000 C 
BRANCH  13  14
ATOM     14  C   UNL     1      -4.243   9.316   5.835  1.00  0.00    -0.000 C 
BRANCH  14  15
ATOM     15  C   UNL     1      -4.811  10.049   4.606  1.00  0.00    -0.000 C 
BRANCH  15  16
ATOM     16  C   UNL     1      -6.228  10.623   4.785  1.00  0.00    -0.000 C 
BRANCH  16  17
ATOM     17  C   UNL     1      -6.239  12.154   4.926  1.00  0.00    -0.000 C 
BRANCH  17  18
ATOM     18  C   UNL     1      -5.197  12.844   4.027  1.00  0.00    -0.000 C 
BRANCH  18  19
ATOM     19  C   UNL     1      -3.890  13.235   4.740  1.00  0.00    -0.003 C 
ATOM     20  C   UNL     1      -4.126  13.964   6.064  1.00  0.00     0.004 C 
ENDBRANCH  18  19
ENDBRANCH  17  18
ENDBRANCH  16  17
ENDBRANCH  15  16
ENDBRANCH  14  15
ENDBRANCH  13  14
ENDBRANCH  12  13
ENDBRANCH   1  12
TORSDOF 16
ENDMDL
