MODEL 1
REMARK VINA RESULT:    -5.712      0.000      0.000
REMARK INTER + INTRA:          -8.293
REMARK INTER:                  -8.216
REMARK INTRA:                  -0.077
REMARK UNBOUND:                -0.077
REMARK SMILES O=c1cc(-c2ccc(O)c(O)c2)oc2cc(O[C@@H]3O[C@@H](CO)[C@H](O)[C@@H](O)[C@H]3O)cc(O)c12
REMARK SMILES IDX 17 1 16 2 4 3 3 4 13 5 2 6 14 7 1 8 32 9 15 10 30 11 29 12
REMARK SMILES IDX 5 13 6 14 7 15 8 16 12 17 10 18 9 19 11 21 31 23 18 25 27 26
REMARK SMILES IDX 19 27 25 28 20 29 23 30 28 31 26 33 21 35 22 36 24 38
REMARK H PARENT 9 20 11 22 31 24 28 32 26 34 22 37 24 39
REMARK Flexibility Score: inf
ROOT
ATOM      1  O   UNL     1      10.126 -25.126   5.707  1.00  0.00    -0.462 OA
ENDROOT
BRANCH   1   2
ATOM      2  C   UNL     1      11.200 -26.011   5.896  1.00  0.00     0.130 A 
ATOM      3  C   UNL     1      13.413 -28.939   8.933  1.00  0.00     0.138 A 
ATOM      4  C   UNL     1      14.358 -29.334   7.976  1.00  0.00     0.100 A 
ATOM      5  O   UNL     1      12.482 -28.051   8.601  1.00  0.00    -0.456 OA
ATOM      6  C   UNL     1      14.305 -28.795   6.691  1.00  0.00     0.197 A 
ATOM      7  C   UNL     1      12.392 -27.501   7.394  1.00  0.00     0.146 A 
ATOM      8  O   UNL     1      15.132 -29.212   5.839  1.00  0.00    -0.289 OA
ATOM      9  C   UNL     1      13.324 -27.825   6.374  1.00  0.00     0.107 A 
ATOM     10  C   UNL     1      11.353 -26.603   7.147  1.00  0.00     0.094 A 
ATOM     11  C   UNL     1      13.197 -27.180   5.108  1.00  0.00     0.134 A 
ATOM     12  C   UNL     1      12.123 -26.310   4.880  1.00  0.00     0.093 A 
BRANCH   3  13
ATOM     13  C   UNL     1      13.423 -29.477  10.317  1.00  0.00     0.021 A 
ATOM     14  C   UNL     1      13.136 -30.837  10.531  1.00  0.00     0.016 A 
ATOM     15  C   UNL     1      13.145 -31.370  11.822  1.00  0.00     0.051 A 
ATOM     16  C   UNL     1      13.452 -30.557  12.920  1.00  0.00     0.157 A 
ATOM     17  C   UNL     1      13.742 -28.668  11.425  1.00  0.00     0.062 A 
ATOM     18  C   UNL     1      13.754 -29.205  12.721  1.00  0.00     0.158 A 
BRANCH  16  19
ATOM     19  O   UNL     1      13.461 -31.085  14.209  1.00  0.00    -0.504 OA
ATOM     20  H   UNL     1      12.602 -31.312  14.696  1.00  0.00     0.293 HD
ENDBRANCH  16  19
BRANCH  18  21
ATOM     21  O   UNL     1      14.069 -28.400  13.815  1.00  0.00    -0.504 OA
ATOM     22  H   UNL     1      14.922 -28.536  14.345  1.00  0.00     0.293 HD
ENDBRANCH  18  21
ENDBRANCH   3  13
BRANCH  11  23
ATOM     23  O   UNL     1      14.102 -27.339   4.054  1.00  0.00    -0.507 OA
ATOM     24  H   UNL     1      13.975 -26.973   3.123  1.00  0.00     0.293 HD
ENDBRANCH  11  23
ENDBRANCH   1   2
BRANCH   1  25
ATOM     25  C   UNL     1      10.123 -23.745   6.080  1.00  0.00     0.339 C 
ATOM     26  C   UNL     1       8.695 -23.173   6.003  1.00  0.00     0.214 C 
ATOM     27  O   UNL     1      10.683 -23.553   7.372  1.00  0.00    -0.332 OA
ATOM     28  C   UNL     1       7.814 -23.802   7.093  1.00  0.00     0.180 C 
ATOM     29  C   UNL     1       9.943 -24.237   8.371  1.00  0.00     0.179 C 
ATOM     30  C   UNL     1       8.500 -23.688   8.467  1.00  0.00     0.177 C 
BRANCH  26  31
ATOM     31  O   UNL     1       8.730 -21.778   6.171  1.00  0.00    -0.384 OA
ATOM     32  H   UNL     1       8.087 -21.558   6.895  1.00  0.00     0.211 HD
ENDBRANCH  26  31
BRANCH  28  33
ATOM     33  O   UNL     1       6.566 -23.156   7.114  1.00  0.00    -0.387 OA
ATOM     34  H   UNL     1       6.150 -23.300   6.225  1.00  0.00     0.211 HD
ENDBRANCH  28  33
BRANCH  29  35
ATOM     35  C   UNL     1      10.688 -24.099   9.709  1.00  0.00     0.191 C 
BRANCH  35  36
ATOM     36  O   UNL     1      12.071 -24.269   9.541  1.00  0.00    -0.394 OA
ATOM     37  H   UNL     1      12.286 -25.188   9.848  1.00  0.00     0.210 HD
ENDBRANCH  35  36
ENDBRANCH  29  35
BRANCH  30  38
ATOM     38  O   UNL     1       7.780 -24.429   9.419  1.00  0.00    -0.387 OA
ATOM     39  H   UNL     1       8.190 -24.241  10.303  1.00  0.00     0.211 HD
ENDBRANCH  30  38
ENDBRANCH   1  25
TORSDOF 11
ENDMDL
MODEL 2
REMARK VINA RESULT:    -5.682      1.761      7.575
REMARK INTER + INTRA:          -8.249
REMARK INTER:                  -8.749
REMARK INTRA:                   0.499
REMARK UNBOUND:                -0.077
REMARK SMILES O=c1cc(-c2ccc(O)c(O)c2)oc2cc(O[C@@H]3O[C@@H](CO)[C@H](O)[C@@H](O)[C@H]3O)cc(O)c12
REMARK SMILES IDX 17 1 16 2 4 3 3 4 13 5 2 6 14 7 1 8 32 9 15 10 30 11 29 12
REMARK SMILES IDX 5 13 6 14 7 15 8 16 12 17 10 18 9 19 11 21 31 23 18 25 27 26
REMARK SMILES IDX 19 27 25 28 20 29 23 30 28 31 26 33 21 35 22 36 24 38
REMARK H PARENT 9 20 11 22 31 24 28 32 26 34 22 37 24 39
REMARK Flexibility Score: inf
ROOT
ATOM      1  O   UNL     1      14.640 -28.928  10.749  1.00  0.00    -0.462 OA
ENDROOT
BRANCH   1   2
ATOM      2  C   UNL     1      14.208 -28.561   9.464  1.00  0.00     0.130 A 
ATOM      3  C   UNL     1      11.068 -26.025   6.932  1.00  0.00     0.138 A 
ATOM      4  C   UNL     1      11.656 -26.383   5.711  1.00  0.00     0.100 A 
ATOM      5  O   UNL     1      11.578 -26.500   8.063  1.00  0.00    -0.456 OA
ATOM      6  C   UNL     1      12.766 -27.228   5.700  1.00  0.00     0.197 A 
ATOM      7  C   UNL     1      12.629 -27.312   8.109  1.00  0.00     0.146 A 
ATOM      8  O   UNL     1      13.305 -27.485   4.592  1.00  0.00    -0.289 OA
ATOM      9  C   UNL     1      13.267 -27.746   6.918  1.00  0.00     0.107 A 
ATOM     10  C   UNL     1      13.099 -27.725   9.357  1.00  0.00     0.094 A 
ATOM     11  C   UNL     1      14.371 -28.644   7.027  1.00  0.00     0.134 A 
ATOM     12  C   UNL     1      14.842 -29.011   8.294  1.00  0.00     0.093 A 
BRANCH   3  13
ATOM     13  C   UNL     1       9.884 -25.133   7.003  1.00  0.00     0.021 A 
ATOM     14  C   UNL     1       8.786 -25.505   7.798  1.00  0.00     0.016 A 
ATOM     15  C   UNL     1       7.662 -24.680   7.888  1.00  0.00     0.051 A 
ATOM     16  C   UNL     1       7.621 -23.465   7.193  1.00  0.00     0.157 A 
ATOM     17  C   UNL     1       9.840 -23.903   6.316  1.00  0.00     0.062 A 
ATOM     18  C   UNL     1       8.713 -23.074   6.409  1.00  0.00     0.158 A 
BRANCH  16  19
ATOM     19  O   UNL     1       6.501 -22.640   7.279  1.00  0.00    -0.504 OA
ATOM     20  H   UNL     1       5.578 -23.016   7.461  1.00  0.00     0.293 HD
ENDBRANCH  16  19
BRANCH  18  21
ATOM     21  O   UNL     1       8.672 -21.859   5.727  1.00  0.00    -0.504 OA
ATOM     22  H   UNL     1       7.822 -21.312   5.669  1.00  0.00     0.293 HD
ENDBRANCH  18  21
ENDBRANCH   3  13
BRANCH  11  23
ATOM     23  O   UNL     1      15.025 -29.218   5.932  1.00  0.00    -0.507 OA
ATOM     24  H   UNL     1      16.022 -29.345   5.855  1.00  0.00     0.293 HD
ENDBRANCH  11  23
ENDBRANCH   1   2
BRANCH   1  25
ATOM     25  C   UNL     1      14.239 -30.114  11.444  1.00  0.00     0.339 C 
ATOM     26  C   UNL     1      13.690 -29.756  12.838  1.00  0.00     0.214 C 
ATOM     27  O   UNL     1      13.290 -30.861  10.696  1.00  0.00    -0.332 OA
ATOM     28  C   UNL     1      12.362 -28.997  12.705  1.00  0.00     0.180 C 
ATOM     29  C   UNL     1      12.104 -30.117  10.461  1.00  0.00     0.179 C 
ATOM     30  C   UNL     1      11.394 -29.770  11.790  1.00  0.00     0.177 C 
BRANCH  26  31
ATOM     31  O   UNL     1      13.492 -30.929  13.587  1.00  0.00    -0.384 OA
ATOM     32  H   UNL     1      13.627 -30.687  14.541  1.00  0.00     0.211 HD
ENDBRANCH  26  31
BRANCH  28  33
ATOM     33  O   UNL     1      11.796 -28.822  13.979  1.00  0.00    -0.387 OA
ATOM     34  H   UNL     1      10.925 -28.365  13.849  1.00  0.00     0.211 HD
ENDBRANCH  28  33
BRANCH  29  35
ATOM     35  C   UNL     1      11.192 -30.934   9.531  1.00  0.00     0.191 C 
BRANCH  35  36
ATOM     36  O   UNL     1      11.141 -32.280   9.925  1.00  0.00    -0.394 OA
ATOM     37  H   UNL     1      11.231 -32.293  10.914  1.00  0.00     0.210 HD
ENDBRANCH  35  36
ENDBRANCH  29  35
BRANCH  30  38
ATOM     38  O   UNL     1      10.261 -28.982  11.525  1.00  0.00    -0.387 OA
ATOM     39  H   UNL     1      10.496 -28.048  11.765  1.00  0.00     0.211 HD
ENDBRANCH  30  38
ENDBRANCH   1  25
TORSDOF 11
ENDMDL
MODEL 3
REMARK VINA RESULT:    -4.631      3.139      4.956
REMARK INTER + INTRA:          -6.738
REMARK INTER:                  -7.026
REMARK INTRA:                   0.288
REMARK UNBOUND:                -0.077
REMARK SMILES O=c1cc(-c2ccc(O)c(O)c2)oc2cc(O[C@@H]3O[C@@H](CO)[C@H](O)[C@@H](O)[C@H]3O)cc(O)c12
REMARK SMILES IDX 17 1 16 2 4 3 3 4 13 5 2 6 14 7 1 8 32 9 15 10 30 11 29 12
REMARK SMILES IDX 5 13 6 14 7 15 8 16 12 17 10 18 9 19 11 21 31 23 18 25 27 26
REMARK SMILES IDX 19 27 25 28 20 29 23 30 28 31 26 33 21 35 22 36 24 38
REMARK H PARENT 9 20 11 22 31 24 28 32 26 34 22 37 24 39
REMARK Flexibility Score: inf
ROOT
ATOM      1  O   UNL     1      10.471 -23.618   9.131  1.00  0.00    -0.462 OA
ENDROOT
BRANCH   1   2
ATOM      2  C   UNL     1      11.686 -24.323   9.142  1.00  0.00     0.130 A 
ATOM      3  C   UNL     1      14.160 -27.951   7.294  1.00  0.00     0.138 A 
ATOM      4  C   UNL     1      15.306 -27.644   8.041  1.00  0.00     0.100 A 
ATOM      5  O   UNL     1      13.071 -27.203   7.437  1.00  0.00    -0.456 OA
ATOM      6  C   UNL     1      15.287 -26.560   8.919  1.00  0.00     0.197 A 
ATOM      7  C   UNL     1      12.998 -26.165   8.263  1.00  0.00     0.146 A 
ATOM      8  O   UNL     1      16.349 -26.276   9.532  1.00  0.00    -0.289 OA
ATOM      9  C   UNL     1      14.102 -25.801   9.076  1.00  0.00     0.107 A 
ATOM     10  C   UNL     1      11.811 -25.431   8.308  1.00  0.00     0.094 A 
ATOM     11  C   UNL     1      13.956 -24.697   9.967  1.00  0.00     0.134 A 
ATOM     12  C   UNL     1      12.765 -23.959   9.964  1.00  0.00     0.093 A 
BRANCH   3  13
ATOM     13  C   UNL     1      14.121 -29.094   6.348  1.00  0.00     0.021 A 
ATOM     14  C   UNL     1      14.854 -29.025   5.151  1.00  0.00     0.016 A 
ATOM     15  C   UNL     1      14.841 -30.090   4.247  1.00  0.00     0.051 A 
ATOM     16  C   UNL     1      14.102 -31.246   4.529  1.00  0.00     0.157 A 
ATOM     17  C   UNL     1      13.390 -30.265   6.630  1.00  0.00     0.062 A 
ATOM     18  C   UNL     1      13.379 -31.335   5.724  1.00  0.00     0.158 A 
BRANCH  16  19
ATOM     19  O   UNL     1      14.086 -32.310   3.629  1.00  0.00    -0.504 OA
ATOM     20  H   UNL     1      13.984 -33.268   3.942  1.00  0.00     0.293 HD
ENDBRANCH  16  19
BRANCH  18  21
ATOM     21  O   UNL     1      12.653 -32.492   6.006  1.00  0.00    -0.504 OA
ATOM     22  H   UNL     1      12.114 -32.967   5.292  1.00  0.00     0.293 HD
ENDBRANCH  18  21
ENDBRANCH   3  13
BRANCH  11  23
ATOM     23  O   UNL     1      14.931 -24.297  10.886  1.00  0.00    -0.507 OA
ATOM     24  H   UNL     1      14.750 -24.012  11.835  1.00  0.00     0.293 HD
ENDBRANCH  11  23
ENDBRANCH   1   2
BRANCH   1  25
ATOM     25  C   UNL     1       9.312 -23.964   9.896  1.00  0.00     0.339 C 
ATOM     26  C   UNL     1       8.032 -23.644   9.102  1.00  0.00     0.214 C 
ATOM     27  O   UNL     1       9.340 -25.328  10.295  1.00  0.00    -0.332 OA
ATOM     28  C   UNL     1       7.911 -24.581   7.892  1.00  0.00     0.180 C 
ATOM     29  C   UNL     1       9.354 -26.202   9.176  1.00  0.00     0.179 C 
ATOM     30  C   UNL     1       8.065 -26.048   8.335  1.00  0.00     0.177 C 
BRANCH  26  31
ATOM     31  O   UNL     1       6.907 -23.793   9.931  1.00  0.00    -0.384 OA
ATOM     32  H   UNL     1       6.485 -24.659   9.692  1.00  0.00     0.211 HD
ENDBRANCH  26  31
BRANCH  28  33
ATOM     33  O   UNL     1       6.664 -24.386   7.274  1.00  0.00    -0.387 OA
ATOM     34  H   UNL     1       6.037 -25.043   7.673  1.00  0.00     0.211 HD
ENDBRANCH  28  33
BRANCH  29  35
ATOM     35  C   UNL     1       9.527 -27.642   9.684  1.00  0.00     0.191 C 
BRANCH  35  36
ATOM     36  O   UNL     1      10.414 -28.365   8.872  1.00  0.00    -0.394 OA
ATOM     37  H   UNL     1      10.218 -28.106   7.933  1.00  0.00     0.210 HD
ENDBRANCH  35  36
ENDBRANCH  29  35
BRANCH  30  38
ATOM     38  O   UNL     1       8.141 -26.879   7.205  1.00  0.00    -0.387 OA
ATOM     39  H   UNL     1       7.276 -27.361   7.141  1.00  0.00     0.211 HD
ENDBRANCH  30  38
ENDBRANCH   1  25
TORSDOF 11
ENDMDL
MODEL 4
REMARK VINA RESULT:    -4.501      2.961      5.127
REMARK INTER + INTRA:          -6.551
REMARK INTER:                 -10.149
REMARK INTRA:                   3.598
REMARK UNBOUND:                -0.077
REMARK SMILES O=c1cc(-c2ccc(O)c(O)c2)oc2cc(O[C@@H]3O[C@@H](CO)[C@H](O)[C@@H](O)[C@H]3O)cc(O)c12
REMARK SMILES IDX 17 1 16 2 4 3 3 4 13 5 2 6 14 7 1 8 32 9 15 10 30 11 29 12
REMARK SMILES IDX 5 13 6 14 7 15 8 16 12 17 10 18 9 19 11 21 31 23 18 25 27 26
REMARK SMILES IDX 19 27 25 28 20 29 23 30 28 31 26 33 21 35 22 36 24 38
REMARK H PARENT 9 20 11 22 31 24 28 32 26 34 22 37 24 39
REMARK Flexibility Score: inf
ROOT
ATOM      1  O   UNL     1       8.156 -26.563   7.871  1.00  0.00    -0.462 OA
ENDROOT
BRANCH   1   2
ATOM      2  C   UNL     1       9.286 -27.189   8.422  1.00  0.00     0.130 A 
ATOM      3  C   UNL     1      13.987 -26.917   9.144  1.00  0.00     0.138 A 
ATOM      4  C   UNL     1      14.016 -28.112   9.876  1.00  0.00     0.100 A 
ATOM      5  O   UNL     1      12.832 -26.484   8.650  1.00  0.00    -0.456 OA
ATOM      6  C   UNL     1      12.835 -28.826  10.078  1.00  0.00     0.197 A 
ATOM      7  C   UNL     1      11.680 -27.129   8.807  1.00  0.00     0.146 A 
ATOM      8  O   UNL     1      12.884 -29.865  10.787  1.00  0.00    -0.289 OA
ATOM      9  C   UNL     1      11.625 -28.360   9.511  1.00  0.00     0.107 A 
ATOM     10  C   UNL     1      10.522 -26.565   8.271  1.00  0.00     0.094 A 
ATOM     11  C   UNL     1      10.366 -29.023   9.621  1.00  0.00     0.134 A 
ATOM     12  C   UNL     1       9.216 -28.414   9.104  1.00  0.00     0.093 A 
BRANCH   3  13
ATOM     13  C   UNL     1      15.213 -26.117   8.895  1.00  0.00     0.021 A 
ATOM     14  C   UNL     1      16.010 -25.718   9.983  1.00  0.00     0.016 A 
ATOM     15  C   UNL     1      17.172 -24.971   9.775  1.00  0.00     0.051 A 
ATOM     16  C   UNL     1      17.563 -24.620   8.478  1.00  0.00     0.157 A 
ATOM     17  C   UNL     1      15.620 -25.770   7.592  1.00  0.00     0.062 A 
ATOM     18  C   UNL     1      16.788 -25.023   7.384  1.00  0.00     0.158 A 
BRANCH  16  19
ATOM     19  O   UNL     1      18.722 -23.874   8.267  1.00  0.00    -0.504 OA
ATOM     20  H   UNL     1      18.856 -23.330   7.423  1.00  0.00     0.293 HD
ENDBRANCH  16  19
BRANCH  18  21
ATOM     21  O   UNL     1      17.187 -24.680   6.093  1.00  0.00    -0.504 OA
ATOM     22  H   UNL     1      16.816 -25.156   5.279  1.00  0.00     0.293 HD
ENDBRANCH  18  21
ENDBRANCH   3  13
BRANCH  11  23
ATOM     23  O   UNL     1      10.193 -30.282  10.205  1.00  0.00    -0.507 OA
ATOM     24  H   UNL     1      10.761 -31.092  10.012  1.00  0.00     0.293 HD
ENDBRANCH  11  23
ENDBRANCH   1   2
BRANCH   1  25
ATOM     25  C   UNL     1       7.714 -25.238   8.187  1.00  0.00     0.339 C 
ATOM     26  C   UNL     1       8.212 -24.827   9.584  1.00  0.00     0.214 C 
ATOM     27  O   UNL     1       8.125 -24.303   7.200  1.00  0.00    -0.332 OA
ATOM     28  C   UNL     1       9.739 -24.662   9.574  1.00  0.00     0.180 C 
ATOM     29  C   UNL     1       9.539 -24.236   7.097  1.00  0.00     0.179 C 
ATOM     30  C   UNL     1      10.169 -23.738   8.419  1.00  0.00     0.177 C 
BRANCH  26  31
ATOM     31  O   UNL     1       7.608 -23.617   9.969  1.00  0.00    -0.384 OA
ATOM     32  H   UNL     1       6.626 -23.752   9.904  1.00  0.00     0.211 HD
ENDBRANCH  26  31
BRANCH  28  33
ATOM     33  O   UNL     1      10.158 -24.132  10.807  1.00  0.00    -0.387 OA
ATOM     34  H   UNL     1      11.148 -24.192  10.826  1.00  0.00     0.211 HD
ENDBRANCH  28  33
BRANCH  29  35
ATOM     35  C   UNL     1       9.901 -23.316   5.920  1.00  0.00     0.191 C 
BRANCH  35  36
ATOM     36  O   UNL     1       8.927 -22.322   5.735  1.00  0.00    -0.394 OA
ATOM     37  H   UNL     1       9.409 -21.454   5.692  1.00  0.00     0.210 HD
ENDBRANCH  35  36
ENDBRANCH  29  35
BRANCH  30  38
ATOM     38  O   UNL     1      11.569 -23.745   8.304  1.00  0.00    -0.387 OA
ATOM     39  H   UNL     1      11.784 -24.130   7.414  1.00  0.00     0.211 HD
ENDBRANCH  30  38
ENDBRANCH   1  25
TORSDOF 11
ENDMDL
MODEL 5
REMARK VINA RESULT:    -4.442      1.539      2.087
REMARK INTER + INTRA:          -6.466
REMARK INTER:                  -9.731
REMARK INTRA:                   3.265
REMARK UNBOUND:                -0.077
REMARK SMILES O=c1cc(-c2ccc(O)c(O)c2)oc2cc(O[C@@H]3O[C@@H](CO)[C@H](O)[C@@H](O)[C@H]3O)cc(O)c12
REMARK SMILES IDX 17 1 16 2 4 3 3 4 13 5 2 6 14 7 1 8 32 9 15 10 30 11 29 12
REMARK SMILES IDX 5 13 6 14 7 15 8 16 12 17 10 18 9 19 11 21 31 23 18 25 27 26
REMARK SMILES IDX 19 27 25 28 20 29 23 30 28 31 26 33 21 35 22 36 24 38
REMARK H PARENT 9 20 11 22 31 24 28 32 26 34 22 37 24 39
REMARK Flexibility Score: inf
ROOT
ATOM      1  O   UNL     1       9.848 -24.186   6.823  1.00  0.00    -0.462 OA
ENDROOT
BRANCH   1   2
ATOM      2  C   UNL     1      10.795 -25.222   6.763  1.00  0.00     0.130 A 
ATOM      3  C   UNL     1      13.070 -28.633   9.189  1.00  0.00     0.138 A 
ATOM      4  C   UNL     1      13.753 -29.086   8.051  1.00  0.00     0.100 A 
ATOM      5  O   UNL     1      12.237 -27.604   9.080  1.00  0.00    -0.456 OA
ATOM      6  C   UNL     1      13.545 -28.455   6.824  1.00  0.00     0.197 A 
ATOM      7  C   UNL     1      12.007 -26.964   7.938  1.00  0.00     0.146 A 
ATOM      8  O   UNL     1      14.128 -28.921   5.812  1.00  0.00    -0.289 OA
ATOM      9  C   UNL     1      12.677 -27.340   6.745  1.00  0.00     0.107 A 
ATOM     10  C   UNL     1      11.086 -25.915   7.935  1.00  0.00     0.094 A 
ATOM     11  C   UNL     1      12.415 -26.596   5.556  1.00  0.00     0.134 A 
ATOM     12  C   UNL     1      11.459 -25.573   5.577  1.00  0.00     0.093 A 
BRANCH   3  13
ATOM     13  C   UNL     1      13.255 -29.264  10.520  1.00  0.00     0.021 A 
ATOM     14  C   UNL     1      13.120 -30.657  10.648  1.00  0.00     0.016 A 
ATOM     15  C   UNL     1      13.296 -31.277  11.888  1.00  0.00     0.051 A 
ATOM     16  C   UNL     1      13.620 -30.516  13.018  1.00  0.00     0.157 A 
ATOM     17  C   UNL     1      13.593 -28.506  11.659  1.00  0.00     0.062 A 
ATOM     18  C   UNL     1      13.771 -29.129  12.903  1.00  0.00     0.158 A 
BRANCH  16  19
ATOM     19  O   UNL     1      13.795 -31.130  14.256  1.00  0.00    -0.504 OA
ATOM     20  H   UNL     1      14.708 -31.198  14.691  1.00  0.00     0.293 HD
ENDBRANCH  16  19
BRANCH  18  21
ATOM     21  O   UNL     1      14.104 -28.376  14.028  1.00  0.00    -0.504 OA
ATOM     22  H   UNL     1      14.077 -27.364  14.015  1.00  0.00     0.293 HD
ENDBRANCH  18  21
ENDBRANCH   3  13
BRANCH  11  23
ATOM     23  O   UNL     1      13.076 -26.803   4.341  1.00  0.00    -0.507 OA
ATOM     24  H   UNL     1      12.630 -27.067   3.477  1.00  0.00     0.293 HD
ENDBRANCH  11  23
ENDBRANCH   1   2
BRANCH   1  25
ATOM     25  C   UNL     1       8.490 -24.338   7.249  1.00  0.00     0.339 C 
ATOM     26  C   UNL     1       8.022 -25.790   7.039  1.00  0.00     0.214 C 
ATOM     27  O   UNL     1       8.319 -23.935   8.601  1.00  0.00    -0.332 OA
ATOM     28  C   UNL     1       8.766 -26.729   7.999  1.00  0.00     0.180 C 
ATOM     29  C   UNL     1       9.104 -24.721   9.485  1.00  0.00     0.179 C 
ATOM     30  C   UNL     1       8.668 -26.204   9.444  1.00  0.00     0.177 C 
BRANCH  26  31
ATOM     31  O   UNL     1       6.637 -25.883   7.265  1.00  0.00    -0.384 OA
ATOM     32  H   UNL     1       6.269 -26.472   6.556  1.00  0.00     0.211 HD
ENDBRANCH  26  31
BRANCH  28  33
ATOM     33  O   UNL     1       8.215 -28.019   7.909  1.00  0.00    -0.387 OA
ATOM     34  H   UNL     1       8.971 -28.661   7.956  1.00  0.00     0.211 HD
ENDBRANCH  28  33
BRANCH  29  35
ATOM     35  C   UNL     1       8.976 -24.136  10.901  1.00  0.00     0.191 C 
BRANCH  35  36
ATOM     36  O   UNL     1       7.940 -24.758  11.616  1.00  0.00    -0.394 OA
ATOM     37  H   UNL     1       8.317 -25.016  12.499  1.00  0.00     0.210 HD
ENDBRANCH  35  36
ENDBRANCH  29  35
BRANCH  30  38
ATOM     38  O   UNL     1       9.505 -26.962  10.281  1.00  0.00    -0.387 OA
ATOM     39  H   UNL     1       9.598 -26.457  11.130  1.00  0.00     0.211 HD
ENDBRANCH  30  38
ENDBRANCH   1  25
TORSDOF 11
ENDMDL
MODEL 6
REMARK VINA RESULT:    -4.270      2.782      7.516
REMARK INTER + INTRA:          -6.219
REMARK INTER:                  -6.873
REMARK INTRA:                   0.654
REMARK UNBOUND:                -0.077
REMARK SMILES O=c1cc(-c2ccc(O)c(O)c2)oc2cc(O[C@@H]3O[C@@H](CO)[C@H](O)[C@@H](O)[C@H]3O)cc(O)c12
REMARK SMILES IDX 17 1 16 2 4 3 3 4 13 5 2 6 14 7 1 8 32 9 15 10 30 11 29 12
REMARK SMILES IDX 5 13 6 14 7 15 8 16 12 17 10 18 9 19 11 21 31 23 18 25 27 26
REMARK SMILES IDX 19 27 25 28 20 29 23 30 28 31 26 33 21 35 22 36 24 38
REMARK H PARENT 9 20 11 22 31 24 28 32 26 34 22 37 24 39
REMARK Flexibility Score: inf
ROOT
ATOM      1  O   UNL     1      14.166 -30.239   7.231  1.00  0.00    -0.462 OA
ENDROOT
BRANCH   1   2
ATOM      2  C   UNL     1      14.059 -28.946   7.768  1.00  0.00     0.130 A 
ATOM      3  C   UNL     1      11.247 -25.150   8.385  1.00  0.00     0.138 A 
ATOM      4  C   UNL     1      12.213 -24.467   9.137  1.00  0.00     0.100 A 
ATOM      5  O   UNL     1      11.528 -26.358   7.909  1.00  0.00    -0.456 OA
ATOM      6  C   UNL     1      13.451 -25.065   9.377  1.00  0.00     0.197 A 
ATOM      7  C   UNL     1      12.693 -26.969   8.101  1.00  0.00     0.146 A 
ATOM      8  O   UNL     1      14.276 -24.450  10.102  1.00  0.00    -0.289 OA
ATOM      9  C   UNL     1      13.735 -26.338   8.828  1.00  0.00     0.107 A 
ATOM     10  C   UNL     1      12.866 -28.252   7.580  1.00  0.00     0.094 A 
ATOM     11  C   UNL     1      14.975 -27.029   8.975  1.00  0.00     0.134 A 
ATOM     12  C   UNL     1      15.106 -28.329   8.472  1.00  0.00     0.093 A 
BRANCH   3  13
ATOM     13  C   UNL     1       9.915 -24.562   8.097  1.00  0.00     0.021 A 
ATOM     14  C   UNL     1       8.828 -24.870   8.933  1.00  0.00     0.016 A 
ATOM     15  C   UNL     1       7.566 -24.324   8.688  1.00  0.00     0.051 A 
ATOM     16  C   UNL     1       7.371 -23.453   7.609  1.00  0.00     0.157 A 
ATOM     17  C   UNL     1       9.714 -23.674   7.021  1.00  0.00     0.062 A 
ATOM     18  C   UNL     1       8.447 -23.125   6.777  1.00  0.00     0.158 A 
BRANCH  16  19
ATOM     19  O   UNL     1       6.113 -22.907   7.361  1.00  0.00    -0.504 OA
ATOM     20  H   UNL     1       5.990 -22.119   6.735  1.00  0.00     0.293 HD
ENDBRANCH  16  19
BRANCH  18  21
ATOM     21  O   UNL     1       8.251 -22.248   5.710  1.00  0.00    -0.504 OA
ATOM     22  H   UNL     1       8.327 -22.558   4.749  1.00  0.00     0.293 HD
ENDBRANCH  18  21
ENDBRANCH   3  13
BRANCH  11  23
ATOM     23  O   UNL     1      16.109 -26.482   9.584  1.00  0.00    -0.507 OA
ATOM     24  H   UNL     1      17.002 -26.354   9.135  1.00  0.00     0.293 HD
ENDBRANCH  11  23
ENDBRANCH   1   2
BRANCH   1  25
ATOM     25  C   UNL     1      14.630 -30.547   5.912  1.00  0.00     0.339 C 
ATOM     26  C   UNL     1      13.547 -31.314   5.130  1.00  0.00     0.214 C 
ATOM     27  O   UNL     1      15.033 -29.376   5.215  1.00  0.00    -0.332 OA
ATOM     28  C   UNL     1      12.351 -30.395   4.843  1.00  0.00     0.180 C 
ATOM     29  C   UNL     1      13.957 -28.464   5.056  1.00  0.00     0.179 C 
ATOM     30  C   UNL     1      12.828 -29.081   4.198  1.00  0.00     0.177 C 
BRANCH  26  31
ATOM     31  O   UNL     1      14.080 -31.788   3.918  1.00  0.00    -0.384 OA
ATOM     32  H   UNL     1      14.505 -32.664   4.114  1.00  0.00     0.211 HD
ENDBRANCH  26  31
BRANCH  28  33
ATOM     33  O   UNL     1      11.448 -31.058   3.994  1.00  0.00    -0.387 OA
ATOM     34  H   UNL     1      10.543 -30.709   4.205  1.00  0.00     0.211 HD
ENDBRANCH  28  33
BRANCH  29  35
ATOM     35  C   UNL     1      14.502 -27.172   4.425  1.00  0.00     0.191 C 
BRANCH  35  36
ATOM     36  O   UNL     1      14.578 -26.137   5.370  1.00  0.00    -0.394 OA
ATOM     37  H   UNL     1      14.708 -26.568   6.256  1.00  0.00     0.210 HD
ENDBRANCH  35  36
ENDBRANCH  29  35
BRANCH  30  38
ATOM     38  O   UNL     1      11.756 -28.177   4.114  1.00  0.00    -0.387 OA
ATOM     39  H   UNL     1      11.275 -28.216   4.982  1.00  0.00     0.211 HD
ENDBRANCH  30  38
ENDBRANCH   1  25
TORSDOF 11
ENDMDL
MODEL 7
REMARK VINA RESULT:    -4.010      2.351      7.641
REMARK INTER + INTRA:          -5.845
REMARK INTER:                 -10.021
REMARK INTRA:                   4.176
REMARK UNBOUND:                -0.077
REMARK SMILES O=c1cc(-c2ccc(O)c(O)c2)oc2cc(O[C@@H]3O[C@@H](CO)[C@H](O)[C@@H](O)[C@H]3O)cc(O)c12
REMARK SMILES IDX 17 1 16 2 4 3 3 4 13 5 2 6 14 7 1 8 32 9 15 10 30 11 29 12
REMARK SMILES IDX 5 13 6 14 7 15 8 16 12 17 10 18 9 19 11 21 31 23 18 25 27 26
REMARK SMILES IDX 19 27 25 28 20 29 23 30 28 31 26 33 21 35 22 36 24 38
REMARK H PARENT 9 20 11 22 31 24 28 32 26 34 22 37 24 39
REMARK Flexibility Score: inf
ROOT
ATOM      1  O   UNL     1      14.951 -29.199   9.746  1.00  0.00    -0.462 OA
ENDROOT
BRANCH   1   2
ATOM      2  C   UNL     1      13.563 -29.023   9.862  1.00  0.00     0.130 A 
ATOM      3  C   UNL     1       9.805 -26.369   8.625  1.00  0.00     0.138 A 
ATOM      4  C   UNL     1       8.902 -27.205   9.296  1.00  0.00     0.100 A 
ATOM      5  O   UNL     1      11.102 -26.656   8.652  1.00  0.00    -0.456 OA
ATOM      6  C   UNL     1       9.376 -28.326   9.977  1.00  0.00     0.197 A 
ATOM      7  C   UNL     1      11.606 -27.706   9.291  1.00  0.00     0.146 A 
ATOM      8  O   UNL     1       8.536 -29.088  10.522  1.00  0.00    -0.289 OA
ATOM      9  C   UNL     1      10.767 -28.589  10.018  1.00  0.00     0.107 A 
ATOM     10  C   UNL     1      12.983 -27.928   9.226  1.00  0.00     0.094 A 
ATOM     11  C   UNL     1      11.368 -29.682  10.712  1.00  0.00     0.134 A 
ATOM     12  C   UNL     1      12.747 -29.898  10.598  1.00  0.00     0.093 A 
BRANCH   3  13
ATOM     13  C   UNL     1       9.357 -25.161   7.886  1.00  0.00     0.021 A 
ATOM     14  C   UNL     1      10.239 -24.534   6.988  1.00  0.00     0.016 A 
ATOM     15  C   UNL     1       9.840 -23.401   6.276  1.00  0.00     0.051 A 
ATOM     16  C   UNL     1       8.551 -22.881   6.440  1.00  0.00     0.157 A 
ATOM     17  C   UNL     1       8.057 -24.639   8.037  1.00  0.00     0.062 A 
ATOM     18  C   UNL     1       7.656 -23.503   7.319  1.00  0.00     0.158 A 
BRANCH  16  19
ATOM     19  O   UNL     1       8.150 -21.750   5.732  1.00  0.00    -0.504 OA
ATOM     20  H   UNL     1       7.458 -21.109   6.103  1.00  0.00     0.293 HD
ENDBRANCH  16  19
BRANCH  18  21
ATOM     21  O   UNL     1       6.370 -22.989   7.472  1.00  0.00    -0.504 OA
ATOM     22  H   UNL     1       5.822 -22.686   6.676  1.00  0.00     0.293 HD
ENDBRANCH  18  21
ENDBRANCH   3  13
BRANCH  11  23
ATOM     23  O   UNL     1      10.667 -30.566  11.538  1.00  0.00    -0.507 OA
ATOM     24  H   UNL     1      10.833 -31.558  11.597  1.00  0.00     0.293 HD
ENDBRANCH  11  23
ENDBRANCH   1   2
BRANCH   1  25
ATOM     25  C   UNL     1      15.687 -29.150   8.520  1.00  0.00     0.339 C 
ATOM     26  C   UNL     1      14.753 -29.420   7.325  1.00  0.00     0.214 C 
ATOM     27  O   UNL     1      16.367 -27.912   8.369  1.00  0.00    -0.332 OA
ATOM     28  C   UNL     1      13.765 -28.257   7.153  1.00  0.00     0.180 C 
ATOM     29  C   UNL     1      15.464 -26.818   8.335  1.00  0.00     0.179 C 
ATOM     30  C   UNL     1      14.520 -26.915   7.114  1.00  0.00     0.177 C 
BRANCH  26  31
ATOM     31  O   UNL     1      15.512 -29.573   6.151  1.00  0.00    -0.384 OA
ATOM     32  H   UNL     1      15.825 -30.515   6.132  1.00  0.00     0.211 HD
ENDBRANCH  26  31
BRANCH  28  33
ATOM     33  O   UNL     1      13.032 -28.440   5.968  1.00  0.00    -0.387 OA
ATOM     34  H   UNL     1      12.866 -29.414   5.877  1.00  0.00     0.211 HD
ENDBRANCH  28  33
BRANCH  29  35
ATOM     35  C   UNL     1      16.278 -25.514   8.314  1.00  0.00     0.191 C 
BRANCH  35  36
ATOM     36  O   UNL     1      16.360 -24.986   7.016  1.00  0.00    -0.394 OA
ATOM     37  H   UNL     1      15.435 -24.970   6.655  1.00  0.00     0.210 HD
ENDBRANCH  35  36
ENDBRANCH  29  35
BRANCH  30  38
ATOM     38  O   UNL     1      13.601 -25.853   7.146  1.00  0.00    -0.387 OA
ATOM     39  H   UNL     1      14.125 -25.020   7.271  1.00  0.00     0.211 HD
ENDBRANCH  30  38
ENDBRANCH   1  25
TORSDOF 11
ENDMDL
MODEL 8
REMARK VINA RESULT:    -3.760      3.240      7.739
REMARK INTER + INTRA:          -5.485
REMARK INTER:                  -5.301
REMARK INTRA:                  -0.184
REMARK UNBOUND:                -0.077
REMARK SMILES O=c1cc(-c2ccc(O)c(O)c2)oc2cc(O[C@@H]3O[C@@H](CO)[C@H](O)[C@@H](O)[C@H]3O)cc(O)c12
REMARK SMILES IDX 17 1 16 2 4 3 3 4 13 5 2 6 14 7 1 8 32 9 15 10 30 11 29 12
REMARK SMILES IDX 5 13 6 14 7 15 8 16 12 17 10 18 9 19 11 21 31 23 18 25 27 26
REMARK SMILES IDX 19 27 25 28 20 29 23 30 28 31 26 33 21 35 22 36 24 38
REMARK H PARENT 9 20 11 22 31 24 28 32 26 34 22 37 24 39
REMARK Flexibility Score: inf
ROOT
ATOM      1  O   UNL     1      13.591 -23.293   9.670  1.00  0.00    -0.462 OA
ENDROOT
BRANCH   1   2
ATOM      2  C   UNL     1      12.366 -23.890   9.334  1.00  0.00     0.130 A 
ATOM      3  C   UNL     1       9.993 -26.488   6.121  1.00  0.00     0.138 A 
ATOM      4  C   UNL     1       8.827 -26.516   6.899  1.00  0.00     0.100 A 
ATOM      5  O   UNL     1      11.059 -25.835   6.571  1.00  0.00    -0.456 OA
ATOM      6  C   UNL     1       8.804 -25.862   8.131  1.00  0.00     0.197 A 
ATOM      7  C   UNL     1      11.088 -25.190   7.733  1.00  0.00     0.146 A 
ATOM      8  O   UNL     1       7.762 -25.953   8.831  1.00  0.00    -0.289 OA
ATOM      9  C   UNL     1       9.943 -25.145   8.569  1.00  0.00     0.107 A 
ATOM     10  C   UNL     1      12.274 -24.564   8.118  1.00  0.00     0.094 A 
ATOM     11  C   UNL     1      10.022 -24.411   9.790  1.00  0.00     0.134 A 
ATOM     12  C   UNL     1      11.237 -23.824  10.166  1.00  0.00     0.093 A 
BRANCH   3  13
ATOM     13  C   UNL     1      10.074 -27.163   4.802  1.00  0.00     0.021 A 
ATOM     14  C   UNL     1      11.325 -27.585   4.317  1.00  0.00     0.016 A 
ATOM     15  C   UNL     1      11.427 -28.229   3.082  1.00  0.00     0.051 A 
ATOM     16  C   UNL     1      10.282 -28.471   2.314  1.00  0.00     0.157 A 
ATOM     17  C   UNL     1       8.924 -27.421   4.029  1.00  0.00     0.062 A 
ATOM     18  C   UNL     1       9.028 -28.069   2.790  1.00  0.00     0.158 A 
BRANCH  16  19
ATOM     19  O   UNL     1      10.381 -29.112   1.081  1.00  0.00    -0.504 OA
ATOM     20  H   UNL     1      10.049 -28.676   0.228  1.00  0.00     0.293 HD
ENDBRANCH  16  19
BRANCH  18  21
ATOM     21  O   UNL     1       7.888 -28.321   2.027  1.00  0.00    -0.504 OA
ATOM     22  H   UNL     1       6.958 -28.229   2.418  1.00  0.00     0.293 HD
ENDBRANCH  18  21
ENDBRANCH   3  13
BRANCH  11  23
ATOM     23  O   UNL     1       8.941 -24.210  10.655  1.00  0.00    -0.507 OA
ATOM     24  H   UNL     1       8.943 -24.419  11.641  1.00  0.00     0.293 HD
ENDBRANCH  11  23
ENDBRANCH   1   2
BRANCH   1  25
ATOM     25  C   UNL     1      14.546 -23.835  10.588  1.00  0.00     0.339 C 
ATOM     26  C   UNL     1      14.128 -25.254  11.018  1.00  0.00     0.214 C 
ATOM     27  O   UNL     1      15.856 -23.832  10.039  1.00  0.00    -0.332 OA
ATOM     28  C   UNL     1      14.237 -26.221   9.830  1.00  0.00     0.180 C 
ATOM     29  C   UNL     1      15.935 -24.627   8.865  1.00  0.00     0.179 C 
ATOM     30  C   UNL     1      15.628 -26.110   9.177  1.00  0.00     0.177 C 
BRANCH  26  31
ATOM     31  O   UNL     1      14.953 -25.697  12.067  1.00  0.00    -0.384 OA
ATOM     32  H   UNL     1      14.748 -25.128  12.854  1.00  0.00     0.211 HD
ENDBRANCH  26  31
BRANCH  28  33
ATOM     33  O   UNL     1      14.010 -27.534  10.276  1.00  0.00    -0.387 OA
ATOM     34  H   UNL     1      14.390 -27.599  11.191  1.00  0.00     0.211 HD
ENDBRANCH  28  33
BRANCH  29  35
ATOM     35  C   UNL     1      17.337 -24.459   8.255  1.00  0.00     0.191 C 
BRANCH  35  36
ATOM     36  O   UNL     1      17.310 -24.635   6.863  1.00  0.00    -0.394 OA
ATOM     37  H   UNL     1      16.555 -24.087   6.520  1.00  0.00     0.210 HD
ENDBRANCH  35  36
ENDBRANCH  29  35
BRANCH  30  38
ATOM     38  O   UNL     1      15.652 -26.855   7.986  1.00  0.00    -0.387 OA
ATOM     39  H   UNL     1      14.815 -27.387   7.960  1.00  0.00     0.211 HD
ENDBRANCH  30  38
ENDBRANCH   1  25
TORSDOF 11
ENDMDL
MODEL 9
REMARK VINA RESULT:    -3.301      3.313      4.460
REMARK INTER + INTRA:          -4.825
REMARK INTER:                  -7.365
REMARK INTRA:                   2.540
REMARK UNBOUND:                -0.077
REMARK SMILES O=c1cc(-c2ccc(O)c(O)c2)oc2cc(O[C@@H]3O[C@@H](CO)[C@H](O)[C@@H](O)[C@H]3O)cc(O)c12
REMARK SMILES IDX 17 1 16 2 4 3 3 4 13 5 2 6 14 7 1 8 32 9 15 10 30 11 29 12
REMARK SMILES IDX 5 13 6 14 7 15 8 16 12 17 10 18 9 19 11 21 31 23 18 25 27 26
REMARK SMILES IDX 19 27 25 28 20 29 23 30 28 31 26 33 21 35 22 36 24 38
REMARK H PARENT 9 20 11 22 31 24 28 32 26 34 22 37 24 39
REMARK Flexibility Score: inf
ROOT
ATOM      1  O   UNL     1       8.163 -26.872   5.756  1.00  0.00    -0.462 OA
ENDROOT
BRANCH   1   2
ATOM      2  C   UNL     1       9.531 -27.011   5.471  1.00  0.00     0.130 A 
ATOM      3  C   UNL     1      13.978 -26.199   6.975  1.00  0.00     0.138 A 
ATOM      4  C   UNL     1      14.547 -26.843   5.868  1.00  0.00     0.100 A 
ATOM      5  O   UNL     1      12.656 -26.115   7.071  1.00  0.00    -0.456 OA
ATOM      6  C   UNL     1      13.719 -27.389   4.886  1.00  0.00     0.197 A 
ATOM      7  C   UNL     1      11.822 -26.611   6.162  1.00  0.00     0.146 A 
ATOM      8  O   UNL     1      14.259 -28.009   3.934  1.00  0.00    -0.289 OA
ATOM      9  C   UNL     1      12.314 -27.255   4.997  1.00  0.00     0.107 A 
ATOM     10  C   UNL     1      10.449 -26.493   6.382  1.00  0.00     0.094 A 
ATOM     11  C   UNL     1      11.373 -27.740   4.040  1.00  0.00     0.134 A 
ATOM     12  C   UNL     1      10.002 -27.638   4.306  1.00  0.00     0.093 A 
BRANCH   3  13
ATOM     13  C   UNL     1      14.810 -25.597   8.048  1.00  0.00     0.021 A 
ATOM     14  C   UNL     1      16.125 -25.194   7.758  1.00  0.00     0.016 A 
ATOM     15  C   UNL     1      16.926 -24.619   8.747  1.00  0.00     0.051 A 
ATOM     16  C   UNL     1      16.424 -24.427  10.040  1.00  0.00     0.157 A 
ATOM     17  C   UNL     1      14.307 -25.390   9.348  1.00  0.00     0.062 A 
ATOM     18  C   UNL     1      15.111 -24.810  10.340  1.00  0.00     0.158 A 
BRANCH  16  19
ATOM     19  O   UNL     1      17.221 -23.855  11.029  1.00  0.00    -0.504 OA
ATOM     20  H   UNL     1      18.177 -24.156  11.181  1.00  0.00     0.293 HD
ENDBRANCH  16  19
BRANCH  18  21
ATOM     21  O   UNL     1      14.611 -24.609  11.625  1.00  0.00    -0.504 OA
ATOM     22  H   UNL     1      15.038 -23.947  12.262  1.00  0.00     0.293 HD
ENDBRANCH  18  21
ENDBRANCH   3  13
BRANCH  11  23
ATOM     23  O   UNL     1      11.727 -28.306   2.811  1.00  0.00    -0.507 OA
ATOM     24  H   UNL     1      11.485 -29.237   2.512  1.00  0.00     0.293 HD
ENDBRANCH  11  23
ENDBRANCH   1   2
BRANCH   1  25
ATOM     25  C   UNL     1       7.548 -27.195   7.007  1.00  0.00     0.339 C 
ATOM     26  C   UNL     1       8.620 -27.521   8.063  1.00  0.00     0.214 C 
ATOM     27  O   UNL     1       6.692 -26.151   7.452  1.00  0.00    -0.332 OA
ATOM     28  C   UNL     1       9.418 -26.258   8.415  1.00  0.00     0.180 C 
ATOM     29  C   UNL     1       7.405 -24.941   7.660  1.00  0.00     0.179 C 
ATOM     30  C   UNL     1       8.463 -25.105   8.776  1.00  0.00     0.177 C 
BRANCH  26  31
ATOM     31  O   UNL     1       8.009 -28.033   9.221  1.00  0.00    -0.384 OA
ATOM     32  H   UNL     1       7.028 -27.972   9.080  1.00  0.00     0.211 HD
ENDBRANCH  26  31
BRANCH  28  33
ATOM     33  O   UNL     1      10.279 -26.535   9.491  1.00  0.00    -0.387 OA
ATOM     34  H   UNL     1       9.855 -26.159  10.305  1.00  0.00     0.211 HD
ENDBRANCH  28  33
BRANCH  29  35
ATOM     35  C   UNL     1       6.396 -23.833   7.999  1.00  0.00     0.191 C 
BRANCH  35  36
ATOM     36  O   UNL     1       6.647 -22.671   7.252  1.00  0.00    -0.394 OA
ATOM     37  H   UNL     1       5.778 -22.199   7.156  1.00  0.00     0.210 HD
ENDBRANCH  35  36
ENDBRANCH  29  35
BRANCH  30  38
ATOM     38  O   UNL     1       9.190 -23.911   8.911  1.00  0.00    -0.387 OA
ATOM     39  H   UNL     1       9.382 -23.797   9.878  1.00  0.00     0.211 HD
ENDBRANCH  30  38
ENDBRANCH   1  25
TORSDOF 11
ENDMDL
