MODEL 1
REMARK VINA RESULT:    -7.175      0.000      0.000
REMARK INTER + INTRA:          -8.965
REMARK INTER:                  -8.853
REMARK INTRA:                  -0.112
REMARK UNBOUND:                -0.112
REMARK SMILES Oc1cc(O)c2cc(O)c(-c3cc(O)c(O)c(O)c3)[o+]c2c1
REMARK SMILES IDX 10 1 20 2 21 3 22 4 2 5 3 6 4 7 6 8 7 9 8 10 11 11 12 12
REMARK SMILES IDX 13 13 19 14 15 15 17 16 14 17 16 19 18 21 9 23 1 25 5 27
REMARK H PARENT 14 18 16 20 18 22 9 24 1 26 5 28
REMARK Flexibility Score: inf
ROOT
ATOM      1  C   UNL     1      27.623  13.228  78.070  1.00  0.00     0.402 A 
ATOM      2  O   UNL     1      27.395  12.190  77.269  1.00  0.00    -0.202 OA
ATOM      3  C   UNL     1      26.443  12.180  76.342  1.00  0.00     0.368 A 
ATOM      4  C   UNL     1      26.283  11.043  75.545  1.00  0.00     0.162 A 
ATOM      5  C   UNL     1      25.292  11.007  74.560  1.00  0.00     0.128 A 
ATOM      6  C   UNL     1      24.459  12.111  74.370  1.00  0.00     0.093 A 
ATOM      7  C   UNL     1      24.599  13.263  75.154  1.00  0.00     0.136 A 
ATOM      8  C   UNL     1      25.602  13.304  76.158  1.00  0.00     0.125 A 
ATOM      9  C   UNL     1      25.808  14.410  77.000  1.00  0.00     0.078 A 
ATOM     10  C   UNL     1      26.813  14.375  77.970  1.00  0.00     0.223 A 
ENDROOT
BRANCH   1  11
ATOM     11  C   UNL     1      28.721  13.123  79.058  1.00  0.00     0.091 A 
ATOM     12  C   UNL     1      30.027  12.867  78.614  1.00  0.00     0.068 A 
ATOM     13  C   UNL     1      31.088  12.782  79.526  1.00  0.00     0.162 A 
ATOM     14  C   UNL     1      28.493  13.329  80.430  1.00  0.00     0.068 A 
ATOM     15  C   UNL     1      30.848  12.968  80.897  1.00  0.00     0.200 A 
ATOM     16  C   UNL     1      29.550  13.247  81.346  1.00  0.00     0.162 A 
BRANCH  13  17
ATOM     17  O   UNL     1      32.379  12.513  79.074  1.00  0.00    -0.504 OA
ATOM     18  H   UNL     1      32.559  12.229  78.117  1.00  0.00     0.293 HD
ENDBRANCH  13  17
BRANCH  15  19
ATOM     19  O   UNL     1      31.887  12.887  81.825  1.00  0.00    -0.502 OA
ATOM     20  H   UNL     1      32.124  12.022  82.295  1.00  0.00     0.293 HD
ENDBRANCH  15  19
BRANCH  16  21
ATOM     21  O   UNL     1      29.319  13.445  82.706  1.00  0.00    -0.504 OA
ATOM     22  H   UNL     1      28.388  13.392  83.100  1.00  0.00     0.293 HD
ENDBRANCH  16  21
ENDBRANCH   1  11
BRANCH  10  23
ATOM     23  O   UNL     1      26.985  15.453  78.838  1.00  0.00    -0.500 OA
ATOM     24  H   UNL     1      26.441  15.544  79.688  1.00  0.00     0.294 HD
ENDBRANCH  10  23
BRANCH   5  25
ATOM     25  O   UNL     1      25.125   9.876  73.763  1.00  0.00    -0.507 OA
ATOM     26  H   UNL     1      24.544   9.101  74.058  1.00  0.00     0.293 HD
ENDBRANCH   5  25
BRANCH   7  27
ATOM     27  O   UNL     1      23.729  14.326  74.899  1.00  0.00    -0.507 OA
ATOM     28  H   UNL     1      23.372  14.953  75.605  1.00  0.00     0.293 HD
ENDBRANCH   7  27
TORSDOF 7
ENDMDL
MODEL 2
REMARK VINA RESULT:    -6.682      1.775      6.953
REMARK INTER + INTRA:          -8.356
REMARK INTER:                  -8.161
REMARK INTRA:                  -0.195
REMARK UNBOUND:                -0.112
REMARK SMILES Oc1cc(O)c2cc(O)c(-c3cc(O)c(O)c(O)c3)[o+]c2c1
REMARK SMILES IDX 10 1 20 2 21 3 22 4 2 5 3 6 4 7 6 8 7 9 8 10 11 11 12 12
REMARK SMILES IDX 13 13 19 14 15 15 17 16 14 17 16 19 18 21 9 23 1 25 5 27
REMARK H PARENT 14 18 16 20 18 22 9 24 1 26 5 28
REMARK Flexibility Score: inf
ROOT
ATOM      1  C   UNL     1      27.224  13.155  78.144  1.00  0.00     0.402 A 
ATOM      2  O   UNL     1      27.160  12.355  79.204  1.00  0.00    -0.202 OA
ATOM      3  C   UNL     1      27.796  12.604  80.345  1.00  0.00     0.368 A 
ATOM      4  C   UNL     1      27.664  11.705  81.407  1.00  0.00     0.162 A 
ATOM      5  C   UNL     1      28.319  11.944  82.618  1.00  0.00     0.128 A 
ATOM      6  C   UNL     1      29.108  13.087  82.769  1.00  0.00     0.093 A 
ATOM      7  C   UNL     1      29.255  14.003  81.720  1.00  0.00     0.136 A 
ATOM      8  C   UNL     1      28.594  13.764  80.487  1.00  0.00     0.125 A 
ATOM      9  C   UNL     1      28.695  14.620  79.378  1.00  0.00     0.078 A 
ATOM     10  C   UNL     1      28.018  14.315  78.194  1.00  0.00     0.223 A 
ENDROOT
BRANCH   1  11
ATOM     11  C   UNL     1      26.461  12.774  76.932  1.00  0.00     0.091 A 
ATOM     12  C   UNL     1      26.677  11.516  76.349  1.00  0.00     0.068 A 
ATOM     13  C   UNL     1      25.954  11.122  75.214  1.00  0.00     0.162 A 
ATOM     14  C   UNL     1      25.484  13.623  76.385  1.00  0.00     0.068 A 
ATOM     15  C   UNL     1      24.995  11.986  74.661  1.00  0.00     0.200 A 
ATOM     16  C   UNL     1      24.757  13.234  75.252  1.00  0.00     0.162 A 
BRANCH  13  17
ATOM     17  O   UNL     1      26.187   9.876  74.634  1.00  0.00    -0.504 OA
ATOM     18  H   UNL     1      25.461   9.169  74.584  1.00  0.00     0.293 HD
ENDBRANCH  13  17
BRANCH  15  19
ATOM     19  O   UNL     1      24.264  11.617  73.531  1.00  0.00    -0.502 OA
ATOM     20  H   UNL     1      23.286  11.359  73.582  1.00  0.00     0.293 HD
ENDBRANCH  15  19
BRANCH  16  21
ATOM     21  O   UNL     1      23.794  14.082  74.708  1.00  0.00    -0.504 OA
ATOM     22  H   UNL     1      22.807  13.952  74.895  1.00  0.00     0.293 HD
ENDBRANCH  16  21
ENDBRANCH   1  11
BRANCH  10  23
ATOM     23  O   UNL     1      28.157  15.139  77.076  1.00  0.00    -0.500 OA
ATOM     24  H   UNL     1      28.037  16.143  77.137  1.00  0.00     0.294 HD
ENDBRANCH  10  23
BRANCH   5  25
ATOM     25  O   UNL     1      28.194  11.051  83.681  1.00  0.00    -0.507 OA
ATOM     26  H   UNL     1      28.217  10.049  83.536  1.00  0.00     0.293 HD
ENDBRANCH   5  25
BRANCH   7  27
ATOM     27  O   UNL     1      30.059  15.123  81.952  1.00  0.00    -0.507 OA
ATOM     28  H   UNL     1      31.053  15.087  82.122  1.00  0.00     0.293 HD
ENDBRANCH   7  27
TORSDOF 7
ENDMDL
MODEL 3
REMARK VINA RESULT:    -6.443      2.181      3.910
REMARK INTER + INTRA:          -8.061
REMARK INTER:                  -8.305
REMARK INTRA:                   0.244
REMARK UNBOUND:                -0.112
REMARK SMILES Oc1cc(O)c2cc(O)c(-c3cc(O)c(O)c(O)c3)[o+]c2c1
REMARK SMILES IDX 10 1 20 2 21 3 22 4 2 5 3 6 4 7 6 8 7 9 8 10 11 11 12 12
REMARK SMILES IDX 13 13 19 14 15 15 17 16 14 17 16 19 18 21 9 23 1 25 5 27
REMARK H PARENT 14 18 16 20 18 22 9 24 1 26 5 28
REMARK Flexibility Score: inf
ROOT
ATOM      1  C   UNL     1      26.678  13.694  78.002  1.00  0.00     0.402 A 
ATOM      2  O   UNL     1      25.812  14.007  77.042  1.00  0.00    -0.202 OA
ATOM      3  C   UNL     1      25.547  13.211  76.011  1.00  0.00     0.368 A 
ATOM      4  C   UNL     1      24.617  13.625  75.053  1.00  0.00     0.162 A 
ATOM      5  C   UNL     1      24.318  12.806  73.961  1.00  0.00     0.128 A 
ATOM      6  C   UNL     1      24.948  11.567  73.827  1.00  0.00     0.093 A 
ATOM      7  C   UNL     1      25.883  11.128  74.773  1.00  0.00     0.136 A 
ATOM      8  C   UNL     1      26.193  11.957  75.882  1.00  0.00     0.125 A 
ATOM      9  C   UNL     1      27.125  11.605  76.872  1.00  0.00     0.078 A 
ATOM     10  C   UNL     1      27.382  12.477  77.934  1.00  0.00     0.223 A 
ENDROOT
BRANCH   1  11
ATOM     11  C   UNL     1      26.880  14.661  79.105  1.00  0.00     0.091 A 
ATOM     12  C   UNL     1      25.825  15.505  79.485  1.00  0.00     0.068 A 
ATOM     13  C   UNL     1      25.983  16.415  80.539  1.00  0.00     0.162 A 
ATOM     14  C   UNL     1      28.090  14.714  79.819  1.00  0.00     0.068 A 
ATOM     15  C   UNL     1      27.203  16.477  81.233  1.00  0.00     0.200 A 
ATOM     16  C   UNL     1      28.253  15.622  80.875  1.00  0.00     0.162 A 
BRANCH  13  17
ATOM     17  O   UNL     1      24.933  17.259  80.898  1.00  0.00    -0.504 OA
ATOM     18  H   UNL     1      24.913  18.233  80.615  1.00  0.00     0.293 HD
ENDBRANCH  13  17
BRANCH  15  19
ATOM     19  O   UNL     1      27.385  17.376  82.284  1.00  0.00    -0.502 OA
ATOM     20  H   UNL     1      27.202  18.367  82.184  1.00  0.00     0.293 HD
ENDBRANCH  15  19
BRANCH  16  21
ATOM     21  O   UNL     1      29.456  15.676  81.576  1.00  0.00    -0.504 OA
ATOM     22  H   UNL     1      30.188  14.992  81.428  1.00  0.00     0.293 HD
ENDBRANCH  16  21
ENDBRANCH   1  11
BRANCH  10  23
ATOM     23  O   UNL     1      28.344  12.151  78.891  1.00  0.00    -0.500 OA
ATOM     24  H   UNL     1      29.026  11.418  78.732  1.00  0.00     0.294 HD
ENDBRANCH  10  23
BRANCH   5  25
ATOM     25  O   UNL     1      23.393  13.214  73.001  1.00  0.00    -0.507 OA
ATOM     26  H   UNL     1      22.777  12.552  72.545  1.00  0.00     0.293 HD
ENDBRANCH   5  25
BRANCH   7  27
ATOM     27  O   UNL     1      26.466   9.875  74.568  1.00  0.00    -0.507 OA
ATOM     28  H   UNL     1      26.705   9.498  73.663  1.00  0.00     0.293 HD
ENDBRANCH   7  27
TORSDOF 7
ENDMDL
MODEL 4
REMARK VINA RESULT:    -6.341      2.027      7.122
REMARK INTER + INTRA:          -7.936
REMARK INTER:                  -8.271
REMARK INTRA:                   0.335
REMARK UNBOUND:                -0.112
REMARK SMILES Oc1cc(O)c2cc(O)c(-c3cc(O)c(O)c(O)c3)[o+]c2c1
REMARK SMILES IDX 10 1 20 2 21 3 22 4 2 5 3 6 4 7 6 8 7 9 8 10 11 11 12 12
REMARK SMILES IDX 13 13 19 14 15 15 17 16 14 17 16 19 18 21 9 23 1 25 5 27
REMARK H PARENT 14 18 16 20 18 22 9 24 1 26 5 28
REMARK Flexibility Score: inf
ROOT
ATOM      1  C   UNL     1      26.778  13.612  77.933  1.00  0.00     0.402 A 
ATOM      2  O   UNL     1      26.063  14.544  78.557  1.00  0.00    -0.202 OA
ATOM      3  C   UNL     1      26.467  15.151  79.668  1.00  0.00     0.368 A 
ATOM      4  C   UNL     1      25.648  16.123  80.249  1.00  0.00     0.162 A 
ATOM      5  C   UNL     1      26.050  16.778  81.416  1.00  0.00     0.128 A 
ATOM      6  C   UNL     1      27.278  16.463  82.003  1.00  0.00     0.093 A 
ATOM      7  C   UNL     1      28.118  15.494  81.440  1.00  0.00     0.136 A 
ATOM      8  C   UNL     1      27.712  14.823  80.257  1.00  0.00     0.125 A 
ATOM      9  C   UNL     1      28.483  13.830  79.630  1.00  0.00     0.078 A 
ATOM     10  C   UNL     1      28.015  13.209  78.468  1.00  0.00     0.223 A 
ENDROOT
BRANCH   1  11
ATOM     11  C   UNL     1      26.223  13.016  76.695  1.00  0.00     0.091 A 
ATOM     12  C   UNL     1      26.642  11.736  76.298  1.00  0.00     0.068 A 
ATOM     13  C   UNL     1      26.118  11.141  75.143  1.00  0.00     0.162 A 
ATOM     14  C   UNL     1      25.244  13.681  75.938  1.00  0.00     0.068 A 
ATOM     15  C   UNL     1      25.155  11.822  74.380  1.00  0.00     0.200 A 
ATOM     16  C   UNL     1      24.715  13.089  74.782  1.00  0.00     0.162 A 
BRANCH  13  17
ATOM     17  O   UNL     1      26.552   9.875  74.750  1.00  0.00    -0.504 OA
ATOM     18  H   UNL     1      26.052   9.035  75.020  1.00  0.00     0.293 HD
ENDBRANCH  13  17
BRANCH  15  19
ATOM     19  O   UNL     1      24.620  11.250  73.225  1.00  0.00    -0.502 OA
ATOM     20  H   UNL     1      24.563  11.756  72.349  1.00  0.00     0.293 HD
ENDBRANCH  15  19
BRANCH  16  21
ATOM     21  O   UNL     1      23.748  13.754  74.031  1.00  0.00    -0.504 OA
ATOM     22  H   UNL     1      23.300  13.317  73.235  1.00  0.00     0.293 HD
ENDBRANCH  16  21
ENDBRANCH   1  11
BRANCH  10  23
ATOM     23  O   UNL     1      28.757  12.188  77.873  1.00  0.00    -0.500 OA
ATOM     24  H   UNL     1      29.249  12.328  76.999  1.00  0.00     0.294 HD
ENDBRANCH  10  23
BRANCH   5  25
ATOM     25  O   UNL     1      25.237  17.747  82.002  1.00  0.00    -0.507 OA
ATOM     26  H   UNL     1      24.822  18.491  81.454  1.00  0.00     0.293 HD
ENDBRANCH   5  25
BRANCH   7  27
ATOM     27  O   UNL     1      29.331  15.239  82.086  1.00  0.00    -0.507 OA
ATOM     28  H   UNL     1      29.422  15.046  83.072  1.00  0.00     0.293 HD
ENDBRANCH   7  27
TORSDOF 7
ENDMDL
MODEL 5
REMARK VINA RESULT:    -6.334      2.054      7.196
REMARK INTER + INTRA:          -7.928
REMARK INTER:                  -8.211
REMARK INTRA:                   0.284
REMARK UNBOUND:                -0.112
REMARK SMILES Oc1cc(O)c2cc(O)c(-c3cc(O)c(O)c(O)c3)[o+]c2c1
REMARK SMILES IDX 10 1 20 2 21 3 22 4 2 5 3 6 4 7 6 8 7 9 8 10 11 11 12 12
REMARK SMILES IDX 13 13 19 14 15 15 17 16 14 17 16 19 18 21 9 23 1 25 5 27
REMARK H PARENT 14 18 16 20 18 22 9 24 1 26 5 28
REMARK Flexibility Score: inf
ROOT
ATOM      1  C   UNL     1      26.869  13.628  77.942  1.00  0.00     0.402 A 
ATOM      2  O   UNL     1      26.132  14.530  78.584  1.00  0.00    -0.202 OA
ATOM      3  C   UNL     1      26.556  15.187  79.659  1.00  0.00     0.368 A 
ATOM      4  C   UNL     1      25.709  16.120  80.264  1.00  0.00     0.162 A 
ATOM      5  C   UNL     1      26.131  16.826  81.394  1.00  0.00     0.128 A 
ATOM      6  C   UNL     1      27.404  16.601  81.920  1.00  0.00     0.093 A 
ATOM      7  C   UNL     1      28.272  15.671  81.332  1.00  0.00     0.136 A 
ATOM      8  C   UNL     1      27.848  14.949  80.187  1.00  0.00     0.125 A 
ATOM      9  C   UNL     1      28.645  13.990  79.540  1.00  0.00     0.078 A 
ATOM     10  C   UNL     1      28.156  13.314  78.418  1.00  0.00     0.223 A 
ENDROOT
BRANCH   1  11
ATOM     11  C   UNL     1      26.289  12.970  76.749  1.00  0.00     0.091 A 
ATOM     12  C   UNL     1      25.298  13.634  76.008  1.00  0.00     0.068 A 
ATOM     13  C   UNL     1      24.746  13.043  74.863  1.00  0.00     0.162 A 
ATOM     14  C   UNL     1      26.748  11.718  76.307  1.00  0.00     0.068 A 
ATOM     15  C   UNL     1      25.196  11.781  74.442  1.00  0.00     0.200 A 
ATOM     16  C   UNL     1      26.201  11.123  75.162  1.00  0.00     0.162 A 
BRANCH  13  17
ATOM     17  O   UNL     1      23.752  13.706  74.144  1.00  0.00    -0.504 OA
ATOM     18  H   UNL     1      23.383  13.329  73.278  1.00  0.00     0.293 HD
ENDBRANCH  13  17
BRANCH  15  19
ATOM     19  O   UNL     1      24.661  11.172  73.306  1.00  0.00    -0.502 OA
ATOM     20  H   UNL     1      24.348  10.209  73.308  1.00  0.00     0.293 HD
ENDBRANCH  15  19
BRANCH  16  21
ATOM     21  O   UNL     1      26.655   9.877  74.731  1.00  0.00    -0.504 OA
ATOM     22  H   UNL     1      26.016   9.112  74.553  1.00  0.00     0.293 HD
ENDBRANCH  16  21
ENDBRANCH   1  11
BRANCH  10  23
ATOM     23  O   UNL     1      28.927  12.326  77.805  1.00  0.00    -0.500 OA
ATOM     24  H   UNL     1      29.493  11.682  78.344  1.00  0.00     0.294 HD
ENDBRANCH  10  23
BRANCH   5  25
ATOM     25  O   UNL     1      25.291  17.757  82.003  1.00  0.00    -0.507 OA
ATOM     26  H   UNL     1      25.477  18.107  82.935  1.00  0.00     0.293 HD
ENDBRANCH   5  25
BRANCH   7  27
ATOM     27  O   UNL     1      29.531  15.506  81.917  1.00  0.00    -0.507 OA
ATOM     28  H   UNL     1      30.282  16.176  81.853  1.00  0.00     0.293 HD
ENDBRANCH   7  27
TORSDOF 7
ENDMDL
MODEL 6
REMARK VINA RESULT:    -6.202      1.316      6.901
REMARK INTER + INTRA:          -7.764
REMARK INTER:                  -8.098
REMARK INTRA:                   0.333
REMARK UNBOUND:                -0.112
REMARK SMILES Oc1cc(O)c2cc(O)c(-c3cc(O)c(O)c(O)c3)[o+]c2c1
REMARK SMILES IDX 10 1 20 2 21 3 22 4 2 5 3 6 4 7 6 8 7 9 8 10 11 11 12 12
REMARK SMILES IDX 13 13 19 14 15 15 17 16 14 17 16 19 18 21 9 23 1 25 5 27
REMARK H PARENT 14 18 16 20 18 22 9 24 1 26 5 28
REMARK Flexibility Score: inf
ROOT
ATOM      1  C   UNL     1      27.026  13.651  77.928  1.00  0.00     0.402 A 
ATOM      2  O   UNL     1      28.190  13.148  78.330  1.00  0.00    -0.202 OA
ATOM      3  C   UNL     1      28.855  13.603  79.388  1.00  0.00     0.368 A 
ATOM      4  C   UNL     1      30.070  13.007  79.736  1.00  0.00     0.162 A 
ATOM      5  C   UNL     1      30.787  13.464  80.845  1.00  0.00     0.128 A 
ATOM      6  C   UNL     1      30.288  14.519  81.610  1.00  0.00     0.093 A 
ATOM      7  C   UNL     1      29.072  15.134  81.283  1.00  0.00     0.136 A 
ATOM      8  C   UNL     1      28.341  14.676  80.156  1.00  0.00     0.125 A 
ATOM      9  C   UNL     1      27.121  15.239  79.747  1.00  0.00     0.078 A 
ATOM     10  C   UNL     1      26.460  14.737  78.622  1.00  0.00     0.223 A 
ENDROOT
BRANCH   1  11
ATOM     11  C   UNL     1      26.377  13.051  76.740  1.00  0.00     0.091 A 
ATOM     12  C   UNL     1      26.738  11.756  76.337  1.00  0.00     0.068 A 
ATOM     13  C   UNL     1      26.126  11.156  75.228  1.00  0.00     0.162 A 
ATOM     14  C   UNL     1      25.366  13.728  76.038  1.00  0.00     0.068 A 
ATOM     15  C   UNL     1      25.131  11.850  74.519  1.00  0.00     0.200 A 
ATOM     16  C   UNL     1      24.749  13.133  74.929  1.00  0.00     0.162 A 
BRANCH  13  17
ATOM     17  O   UNL     1      26.503   9.875  74.828  1.00  0.00    -0.504 OA
ATOM     18  H   UNL     1      27.424   9.504  75.034  1.00  0.00     0.293 HD
ENDBRANCH  13  17
BRANCH  15  19
ATOM     19  O   UNL     1      24.508  11.275  73.411  1.00  0.00    -0.502 OA
ATOM     20  H   UNL     1      24.049  10.374  73.457  1.00  0.00     0.293 HD
ENDBRANCH  15  19
BRANCH  16  21
ATOM     21  O   UNL     1      23.751  13.811  74.231  1.00  0.00    -0.504 OA
ATOM     22  H   UNL     1      23.667  14.820  74.271  1.00  0.00     0.293 HD
ENDBRANCH  16  21
ENDBRANCH   1  11
BRANCH  10  23
ATOM     23  O   UNL     1      25.274  15.328  78.185  1.00  0.00    -0.500 OA
ATOM     24  H   UNL     1      24.611  14.826  77.607  1.00  0.00     0.294 HD
ENDBRANCH  10  23
BRANCH   5  25
ATOM     25  O   UNL     1      32.001  12.875  81.196  1.00  0.00    -0.507 OA
ATOM     26  H   UNL     1      32.207  11.910  80.966  1.00  0.00     0.293 HD
ENDBRANCH   5  25
BRANCH   7  27
ATOM     27  O   UNL     1      28.639  16.181  82.101  1.00  0.00    -0.507 OA
ATOM     28  H   UNL     1      28.032  16.068  82.899  1.00  0.00     0.293 HD
ENDBRANCH   7  27
TORSDOF 7
ENDMDL
MODEL 7
REMARK VINA RESULT:    -6.149      1.986      7.382
REMARK INTER + INTRA:          -7.698
REMARK INTER:                  -8.038
REMARK INTRA:                   0.340
REMARK UNBOUND:                -0.112
REMARK SMILES Oc1cc(O)c2cc(O)c(-c3cc(O)c(O)c(O)c3)[o+]c2c1
REMARK SMILES IDX 10 1 20 2 21 3 22 4 2 5 3 6 4 7 6 8 7 9 8 10 11 11 12 12
REMARK SMILES IDX 13 13 19 14 15 15 17 16 14 17 16 19 18 21 9 23 1 25 5 27
REMARK H PARENT 14 18 16 20 18 22 9 24 1 26 5 28
REMARK Flexibility Score: inf
ROOT
ATOM      1  C   UNL     1      26.453  12.760  76.997  1.00  0.00     0.402 A 
ATOM      2  O   UNL     1      26.128  13.941  77.515  1.00  0.00    -0.202 OA
ATOM      3  C   UNL     1      26.575  14.370  78.691  1.00  0.00     0.368 A 
ATOM      4  C   UNL     1      26.181  15.630  79.150  1.00  0.00     0.162 A 
ATOM      5  C   UNL     1      26.639  16.106  80.381  1.00  0.00     0.128 A 
ATOM      6  C   UNL     1      27.496  15.322  81.156  1.00  0.00     0.093 A 
ATOM      7  C   UNL     1      27.907  14.056  80.718  1.00  0.00     0.136 A 
ATOM      8  C   UNL     1      27.442  13.566  79.470  1.00  0.00     0.125 A 
ATOM      9  C   UNL     1      27.790  12.306  78.957  1.00  0.00     0.078 A 
ATOM     10  C   UNL     1      27.288  11.889  77.721  1.00  0.00     0.223 A 
ENDROOT
BRANCH   1  11
ATOM     11  C   UNL     1      25.897  12.399  75.672  1.00  0.00     0.091 A 
ATOM     12  C   UNL     1      24.910  13.212  75.094  1.00  0.00     0.068 A 
ATOM     13  C   UNL     1      24.382  12.905  73.832  1.00  0.00     0.162 A 
ATOM     14  C   UNL     1      26.378  11.291  74.954  1.00  0.00     0.068 A 
ATOM     15  C   UNL     1      24.852  11.782  73.131  1.00  0.00     0.200 A 
ATOM     16  C   UNL     1      25.854  10.980  73.692  1.00  0.00     0.162 A 
BRANCH  13  17
ATOM     17  O   UNL     1      23.391  13.711  73.274  1.00  0.00    -0.504 OA
ATOM     18  H   UNL     1      22.948  13.474  72.392  1.00  0.00     0.293 HD
ENDBRANCH  13  17
BRANCH  15  19
ATOM     19  O   UNL     1      24.341  11.455  71.875  1.00  0.00    -0.502 OA
ATOM     20  H   UNL     1      23.445  10.997  71.760  1.00  0.00     0.293 HD
ENDBRANCH  15  19
BRANCH  16  21
ATOM     21  O   UNL     1      26.329   9.875  72.986  1.00  0.00    -0.504 OA
ATOM     22  H   UNL     1      27.215   9.441  73.214  1.00  0.00     0.293 HD
ENDBRANCH  16  21
ENDBRANCH   1  11
BRANCH  10  23
ATOM     23  O   UNL     1      27.594  10.618  77.234  1.00  0.00    -0.500 OA
ATOM     24  H   UNL     1      27.743  10.447  76.247  1.00  0.00     0.294 HD
ENDBRANCH  10  23
BRANCH   5  25
ATOM     25  O   UNL     1      26.249  17.361  80.846  1.00  0.00    -0.507 OA
ATOM     26  H   UNL     1      26.293  17.598  81.830  1.00  0.00     0.293 HD
ENDBRANCH   5  25
BRANCH   7  27
ATOM     27  O   UNL     1      28.768  13.335  81.550  1.00  0.00    -0.507 OA
ATOM     28  H   UNL     1      28.986  12.357  81.434  1.00  0.00     0.293 HD
ENDBRANCH   7  27
TORSDOF 7
ENDMDL
MODEL 8
REMARK VINA RESULT:    -5.944      1.596      7.076
REMARK INTER + INTRA:          -7.446
REMARK INTER:                  -7.211
REMARK INTRA:                  -0.235
REMARK UNBOUND:                -0.112
REMARK SMILES Oc1cc(O)c2cc(O)c(-c3cc(O)c(O)c(O)c3)[o+]c2c1
REMARK SMILES IDX 10 1 20 2 21 3 22 4 2 5 3 6 4 7 6 8 7 9 8 10 11 11 12 12
REMARK SMILES IDX 13 13 19 14 15 15 17 16 14 17 16 19 18 21 9 23 1 25 5 27
REMARK H PARENT 14 18 16 20 18 22 9 24 1 26 5 28
REMARK Flexibility Score: inf
ROOT
ATOM      1  C   UNL     1      26.370  12.334  76.394  1.00  0.00     0.402 A 
ATOM      2  O   UNL     1      27.360  11.648  76.959  1.00  0.00    -0.202 OA
ATOM      3  C   UNL     1      28.070  12.104  77.986  1.00  0.00     0.368 A 
ATOM      4  C   UNL     1      29.090  11.308  78.515  1.00  0.00     0.162 A 
ATOM      5  C   UNL     1      29.849  11.763  79.597  1.00  0.00     0.128 A 
ATOM      6  C   UNL     1      29.588  13.017  80.153  1.00  0.00     0.093 A 
ATOM      7  C   UNL     1      28.571  13.833  79.642  1.00  0.00     0.136 A 
ATOM      8  C   UNL     1      27.799  13.378  78.541  1.00  0.00     0.125 A 
ATOM      9  C   UNL     1      26.769  14.133  77.956  1.00  0.00     0.078 A 
ATOM     10  C   UNL     1      26.054  13.620  76.870  1.00  0.00     0.223 A 
ENDROOT
BRANCH   1  11
ATOM     11  C   UNL     1      25.646  11.713  75.261  1.00  0.00     0.091 A 
ATOM     12  C   UNL     1      26.354  11.352  74.105  1.00  0.00     0.068 A 
ATOM     13  C   UNL     1      25.697  10.745  73.026  1.00  0.00     0.162 A 
ATOM     14  C   UNL     1      24.272  11.425  75.340  1.00  0.00     0.068 A 
ATOM     15  C   UNL     1      24.319  10.480  73.105  1.00  0.00     0.200 A 
ATOM     16  C   UNL     1      23.611  10.817  74.265  1.00  0.00     0.162 A 
BRANCH  13  17
ATOM     17  O   UNL     1      26.408  10.404  71.876  1.00  0.00    -0.504 OA
ATOM     18  H   UNL     1      25.983  10.448  70.956  1.00  0.00     0.293 HD
ENDBRANCH  13  17
BRANCH  15  19
ATOM     19  O   UNL     1      23.643   9.878  72.043  1.00  0.00    -0.502 OA
ATOM     20  H   UNL     1      22.666   9.620  72.103  1.00  0.00     0.293 HD
ENDBRANCH  15  19
BRANCH  16  21
ATOM     21  O   UNL     1      22.247  10.539  74.344  1.00  0.00    -0.504 OA
ATOM     22  H   UNL     1      21.660  10.519  73.519  1.00  0.00     0.293 HD
ENDBRANCH  16  21
ENDBRANCH   1  11
BRANCH  10  23
ATOM     23  O   UNL     1      25.065  14.390  76.256  1.00  0.00    -0.500 OA
ATOM     24  H   UNL     1      24.265  13.965  75.803  1.00  0.00     0.294 HD
ENDBRANCH  10  23
BRANCH   5  25
ATOM     25  O   UNL     1      30.869  10.975  80.128  1.00  0.00    -0.507 OA
ATOM     26  H   UNL     1      31.234  11.139  81.059  1.00  0.00     0.293 HD
ENDBRANCH   5  25
BRANCH   7  27
ATOM     27  O   UNL     1      28.371  15.073  80.256  1.00  0.00    -0.507 OA
ATOM     28  H   UNL     1      28.975  15.463  80.964  1.00  0.00     0.293 HD
ENDBRANCH   7  27
TORSDOF 7
ENDMDL
