MODEL 1
REMARK VINA RESULT:    -3.357      0.000      0.000
REMARK INTER + INTRA:         -11.274
REMARK INTER:                  -7.676
REMARK INTRA:                  -3.599
REMARK UNBOUND:                -3.599
REMARK SMILES CCCCCCCCCCCCCCCCCCCCCCCC(=O)[O-]
REMARK SMILES IDX 13 1 14 2 15 3 16 4 17 5 18 6 19 7 20 8 21 9 22 10 23 11
REMARK SMILES IDX 24 12 25 13 26 14 12 15 11 16 10 17 9 18 8 19 7 20 6 21 5 22
REMARK SMILES IDX 4 23 3 24 2 25 1 26
REMARK H PARENT
REMARK Flexibility Score: inf
ROOT
ATOM      1  C   UNL     1     -15.408  38.713  94.190  1.00  0.00     0.000 C 
ENDROOT
BRANCH   1   2
ATOM      2  C   UNL     1     -16.149  37.420  94.576  1.00  0.00     0.000 C 
BRANCH   2   3
ATOM      3  C   UNL     1     -17.496  37.689  95.268  1.00  0.00     0.000 C 
BRANCH   3   4
ATOM      4  C   UNL     1     -18.545  36.608  94.955  1.00  0.00     0.000 C 
BRANCH   4   5
ATOM      5  C   UNL     1     -19.988  37.086  95.199  1.00  0.00     0.000 C 
BRANCH   5   6
ATOM      6  C   UNL     1     -21.075  36.306  94.430  1.00  0.00     0.000 C 
BRANCH   6   7
ATOM      7  C   UNL     1     -20.643  34.919  93.916  1.00  0.00     0.000 C 
BRANCH   7   8
ATOM      8  C   UNL     1     -20.931  33.750  94.878  1.00  0.00     0.000 C 
BRANCH   8   9
ATOM      9  C   UNL     1     -20.165  32.450  94.573  1.00  0.00     0.000 C 
BRANCH   9  10
ATOM     10  C   UNL     1     -18.735  32.452  95.142  1.00  0.00     0.006 C 
BRANCH  10  11
ATOM     11  C   UNL     1     -17.745  31.727  94.223  1.00  0.00     0.053 C 
BRANCH  11  12
ATOM     12  C   UNL     1     -18.298  30.428  93.721  1.00  0.00     0.041 C 
ATOM     13  O   UNL     1     -18.596  30.291  92.506  1.00  0.00    -0.550 OA
ATOM     14  O   UNL     1     -18.467  29.362  94.596  1.00  0.00    -0.550 OA
ENDBRANCH  11  12
ENDBRANCH  10  11
ENDBRANCH   9  10
ENDBRANCH   8   9
ENDBRANCH   7   8
ENDBRANCH   6   7
ENDBRANCH   5   6
ENDBRANCH   4   5
ENDBRANCH   3   4
ENDBRANCH   2   3
ENDBRANCH   1   2
BRANCH   1  15
ATOM     15  C   UNL     1     -15.541  39.802  95.277  1.00  0.00     0.000 C 
BRANCH  15  16
ATOM     16  C   UNL     1     -16.377  41.017  94.838  1.00  0.00     0.000 C 
BRANCH  16  17
ATOM     17  C   UNL     1     -17.512  41.349  95.822  1.00  0.00     0.000 C 
BRANCH  17  18
ATOM     18  C   UNL     1     -18.889  40.907  95.302  1.00  0.00    -0.000 C 
BRANCH  18  19
ATOM     19  C   UNL     1     -19.027  41.072  93.778  1.00  0.00    -0.000 C 
BRANCH  19  20
ATOM     20  C   UNL     1     -20.362  40.528  93.246  1.00  0.00    -0.000 C 
BRANCH  20  21
ATOM     21  C   UNL     1     -20.171  39.400  92.222  1.00  0.00    -0.000 C 
BRANCH  21  22
ATOM     22  C   UNL     1     -18.696  39.260  91.828  1.00  0.00    -0.000 C 
BRANCH  22  23
ATOM     23  C   UNL     1     -18.340  37.799  91.526  1.00  0.00    -0.000 C 
BRANCH  23  24
ATOM     24  C   UNL     1     -19.565  37.029  91.013  1.00  0.00    -0.000 C 
BRANCH  24  25
ATOM     25  C   UNL     1     -19.534  36.816  89.492  1.00  0.00    -0.003 C 
ATOM     26  C   UNL     1     -18.402  35.890  89.048  1.00  0.00     0.004 C 
ENDBRANCH  24  25
ENDBRANCH  23  24
ENDBRANCH  22  23
ENDBRANCH  21  22
ENDBRANCH  20  21
ENDBRANCH  19  20
ENDBRANCH  18  19
ENDBRANCH  17  18
ENDBRANCH  16  17
ENDBRANCH  15  16
ENDBRANCH   1  15
TORSDOF 22
ENDMDL
MODEL 2
REMARK VINA RESULT:    -3.342     13.412     16.940
REMARK INTER + INTRA:         -11.238
REMARK INTER:                  -7.613
REMARK INTRA:                  -3.625
REMARK UNBOUND:                -3.599
REMARK SMILES CCCCCCCCCCCCCCCCCCCCCCCC(=O)[O-]
REMARK SMILES IDX 13 1 14 2 15 3 16 4 17 5 18 6 19 7 20 8 21 9 22 10 23 11
REMARK SMILES IDX 24 12 25 13 26 14 12 15 11 16 10 17 9 18 8 19 7 20 6 21 5 22
REMARK SMILES IDX 4 23 3 24 2 25 1 26
REMARK H PARENT
REMARK Flexibility Score: inf
ROOT
ATOM      1  C   UNL     1      -5.262  45.250  94.342  1.00  0.00     0.000 C 
ENDROOT
BRANCH   1   2
ATOM      2  C   UNL     1      -4.634  43.920  93.887  1.00  0.00     0.000 C 
BRANCH   2   3
ATOM      3  C   UNL     1      -4.553  42.882  95.018  1.00  0.00     0.000 C 
BRANCH   3   4
ATOM      4  C   UNL     1      -3.117  42.383  95.257  1.00  0.00     0.000 C 
BRANCH   4   5
ATOM      5  C   UNL     1      -2.795  42.179  96.749  1.00  0.00     0.000 C 
BRANCH   5   6
ATOM      6  C   UNL     1      -2.327  40.759  97.130  1.00  0.00     0.000 C 
BRANCH   6   7
ATOM      7  C   UNL     1      -1.628  39.977  96.001  1.00  0.00     0.000 C 
BRANCH   7   8
ATOM      8  C   UNL     1      -2.245  38.600  95.684  1.00  0.00     0.000 C 
BRANCH   8   9
ATOM      9  C   UNL     1      -2.369  38.270  94.186  1.00  0.00     0.000 C 
BRANCH   9  10
ATOM     10  C   UNL     1      -1.615  39.268  93.289  1.00  0.00     0.006 C 
BRANCH  10  11
ATOM     11  C   UNL     1      -2.407  39.628  92.027  1.00  0.00     0.053 C 
BRANCH  11  12
ATOM     12  C   UNL     1      -1.832  38.981  90.804  1.00  0.00     0.041 C 
ATOM     13  O   UNL     1      -1.101  37.962  90.909  1.00  0.00    -0.550 OA
ATOM     14  O   UNL     1      -2.119  39.496  89.546  1.00  0.00    -0.550 OA
ENDBRANCH  11  12
ENDBRANCH  10  11
ENDBRANCH   9  10
ENDBRANCH   8   9
ENDBRANCH   7   8
ENDBRANCH   6   7
ENDBRANCH   5   6
ENDBRANCH   4   5
ENDBRANCH   3   4
ENDBRANCH   2   3
ENDBRANCH   1   2
BRANCH   1  15
ATOM     15  C   UNL     1      -4.232  46.400  94.360  1.00  0.00     0.000 C 
BRANCH  15  16
ATOM     16  C   UNL     1      -2.789  45.944  94.086  1.00  0.00     0.000 C 
BRANCH  16  17
ATOM     17  C   UNL     1      -1.786  46.480  95.121  1.00  0.00     0.000 C 
BRANCH  17  18
ATOM     18  C   UNL     1      -2.010  45.886  96.521  1.00  0.00    -0.000 C 
BRANCH  18  19
ATOM     19  C   UNL     1      -2.376  46.954  97.566  1.00  0.00    -0.000 C 
BRANCH  19  20
ATOM     20  C   UNL     1      -3.719  46.667  98.256  1.00  0.00    -0.000 C 
BRANCH  20  21
ATOM     21  C   UNL     1      -4.302  45.303  97.863  1.00  0.00    -0.000 C 
BRANCH  21  22
ATOM     22  C   UNL     1      -5.409  44.878  98.836  1.00  0.00    -0.000 C 
BRANCH  22  23
ATOM     23  C   UNL     1      -6.312  43.806  98.214  1.00  0.00    -0.000 C 
BRANCH  23  24
ATOM     24  C   UNL     1      -7.304  44.430  97.223  1.00  0.00    -0.000 C 
BRANCH  24  25
ATOM     25  C   UNL     1      -8.368  43.430  96.745  1.00  0.00    -0.003 C 
ATOM     26  C   UNL     1      -8.055  42.848  95.367  1.00  0.00     0.004 C 
ENDBRANCH  24  25
ENDBRANCH  23  24
ENDBRANCH  22  23
ENDBRANCH  21  22
ENDBRANCH  20  21
ENDBRANCH  19  20
ENDBRANCH  18  19
ENDBRANCH  17  18
ENDBRANCH  16  17
ENDBRANCH  15  16
ENDBRANCH   1  15
TORSDOF 22
ENDMDL
MODEL 3
REMARK VINA RESULT:    -3.332      1.497      4.873
REMARK INTER + INTRA:         -11.215
REMARK INTER:                  -7.103
REMARK INTRA:                  -4.112
REMARK UNBOUND:                -3.599
REMARK SMILES CCCCCCCCCCCCCCCCCCCCCCCC(=O)[O-]
REMARK SMILES IDX 13 1 14 2 15 3 16 4 17 5 18 6 19 7 20 8 21 9 22 10 23 11
REMARK SMILES IDX 24 12 25 13 26 14 12 15 11 16 10 17 9 18 8 19 7 20 6 21 5 22
REMARK SMILES IDX 4 23 3 24 2 25 1 26
REMARK H PARENT
REMARK Flexibility Score: inf
ROOT
ATOM      1  C   UNL     1     -17.385  35.489  90.819  1.00  0.00     0.000 C 
ENDROOT
BRANCH   1   2
ATOM      2  C   UNL     1     -16.049  36.157  91.189  1.00  0.00     0.000 C 
BRANCH   2   3
ATOM      3  C   UNL     1     -16.040  37.668  90.905  1.00  0.00     0.000 C 
BRANCH   3   4
ATOM      4  C   UNL     1     -16.230  38.508  92.180  1.00  0.00     0.000 C 
BRANCH   4   5
ATOM      5  C   UNL     1     -16.132  37.670  93.468  1.00  0.00     0.000 C 
BRANCH   5   6
ATOM      6  C   UNL     1     -17.380  37.714  94.375  1.00  0.00     0.000 C 
BRANCH   6   7
ATOM      7  C   UNL     1     -17.243  36.955  95.710  1.00  0.00     0.000 C 
BRANCH   7   8
ATOM      8  C   UNL     1     -17.837  35.533  95.714  1.00  0.00     0.000 C 
BRANCH   8   9
ATOM      9  C   UNL     1     -18.786  35.219  94.544  1.00  0.00     0.000 C 
BRANCH   9  10
ATOM     10  C   UNL     1     -18.924  33.710  94.275  1.00  0.00     0.006 C 
BRANCH  10  11
ATOM     11  C   UNL     1     -17.622  33.093  93.749  1.00  0.00     0.053 C 
BRANCH  11  12
ATOM     12  C   UNL     1     -17.802  31.655  93.367  1.00  0.00     0.041 C 
ATOM     13  O   UNL     1     -18.613  30.927  93.998  1.00  0.00    -0.550 OA
ATOM     14  O   UNL     1     -17.085  31.125  92.302  1.00  0.00    -0.550 OA
ENDBRANCH  11  12
ENDBRANCH  10  11
ENDBRANCH   9  10
ENDBRANCH   8   9
ENDBRANCH   7   8
ENDBRANCH   6   7
ENDBRANCH   5   6
ENDBRANCH   4   5
ENDBRANCH   3   4
ENDBRANCH   2   3
ENDBRANCH   1   2
BRANCH   1  15
ATOM     15  C   UNL     1     -18.085  36.206  89.645  1.00  0.00     0.000 C 
BRANCH  15  16
ATOM     16  C   UNL     1     -19.599  36.388  89.843  1.00  0.00     0.000 C 
BRANCH  16  17
ATOM     17  C   UNL     1     -19.997  36.522  91.323  1.00  0.00     0.000 C 
BRANCH  17  18
ATOM     18  C   UNL     1     -19.894  37.968  91.831  1.00  0.00    -0.000 C 
BRANCH  18  19
ATOM     19  C   UNL     1     -20.835  38.248  93.016  1.00  0.00    -0.000 C 
BRANCH  19  20
ATOM     20  C   UNL     1     -20.736  39.697  93.517  1.00  0.00    -0.000 C 
BRANCH  20  21
ATOM     21  C   UNL     1     -19.493  40.422  92.982  1.00  0.00    -0.000 C 
BRANCH  21  22
ATOM     22  C   UNL     1     -19.003  41.480  93.978  1.00  0.00    -0.000 C 
BRANCH  22  23
ATOM     23  C   UNL     1     -17.516  41.288  94.302  1.00  0.00    -0.000 C 
BRANCH  23  24
ATOM     24  C   UNL     1     -17.300  41.116  95.812  1.00  0.00    -0.000 C 
BRANCH  24  25
ATOM     25  C   UNL     1     -18.606  40.823  96.566  1.00  0.00    -0.003 C 
ATOM     26  C   UNL     1     -18.940  41.892  97.605  1.00  0.00     0.004 C 
ENDBRANCH  24  25
ENDBRANCH  23  24
ENDBRANCH  22  23
ENDBRANCH  21  22
ENDBRANCH  20  21
ENDBRANCH  19  20
ENDBRANCH  18  19
ENDBRANCH  17  18
ENDBRANCH  16  17
ENDBRANCH  15  16
ENDBRANCH   1  15
TORSDOF 22
ENDMDL
MODEL 4
REMARK VINA RESULT:    -3.267     12.247     15.665
REMARK INTER + INTRA:         -11.067
REMARK INTER:                  -6.488
REMARK INTRA:                  -4.579
REMARK UNBOUND:                -3.599
REMARK SMILES CCCCCCCCCCCCCCCCCCCCCCCC(=O)[O-]
REMARK SMILES IDX 13 1 14 2 15 3 16 4 17 5 18 6 19 7 20 8 21 9 22 10 23 11
REMARK SMILES IDX 24 12 25 13 26 14 12 15 11 16 10 17 9 18 8 19 7 20 6 21 5 22
REMARK SMILES IDX 4 23 3 24 2 25 1 26
REMARK H PARENT
REMARK Flexibility Score: inf
ROOT
ATOM      1  C   UNL     1      -3.358  42.129  96.795  1.00  0.00     0.000 C 
ENDROOT
BRANCH   1   2
ATOM      2  C   UNL     1      -2.451  40.924  97.098  1.00  0.00     0.000 C 
BRANCH   2   3
ATOM      3  C   UNL     1      -1.720  40.400  95.851  1.00  0.00     0.000 C 
BRANCH   3   4
ATOM      4  C   UNL     1      -1.555  38.871  95.864  1.00  0.00     0.000 C 
BRANCH   4   5
ATOM      5  C   UNL     1      -1.213  38.294  94.478  1.00  0.00     0.000 C 
BRANCH   5   6
ATOM      6  C   UNL     1      -1.323  39.292  93.307  1.00  0.00     0.000 C 
BRANCH   6   7
ATOM      7  C   UNL     1      -2.295  38.876  92.185  1.00  0.00     0.000 C 
BRANCH   7   8
ATOM      8  C   UNL     1      -3.219  40.000  91.674  1.00  0.00     0.000 C 
BRANCH   8   9
ATOM      9  C   UNL     1      -4.209  40.553  92.714  1.00  0.00     0.000 C 
BRANCH   9  10
ATOM     10  C   UNL     1      -5.104  39.462  93.327  1.00  0.00     0.006 C 
BRANCH  10  11
ATOM     11  C   UNL     1      -5.148  39.540  94.858  1.00  0.00     0.053 C 
BRANCH  11  12
ATOM     12  C   UNL     1      -5.114  38.181  95.487  1.00  0.00     0.041 C 
ATOM     13  O   UNL     1      -5.139  38.060  96.740  1.00  0.00    -0.550 OA
ATOM     14  O   UNL     1      -5.075  37.046  94.687  1.00  0.00    -0.550 OA
ENDBRANCH  11  12
ENDBRANCH  10  11
ENDBRANCH   9  10
ENDBRANCH   8   9
ENDBRANCH   7   8
ENDBRANCH   6   7
ENDBRANCH   5   6
ENDBRANCH   4   5
ENDBRANCH   3   4
ENDBRANCH   2   3
ENDBRANCH   1   2
BRANCH   1  15
ATOM     15  C   UNL     1      -3.099  42.709  95.388  1.00  0.00     0.000 C 
BRANCH  15  16
ATOM     16  C   UNL     1      -3.232  44.240  95.314  1.00  0.00     0.000 C 
BRANCH  16  17
ATOM     17  C   UNL     1      -2.904  44.935  96.646  1.00  0.00     0.000 C 
BRANCH  17  18
ATOM     18  C   UNL     1      -4.042  45.850  97.128  1.00  0.00    -0.000 C 
BRANCH  18  19
ATOM     19  C   UNL     1      -4.652  45.383  98.461  1.00  0.00    -0.000 C 
BRANCH  19  20
ATOM     20  C   UNL     1      -6.158  45.098  98.352  1.00  0.00    -0.000 C 
BRANCH  20  21
ATOM     21  C   UNL     1      -6.455  43.738  97.706  1.00  0.00    -0.000 C 
BRANCH  21  22
ATOM     22  C   UNL     1      -7.223  43.910  96.390  1.00  0.00    -0.000 C 
BRANCH  22  23
ATOM     23  C   UNL     1      -6.812  42.846  95.365  1.00  0.00    -0.000 C 
BRANCH  23  24
ATOM     24  C   UNL     1      -6.594  43.471  93.979  1.00  0.00    -0.000 C 
BRANCH  24  25
ATOM     25  C   UNL     1      -7.335  42.713  92.867  1.00  0.00    -0.003 C 
ATOM     26  C   UNL     1      -8.361  41.720  93.411  1.00  0.00     0.004 C 
ENDBRANCH  24  25
ENDBRANCH  23  24
ENDBRANCH  22  23
ENDBRANCH  21  22
ENDBRANCH  20  21
ENDBRANCH  19  20
ENDBRANCH  18  19
ENDBRANCH  17  18
ENDBRANCH  16  17
ENDBRANCH  15  16
ENDBRANCH   1  15
TORSDOF 22
ENDMDL
MODEL 5
REMARK VINA RESULT:    -3.265      3.872      6.801
REMARK INTER + INTRA:         -11.063
REMARK INTER:                  -6.901
REMARK INTRA:                  -4.163
REMARK UNBOUND:                -3.599
REMARK SMILES CCCCCCCCCCCCCCCCCCCCCCCC(=O)[O-]
REMARK SMILES IDX 13 1 14 2 15 3 16 4 17 5 18 6 19 7 20 8 21 9 22 10 23 11
REMARK SMILES IDX 24 12 25 13 26 14 12 15 11 16 10 17 9 18 8 19 7 20 6 21 5 22
REMARK SMILES IDX 4 23 3 24 2 25 1 26
REMARK H PARENT
REMARK Flexibility Score: inf
ROOT
ATOM      1  C   UNL     1     -20.254  38.241  92.745  1.00  0.00     0.000 C 
ENDROOT
BRANCH   1   2
ATOM      2  C   UNL     1     -20.088  37.100  91.726  1.00  0.00     0.000 C 
BRANCH   2   3
ATOM      3  C   UNL     1     -19.213  37.497  90.525  1.00  0.00     0.000 C 
BRANCH   3   4
ATOM      4  C   UNL     1     -18.843  36.292  89.643  1.00  0.00     0.000 C 
BRANCH   4   5
ATOM      5  C   UNL     1     -17.425  35.760  89.921  1.00  0.00     0.000 C 
BRANCH   5   6
ATOM      6  C   UNL     1     -16.534  36.685  90.777  1.00  0.00     0.000 C 
BRANCH   6   7
ATOM      7  C   UNL     1     -15.583  37.596  89.977  1.00  0.00     0.000 C 
BRANCH   7   8
ATOM      8  C   UNL     1     -14.814  38.633  90.820  1.00  0.00     0.000 C 
BRANCH   8   9
ATOM      9  C   UNL     1     -15.441  38.958  92.187  1.00  0.00     0.000 C 
BRANCH   9  10
ATOM     10  C   UNL     1     -14.408  38.988  93.327  1.00  0.00     0.006 C 
BRANCH  10  11
ATOM     11  C   UNL     1     -13.351  40.079  93.123  1.00  0.00     0.053 C 
BRANCH  11  12
ATOM     12  C   UNL     1     -13.123  40.875  94.372  1.00  0.00     0.041 C 
ATOM     13  O   UNL     1     -13.447  40.403  95.493  1.00  0.00    -0.550 OA
ATOM     14  O   UNL     1     -12.535  42.131  94.297  1.00  0.00    -0.550 OA
ENDBRANCH  11  12
ENDBRANCH  10  11
ENDBRANCH   9  10
ENDBRANCH   8   9
ENDBRANCH   7   8
ENDBRANCH   6   7
ENDBRANCH   5   6
ENDBRANCH   4   5
ENDBRANCH   3   4
ENDBRANCH   2   3
ENDBRANCH   1   2
BRANCH   1  15
ATOM     15  C   UNL     1     -19.524  39.526  92.299  1.00  0.00     0.000 C 
BRANCH  15  16
ATOM     16  C   UNL     1     -19.981  40.790  93.047  1.00  0.00     0.000 C 
BRANCH  16  17
ATOM     17  C   UNL     1     -19.207  41.025  94.355  1.00  0.00     0.000 C 
BRANCH  17  18
ATOM     18  C   UNL     1     -17.713  41.292  94.114  1.00  0.00    -0.000 C 
BRANCH  18  19
ATOM     19  C   UNL     1     -16.868  41.125  95.389  1.00  0.00    -0.000 C 
BRANCH  19  20
ATOM     20  C   UNL     1     -17.454  40.078  96.350  1.00  0.00    -0.000 C 
BRANCH  20  21
ATOM     21  C   UNL     1     -16.842  38.685  96.146  1.00  0.00    -0.000 C 
BRANCH  21  22
ATOM     22  C   UNL     1     -17.877  37.709  95.571  1.00  0.00    -0.000 C 
BRANCH  22  23
ATOM     23  C   UNL     1     -17.297  36.922  94.389  1.00  0.00    -0.000 C 
BRANCH  23  24
ATOM     24  C   UNL     1     -17.353  35.410  94.656  1.00  0.00    -0.000 C 
BRANCH  24  25
ATOM     25  C   UNL     1     -18.311  34.678  93.705  1.00  0.00    -0.003 C 
ATOM     26  C   UNL     1     -19.688  34.438  94.323  1.00  0.00     0.004 C 
ENDBRANCH  24  25
ENDBRANCH  23  24
ENDBRANCH  22  23
ENDBRANCH  21  22
ENDBRANCH  20  21
ENDBRANCH  19  20
ENDBRANCH  18  19
ENDBRANCH  17  18
ENDBRANCH  16  17
ENDBRANCH  15  16
ENDBRANCH   1  15
TORSDOF 22
ENDMDL
MODEL 6
REMARK VINA RESULT:    -3.257      2.030      4.396
REMARK INTER + INTRA:         -11.045
REMARK INTER:                  -7.559
REMARK INTRA:                  -3.486
REMARK UNBOUND:                -3.599
REMARK SMILES CCCCCCCCCCCCCCCCCCCCCCCC(=O)[O-]
REMARK SMILES IDX 13 1 14 2 15 3 16 4 17 5 18 6 19 7 20 8 21 9 22 10 23 11
REMARK SMILES IDX 24 12 25 13 26 14 12 15 11 16 10 17 9 18 8 19 7 20 6 21 5 22
REMARK SMILES IDX 4 23 3 24 2 25 1 26
REMARK H PARENT
REMARK Flexibility Score: inf
ROOT
ATOM      1  C   UNL     1     -17.120  37.403  93.774  1.00  0.00     0.000 C 
ENDROOT
BRANCH   1   2
ATOM      2  C   UNL     1     -16.944  36.047  94.480  1.00  0.00     0.000 C 
BRANCH   2   3
ATOM      3  C   UNL     1     -17.961  34.994  94.009  1.00  0.00     0.000 C 
BRANCH   3   4
ATOM      4  C   UNL     1     -18.948  34.592  95.119  1.00  0.00     0.000 C 
BRANCH   4   5
ATOM      5  C   UNL     1     -20.151  33.791  94.588  1.00  0.00     0.000 C 
BRANCH   5   6
ATOM      6  C   UNL     1     -20.167  32.298  94.977  1.00  0.00     0.000 C 
BRANCH   6   7
ATOM      7  C   UNL     1     -19.265  31.390  94.118  1.00  0.00     0.000 C 
BRANCH   7   8
ATOM      8  C   UNL     1     -18.493  30.310  94.901  1.00  0.00     0.000 C 
BRANCH   8   9
ATOM      9  C   UNL     1     -18.184  29.026  94.110  1.00  0.00     0.000 C 
BRANCH   9  10
ATOM     10  C   UNL     1     -16.676  28.782  93.933  1.00  0.00     0.006 C 
BRANCH  10  11
ATOM     11  C   UNL     1     -16.192  29.144  92.524  1.00  0.00     0.053 C 
BRANCH  11  12
ATOM     12  C   UNL     1     -15.603  27.961  91.816  1.00  0.00     0.041 C 
ATOM     13  O   UNL     1     -15.570  27.926  90.558  1.00  0.00    -0.550 OA
ATOM     14  O   UNL     1     -15.074  26.906  92.549  1.00  0.00    -0.550 OA
ENDBRANCH  11  12
ENDBRANCH  10  11
ENDBRANCH   9  10
ENDBRANCH   8   9
ENDBRANCH   7   8
ENDBRANCH   6   7
ENDBRANCH   5   6
ENDBRANCH   4   5
ENDBRANCH   3   4
ENDBRANCH   2   3
ENDBRANCH   1   2
BRANCH   1  15
ATOM     15  C   UNL     1     -17.167  37.253  92.238  1.00  0.00     0.000 C 
BRANCH  15  16
ATOM     16  C   UNL     1     -17.783  38.464  91.515  1.00  0.00     0.000 C 
BRANCH  16  17
ATOM     17  C   UNL     1     -19.210  38.195  91.007  1.00  0.00     0.000 C 
BRANCH  17  18
ATOM     18  C   UNL     1     -19.621  36.722  91.162  1.00  0.00    -0.000 C 
BRANCH  18  19
ATOM     19  C   UNL     1     -20.742  36.526  92.198  1.00  0.00    -0.000 C 
BRANCH  19  20
ATOM     20  C   UNL     1     -21.121  37.835  92.909  1.00  0.00    -0.000 C 
BRANCH  20  21
ATOM     21  C   UNL     1     -20.832  37.790  94.416  1.00  0.00    -0.000 C 
BRANCH  21  22
ATOM     22  C   UNL     1     -20.172  39.091  94.888  1.00  0.00    -0.000 C 
BRANCH  22  23
ATOM     23  C   UNL     1     -20.250  40.175  93.805  1.00  0.00    -0.000 C 
BRANCH  23  24
ATOM     24  C   UNL     1     -19.052  41.131  93.896  1.00  0.00    -0.000 C 
BRANCH  24  25
ATOM     25  C   UNL     1     -18.135  40.817  95.088  1.00  0.00    -0.003 C 
ATOM     26  C   UNL     1     -16.687  41.243  94.847  1.00  0.00     0.004 C 
ENDBRANCH  24  25
ENDBRANCH  23  24
ENDBRANCH  22  23
ENDBRANCH  21  22
ENDBRANCH  20  21
ENDBRANCH  19  20
ENDBRANCH  18  19
ENDBRANCH  17  18
ENDBRANCH  16  17
ENDBRANCH  15  16
ENDBRANCH   1  15
TORSDOF 22
ENDMDL
MODEL 7
REMARK VINA RESULT:    -3.251     14.026     18.119
REMARK INTER + INTRA:         -11.032
REMARK INTER:                  -7.812
REMARK INTRA:                  -3.220
REMARK UNBOUND:                -3.599
REMARK SMILES CCCCCCCCCCCCCCCCCCCCCCCC(=O)[O-]
REMARK SMILES IDX 13 1 14 2 15 3 16 4 17 5 18 6 19 7 20 8 21 9 22 10 23 11
REMARK SMILES IDX 24 12 25 13 26 14 12 15 11 16 10 17 9 18 8 19 7 20 6 21 5 22
REMARK SMILES IDX 4 23 3 24 2 25 1 26
REMARK H PARENT
REMARK Flexibility Score: inf
ROOT
ATOM      1  C   UNL     1      -4.143  42.537  96.869  1.00  0.00     0.000 C 
ENDROOT
BRANCH   1   2
ATOM      2  C   UNL     1      -4.816  43.300  95.714  1.00  0.00     0.000 C 
BRANCH   2   3
ATOM      3  C   UNL     1      -3.819  43.739  94.629  1.00  0.00     0.000 C 
BRANCH   3   4
ATOM      4  C   UNL     1      -3.463  45.232  94.726  1.00  0.00     0.000 C 
BRANCH   4   5
ATOM      5  C   UNL     1      -1.966  45.475  94.990  1.00  0.00     0.000 C 
BRANCH   5   6
ATOM      6  C   UNL     1      -1.630  46.039  96.387  1.00  0.00     0.000 C 
BRANCH   6   7
ATOM      7  C   UNL     1      -2.600  47.120  96.904  1.00  0.00     0.000 C 
BRANCH   7   8
ATOM      8  C   UNL     1      -3.088  46.916  98.352  1.00  0.00     0.000 C 
BRANCH   8   9
ATOM      9  C   UNL     1      -4.270  45.944  98.511  1.00  0.00     0.000 C 
BRANCH   9  10
ATOM     10  C   UNL     1      -5.158  46.276  99.723  1.00  0.00     0.006 C 
BRANCH  10  11
ATOM     11  C   UNL     1      -4.339  46.745 100.931  1.00  0.00     0.053 C 
BRANCH  11  12
ATOM     12  C   UNL     1      -4.972  46.336 102.226  1.00  0.00     0.041 C 
ATOM     13  O   UNL     1      -4.309  46.373 103.297  1.00  0.00    -0.550 OA
ATOM     14  O   UNL     1      -6.300  45.931 102.253  1.00  0.00    -0.550 OA
ENDBRANCH  11  12
ENDBRANCH  10  11
ENDBRANCH   9  10
ENDBRANCH   8   9
ENDBRANCH   7   8
ENDBRANCH   6   7
ENDBRANCH   5   6
ENDBRANCH   4   5
ENDBRANCH   3   4
ENDBRANCH   2   3
ENDBRANCH   1   2
BRANCH   1  15
ATOM     15  C   UNL     1      -2.835  41.850  96.423  1.00  0.00     0.000 C 
BRANCH  15  16
ATOM     16  C   UNL     1      -2.335  40.774  97.402  1.00  0.00     0.000 C 
BRANCH  16  17
ATOM     17  C   UNL     1      -2.051  39.426  96.716  1.00  0.00     0.000 C 
BRANCH  17  18
ATOM     18  C   UNL     1      -1.265  39.587  95.406  1.00  0.00    -0.000 C 
BRANCH  18  19
ATOM     19  C   UNL     1      -1.046  38.249  94.679  1.00  0.00    -0.000 C 
BRANCH  19  20
ATOM     20  C   UNL     1      -1.790  38.180  93.336  1.00  0.00    -0.000 C 
BRANCH  20  21
ATOM     21  C   UNL     1      -2.134  39.569  92.782  1.00  0.00    -0.000 C 
BRANCH  21  22
ATOM     22  C   UNL     1      -3.617  39.657  92.401  1.00  0.00    -0.000 C 
BRANCH  22  23
ATOM     23  C   UNL     1      -4.421  40.398  93.476  1.00  0.00    -0.000 C 
BRANCH  23  24
ATOM     24  C   UNL     1      -5.017  39.415  94.493  1.00  0.00    -0.000 C 
BRANCH  24  25
ATOM     25  C   UNL     1      -6.548  39.328  94.405  1.00  0.00    -0.003 C 
ATOM     26  C   UNL     1      -7.247  40.497  95.098  1.00  0.00     0.004 C 
ENDBRANCH  24  25
ENDBRANCH  23  24
ENDBRANCH  22  23
ENDBRANCH  21  22
ENDBRANCH  20  21
ENDBRANCH  19  20
ENDBRANCH  18  19
ENDBRANCH  17  18
ENDBRANCH  16  17
ENDBRANCH  15  16
ENDBRANCH   1  15
TORSDOF 22
ENDMDL
MODEL 8
REMARK VINA RESULT:    -3.239     13.378     17.272
REMARK INTER + INTRA:         -11.004
REMARK INTER:                  -6.928
REMARK INTRA:                  -4.076
REMARK UNBOUND:                -3.599
REMARK SMILES CCCCCCCCCCCCCCCCCCCCCCCC(=O)[O-]
REMARK SMILES IDX 13 1 14 2 15 3 16 4 17 5 18 6 19 7 20 8 21 9 22 10 23 11
REMARK SMILES IDX 24 12 25 13 26 14 12 15 11 16 10 17 9 18 8 19 7 20 6 21 5 22
REMARK SMILES IDX 4 23 3 24 2 25 1 26
REMARK H PARENT
REMARK Flexibility Score: inf
ROOT
ATOM      1  C   UNL     1      -2.226  40.645  95.771  1.00  0.00     0.000 C 
ENDROOT
BRANCH   1   2
ATOM      2  C   UNL     1      -2.421  41.495  97.038  1.00  0.00     0.000 C 
BRANCH   2   3
ATOM      3  C   UNL     1      -3.047  42.868  96.743  1.00  0.00     0.000 C 
BRANCH   3   4
ATOM      4  C   UNL     1      -3.153  43.156  95.236  1.00  0.00     0.000 C 
BRANCH   4   5
ATOM      5  C   UNL     1      -3.182  44.661  94.914  1.00  0.00     0.000 C 
BRANCH   5   6
ATOM      6  C   UNL     1      -1.865  45.416  95.191  1.00  0.00     0.000 C 
BRANCH   6   7
ATOM      7  C   UNL     1      -2.027  46.767  95.913  1.00  0.00     0.000 C 
BRANCH   7   8
ATOM      8  C   UNL     1      -2.245  46.669  97.436  1.00  0.00     0.000 C 
BRANCH   8   9
ATOM      9  C   UNL     1      -3.669  47.007  97.914  1.00  0.00     0.000 C 
BRANCH   9  10
ATOM     10  C   UNL     1      -4.457  45.765  98.364  1.00  0.00     0.006 C 
BRANCH  10  11
ATOM     11  C   UNL     1      -5.670  45.491  97.466  1.00  0.00     0.053 C 
BRANCH  11  12
ATOM     12  C   UNL     1      -6.740  44.733  98.191  1.00  0.00     0.041 C 
ATOM     13  O   UNL     1      -7.953  45.025  98.018  1.00  0.00    -0.550 OA
ATOM     14  O   UNL     1      -6.397  43.691  99.043  1.00  0.00    -0.550 OA
ENDBRANCH  11  12
ENDBRANCH  10  11
ENDBRANCH   9  10
ENDBRANCH   8   9
ENDBRANCH   7   8
ENDBRANCH   6   7
ENDBRANCH   5   6
ENDBRANCH   4   5
ENDBRANCH   3   4
ENDBRANCH   2   3
ENDBRANCH   1   2
BRANCH   1  15
ATOM     15  C   UNL     1      -1.819  39.193  96.105  1.00  0.00     0.000 C 
BRANCH  15  16
ATOM     16  C   UNL     1      -1.542  38.325  94.866  1.00  0.00     0.000 C 
BRANCH  16  17
ATOM     17  C   UNL     1      -1.264  39.158  93.603  1.00  0.00     0.000 C 
BRANCH  17  18
ATOM     18  C   UNL     1      -2.033  38.640  92.377  1.00  0.00    -0.000 C 
BRANCH  18  19
ATOM     19  C   UNL     1      -3.553  38.842  92.504  1.00  0.00    -0.000 C 
BRANCH  19  20
ATOM     20  C   UNL     1      -3.949  40.327  92.534  1.00  0.00    -0.000 C 
BRANCH  20  21
ATOM     21  C   UNL     1      -5.065  40.617  93.548  1.00  0.00    -0.000 C 
BRANCH  21  22
ATOM     22  C   UNL     1      -5.525  39.330  94.242  1.00  0.00    -0.000 C 
BRANCH  22  23
ATOM     23  C   UNL     1      -6.108  39.627  95.629  1.00  0.00    -0.000 C 
BRANCH  23  24
ATOM     24  C   UNL     1      -6.059  41.130  95.936  1.00  0.00    -0.000 C 
BRANCH  24  25
ATOM     25  C   UNL     1      -7.454  41.734  96.161  1.00  0.00    -0.003 C 
ATOM     26  C   UNL     1      -7.815  42.790  95.117  1.00  0.00     0.004 C 
ENDBRANCH  24  25
ENDBRANCH  23  24
ENDBRANCH  22  23
ENDBRANCH  21  22
ENDBRANCH  20  21
ENDBRANCH  19  20
ENDBRANCH  18  19
ENDBRANCH  17  18
ENDBRANCH  16  17
ENDBRANCH  15  16
ENDBRANCH   1  15
TORSDOF 22
ENDMDL
MODEL 9
REMARK VINA RESULT:    -3.229      5.380      8.757
REMARK INTER + INTRA:         -10.980
REMARK INTER:                  -6.005
REMARK INTRA:                  -4.976
REMARK UNBOUND:                -3.599
REMARK SMILES CCCCCCCCCCCCCCCCCCCCCCCC(=O)[O-]
REMARK SMILES IDX 13 1 14 2 15 3 16 4 17 5 18 6 19 7 20 8 21 9 22 10 23 11
REMARK SMILES IDX 24 12 25 13 26 14 12 15 11 16 10 17 9 18 8 19 7 20 6 21 5 22
REMARK SMILES IDX 4 23 3 24 2 25 1 26
REMARK H PARENT
REMARK Flexibility Score: inf
ROOT
ATOM      1  C   UNL     1     -14.213  30.679  94.076  1.00  0.00     0.000 C 
ENDROOT
BRANCH   1   2
ATOM      2  C   UNL     1     -14.005  29.799  95.321  1.00  0.00     0.000 C 
BRANCH   2   3
ATOM      3  C   UNL     1     -15.039  30.076  96.426  1.00  0.00     0.000 C 
BRANCH   3   4
ATOM      4  C   UNL     1     -15.686  28.788  96.962  1.00  0.00     0.000 C 
BRANCH   4   5
ATOM      5  C   UNL     1     -17.141  28.608  96.492  1.00  0.00     0.000 C 
BRANCH   5   6
ATOM      6  C   UNL     1     -17.312  27.818  95.178  1.00  0.00     0.000 C 
BRANCH   6   7
ATOM      7  C   UNL     1     -18.122  28.540  94.083  1.00  0.00     0.000 C 
BRANCH   7   8
ATOM      8  C   UNL     1     -17.884  30.061  93.994  1.00  0.00     0.000 C 
BRANCH   8   9
ATOM      9  C   UNL     1     -19.158  30.923  94.030  1.00  0.00     0.000 C 
BRANCH   9  10
ATOM     10  C   UNL     1     -19.400  31.575  95.403  1.00  0.00     0.006 C 
BRANCH  10  11
ATOM     11  C   UNL     1     -18.116  32.168  95.997  1.00  0.00     0.053 C 
BRANCH  11  12
ATOM     12  C   UNL     1     -18.047  33.652  95.805  1.00  0.00     0.041 C 
ATOM     13  O   UNL     1     -17.069  34.306  96.255  1.00  0.00    -0.550 OA
ATOM     14  O   UNL     1     -19.055  34.310  95.111  1.00  0.00    -0.550 OA
ENDBRANCH  11  12
ENDBRANCH  10  11
ENDBRANCH   9  10
ENDBRANCH   8   9
ENDBRANCH   7   8
ENDBRANCH   6   7
ENDBRANCH   5   6
ENDBRANCH   4   5
ENDBRANCH   3   4
ENDBRANCH   2   3
ENDBRANCH   1   2
BRANCH   1  15
ATOM     15  C   UNL     1     -14.789  32.066  94.437  1.00  0.00     0.000 C 
BRANCH  15  16
ATOM     16  C   UNL     1     -15.490  32.771  93.264  1.00  0.00     0.000 C 
BRANCH  16  17
ATOM     17  C   UNL     1     -15.285  32.048  91.922  1.00  0.00     0.000 C 
BRANCH  17  18
ATOM     18  C   UNL     1     -16.598  31.868  91.144  1.00  0.00    -0.000 C 
BRANCH  18  19
ATOM     19  C   UNL     1     -16.690  30.499  90.446  1.00  0.00    -0.000 C 
BRANCH  19  20
ATOM     20  C   UNL     1     -15.493  29.592  90.771  1.00  0.00    -0.000 C 
BRANCH  20  21
ATOM     21  C   UNL     1     -15.922  28.227  91.327  1.00  0.00    -0.000 C 
BRANCH  21  22
ATOM     22  C   UNL     1     -14.848  27.650  92.257  1.00  0.00    -0.000 C 
BRANCH  22  23
ATOM     23  C   UNL     1     -13.513  27.480  91.522  1.00  0.00    -0.000 C 
BRANCH  23  24
ATOM     24  C   UNL     1     -12.331  27.811  92.444  1.00  0.00    -0.000 C 
BRANCH  24  25
ATOM     25  C   UNL     1     -11.280  28.699  91.761  1.00  0.00    -0.003 C 
ATOM     26  C   UNL     1     -11.791  30.112  91.484  1.00  0.00     0.004 C 
ENDBRANCH  24  25
ENDBRANCH  23  24
ENDBRANCH  22  23
ENDBRANCH  21  22
ENDBRANCH  20  21
ENDBRANCH  19  20
ENDBRANCH  18  19
ENDBRANCH  17  18
ENDBRANCH  16  17
ENDBRANCH  15  16
ENDBRANCH   1  15
TORSDOF 22
ENDMDL
