MODEL 1
REMARK VINA RESULT:     0.000      0.000      0.000
REMARK INTER + INTRA:          -0.385
REMARK INTER:                   0.000
REMARK INTRA:                  -0.385
REMARK UNBOUND:                -0.385
REMARK SMILES Oc1cc(O)c2cc(O)c(-c3cc(O)c(O)c(O)c3)[o+]c2c1
REMARK SMILES IDX 10 1 20 2 21 3 22 4 2 5 3 6 4 7 6 8 7 9 8 10 11 11 12 12
REMARK SMILES IDX 13 13 19 14 15 15 17 16 14 17 16 19 18 21 9 23 1 25 5 27
REMARK H PARENT 14 18 16 20 18 22 9 24 1 26 5 28
REMARK Flexibility Score: inf
ROOT
ATOM      1  C   UNL     1      12.427  19.400  50.833  1.00  0.00     0.402 A 
ATOM      2  O   UNL     1      13.538  18.999  51.446  1.00  0.00    -0.202 OA
ATOM      3  C   UNL     1      13.752  17.741  51.818  1.00  0.00     0.368 A 
ATOM      4  C   UNL     1      14.953  17.416  52.455  1.00  0.00     0.162 A 
ATOM      5  C   UNL     1      15.207  16.103  52.853  1.00  0.00     0.128 A 
ATOM      6  C   UNL     1      14.254  15.106  52.615  1.00  0.00     0.093 A 
ATOM      7  C   UNL     1      13.044  15.407  51.979  1.00  0.00     0.136 A 
ATOM      8  C   UNL     1      12.781  16.741  51.574  1.00  0.00     0.125 A 
ATOM      9  C   UNL     1      11.591  17.136  50.942  1.00  0.00     0.078 A 
ATOM     10  C   UNL     1      11.401  18.472  50.576  1.00  0.00     0.223 A 
ENDROOT
BRANCH   1  11
ATOM     11  C   UNL     1      12.310  20.827  50.459  1.00  0.00     0.091 A 
ATOM     12  C   UNL     1      12.667  21.281  49.177  1.00  0.00     0.068 A 
ATOM     13  C   UNL     1      12.571  22.639  48.849  1.00  0.00     0.162 A 
ATOM     14  C   UNL     1      11.889  21.760  51.419  1.00  0.00     0.068 A 
ATOM     15  C   UNL     1      12.125  23.563  49.810  1.00  0.00     0.200 A 
ATOM     16  C   UNL     1      11.788  23.118  51.100  1.00  0.00     0.162 A 
BRANCH  13  17
ATOM     17  O   UNL     1      12.920  23.077  47.572  1.00  0.00    -0.504 OA
ATOM     18  H   UNL     1      12.793  22.489  46.756  1.00  0.00     0.293 HD
ENDBRANCH  13  17
BRANCH  15  19
ATOM     19  O   UNL     1      12.019  24.919  49.499  1.00  0.00    -0.502 OA
ATOM     20  H   UNL     1      11.506  25.249  48.691  1.00  0.00     0.293 HD
ENDBRANCH  15  19
BRANCH  16  21
ATOM     21  O   UNL     1      11.351  24.010  52.078  1.00  0.00    -0.504 OA
ATOM     22  H   UNL     1      11.910  24.232  52.894  1.00  0.00     0.293 HD
ENDBRANCH  16  21
ENDBRANCH   1  11
BRANCH  10  23
ATOM     23  O   UNL     1      10.199  18.875  49.994  1.00  0.00    -0.500 OA
ATOM     24  H   UNL     1       9.720  19.717  50.291  1.00  0.00     0.294 HD
ENDBRANCH  10  23
BRANCH   5  25
ATOM     25  O   UNL     1      16.410  15.799  53.487  1.00  0.00    -0.507 OA
ATOM     26  H   UNL     1      16.828  14.878  53.417  1.00  0.00     0.293 HD
ENDBRANCH   5  25
BRANCH   7  27
ATOM     27  O   UNL     1      12.146  14.354  51.773  1.00  0.00    -0.507 OA
ATOM     28  H   UNL     1      12.113  13.515  52.333  1.00  0.00     0.293 HD
ENDBRANCH   7  27
TORSDOF 7
ENDMDL
MODEL 2
REMARK VINA RESULT:     0.000      3.827      5.445
REMARK INTER + INTRA:          -0.385
REMARK INTER:                   0.000
REMARK INTRA:                  -0.385
REMARK UNBOUND:                -0.385
REMARK SMILES Oc1cc(O)c2cc(O)c(-c3cc(O)c(O)c(O)c3)[o+]c2c1
REMARK SMILES IDX 10 1 20 2 21 3 22 4 2 5 3 6 4 7 6 8 7 9 8 10 11 11 12 12
REMARK SMILES IDX 13 13 19 14 15 15 17 16 14 17 16 19 18 21 9 23 1 25 5 27
REMARK H PARENT 14 18 16 20 18 22 9 24 1 26 5 28
REMARK Flexibility Score: inf
ROOT
ATOM      1  C   UNL     1      14.857  19.878  49.901  1.00  0.00     0.402 A 
ATOM      2  O   UNL     1      14.368  18.737  50.380  1.00  0.00    -0.202 OA
ATOM      3  C   UNL     1      13.424  18.682  51.314  1.00  0.00     0.368 A 
ATOM      4  C   UNL     1      12.972  17.435  51.752  1.00  0.00     0.162 A 
ATOM      5  C   UNL     1      11.980  17.347  52.728  1.00  0.00     0.128 A 
ATOM      6  C   UNL     1      11.433  18.514  53.273  1.00  0.00     0.093 A 
ATOM      7  C   UNL     1      11.869  19.776  52.851  1.00  0.00     0.136 A 
ATOM      8  C   UNL     1      12.880  19.869  51.859  1.00  0.00     0.125 A 
ATOM      9  C   UNL     1      13.386  21.090  51.386  1.00  0.00     0.078 A 
ATOM     10  C   UNL     1      14.387  21.103  50.410  1.00  0.00     0.223 A 
ENDROOT
BRANCH   1  11
ATOM     11  C   UNL     1      15.900  19.808  48.853  1.00  0.00     0.091 A 
ATOM     12  C   UNL     1      15.574  19.876  47.488  1.00  0.00     0.068 A 
ATOM     13  C   UNL     1      16.573  19.786  46.510  1.00  0.00     0.162 A 
ATOM     14  C   UNL     1      17.239  19.612  49.225  1.00  0.00     0.068 A 
ATOM     15  C   UNL     1      17.915  19.614  46.893  1.00  0.00     0.200 A 
ATOM     16  C   UNL     1      18.244  19.523  48.256  1.00  0.00     0.162 A 
BRANCH  13  17
ATOM     17  O   UNL     1      16.238  19.862  45.159  1.00  0.00    -0.504 OA
ATOM     18  H   UNL     1      16.919  19.672  44.432  1.00  0.00     0.293 HD
ENDBRANCH  13  17
BRANCH  15  19
ATOM     19  O   UNL     1      18.923  19.526  45.932  1.00  0.00    -0.502 OA
ATOM     20  H   UNL     1      19.102  20.268  45.267  1.00  0.00     0.293 HD
ENDBRANCH  15  19
BRANCH  16  21
ATOM     21  O   UNL     1      19.564  19.343  48.667  1.00  0.00    -0.504 OA
ATOM     22  H   UNL     1      20.321  19.922  48.321  1.00  0.00     0.293 HD
ENDBRANCH  16  21
ENDBRANCH   1  11
BRANCH  10  23
ATOM     23  O   UNL     1      14.926  22.314  49.975  1.00  0.00    -0.500 OA
ATOM     24  H   UNL     1      15.922  22.495  50.007  1.00  0.00     0.294 HD
ENDBRANCH  10  23
BRANCH   5  25
ATOM     25  O   UNL     1      11.543  16.093  53.152  1.00  0.00    -0.507 OA
ATOM     26  H   UNL     1      11.342  15.351  52.491  1.00  0.00     0.293 HD
ENDBRANCH   5  25
BRANCH   7  27
ATOM     27  O   UNL     1      11.271  20.894  53.441  1.00  0.00    -0.507 OA
ATOM     28  H   UNL     1      11.432  21.191  54.392  1.00  0.00     0.293 HD
ENDBRANCH   7  27
TORSDOF 7
ENDMDL
MODEL 3
REMARK VINA RESULT:     0.000      6.754      9.905
REMARK INTER + INTRA:          -0.385
REMARK INTER:                   0.000
REMARK INTRA:                  -0.385
REMARK UNBOUND:                -0.385
REMARK SMILES Oc1cc(O)c2cc(O)c(-c3cc(O)c(O)c(O)c3)[o+]c2c1
REMARK SMILES IDX 10 1 20 2 21 3 22 4 2 5 3 6 4 7 6 8 7 9 8 10 11 11 12 12
REMARK SMILES IDX 13 13 19 14 15 15 17 16 14 17 16 19 18 21 9 23 1 25 5 27
REMARK H PARENT 14 18 16 20 18 22 9 24 1 26 5 28
REMARK Flexibility Score: inf
ROOT
ATOM      1  C   UNL     1      16.556  18.887  57.459  1.00  0.00     0.402 A 
ATOM      2  O   UNL     1      15.317  18.475  57.205  1.00  0.00    -0.202 OA
ATOM      3  C   UNL     1      14.256  19.274  57.259  1.00  0.00     0.368 A 
ATOM      4  C   UNL     1      12.994  18.750  56.973  1.00  0.00     0.162 A 
ATOM      5  C   UNL     1      11.864  19.566  57.018  1.00  0.00     0.128 A 
ATOM      6  C   UNL     1      11.994  20.919  57.352  1.00  0.00     0.093 A 
ATOM      7  C   UNL     1      13.248  21.469  57.642  1.00  0.00     0.136 A 
ATOM      8  C   UNL     1      14.400  20.641  57.599  1.00  0.00     0.125 A 
ATOM      9  C   UNL     1      15.694  21.103  57.888  1.00  0.00     0.078 A 
ATOM     10  C   UNL     1      16.782  20.226  57.829  1.00  0.00     0.223 A 
ENDROOT
BRANCH   1  11
ATOM     11  C   UNL     1      17.656  17.902  57.355  1.00  0.00     0.091 A 
ATOM     12  C   UNL     1      18.406  17.761  56.175  1.00  0.00     0.068 A 
ATOM     13  C   UNL     1      19.429  16.808  56.088  1.00  0.00     0.162 A 
ATOM     14  C   UNL     1      17.923  17.049  58.438  1.00  0.00     0.068 A 
ATOM     15  C   UNL     1      19.705  15.974  57.186  1.00  0.00     0.200 A 
ATOM     16  C   UNL     1      18.943  16.096  58.362  1.00  0.00     0.162 A 
BRANCH  13  17
ATOM     17  O   UNL     1      20.170  16.682  54.915  1.00  0.00    -0.504 OA
ATOM     18  H   UNL     1      21.075  16.225  54.905  1.00  0.00     0.293 HD
ENDBRANCH  13  17
BRANCH  15  19
ATOM     19  O   UNL     1      20.722  15.022  57.119  1.00  0.00    -0.502 OA
ATOM     20  H   UNL     1      21.564  15.169  56.576  1.00  0.00     0.293 HD
ENDBRANCH  15  19
BRANCH  16  21
ATOM     21  O   UNL     1      19.186  15.278  59.464  1.00  0.00    -0.504 OA
ATOM     22  H   UNL     1      19.159  15.631  60.414  1.00  0.00     0.293 HD
ENDBRANCH  16  21
ENDBRANCH   1  11
BRANCH  10  23
ATOM     23  O   UNL     1      18.060  20.671  58.164  1.00  0.00    -0.500 OA
ATOM     24  H   UNL     1      18.562  20.299  58.962  1.00  0.00     0.294 HD
ENDBRANCH  10  23
BRANCH   5  25
ATOM     25  O   UNL     1      10.613  19.023  56.731  1.00  0.00    -0.507 OA
ATOM     26  H   UNL     1      10.324  18.833  55.778  1.00  0.00     0.293 HD
ENDBRANCH   5  25
BRANCH   7  27
ATOM     27  O   UNL     1      13.296  22.829  57.963  1.00  0.00    -0.507 OA
ATOM     28  H   UNL     1      12.508  23.365  58.293  1.00  0.00     0.293 HD
ENDBRANCH   7  27
TORSDOF 7
ENDMDL
MODEL 4
REMARK VINA RESULT:     0.000      4.887      6.935
REMARK INTER + INTRA:          -0.385
REMARK INTER:                   0.000
REMARK INTRA:                  -0.385
REMARK UNBOUND:                -0.385
REMARK SMILES Oc1cc(O)c2cc(O)c(-c3cc(O)c(O)c(O)c3)[o+]c2c1
REMARK SMILES IDX 10 1 20 2 21 3 22 4 2 5 3 6 4 7 6 8 7 9 8 10 11 11 12 12
REMARK SMILES IDX 13 13 19 14 15 15 17 16 14 17 16 19 18 21 9 23 1 25 5 27
REMARK H PARENT 14 18 16 20 18 22 9 24 1 26 5 28
REMARK Flexibility Score: inf
ROOT
ATOM      1  C   UNL     1      16.829  17.606  51.035  1.00  0.00     0.402 A 
ATOM      2  O   UNL     1      15.960  17.936  50.083  1.00  0.00    -0.202 OA
ATOM      3  C   UNL     1      16.069  17.529  48.823  1.00  0.00     0.368 A 
ATOM      4  C   UNL     1      15.104  17.925  47.894  1.00  0.00     0.162 A 
ATOM      5  C   UNL     1      15.192  17.510  46.565  1.00  0.00     0.128 A 
ATOM      6  C   UNL     1      16.252  16.692  46.159  1.00  0.00     0.093 A 
ATOM      7  C   UNL     1      17.232  16.281  47.070  1.00  0.00     0.136 A 
ATOM      8  C   UNL     1      17.147  16.703  48.423  1.00  0.00     0.125 A 
ATOM      9  C   UNL     1      18.091  16.351  49.401  1.00  0.00     0.078 A 
ATOM     10  C   UNL     1      17.944  16.809  50.714  1.00  0.00     0.223 A 
ENDROOT
BRANCH   1  11
ATOM     11  C   UNL     1      16.592  18.115  52.406  1.00  0.00     0.091 A 
ATOM     12  C   UNL     1      15.909  17.347  53.364  1.00  0.00     0.068 A 
ATOM     13  C   UNL     1      15.675  17.854  54.649  1.00  0.00     0.162 A 
ATOM     14  C   UNL     1      17.007  19.413  52.741  1.00  0.00     0.068 A 
ATOM     15  C   UNL     1      16.116  19.146  54.984  1.00  0.00     0.200 A 
ATOM     16  C   UNL     1      16.780  19.926  54.022  1.00  0.00     0.162 A 
BRANCH  13  17
ATOM     17  O   UNL     1      15.003  17.081  55.594  1.00  0.00    -0.504 OA
ATOM     18  H   UNL     1      14.149  16.584  55.364  1.00  0.00     0.293 HD
ENDBRANCH  13  17
BRANCH  15  19
ATOM     19  O   UNL     1      15.895  19.665  56.260  1.00  0.00    -0.502 OA
ATOM     20  H   UNL     1      16.556  19.540  57.016  1.00  0.00     0.293 HD
ENDBRANCH  15  19
BRANCH  16  21
ATOM     21  O   UNL     1      17.221  21.215  54.320  1.00  0.00    -0.504 OA
ATOM     22  H   UNL     1      16.844  21.749  55.095  1.00  0.00     0.293 HD
ENDBRANCH  16  21
ENDBRANCH   1  11
BRANCH  10  23
ATOM     23  O   UNL     1      18.906  16.502  51.676  1.00  0.00    -0.500 OA
ATOM     24  H   UNL     1      18.827  16.828  52.632  1.00  0.00     0.294 HD
ENDBRANCH  10  23
BRANCH   5  25
ATOM     25  O   UNL     1      14.219  17.917  45.654  1.00  0.00    -0.507 OA
ATOM     26  H   UNL     1      14.462  18.209  44.714  1.00  0.00     0.293 HD
ENDBRANCH   5  25
BRANCH   7  27
ATOM     27  O   UNL     1      18.257  15.461  46.588  1.00  0.00    -0.507 OA
ATOM     28  H   UNL     1      18.761  14.790  47.147  1.00  0.00     0.293 HD
ENDBRANCH   7  27
TORSDOF 7
ENDMDL
MODEL 5
REMARK VINA RESULT:     0.000      6.019      9.338
REMARK INTER + INTRA:          -0.385
REMARK INTER:                   0.000
REMARK INTRA:                  -0.385
REMARK UNBOUND:                -0.385
REMARK SMILES Oc1cc(O)c2cc(O)c(-c3cc(O)c(O)c(O)c3)[o+]c2c1
REMARK SMILES IDX 10 1 20 2 21 3 22 4 2 5 3 6 4 7 6 8 7 9 8 10 11 11 12 12
REMARK SMILES IDX 13 13 19 14 15 15 17 16 14 17 16 19 18 21 9 23 1 25 5 27
REMARK H PARENT 14 18 16 20 18 22 9 24 1 26 5 28
REMARK Flexibility Score: inf
ROOT
ATOM      1  C   UNL     1      13.791  13.990  54.605  1.00  0.00     0.402 A 
ATOM      2  O   UNL     1      14.324  14.814  55.503  1.00  0.00    -0.202 OA
ATOM      3  C   UNL     1      13.709  15.905  55.947  1.00  0.00     0.368 A 
ATOM      4  C   UNL     1      14.349  16.708  56.895  1.00  0.00     0.162 A 
ATOM      5  C   UNL     1      13.726  17.858  57.381  1.00  0.00     0.128 A 
ATOM      6  C   UNL     1      12.454  18.210  56.917  1.00  0.00     0.093 A 
ATOM      7  C   UNL     1      11.792  17.423  55.968  1.00  0.00     0.136 A 
ATOM      8  C   UNL     1      12.423  16.253  55.470  1.00  0.00     0.125 A 
ATOM      9  C   UNL     1      11.841  15.412  54.508  1.00  0.00     0.078 A 
ATOM     10  C   UNL     1      12.526  14.278  54.061  1.00  0.00     0.223 A 
ENDROOT
BRANCH   1  11
ATOM     11  C   UNL     1      14.571  12.799  54.198  1.00  0.00     0.091 A 
ATOM     12  C   UNL     1      14.382  11.552  54.817  1.00  0.00     0.068 A 
ATOM     13  C   UNL     1      15.145  10.441  54.433  1.00  0.00     0.162 A 
ATOM     14  C   UNL     1      15.562  12.927  53.212  1.00  0.00     0.068 A 
ATOM     15  C   UNL     1      16.119  10.573  53.428  1.00  0.00     0.200 A 
ATOM     16  C   UNL     1      16.327  11.824  52.820  1.00  0.00     0.162 A 
BRANCH  13  17
ATOM     17  O   UNL     1      14.944   9.207  55.050  1.00  0.00    -0.504 OA
ATOM     18  H   UNL     1      14.496   8.438  54.564  1.00  0.00     0.293 HD
ENDBRANCH  13  17
BRANCH  15  19
ATOM     19  O   UNL     1      16.885   9.477  53.031  1.00  0.00    -0.502 OA
ATOM     20  H   UNL     1      17.849   9.571  52.736  1.00  0.00     0.293 HD
ENDBRANCH  15  19
BRANCH  16  21
ATOM     21  O   UNL     1      17.291  11.990  51.827  1.00  0.00    -0.504 OA
ATOM     22  H   UNL     1      18.273  12.114  52.043  1.00  0.00     0.293 HD
ENDBRANCH  16  21
ENDBRANCH   1  11
BRANCH  10  23
ATOM     23  O   UNL     1      11.970  13.469  53.070  1.00  0.00    -0.500 OA
ATOM     24  H   UNL     1      12.278  13.520  52.106  1.00  0.00     0.294 HD
ENDBRANCH  10  23
BRANCH   5  25
ATOM     25  O   UNL     1      14.382  18.646  58.326  1.00  0.00    -0.507 OA
ATOM     26  H   UNL     1      14.866  18.234  59.115  1.00  0.00     0.293 HD
ENDBRANCH   5  25
BRANCH   7  27
ATOM     27  O   UNL     1      10.522  17.840  55.558  1.00  0.00    -0.507 OA
ATOM     28  H   UNL     1       9.836  18.260  56.167  1.00  0.00     0.293 HD
ENDBRANCH   7  27
TORSDOF 7
ENDMDL
MODEL 6
REMARK VINA RESULT:     0.000      7.096      9.768
REMARK INTER + INTRA:          -0.385
REMARK INTER:                   0.000
REMARK INTRA:                  -0.385
REMARK UNBOUND:                -0.385
REMARK SMILES Oc1cc(O)c2cc(O)c(-c3cc(O)c(O)c(O)c3)[o+]c2c1
REMARK SMILES IDX 10 1 20 2 21 3 22 4 2 5 3 6 4 7 6 8 7 9 8 10 11 11 12 12
REMARK SMILES IDX 13 13 19 14 15 15 17 16 14 17 16 19 18 21 9 23 1 25 5 27
REMARK H PARENT 14 18 16 20 18 22 9 24 1 26 5 28
REMARK Flexibility Score: inf
ROOT
ATOM      1  C   UNL     1      14.847  15.663  56.752  1.00  0.00     0.402 A 
ATOM      2  O   UNL     1      15.669  16.415  57.478  1.00  0.00    -0.202 OA
ATOM      3  C   UNL     1      15.287  17.527  58.096  1.00  0.00     0.368 A 
ATOM      4  C   UNL     1      16.224  18.249  58.840  1.00  0.00     0.162 A 
ATOM      5  C   UNL     1      15.850  19.418  59.502  1.00  0.00     0.128 A 
ATOM      6  C   UNL     1      14.528  19.872  59.422  1.00  0.00     0.093 A 
ATOM      7  C   UNL     1      13.571  19.167  58.684  1.00  0.00     0.136 A 
ATOM      8  C   UNL     1      13.948  17.978  58.007  1.00  0.00     0.125 A 
ATOM      9  C   UNL     1      13.059  17.214  57.234  1.00  0.00     0.078 A 
ATOM     10  C   UNL     1      13.505  16.055  56.591  1.00  0.00     0.223 A 
ENDROOT
BRANCH   1  11
ATOM     11  C   UNL     1      15.390  14.439  56.120  1.00  0.00     0.091 A 
ATOM     12  C   UNL     1      15.289  13.185  56.745  1.00  0.00     0.068 A 
ATOM     13  C   UNL     1      15.830  12.041  56.142  1.00  0.00     0.162 A 
ATOM     14  C   UNL     1      16.072  14.539  54.897  1.00  0.00     0.068 A 
ATOM     15  C   UNL     1      16.490  12.147  54.906  1.00  0.00     0.200 A 
ATOM     16  C   UNL     1      16.613  13.403  54.287  1.00  0.00     0.162 A 
BRANCH  13  17
ATOM     17  O   UNL     1      15.718  10.801  56.768  1.00  0.00    -0.504 OA
ATOM     18  H   UNL     1      15.007  10.131  56.495  1.00  0.00     0.293 HD
ENDBRANCH  13  17
BRANCH  15  19
ATOM     19  O   UNL     1      17.031  11.018  54.289  1.00  0.00    -0.502 OA
ATOM     20  H   UNL     1      17.868  10.563  54.633  1.00  0.00     0.293 HD
ENDBRANCH  15  19
BRANCH  16  21
ATOM     21  O   UNL     1      17.270  13.542  53.065  1.00  0.00    -0.504 OA
ATOM     22  H   UNL     1      17.919  14.299  52.884  1.00  0.00     0.293 HD
ENDBRANCH  16  21
ENDBRANCH   1  11
BRANCH  10  23
ATOM     23  O   UNL     1      12.635  15.324  55.783  1.00  0.00    -0.500 OA
ATOM     24  H   UNL     1      12.816  14.355  55.547  1.00  0.00     0.294 HD
ENDBRANCH  10  23
BRANCH   5  25
ATOM     25  O   UNL     1      16.800  20.124  60.238  1.00  0.00    -0.507 OA
ATOM     26  H   UNL     1      16.622  21.066  60.568  1.00  0.00     0.293 HD
ENDBRANCH   5  25
BRANCH   7  27
ATOM     27  O   UNL     1      12.271  19.683  58.656  1.00  0.00    -0.507 OA
ATOM     28  H   UNL     1      11.879  20.198  57.882  1.00  0.00     0.293 HD
ENDBRANCH   7  27
TORSDOF 7
ENDMDL
MODEL 7
REMARK VINA RESULT:     0.000      4.652      5.577
REMARK INTER + INTRA:          -0.385
REMARK INTER:                   0.000
REMARK INTRA:                  -0.385
REMARK UNBOUND:                -0.385
REMARK SMILES Oc1cc(O)c2cc(O)c(-c3cc(O)c(O)c(O)c3)[o+]c2c1
REMARK SMILES IDX 10 1 20 2 21 3 22 4 2 5 3 6 4 7 6 8 7 9 8 10 11 11 12 12
REMARK SMILES IDX 13 13 19 14 15 15 17 16 14 17 16 19 18 21 9 23 1 25 5 27
REMARK H PARENT 14 18 16 20 18 22 9 24 1 26 5 28
REMARK Flexibility Score: inf
ROOT
ATOM      1  C   UNL     1      12.271  21.219  55.028  1.00  0.00     0.402 A 
ATOM      2  O   UNL     1      12.012  19.919  55.139  1.00  0.00    -0.202 OA
ATOM      3  C   UNL     1      11.991  19.275  56.301  1.00  0.00     0.368 A 
ATOM      4  C   UNL     1      11.706  17.907  56.316  1.00  0.00     0.162 A 
ATOM      5  C   UNL     1      11.674  17.207  57.522  1.00  0.00     0.128 A 
ATOM      6  C   UNL     1      11.929  17.876  58.724  1.00  0.00     0.093 A 
ATOM      7  C   UNL     1      12.218  19.246  58.735  1.00  0.00     0.136 A 
ATOM      8  C   UNL     1      12.253  19.962  57.510  1.00  0.00     0.125 A 
ATOM      9  C   UNL     1      12.546  21.333  57.425  1.00  0.00     0.078 A 
ATOM     10  C   UNL     1      12.567  21.970  56.181  1.00  0.00     0.223 A 
ENDROOT
BRANCH   1  11
ATOM     11  C   UNL     1      12.255  21.824  53.677  1.00  0.00     0.091 A 
ATOM     12  C   UNL     1      11.104  22.450  53.168  1.00  0.00     0.068 A 
ATOM     13  C   UNL     1      11.100  22.997  51.878  1.00  0.00     0.162 A 
ATOM     14  C   UNL     1      13.392  21.722  52.861  1.00  0.00     0.068 A 
ATOM     15  C   UNL     1      12.252  22.911  51.077  1.00  0.00     0.200 A 
ATOM     16  C   UNL     1      13.399  22.267  51.573  1.00  0.00     0.162 A 
BRANCH  13  17
ATOM     17  O   UNL     1       9.955  23.621  51.386  1.00  0.00    -0.504 OA
ATOM     18  H   UNL     1       9.622  24.499  51.771  1.00  0.00     0.293 HD
ENDBRANCH  13  17
BRANCH  15  19
ATOM     19  O   UNL     1      12.268  23.454  49.792  1.00  0.00    -0.502 OA
ATOM     20  H   UNL     1      12.099  22.893  48.966  1.00  0.00     0.293 HD
ENDBRANCH  15  19
BRANCH  16  21
ATOM     21  O   UNL     1      14.554  22.158  50.800  1.00  0.00    -0.504 OA
ATOM     22  H   UNL     1      15.058  22.971  50.466  1.00  0.00     0.293 HD
ENDBRANCH  16  21
ENDBRANCH   1  11
BRANCH  10  23
ATOM     23  O   UNL     1      12.906  23.319  56.090  1.00  0.00    -0.500 OA
ATOM     24  H   UNL     1      12.284  23.997  55.667  1.00  0.00     0.294 HD
ENDBRANCH  10  23
BRANCH   5  25
ATOM     25  O   UNL     1      11.388  15.843  57.515  1.00  0.00    -0.507 OA
ATOM     26  H   UNL     1      11.968  15.177  58.014  1.00  0.00     0.293 HD
ENDBRANCH   5  25
BRANCH   7  27
ATOM     27  O   UNL     1      12.457  19.843  59.977  1.00  0.00    -0.507 OA
ATOM     28  H   UNL     1      12.238  20.802  60.200  1.00  0.00     0.293 HD
ENDBRANCH   7  27
TORSDOF 7
ENDMDL
MODEL 8
REMARK VINA RESULT:     0.000      5.737      8.781
REMARK INTER + INTRA:          -0.385
REMARK INTER:                   0.000
REMARK INTRA:                  -0.385
REMARK UNBOUND:                -0.385
REMARK SMILES Oc1cc(O)c2cc(O)c(-c3cc(O)c(O)c(O)c3)[o+]c2c1
REMARK SMILES IDX 10 1 20 2 21 3 22 4 2 5 3 6 4 7 6 8 7 9 8 10 11 11 12 12
REMARK SMILES IDX 13 13 19 14 15 15 17 16 14 17 16 19 18 21 9 23 1 25 5 27
REMARK H PARENT 14 18 16 20 18 22 9 24 1 26 5 28
REMARK Flexibility Score: inf
ROOT
ATOM      1  C   UNL     1       7.747  18.087  53.467  1.00  0.00     0.402 A 
ATOM      2  O   UNL     1       6.599  18.254  52.816  1.00  0.00    -0.202 OA
ATOM      3  C   UNL     1       5.551  18.885  53.335  1.00  0.00     0.368 A 
ATOM      4  C   UNL     1       4.388  19.013  52.573  1.00  0.00     0.162 A 
ATOM      5  C   UNL     1       3.274  19.674  53.091  1.00  0.00     0.128 A 
ATOM      6  C   UNL     1       3.321  20.211  54.382  1.00  0.00     0.093 A 
ATOM      7  C   UNL     1       4.474  20.097  55.166  1.00  0.00     0.136 A 
ATOM      8  C   UNL     1       5.609  19.423  54.643  1.00  0.00     0.125 A 
ATOM      9  C   UNL     1       6.803  19.250  55.362  1.00  0.00     0.078 A 
ATOM     10  C   UNL     1       7.878  18.570  54.782  1.00  0.00     0.223 A 
ENDROOT
BRANCH   1  11
ATOM     11  C   UNL     1       8.846  17.375  52.776  1.00  0.00     0.091 A 
ATOM     12  C   UNL     1       9.844  18.072  52.073  1.00  0.00     0.068 A 
ATOM     13  C   UNL     1      10.863  17.379  51.407  1.00  0.00     0.162 A 
ATOM     14  C   UNL     1       8.864  15.971  52.773  1.00  0.00     0.068 A 
ATOM     15  C   UNL     1      10.887  15.974  51.429  1.00  0.00     0.200 A 
ATOM     16  C   UNL     1       9.879  15.272  52.113  1.00  0.00     0.162 A 
BRANCH  13  17
ATOM     17  O   UNL     1      11.852  18.081  50.719  1.00  0.00    -0.504 OA
ATOM     18  H   UNL     1      12.028  17.921  49.733  1.00  0.00     0.293 HD
ENDBRANCH  13  17
BRANCH  15  19
ATOM     19  O   UNL     1      11.897  15.268  50.775  1.00  0.00    -0.502 OA
ATOM     20  H   UNL     1      12.742  15.717  50.445  1.00  0.00     0.293 HD
ENDBRANCH  15  19
BRANCH  16  21
ATOM     21  O   UNL     1       9.869  13.878  52.146  1.00  0.00    -0.504 OA
ATOM     22  H   UNL     1       9.263  13.328  51.548  1.00  0.00     0.293 HD
ENDBRANCH  16  21
ENDBRANCH   1  11
BRANCH  10  23
ATOM     23  O   UNL     1       9.046  18.354  55.513  1.00  0.00    -0.500 OA
ATOM     24  H   UNL     1       9.106  17.628  56.217  1.00  0.00     0.294 HD
ENDBRANCH  10  23
BRANCH   5  25
ATOM     25  O   UNL     1       2.122  19.790  52.314  1.00  0.00    -0.507 OA
ATOM     26  H   UNL     1       1.406  20.476  52.528  1.00  0.00     0.293 HD
ENDBRANCH   5  25
BRANCH   7  27
ATOM     27  O   UNL     1       4.444  20.664  56.444  1.00  0.00    -0.507 OA
ATOM     28  H   UNL     1       3.599  20.910  56.938  1.00  0.00     0.293 HD
ENDBRANCH   7  27
TORSDOF 7
ENDMDL
MODEL 9
REMARK VINA RESULT:     0.000      8.110      9.572
REMARK INTER + INTRA:          -0.385
REMARK INTER:                   0.000
REMARK INTRA:                  -0.385
REMARK UNBOUND:                -0.385
REMARK SMILES Oc1cc(O)c2cc(O)c(-c3cc(O)c(O)c(O)c3)[o+]c2c1
REMARK SMILES IDX 10 1 20 2 21 3 22 4 2 5 3 6 4 7 6 8 7 9 8 10 11 11 12 12
REMARK SMILES IDX 13 13 19 14 15 15 17 16 14 17 16 19 18 21 9 23 1 25 5 27
REMARK H PARENT 14 18 16 20 18 22 9 24 1 26 5 28
REMARK Flexibility Score: inf
ROOT
ATOM      1  C   UNL     1       8.671  11.723  51.785  1.00  0.00     0.402 A 
ATOM      2  O   UNL     1       9.801  11.412  52.414  1.00  0.00    -0.202 OA
ATOM      3  C   UNL     1       9.912  11.371  53.737  1.00  0.00     0.368 A 
ATOM      4  C   UNL     1      11.142  11.031  54.307  1.00  0.00     0.162 A 
ATOM      5  C   UNL     1      11.286  10.976  55.694  1.00  0.00     0.128 A 
ATOM      6  C   UNL     1      10.193  11.264  56.520  1.00  0.00     0.093 A 
ATOM      7  C   UNL     1       8.951  11.607  55.973  1.00  0.00     0.136 A 
ATOM      8  C   UNL     1       8.801  11.665  54.564  1.00  0.00     0.125 A 
ATOM      9  C   UNL     1       7.597  12.012  53.929  1.00  0.00     0.078 A 
ATOM     10  C   UNL     1       7.526  12.053  52.533  1.00  0.00     0.223 A 
ENDROOT
BRANCH   1  11
ATOM     11  C   UNL     1       8.672  11.724  50.304  1.00  0.00     0.091 A 
ATOM     12  C   UNL     1       8.266  10.597  49.570  1.00  0.00     0.068 A 
ATOM     13  C   UNL     1       8.294  10.609  48.169  1.00  0.00     0.162 A 
ATOM     14  C   UNL     1       9.142  12.853  49.615  1.00  0.00     0.068 A 
ATOM     15  C   UNL     1       8.744  11.754  47.487  1.00  0.00     0.200 A 
ATOM     16  C   UNL     1       9.172  12.876  48.218  1.00  0.00     0.162 A 
BRANCH  13  17
ATOM     17  O   UNL     1       7.882   9.488  47.451  1.00  0.00    -0.504 OA
ATOM     18  H   UNL     1       8.116   9.369  46.471  1.00  0.00     0.293 HD
ENDBRANCH  13  17
BRANCH  15  19
ATOM     19  O   UNL     1       8.775  11.785  46.093  1.00  0.00    -0.502 OA
ATOM     20  H   UNL     1       9.023  12.620  45.577  1.00  0.00     0.293 HD
ENDBRANCH  15  19
BRANCH  16  21
ATOM     21  O   UNL     1       9.632  14.022  47.571  1.00  0.00    -0.504 OA
ATOM     22  H   UNL     1       9.759  14.061  46.566  1.00  0.00     0.293 HD
ENDBRANCH  16  21
ENDBRANCH   1  11
BRANCH  10  23
ATOM     23  O   UNL     1       6.346  12.446  51.903  1.00  0.00    -0.500 OA
ATOM     24  H   UNL     1       6.101  12.114  50.977  1.00  0.00     0.294 HD
ENDBRANCH  10  23
BRANCH   5  25
ATOM     25  O   UNL     1      12.521  10.636  56.242  1.00  0.00    -0.507 OA
ATOM     26  H   UNL     1      13.305  10.371  55.657  1.00  0.00     0.293 HD
ENDBRANCH   5  25
BRANCH   7  27
ATOM     27  O   UNL     1       7.908  11.875  56.865  1.00  0.00    -0.507 OA
ATOM     28  H   UNL     1       7.690  12.791  57.229  1.00  0.00     0.293 HD
ENDBRANCH   7  27
TORSDOF 7
ENDMDL
