MODEL 1
REMARK VINA RESULT:    -4.118      0.000      0.000
REMARK INTER + INTRA:          -8.687
REMARK INTER:                  -7.488
REMARK INTRA:                  -1.199
REMARK UNBOUND:                -1.199
REMARK SMILES CCCCCCCCCCCCCCCC(=O)[O-]
REMARK SMILES IDX 9 1 10 2 11 3 12 4 13 5 14 6 15 7 16 8 17 9 18 10 8 11 7 12
REMARK SMILES IDX 6 13 5 14 4 15 3 16 2 17 1 18
REMARK H PARENT
REMARK Flexibility Score: inf
ROOT
ATOM      1  C   UNL     1     153.665 132.891 164.456  1.00  0.00     0.000 C 
ENDROOT
BRANCH   1   2
ATOM      2  C   UNL     1     152.886 131.875 163.607  1.00  0.00     0.000 C 
BRANCH   2   3
ATOM      3  C   UNL     1     151.379 131.875 163.913  1.00  0.00     0.000 C 
BRANCH   3   4
ATOM      4  C   UNL     1     150.892 133.219 164.482  1.00  0.00     0.000 C 
BRANCH   4   5
ATOM      5  C   UNL     1     149.370 133.397 164.356  1.00  0.00     0.000 C 
BRANCH   5   6
ATOM      6  C   UNL     1     148.839 132.987 162.971  1.00  0.00     0.006 C 
BRANCH   6   7
ATOM      7  C   UNL     1     147.507 132.230 163.066  1.00  0.00     0.053 C 
BRANCH   7   8
ATOM      8  C   UNL     1     146.477 132.796 162.135  1.00  0.00     0.041 C 
ATOM      9  O   UNL     1     145.543 133.511 162.583  1.00  0.00    -0.550 OA
ATOM     10  O   UNL     1     146.533 132.506 160.777  1.00  0.00    -0.550 OA
ENDBRANCH   7   8
ENDBRANCH   6   7
ENDBRANCH   5   6
ENDBRANCH   4   5
ENDBRANCH   3   4
ENDBRANCH   2   3
ENDBRANCH   1   2
BRANCH   1  11
ATOM     11  C   UNL     1     154.481 132.186 165.547  1.00  0.00     0.000 C 
BRANCH  11  12
ATOM     12  C   UNL     1     153.748 132.230 166.896  1.00  0.00    -0.000 C 
BRANCH  12  13
ATOM     13  C   UNL     1     154.252 133.362 167.807  1.00  0.00    -0.000 C 
BRANCH  13  14
ATOM     14  C   UNL     1     154.717 132.854 169.180  1.00  0.00    -0.000 C 
BRANCH  14  15
ATOM     15  C   UNL     1     156.202 133.173 169.407  1.00  0.00    -0.000 C 
BRANCH  15  16
ATOM     16  C   UNL     1     156.757 134.175 168.383  1.00  0.00    -0.000 C 
BRANCH  16  17
ATOM     17  C   UNL     1     157.803 133.549 167.448  1.00  0.00    -0.003 C 
ATOM     18  C   UNL     1     157.963 132.057 167.725  1.00  0.00     0.004 C 
ENDBRANCH  16  17
ENDBRANCH  15  16
ENDBRANCH  14  15
ENDBRANCH  13  14
ENDBRANCH  12  13
ENDBRANCH  11  12
ENDBRANCH   1  11
TORSDOF 14
ENDMDL
MODEL 2
REMARK VINA RESULT:    -4.055      1.297      2.253
REMARK INTER + INTRA:          -8.573
REMARK INTER:                  -7.425
REMARK INTRA:                  -1.147
REMARK UNBOUND:                -1.199
REMARK SMILES CCCCCCCCCCCCCCCC(=O)[O-]
REMARK SMILES IDX 9 1 10 2 11 3 12 4 13 5 14 6 15 7 16 8 17 9 18 10 8 11 7 12
REMARK SMILES IDX 6 13 5 14 4 15 3 16 2 17 1 18
REMARK H PARENT
REMARK Flexibility Score: inf
ROOT
ATOM      1  C   UNL     1     153.700 133.000 166.033  1.00  0.00     0.000 C 
ENDROOT
BRANCH   1   2
ATOM      2  C   UNL     1     153.929 132.953 164.514  1.00  0.00     0.000 C 
BRANCH   2   3
ATOM      3  C   UNL     1     152.891 132.088 163.782  1.00  0.00     0.000 C 
BRANCH   3   4
ATOM      4  C   UNL     1     151.520 132.092 164.482  1.00  0.00     0.000 C 
BRANCH   4   5
ATOM      5  C   UNL     1     150.466 132.903 163.710  1.00  0.00     0.000 C 
BRANCH   5   6
ATOM      6  C   UNL     1     149.163 132.115 163.482  1.00  0.00     0.006 C 
BRANCH   6   7
ATOM      7  C   UNL     1     147.935 132.864 164.018  1.00  0.00     0.053 C 
BRANCH   7   8
ATOM      8  C   UNL     1     146.922 133.114 162.943  1.00  0.00     0.041 C 
ATOM      9  O   UNL     1     147.151 133.963 162.041  1.00  0.00    -0.550 OA
ATOM     10  O   UNL     1     145.711 132.432 162.955  1.00  0.00    -0.550 OA
ENDBRANCH   7   8
ENDBRANCH   6   7
ENDBRANCH   5   6
ENDBRANCH   4   5
ENDBRANCH   3   4
ENDBRANCH   2   3
ENDBRANCH   1   2
BRANCH   1  11
ATOM     11  C   UNL     1     154.732 132.137 166.770  1.00  0.00     0.000 C 
BRANCH  11  12
ATOM     12  C   UNL     1     156.094 132.183 166.060  1.00  0.00    -0.000 C 
BRANCH  12  13
ATOM     13  C   UNL     1     157.272 131.966 167.024  1.00  0.00    -0.000 C 
BRANCH  13  14
ATOM     14  C   UNL     1     157.849 133.284 167.561  1.00  0.00    -0.000 C 
BRANCH  14  15
ATOM     15  C   UNL     1     157.118 133.721 168.840  1.00  0.00    -0.000 C 
BRANCH  15  16
ATOM     16  C   UNL     1     156.662 135.187 168.791  1.00  0.00    -0.000 C 
BRANCH  16  17
ATOM     17  C   UNL     1     156.030 135.566 167.443  1.00  0.00    -0.003 C 
ATOM     18  C   UNL     1     156.581 136.894 166.932  1.00  0.00     0.004 C 
ENDBRANCH  16  17
ENDBRANCH  15  16
ENDBRANCH  14  15
ENDBRANCH  13  14
ENDBRANCH  12  13
ENDBRANCH  11  12
ENDBRANCH   1  11
TORSDOF 14
ENDMDL
MODEL 3
REMARK VINA RESULT:    -4.049      1.806      3.232
REMARK INTER + INTRA:          -8.562
REMARK INTER:                  -6.668
REMARK INTRA:                  -1.894
REMARK UNBOUND:                -1.199
REMARK SMILES CCCCCCCCCCCCCCCC(=O)[O-]
REMARK SMILES IDX 9 1 10 2 11 3 12 4 13 5 14 6 15 7 16 8 17 9 18 10 8 11 7 12
REMARK SMILES IDX 6 13 5 14 4 15 3 16 2 17 1 18
REMARK H PARENT
REMARK Flexibility Score: inf
ROOT
ATOM      1  C   UNL     1     154.039 132.533 167.212  1.00  0.00     0.000 C 
ENDROOT
BRANCH   1   2
ATOM      2  C   UNL     1     154.623 132.100 165.859  1.00  0.00     0.000 C 
BRANCH   2   3
ATOM      3  C   UNL     1     154.094 132.940 164.686  1.00  0.00     0.000 C 
BRANCH   3   4
ATOM      4  C   UNL     1     152.636 133.387 164.890  1.00  0.00     0.000 C 
BRANCH   4   5
ATOM      5  C   UNL     1     151.648 132.601 164.012  1.00  0.00     0.000 C 
BRANCH   5   6
ATOM      6  C   UNL     1     150.204 132.669 164.539  1.00  0.00     0.006 C 
BRANCH   6   7
ATOM      7  C   UNL     1     149.181 132.250 163.475  1.00  0.00     0.053 C 
BRANCH   7   8
ATOM      8  C   UNL     1     148.530 133.436 162.830  1.00  0.00     0.041 C 
ATOM      9  O   UNL     1     148.391 134.510 163.472  1.00  0.00    -0.550 OA
ATOM     10  O   UNL     1     148.047 133.344 161.530  1.00  0.00    -0.550 OA
ENDBRANCH   7   8
ENDBRANCH   6   7
ENDBRANCH   5   6
ENDBRANCH   4   5
ENDBRANCH   3   4
ENDBRANCH   2   3
ENDBRANCH   1   2
BRANCH   1  11
ATOM     11  C   UNL     1     155.142 132.665 168.270  1.00  0.00     0.000 C 
BRANCH  11  12
ATOM     12  C   UNL     1     156.533 132.557 167.629  1.00  0.00    -0.000 C 
BRANCH  12  13
ATOM     13  C   UNL     1     157.424 133.771 167.939  1.00  0.00    -0.000 C 
BRANCH  13  14
ATOM     14  C   UNL     1     156.616 135.002 168.377  1.00  0.00    -0.000 C 
BRANCH  14  15
ATOM     15  C   UNL     1     156.557 136.047 167.253  1.00  0.00    -0.000 C 
BRANCH  15  16
ATOM     16  C   UNL     1     155.209 136.049 166.515  1.00  0.00    -0.000 C 
BRANCH  16  17
ATOM     17  C   UNL     1     154.012 136.174 167.468  1.00  0.00    -0.003 C 
ATOM     18  C   UNL     1     152.745 136.563 166.712  1.00  0.00     0.004 C 
ENDBRANCH  16  17
ENDBRANCH  15  16
ENDBRANCH  14  15
ENDBRANCH  13  14
ENDBRANCH  12  13
ENDBRANCH  11  12
ENDBRANCH   1  11
TORSDOF 14
ENDMDL
MODEL 4
REMARK VINA RESULT:    -3.967      4.182      8.855
REMARK INTER + INTRA:          -8.412
REMARK INTER:                  -7.422
REMARK INTRA:                  -0.990
REMARK UNBOUND:                -1.199
REMARK SMILES CCCCCCCCCCCCCCCC(=O)[O-]
REMARK SMILES IDX 9 1 10 2 11 3 12 4 13 5 14 6 15 7 16 8 17 9 18 10 8 11 7 12
REMARK SMILES IDX 6 13 5 14 4 15 3 16 2 17 1 18
REMARK H PARENT
REMARK Flexibility Score: inf
ROOT
ATOM      1  C   UNL     1     153.527 132.942 164.677  1.00  0.00     0.000 C 
ENDROOT
BRANCH   1   2
ATOM      2  C   UNL     1     154.623 132.315 165.552  1.00  0.00     0.000 C 
BRANCH   2   3
ATOM      3  C   UNL     1     154.209 132.195 167.028  1.00  0.00     0.000 C 
BRANCH   3   4
ATOM      4  C   UNL     1     155.384 132.436 167.992  1.00  0.00     0.000 C 
BRANCH   4   5
ATOM      5  C   UNL     1     156.741 132.483 167.270  1.00  0.00     0.000 C 
BRANCH   5   6
ATOM      6  C   UNL     1     157.645 133.619 167.781  1.00  0.00     0.006 C 
BRANCH   6   7
ATOM      7  C   UNL     1     156.866 134.646 168.614  1.00  0.00     0.053 C 
BRANCH   7   8
ATOM      8  C   UNL     1     156.563 135.886 167.828  1.00  0.00     0.041 C 
ATOM      9  O   UNL     1     156.939 137.011 168.250  1.00  0.00    -0.550 OA
ATOM     10  O   UNL     1     155.837 135.801 166.647  1.00  0.00    -0.550 OA
ENDBRANCH   7   8
ENDBRANCH   6   7
ENDBRANCH   5   6
ENDBRANCH   4   5
ENDBRANCH   3   4
ENDBRANCH   2   3
ENDBRANCH   1   2
BRANCH   1  11
ATOM     11  C   UNL     1     152.913 131.899 163.734  1.00  0.00     0.000 C 
BRANCH  11  12
ATOM     12  C   UNL     1     151.383 131.877 163.863  1.00  0.00    -0.000 C 
BRANCH  12  13
ATOM     13  C   UNL     1     150.856 132.921 164.861  1.00  0.00    -0.000 C 
BRANCH  13  14
ATOM     14  C   UNL     1     149.322 132.953 164.931  1.00  0.00    -0.000 C 
BRANCH  14  15
ATOM     15  C   UNL     1     148.704 132.498 163.600  1.00  0.00    -0.000 C 
BRANCH  15  16
ATOM     16  C   UNL     1     147.914 133.614 162.900  1.00  0.00    -0.000 C 
BRANCH  16  17
ATOM     17  C   UNL     1     146.610 133.108 162.264  1.00  0.00    -0.003 C 
ATOM     18  C   UNL     1     146.752 132.977 160.751  1.00  0.00     0.004 C 
ENDBRANCH  16  17
ENDBRANCH  15  16
ENDBRANCH  14  15
ENDBRANCH  13  14
ENDBRANCH  12  13
ENDBRANCH  11  12
ENDBRANCH   1  11
TORSDOF 14
ENDMDL
MODEL 5
REMARK VINA RESULT:    -3.958      4.472      8.198
REMARK INTER + INTRA:          -8.397
REMARK INTER:                  -7.240
REMARK INTRA:                  -1.156
REMARK UNBOUND:                -1.199
REMARK SMILES CCCCCCCCCCCCCCCC(=O)[O-]
REMARK SMILES IDX 9 1 10 2 11 3 12 4 13 5 14 6 15 7 16 8 17 9 18 10 8 11 7 12
REMARK SMILES IDX 6 13 5 14 4 15 3 16 2 17 1 18
REMARK H PARENT
REMARK Flexibility Score: inf
ROOT
ATOM      1  C   UNL     1     155.315 132.631 167.210  1.00  0.00     0.000 C 
ENDROOT
BRANCH   1   2
ATOM      2  C   UNL     1     156.833 132.426 167.330  1.00  0.00     0.000 C 
BRANCH   2   3
ATOM      3  C   UNL     1     157.559 133.664 167.880  1.00  0.00     0.000 C 
BRANCH   3   4
ATOM      4  C   UNL     1     156.668 134.507 168.808  1.00  0.00     0.000 C 
BRANCH   4   5
ATOM      5  C   UNL     1     156.713 136.006 168.468  1.00  0.00     0.000 C 
BRANCH   5   6
ATOM      6  C   UNL     1     156.582 136.275 166.958  1.00  0.00     0.006 C 
BRANCH   6   7
ATOM      7  C   UNL     1     155.369 137.157 166.632  1.00  0.00     0.053 C 
BRANCH   7   8
ATOM      8  C   UNL     1     155.782 138.501 166.111  1.00  0.00     0.041 C 
ATOM      9  O   UNL     1     156.813 139.066 166.561  1.00  0.00    -0.550 OA
ATOM     10  O   UNL     1     155.008 139.143 165.152  1.00  0.00    -0.550 OA
ENDBRANCH   7   8
ENDBRANCH   6   7
ENDBRANCH   5   6
ENDBRANCH   4   5
ENDBRANCH   3   4
ENDBRANCH   2   3
ENDBRANCH   1   2
BRANCH   1  11
ATOM     11  C   UNL     1     154.784 132.048 165.894  1.00  0.00     0.000 C 
BRANCH  11  12
ATOM     12  C   UNL     1     154.204 133.153 164.998  1.00  0.00    -0.000 C 
BRANCH  12  13
ATOM     13  C   UNL     1     153.167 132.620 163.996  1.00  0.00    -0.000 C 
BRANCH  13  14
ATOM     14  C   UNL     1     152.000 131.893 164.682  1.00  0.00    -0.000 C 
BRANCH  14  15
ATOM     15  C   UNL     1     151.168 132.870 165.526  1.00  0.00    -0.000 C 
BRANCH  15  16
ATOM     16  C   UNL     1     149.800 133.180 164.899  1.00  0.00    -0.000 C 
BRANCH  16  17
ATOM     17  C   UNL     1     149.567 132.423 163.582  1.00  0.00    -0.003 C 
ATOM     18  C   UNL     1     148.440 133.060 162.775  1.00  0.00     0.004 C 
ENDBRANCH  16  17
ENDBRANCH  15  16
ENDBRANCH  14  15
ENDBRANCH  13  14
ENDBRANCH  12  13
ENDBRANCH  11  12
ENDBRANCH   1  11
TORSDOF 14
ENDMDL
MODEL 6
REMARK VINA RESULT:    -3.952      2.264      3.735
REMARK INTER + INTRA:          -8.385
REMARK INTER:                  -7.072
REMARK INTRA:                  -1.313
REMARK UNBOUND:                -1.199
REMARK SMILES CCCCCCCCCCCCCCCC(=O)[O-]
REMARK SMILES IDX 9 1 10 2 11 3 12 4 13 5 14 6 15 7 16 8 17 9 18 10 8 11 7 12
REMARK SMILES IDX 6 13 5 14 4 15 3 16 2 17 1 18
REMARK H PARENT
REMARK Flexibility Score: inf
ROOT
ATOM      1  C   UNL     1     155.750 132.172 167.046  1.00  0.00     0.000 C 
ENDROOT
BRANCH   1   2
ATOM      2  C   UNL     1     155.263 132.271 165.592  1.00  0.00     0.000 C 
BRANCH   2   3
ATOM      3  C   UNL     1     154.430 133.535 165.328  1.00  0.00     0.000 C 
BRANCH   3   4
ATOM      4  C   UNL     1     152.919 133.248 165.284  1.00  0.00     0.000 C 
BRANCH   4   5
ATOM      5  C   UNL     1     152.594 131.885 164.652  1.00  0.00     0.000 C 
BRANCH   5   6
ATOM      6  C   UNL     1     151.235 131.875 163.930  1.00  0.00     0.006 C 
BRANCH   6   7
ATOM      7  C   UNL     1     150.558 133.252 163.956  1.00  0.00     0.053 C 
BRANCH   7   8
ATOM      8  C   UNL     1     149.080 133.151 163.731  1.00  0.00     0.041 C 
ATOM      9  O   UNL     1     148.571 132.068 163.339  1.00  0.00    -0.550 OA
ATOM     10  O   UNL     1     148.269 134.263 163.922  1.00  0.00    -0.550 OA
ENDBRANCH   7   8
ENDBRANCH   6   7
ENDBRANCH   5   6
ENDBRANCH   4   5
ENDBRANCH   3   4
ENDBRANCH   2   3
ENDBRANCH   1   2
BRANCH   1  11
ATOM     11  C   UNL     1     157.280 132.239 167.118  1.00  0.00     0.000 C 
BRANCH  11  12
ATOM     12  C   UNL     1     157.744 133.580 167.708  1.00  0.00    -0.000 C 
BRANCH  12  13
ATOM     13  C   UNL     1     156.898 134.021 168.913  1.00  0.00    -0.000 C 
BRANCH  13  14
ATOM     14  C   UNL     1     156.225 135.385 168.696  1.00  0.00    -0.000 C 
BRANCH  14  15
ATOM     15  C   UNL     1     156.696 136.025 167.381  1.00  0.00    -0.000 C 
BRANCH  15  16
ATOM     16  C   UNL     1     155.590 136.834 166.685  1.00  0.00    -0.000 C 
BRANCH  16  17
ATOM     17  C   UNL     1     155.841 138.348 166.740  1.00  0.00    -0.003 C 
ATOM     18  C   UNL     1     157.293 138.652 167.093  1.00  0.00     0.004 C 
ENDBRANCH  16  17
ENDBRANCH  15  16
ENDBRANCH  14  15
ENDBRANCH  13  14
ENDBRANCH  12  13
ENDBRANCH  11  12
ENDBRANCH   1  11
TORSDOF 14
ENDMDL
MODEL 7
REMARK VINA RESULT:    -3.913      1.156      2.373
REMARK INTER + INTRA:          -8.314
REMARK INTER:                  -7.307
REMARK INTRA:                  -1.007
REMARK UNBOUND:                -1.199
REMARK SMILES CCCCCCCCCCCCCCCC(=O)[O-]
REMARK SMILES IDX 9 1 10 2 11 3 12 4 13 5 14 6 15 7 16 8 17 9 18 10 8 11 7 12
REMARK SMILES IDX 6 13 5 14 4 15 3 16 2 17 1 18
REMARK H PARENT
REMARK Flexibility Score: inf
ROOT
ATOM      1  C   UNL     1     150.885 132.417 163.601  1.00  0.00     0.000 C 
ENDROOT
BRANCH   1   2
ATOM      2  C   UNL     1     150.626 132.626 165.101  1.00  0.00     0.000 C 
BRANCH   2   3
ATOM      3  C   UNL     1     149.528 133.666 165.376  1.00  0.00     0.000 C 
BRANCH   3   4
ATOM      4  C   UNL     1     148.732 134.032 164.111  1.00  0.00     0.000 C 
BRANCH   4   5
ATOM      5  C   UNL     1     147.271 133.556 164.174  1.00  0.00     0.000 C 
BRANCH   5   6
ATOM      6  C   UNL     1     146.950 132.486 163.116  1.00  0.00     0.006 C 
BRANCH   6   7
ATOM      7  C   UNL     1     147.146 133.011 161.687  1.00  0.00     0.053 C 
BRANCH   7   8
ATOM      8  C   UNL     1     145.841 133.166 160.967  1.00  0.00     0.041 C 
ATOM      9  O   UNL     1     145.823 133.461 159.743  1.00  0.00    -0.550 OA
ATOM     10  O   UNL     1     144.644 133.017 161.656  1.00  0.00    -0.550 OA
ENDBRANCH   7   8
ENDBRANCH   6   7
ENDBRANCH   5   6
ENDBRANCH   4   5
ENDBRANCH   3   4
ENDBRANCH   2   3
ENDBRANCH   1   2
BRANCH   1  11
ATOM     11  C   UNL     1     152.341 132.008 163.347  1.00  0.00     0.000 C 
BRANCH  11  12
ATOM     12  C   UNL     1     153.113 131.875 164.668  1.00  0.00    -0.000 C 
BRANCH  12  13
ATOM     13  C   UNL     1     154.349 132.788 164.727  1.00  0.00    -0.000 C 
BRANCH  13  14
ATOM     14  C   UNL     1     154.401 133.632 166.010  1.00  0.00    -0.000 C 
BRANCH  14  15
ATOM     15  C   UNL     1     155.293 132.966 167.067  1.00  0.00    -0.000 C 
BRANCH  15  16
ATOM     16  C   UNL     1     155.722 133.937 168.179  1.00  0.00    -0.000 C 
BRANCH  16  17
ATOM     17  C   UNL     1     157.247 134.088 168.277  1.00  0.00    -0.003 C 
ATOM     18  C   UNL     1     157.953 132.785 167.913  1.00  0.00     0.004 C 
ENDBRANCH  16  17
ENDBRANCH  15  16
ENDBRANCH  14  15
ENDBRANCH  13  14
ENDBRANCH  12  13
ENDBRANCH  11  12
ENDBRANCH   1  11
TORSDOF 14
ENDMDL
MODEL 8
REMARK VINA RESULT:    -3.880      4.890      8.573
REMARK INTER + INTRA:          -8.254
REMARK INTER:                  -6.920
REMARK INTRA:                  -1.333
REMARK UNBOUND:                -1.199
REMARK SMILES CCCCCCCCCCCCCCCC(=O)[O-]
REMARK SMILES IDX 9 1 10 2 11 3 12 4 13 5 14 6 15 7 16 8 17 9 18 10 8 11 7 12
REMARK SMILES IDX 6 13 5 14 4 15 3 16 2 17 1 18
REMARK H PARENT
REMARK Flexibility Score: inf
ROOT
ATOM      1  C   UNL     1     155.221 132.645 168.109  1.00  0.00     0.000 C 
ENDROOT
BRANCH   1   2
ATOM      2  C   UNL     1     156.638 132.640 167.515  1.00  0.00     0.000 C 
BRANCH   2   3
ATOM      3  C   UNL     1     157.425 133.919 167.844  1.00  0.00     0.000 C 
BRANCH   3   4
ATOM      4  C   UNL     1     156.558 135.186 167.755  1.00  0.00     0.000 C 
BRANCH   4   5
ATOM      5  C   UNL     1     156.521 135.971 169.076  1.00  0.00     0.000 C 
BRANCH   5   6
ATOM      6  C   UNL     1     156.197 137.461 168.871  1.00  0.00     0.006 C 
BRANCH   6   7
ATOM      7  C   UNL     1     157.381 138.233 168.274  1.00  0.00     0.053 C 
BRANCH   7   8
ATOM      8  C   UNL     1     156.971 139.055 167.090  1.00  0.00     0.041 C 
ATOM      9  O   UNL     1     156.162 138.590 166.245  1.00  0.00    -0.550 OA
ATOM     10  O   UNL     1     157.508 140.324 166.904  1.00  0.00    -0.550 OA
ENDBRANCH   7   8
ENDBRANCH   6   7
ENDBRANCH   5   6
ENDBRANCH   4   5
ENDBRANCH   3   4
ENDBRANCH   2   3
ENDBRANCH   1   2
BRANCH   1  11
ATOM     11  C   UNL     1     154.172 132.349 167.030  1.00  0.00     0.000 C 
BRANCH  11  12
ATOM     12  C   UNL     1     154.779 132.475 165.625  1.00  0.00    -0.000 C 
BRANCH  12  13
ATOM     13  C   UNL     1     153.771 133.003 164.590  1.00  0.00    -0.000 C 
BRANCH  13  14
ATOM     14  C   UNL     1     153.039 131.875 163.847  1.00  0.00    -0.000 C 
BRANCH  14  15
ATOM     15  C   UNL     1     151.618 132.308 163.457  1.00  0.00    -0.000 C 
BRANCH  15  16
ATOM     16  C   UNL     1     151.103 133.483 164.304  1.00  0.00    -0.000 C 
BRANCH  16  17
ATOM     17  C   UNL     1     149.932 133.086 165.216  1.00  0.00    -0.003 C 
ATOM     18  C   UNL     1     150.428 132.684 166.602  1.00  0.00     0.004 C 
ENDBRANCH  16  17
ENDBRANCH  15  16
ENDBRANCH  14  15
ENDBRANCH  13  14
ENDBRANCH  12  13
ENDBRANCH  11  12
ENDBRANCH   1  11
TORSDOF 14
ENDMDL
MODEL 9
REMARK VINA RESULT:    -3.879      4.244      6.356
REMARK INTER + INTRA:          -8.253
REMARK INTER:                  -6.423
REMARK INTRA:                  -1.830
REMARK UNBOUND:                -1.199
REMARK SMILES CCCCCCCCCCCCCCCC(=O)[O-]
REMARK SMILES IDX 9 1 10 2 11 3 12 4 13 5 14 6 15 7 16 8 17 9 18 10 8 11 7 12
REMARK SMILES IDX 6 13 5 14 4 15 3 16 2 17 1 18
REMARK H PARENT
REMARK Flexibility Score: inf
ROOT
ATOM      1  C   UNL     1     154.190 136.289 167.727  1.00  0.00     0.000 C 
ENDROOT
BRANCH   1   2
ATOM      2  C   UNL     1     153.639 134.881 168.001  1.00  0.00     0.000 C 
BRANCH   2   3
ATOM      3  C   UNL     1     154.572 134.040 168.887  1.00  0.00     0.000 C 
BRANCH   3   4
ATOM      4  C   UNL     1     154.853 132.648 168.294  1.00  0.00     0.000 C 
BRANCH   4   5
ATOM      5  C   UNL     1     155.687 132.712 167.004  1.00  0.00     0.000 C 
BRANCH   5   6
ATOM      6  C   UNL     1     154.983 132.045 165.810  1.00  0.00     0.006 C 
BRANCH   6   7
ATOM      7  C   UNL     1     154.325 133.074 164.879  1.00  0.00     0.053 C 
BRANCH   7   8
ATOM      8  C   UNL     1     152.897 132.728 164.587  1.00  0.00     0.041 C 
ATOM      9  O   UNL     1     152.034 132.768 165.503  1.00  0.00    -0.550 OA
ATOM     10  O   UNL     1     152.525 132.329 163.309  1.00  0.00    -0.550 OA
ENDBRANCH   7   8
ENDBRANCH   6   7
ENDBRANCH   5   6
ENDBRANCH   4   5
ENDBRANCH   3   4
ENDBRANCH   2   3
ENDBRANCH   1   2
BRANCH   1  11
ATOM     11  C   UNL     1     155.163 136.277 166.541  1.00  0.00     0.000 C 
BRANCH  11  12
ATOM     12  C   UNL     1     156.595 136.586 167.003  1.00  0.00    -0.000 C 
BRANCH  12  13
ATOM     13  C   UNL     1     156.644 137.197 168.413  1.00  0.00    -0.000 C 
BRANCH  13  14
ATOM     14  C   UNL     1     157.456 138.500 168.466  1.00  0.00    -0.000 C 
BRANCH  14  15
ATOM     15  C   UNL     1     157.816 138.979 167.052  1.00  0.00    -0.000 C 
BRANCH  15  16
ATOM     16  C   UNL     1     157.742 140.507 166.906  1.00  0.00    -0.000 C 
BRANCH  16  17
ATOM     17  C   UNL     1     157.006 140.946 165.631  1.00  0.00    -0.003 C 
ATOM     18  C   UNL     1     156.149 139.813 165.074  1.00  0.00     0.004 C 
ENDBRANCH  16  17
ENDBRANCH  15  16
ENDBRANCH  14  15
ENDBRANCH  13  14
ENDBRANCH  12  13
ENDBRANCH  11  12
ENDBRANCH   1  11
TORSDOF 14
ENDMDL
