MODEL 1
REMARK VINA RESULT:    -4.825      0.000      0.000
REMARK INTER + INTRA:         -16.310
REMARK INTER:                 -12.158
REMARK INTRA:                  -4.151
REMARK UNBOUND:                -4.151
REMARK SMILES CCCCCCCCCCCCCCCCCCCCCCCCCCCC(=O)[O-]
REMARK SMILES IDX 15 1 16 2 17 3 18 4 19 5 20 6 21 7 22 8 23 9 24 10 25 11
REMARK SMILES IDX 26 12 27 13 28 14 29 15 30 16 14 17 13 18 12 19 11 20 10 21
REMARK SMILES IDX 9 22 8 23 7 24 6 25 5 26 4 27 3 28 2 29 1 30
REMARK H PARENT
REMARK Flexibility Score: inf
ROOT
ATOM      1  C   UNL     1      18.380  72.029  20.149  1.00  0.00     0.000 C 
ENDROOT
BRANCH   1   2
ATOM      2  C   UNL     1      18.803  71.691  18.713  1.00  0.00     0.000 C 
BRANCH   2   3
ATOM      3  C   UNL     1      18.773  70.176  18.472  1.00  0.00     0.000 C 
BRANCH   3   4
ATOM      4  C   UNL     1      17.749  69.813  17.388  1.00  0.00     0.000 C 
BRANCH   4   5
ATOM      5  C   UNL     1      17.229  71.035  16.609  1.00  0.00     0.000 C 
BRANCH   5   6
ATOM      6  C   UNL     1      15.714  71.292  16.723  1.00  0.00     0.000 C 
BRANCH   6   7
ATOM      7  C   UNL     1      15.314  72.748  17.029  1.00  0.00     0.000 C 
BRANCH   7   8
ATOM      8  C   UNL     1      16.421  73.782  16.730  1.00  0.00     0.000 C 
BRANCH   8   9
ATOM      9  C   UNL     1      16.168  75.138  17.412  1.00  0.00     0.000 C 
BRANCH   9  10
ATOM     10  C   UNL     1      17.398  76.057  17.378  1.00  0.00     0.000 C 
BRANCH  10  11
ATOM     11  C   UNL     1      18.400  75.751  18.502  1.00  0.00     0.000 C 
BRANCH  11  12
ATOM     12  C   UNL     1      18.880  77.045  19.176  1.00  0.00     0.006 C 
BRANCH  12  13
ATOM     13  C   UNL     1      19.999  77.735  18.382  1.00  0.00     0.053 C 
BRANCH  13  14
ATOM     14  C   UNL     1      21.221  76.875  18.279  1.00  0.00     0.041 C 
ATOM     15  O   UNL     1      22.021  76.791  19.249  1.00  0.00    -0.550 OA
ATOM     16  O   UNL     1      21.460  76.138  17.126  1.00  0.00    -0.550 OA
ENDBRANCH  13  14
ENDBRANCH  12  13
ENDBRANCH  11  12
ENDBRANCH  10  11
ENDBRANCH   9  10
ENDBRANCH   8   9
ENDBRANCH   7   8
ENDBRANCH   6   7
ENDBRANCH   5   6
ENDBRANCH   4   5
ENDBRANCH   3   4
ENDBRANCH   2   3
ENDBRANCH   1   2
BRANCH   1  17
ATOM     17  C   UNL     1      16.899  72.434  20.252  1.00  0.00     0.000 C 
BRANCH  17  18
ATOM     18  C   UNL     1      15.916  71.266  20.483  1.00  0.00     0.000 C 
BRANCH  18  19
ATOM     19  C   UNL     1      16.469  70.097  21.315  1.00  0.00     0.000 C 
BRANCH  19  20
ATOM     20  C   UNL     1      16.338  68.708  20.660  1.00  0.00     0.000 C 
BRANCH  20  21
ATOM     21  C   UNL     1      15.324  68.655  19.496  1.00  0.00     0.000 C 
BRANCH  21  22
ATOM     22  C   UNL     1      14.529  67.338  19.465  1.00  0.00    -0.000 C 
BRANCH  22  23
ATOM     23  C   UNL     1      13.250  67.436  18.618  1.00  0.00    -0.000 C 
BRANCH  23  24
ATOM     24  C   UNL     1      13.267  68.611  17.616  1.00  0.00    -0.000 C 
BRANCH  24  25
ATOM     25  C   UNL     1      11.971  69.438  17.667  1.00  0.00    -0.000 C 
BRANCH  25  26
ATOM     26  C   UNL     1      12.116  70.809  16.989  1.00  0.00    -0.000 C 
BRANCH  26  27
ATOM     27  C   UNL     1      10.992  71.785  17.380  1.00  0.00    -0.000 C 
BRANCH  27  28
ATOM     28  C   UNL     1      11.413  73.256  17.240  1.00  0.00    -0.000 C 
BRANCH  28  29
ATOM     29  C   UNL     1      10.257  74.229  17.511  1.00  0.00    -0.003 C 
ATOM     30  C   UNL     1       9.376  73.732  18.655  1.00  0.00     0.004 C 
ENDBRANCH  28  29
ENDBRANCH  27  28
ENDBRANCH  26  27
ENDBRANCH  25  26
ENDBRANCH  24  25
ENDBRANCH  23  24
ENDBRANCH  22  23
ENDBRANCH  21  22
ENDBRANCH  20  21
ENDBRANCH  19  20
ENDBRANCH  18  19
ENDBRANCH  17  18
ENDBRANCH   1  17
TORSDOF 26
ENDMDL
MODEL 2
REMARK VINA RESULT:    -4.711      3.227      7.045
REMARK INTER + INTRA:         -16.022
REMARK INTER:                 -11.686
REMARK INTRA:                  -4.336
REMARK UNBOUND:                -4.151
REMARK SMILES CCCCCCCCCCCCCCCCCCCCCCCCCCCC(=O)[O-]
REMARK SMILES IDX 15 1 16 2 17 3 18 4 19 5 20 6 21 7 22 8 23 9 24 10 25 11
REMARK SMILES IDX 26 12 27 13 28 14 29 15 30 16 14 17 13 18 12 19 11 20 10 21
REMARK SMILES IDX 9 22 8 23 7 24 6 25 5 26 4 27 3 28 2 29 1 30
REMARK H PARENT
REMARK Flexibility Score: inf
ROOT
ATOM      1  C   UNL     1      20.048  75.986  19.782  1.00  0.00     0.000 C 
ENDROOT
BRANCH   1   2
ATOM      2  C   UNL     1      19.930  74.456  19.810  1.00  0.00     0.000 C 
BRANCH   2   3
ATOM      3  C   UNL     1      18.554  74.000  19.307  1.00  0.00     0.000 C 
BRANCH   3   4
ATOM      4  C   UNL     1      18.126  72.693  19.988  1.00  0.00     0.000 C 
BRANCH   4   5
ATOM      5  C   UNL     1      18.609  71.434  19.245  1.00  0.00     0.000 C 
BRANCH   5   6
ATOM      6  C   UNL     1      18.573  71.523  17.708  1.00  0.00     0.000 C 
BRANCH   6   7
ATOM      7  C   UNL     1      17.581  70.569  17.015  1.00  0.00     0.000 C 
BRANCH   7   8
ATOM      8  C   UNL     1      17.235  69.311  17.842  1.00  0.00     0.000 C 
BRANCH   8   9
ATOM      9  C   UNL     1      15.734  69.203  18.160  1.00  0.00     0.000 C 
BRANCH   9  10
ATOM     10  C   UNL     1      15.464  68.634  19.561  1.00  0.00     0.000 C 
BRANCH  10  11
ATOM     11  C   UNL     1      16.685  68.735  20.488  1.00  0.00     0.000 C 
BRANCH  11  12
ATOM     12  C   UNL     1      16.412  69.699  21.653  1.00  0.00     0.006 C 
BRANCH  12  13
ATOM     13  C   UNL     1      17.430  69.541  22.791  1.00  0.00     0.053 C 
BRANCH  13  14
ATOM     14  C   UNL     1      16.870  68.754  23.936  1.00  0.00     0.041 C 
ATOM     15  O   UNL     1      16.898  67.495  23.916  1.00  0.00    -0.550 OA
ATOM     16  O   UNL     1      16.348  69.412  25.043  1.00  0.00    -0.550 OA
ENDBRANCH  13  14
ENDBRANCH  12  13
ENDBRANCH  11  12
ENDBRANCH  10  11
ENDBRANCH   9  10
ENDBRANCH   8   9
ENDBRANCH   7   8
ENDBRANCH   6   7
ENDBRANCH   5   6
ENDBRANCH   4   5
ENDBRANCH   3   4
ENDBRANCH   2   3
ENDBRANCH   1   2
BRANCH   1  17
ATOM     17  C   UNL     1      21.405  76.468  19.239  1.00  0.00     0.000 C 
BRANCH  17  18
ATOM     18  C   UNL     1      21.423  76.806  17.733  1.00  0.00     0.000 C 
BRANCH  18  19
ATOM     19  C   UNL     1      20.282  77.719  17.251  1.00  0.00     0.000 C 
BRANCH  19  20
ATOM     20  C   UNL     1      19.517  77.210  16.014  1.00  0.00     0.000 C 
BRANCH  20  21
ATOM     21  C   UNL     1      19.415  75.672  15.925  1.00  0.00     0.000 C 
BRANCH  21  22
ATOM     22  C   UNL     1      17.959  75.178  15.879  1.00  0.00    -0.000 C 
BRANCH  22  23
ATOM     23  C   UNL     1      17.002  76.073  16.682  1.00  0.00    -0.000 C 
BRANCH  23  24
ATOM     24  C   UNL     1      15.756  75.325  17.205  1.00  0.00    -0.000 C 
BRANCH  24  25
ATOM     25  C   UNL     1      15.823  73.815  16.921  1.00  0.00    -0.000 C 
BRANCH  25  26
ATOM     26  C   UNL     1      14.848  73.004  17.790  1.00  0.00    -0.000 C 
BRANCH  26  27
ATOM     27  C   UNL     1      13.893  72.134  16.954  1.00  0.00    -0.000 C 
BRANCH  27  28
ATOM     28  C   UNL     1      12.689  71.631  17.766  1.00  0.00    -0.000 C 
BRANCH  28  29
ATOM     29  C   UNL     1      11.733  72.763  18.166  1.00  0.00    -0.003 C 
ATOM     30  C   UNL     1      10.967  73.290  16.955  1.00  0.00     0.004 C 
ENDBRANCH  28  29
ENDBRANCH  27  28
ENDBRANCH  26  27
ENDBRANCH  25  26
ENDBRANCH  24  25
ENDBRANCH  23  24
ENDBRANCH  22  23
ENDBRANCH  21  22
ENDBRANCH  20  21
ENDBRANCH  19  20
ENDBRANCH  18  19
ENDBRANCH  17  18
ENDBRANCH   1  17
TORSDOF 26
ENDMDL
MODEL 3
REMARK VINA RESULT:    -4.657      3.498      8.192
REMARK INTER + INTRA:         -15.886
REMARK INTER:                 -11.983
REMARK INTRA:                  -3.902
REMARK UNBOUND:                -4.151
REMARK SMILES CCCCCCCCCCCCCCCCCCCCCCCCCCCC(=O)[O-]
REMARK SMILES IDX 15 1 16 2 17 3 18 4 19 5 20 6 21 7 22 8 23 9 24 10 25 11
REMARK SMILES IDX 26 12 27 13 28 14 29 15 30 16 14 17 13 18 12 19 11 20 10 21
REMARK SMILES IDX 9 22 8 23 7 24 6 25 5 26 4 27 3 28 2 29 1 30
REMARK H PARENT
REMARK Flexibility Score: inf
ROOT
ATOM      1  C   UNL     1      17.270  76.006  18.016  1.00  0.00     0.000 C 
ENDROOT
BRANCH   1   2
ATOM      2  C   UNL     1      15.893  75.384  17.746  1.00  0.00     0.000 C 
BRANCH   2   3
ATOM      3  C   UNL     1      15.717  75.064  16.256  1.00  0.00     0.000 C 
BRANCH   3   4
ATOM      4  C   UNL     1      15.987  73.579  15.978  1.00  0.00     0.000 C 
BRANCH   4   5
ATOM      5  C   UNL     1      15.309  72.638  16.991  1.00  0.00     0.000 C 
BRANCH   5   6
ATOM      6  C   UNL     1      15.369  71.139  16.638  1.00  0.00     0.000 C 
BRANCH   6   7
ATOM      7  C   UNL     1      14.437  70.230  17.462  1.00  0.00     0.000 C 
BRANCH   7   8
ATOM      8  C   UNL     1      13.171  69.775  16.704  1.00  0.00     0.000 C 
BRANCH   8   9
ATOM      9  C   UNL     1      11.871  70.191  17.415  1.00  0.00     0.000 C 
BRANCH   9  10
ATOM     10  C   UNL     1      11.430  71.619  17.056  1.00  0.00     0.000 C 
BRANCH  10  11
ATOM     11  C   UNL     1      11.911  72.663  18.076  1.00  0.00     0.000 C 
BRANCH  11  12
ATOM     12  C   UNL     1      11.523  74.082  17.634  1.00  0.00     0.006 C 
BRANCH  12  13
ATOM     13  C   UNL     1      10.008  74.318  17.698  1.00  0.00     0.053 C 
BRANCH  13  14
ATOM     14  C   UNL     1       9.467  74.103  19.078  1.00  0.00     0.041 C 
ATOM     15  O   UNL     1       8.508  73.309  19.267  1.00  0.00    -0.550 OA
ATOM     16  O   UNL     1      10.047  74.751  20.162  1.00  0.00    -0.550 OA
ENDBRANCH  13  14
ENDBRANCH  12  13
ENDBRANCH  11  12
ENDBRANCH  10  11
ENDBRANCH   9  10
ENDBRANCH   8   9
ENDBRANCH   7   8
ENDBRANCH   6   7
ENDBRANCH   5   6
ENDBRANCH   4   5
ENDBRANCH   3   4
ENDBRANCH   2   3
ENDBRANCH   1   2
BRANCH   1  17
ATOM     17  C   UNL     1      17.884  76.658  16.764  1.00  0.00     0.000 C 
BRANCH  17  18
ATOM     18  C   UNL     1      19.212  76.034  16.286  1.00  0.00     0.000 C 
BRANCH  18  19
ATOM     19  C   UNL     1      20.467  76.890  16.534  1.00  0.00     0.000 C 
BRANCH  19  20
ATOM     20  C   UNL     1      20.510  77.607  17.897  1.00  0.00     0.000 C 
BRANCH  20  21
ATOM     21  C   UNL     1      21.158  76.776  19.026  1.00  0.00     0.000 C 
BRANCH  21  22
ATOM     22  C   UNL     1      20.118  76.160  19.978  1.00  0.00    -0.000 C 
BRANCH  22  23
ATOM     23  C   UNL     1      20.401  74.682  20.291  1.00  0.00    -0.000 C 
BRANCH  23  24
ATOM     24  C   UNL     1      19.288  73.729  19.806  1.00  0.00    -0.000 C 
BRANCH  24  25
ATOM     25  C   UNL     1      19.539  73.220  18.376  1.00  0.00    -0.000 C 
BRANCH  25  26
ATOM     26  C   UNL     1      18.708  71.974  18.035  1.00  0.00    -0.000 C 
BRANCH  26  27
ATOM     27  C   UNL     1      19.009  70.787  18.966  1.00  0.00    -0.000 C 
BRANCH  27  28
ATOM     28  C   UNL     1      18.123  69.567  18.674  1.00  0.00    -0.000 C 
BRANCH  28  29
ATOM     29  C   UNL     1      17.060  69.336  19.757  1.00  0.00    -0.003 C 
ATOM     30  C   UNL     1      17.439  70.040  21.058  1.00  0.00     0.004 C 
ENDBRANCH  28  29
ENDBRANCH  27  28
ENDBRANCH  26  27
ENDBRANCH  25  26
ENDBRANCH  24  25
ENDBRANCH  23  24
ENDBRANCH  22  23
ENDBRANCH  21  22
ENDBRANCH  20  21
ENDBRANCH  19  20
ENDBRANCH  18  19
ENDBRANCH  17  18
ENDBRANCH   1  17
TORSDOF 26
ENDMDL
MODEL 4
REMARK VINA RESULT:    -4.643      1.524      4.194
REMARK INTER + INTRA:         -15.852
REMARK INTER:                 -11.155
REMARK INTRA:                  -4.696
REMARK UNBOUND:                -4.151
REMARK SMILES CCCCCCCCCCCCCCCCCCCCCCCCCCCC(=O)[O-]
REMARK SMILES IDX 15 1 16 2 17 3 18 4 19 5 20 6 21 7 22 8 23 9 24 10 25 11
REMARK SMILES IDX 26 12 27 13 28 14 29 15 30 16 14 17 13 18 12 19 11 20 10 21
REMARK SMILES IDX 9 22 8 23 7 24 6 25 5 26 4 27 3 28 2 29 1 30
REMARK H PARENT
REMARK Flexibility Score: inf
ROOT
ATOM      1  C   UNL     1      18.375  69.719  18.444  1.00  0.00     0.000 C 
ENDROOT
BRANCH   1   2
ATOM      2  C   UNL     1      17.352  70.030  19.546  1.00  0.00     0.000 C 
BRANCH   2   3
ATOM      3  C   UNL     1      17.910  71.057  20.540  1.00  0.00     0.000 C 
BRANCH   3   4
ATOM      4  C   UNL     1      17.515  72.483  20.134  1.00  0.00     0.000 C 
BRANCH   4   5
ATOM      5  C   UNL     1      18.721  73.362  19.750  1.00  0.00     0.000 C 
BRANCH   5   6
ATOM      6  C   UNL     1      18.936  73.557  18.237  1.00  0.00     0.000 C 
BRANCH   6   7
ATOM      7  C   UNL     1      18.082  74.664  17.587  1.00  0.00     0.000 C 
BRANCH   7   8
ATOM      8  C   UNL     1      18.652  75.199  16.256  1.00  0.00     0.000 C 
BRANCH   8   9
ATOM      9  C   UNL     1      20.189  75.154  16.206  1.00  0.00     0.000 C 
BRANCH   9  10
ATOM     10  C   UNL     1      20.819  76.550  16.090  1.00  0.00     0.000 C 
BRANCH  10  11
ATOM     11  C   UNL     1      19.917  77.658  16.655  1.00  0.00     0.000 C 
BRANCH  11  12
ATOM     12  C   UNL     1      20.404  78.110  18.040  1.00  0.00     0.006 C 
BRANCH  12  13
ATOM     13  C   UNL     1      19.973  77.144  19.152  1.00  0.00     0.053 C 
BRANCH  13  14
ATOM     14  C   UNL     1      21.147  76.455  19.779  1.00  0.00     0.041 C 
ATOM     15  O   UNL     1      20.968  75.547  20.633  1.00  0.00    -0.550 OA
ATOM     16  O   UNL     1      22.439  76.791  19.394  1.00  0.00    -0.550 OA
ENDBRANCH  13  14
ENDBRANCH  12  13
ENDBRANCH  11  12
ENDBRANCH  10  11
ENDBRANCH   9  10
ENDBRANCH   8   9
ENDBRANCH   7   8
ENDBRANCH   6   7
ENDBRANCH   5   6
ENDBRANCH   4   5
ENDBRANCH   3   4
ENDBRANCH   2   3
ENDBRANCH   1   2
BRANCH   1  17
ATOM     17  C   UNL     1      17.888  70.140  17.046  1.00  0.00     0.000 C 
BRANCH  17  18
ATOM     18  C   UNL     1      16.450  70.699  16.995  1.00  0.00     0.000 C 
BRANCH  18  19
ATOM     19  C   UNL     1      16.261  71.946  16.114  1.00  0.00     0.000 C 
BRANCH  19  20
ATOM     20  C   UNL     1      14.977  72.753  16.391  1.00  0.00     0.000 C 
BRANCH  20  21
ATOM     21  C   UNL     1      14.741  73.068  17.884  1.00  0.00     0.000 C 
BRANCH  21  22
ATOM     22  C   UNL     1      13.481  72.384  18.440  1.00  0.00    -0.000 C 
BRANCH  22  23
ATOM     23  C   UNL     1      12.286  72.464  17.477  1.00  0.00    -0.000 C 
BRANCH  23  24
ATOM     24  C   UNL     1      11.814  71.085  16.968  1.00  0.00    -0.000 C 
BRANCH  24  25
ATOM     25  C   UNL     1      12.608  69.929  17.601  1.00  0.00    -0.000 C 
BRANCH  25  26
ATOM     26  C   UNL     1      13.347  69.077  16.557  1.00  0.00    -0.000 C 
BRANCH  26  27
ATOM     27  C   UNL     1      14.175  67.947  17.194  1.00  0.00    -0.000 C 
BRANCH  27  28
ATOM     28  C   UNL     1      14.324  68.109  18.714  1.00  0.00    -0.000 C 
BRANCH  28  29
ATOM     29  C   UNL     1      13.783  66.902  19.493  1.00  0.00    -0.003 C 
ATOM     30  C   UNL     1      12.329  66.615  19.122  1.00  0.00     0.004 C 
ENDBRANCH  28  29
ENDBRANCH  27  28
ENDBRANCH  26  27
ENDBRANCH  25  26
ENDBRANCH  24  25
ENDBRANCH  23  24
ENDBRANCH  22  23
ENDBRANCH  21  22
ENDBRANCH  20  21
ENDBRANCH  19  20
ENDBRANCH  18  19
ENDBRANCH  17  18
ENDBRANCH   1  17
TORSDOF 26
ENDMDL
MODEL 5
REMARK VINA RESULT:    -4.637      1.735      3.161
REMARK INTER + INTRA:         -15.837
REMARK INTER:                 -11.573
REMARK INTRA:                  -4.264
REMARK UNBOUND:                -4.151
REMARK SMILES CCCCCCCCCCCCCCCCCCCCCCCCCCCC(=O)[O-]
REMARK SMILES IDX 15 1 16 2 17 3 18 4 19 5 20 6 21 7 22 8 23 9 24 10 25 11
REMARK SMILES IDX 26 12 27 13 28 14 29 15 30 16 14 17 13 18 12 19 11 20 10 21
REMARK SMILES IDX 9 22 8 23 7 24 6 25 5 26 4 27 3 28 2 29 1 30
REMARK H PARENT
REMARK Flexibility Score: inf
ROOT
ATOM      1  C   UNL     1      16.555  71.051  21.038  1.00  0.00     0.000 C 
ENDROOT
BRANCH   1   2
ATOM      2  C   UNL     1      15.757  71.801  19.962  1.00  0.00     0.000 C 
BRANCH   2   3
ATOM      3  C   UNL     1      16.490  73.074  19.521  1.00  0.00     0.000 C 
BRANCH   3   4
ATOM      4  C   UNL     1      15.715  73.796  18.410  1.00  0.00     0.000 C 
BRANCH   4   5
ATOM      5  C   UNL     1      16.052  75.295  18.309  1.00  0.00     0.000 C 
BRANCH   5   6
ATOM      6  C   UNL     1      16.778  75.720  17.017  1.00  0.00     0.000 C 
BRANCH   6   7
ATOM      7  C   UNL     1      17.531  74.593  16.284  1.00  0.00     0.000 C 
BRANCH   7   8
ATOM      8  C   UNL     1      19.022  74.477  16.668  1.00  0.00     0.000 C 
BRANCH   8   9
ATOM      9  C   UNL     1      19.708  75.848  16.805  1.00  0.00     0.000 C 
BRANCH   9  10
ATOM     10  C   UNL     1      20.793  75.861  17.892  1.00  0.00     0.000 C 
BRANCH  10  11
ATOM     11  C   UNL     1      20.576  76.969  18.935  1.00  0.00     0.000 C 
BRANCH  11  12
ATOM     12  C   UNL     1      19.274  77.736  18.658  1.00  0.00     0.006 C 
BRANCH  12  13
ATOM     13  C   UNL     1      19.410  79.238  18.944  1.00  0.00     0.053 C 
BRANCH  13  14
ATOM     14  C   UNL     1      20.237  79.931  17.906  1.00  0.00     0.041 C 
ATOM     15  O   UNL     1      20.965  80.909  18.223  1.00  0.00    -0.550 OA
ATOM     16  O   UNL     1      20.235  79.474  16.594  1.00  0.00    -0.550 OA
ENDBRANCH  13  14
ENDBRANCH  12  13
ENDBRANCH  11  12
ENDBRANCH  10  11
ENDBRANCH   9  10
ENDBRANCH   8   9
ENDBRANCH   7   8
ENDBRANCH   6   7
ENDBRANCH   5   6
ENDBRANCH   4   5
ENDBRANCH   3   4
ENDBRANCH   2   3
ENDBRANCH   1   2
BRANCH   1  17
ATOM     17  C   UNL     1      17.817  70.372  20.477  1.00  0.00     0.000 C 
BRANCH  17  18
ATOM     18  C   UNL     1      17.565  69.367  19.334  1.00  0.00     0.000 C 
BRANCH  18  19
ATOM     19  C   UNL     1      18.374  69.617  18.049  1.00  0.00     0.000 C 
BRANCH  19  20
ATOM     20  C   UNL     1      17.886  70.798  17.189  1.00  0.00     0.000 C 
BRANCH  20  21
ATOM     21  C   UNL     1      16.515  70.562  16.517  1.00  0.00     0.000 C 
BRANCH  21  22
ATOM     22  C   UNL     1      16.402  69.168  15.879  1.00  0.00    -0.000 C 
BRANCH  22  23
ATOM     23  C   UNL     1      15.048  68.496  16.156  1.00  0.00    -0.000 C 
BRANCH  23  24
ATOM     24  C   UNL     1      14.600  68.603  17.630  1.00  0.00    -0.000 C 
BRANCH  24  25
ATOM     25  C   UNL     1      13.078  68.777  17.765  1.00  0.00    -0.000 C 
BRANCH  25  26
ATOM     26  C   UNL     1      12.558  70.031  17.044  1.00  0.00    -0.000 C 
BRANCH  26  27
ATOM     27  C   UNL     1      13.027  71.335  17.711  1.00  0.00    -0.000 C 
BRANCH  27  28
ATOM     28  C   UNL     1      12.531  72.588  16.973  1.00  0.00    -0.000 C 
BRANCH  28  29
ATOM     29  C   UNL     1      11.533  73.406  17.803  1.00  0.00    -0.003 C 
ATOM     30  C   UNL     1      12.115  73.761  19.170  1.00  0.00     0.004 C 
ENDBRANCH  28  29
ENDBRANCH  27  28
ENDBRANCH  26  27
ENDBRANCH  25  26
ENDBRANCH  24  25
ENDBRANCH  23  24
ENDBRANCH  22  23
ENDBRANCH  21  22
ENDBRANCH  20  21
ENDBRANCH  19  20
ENDBRANCH  18  19
ENDBRANCH  17  18
ENDBRANCH   1  17
TORSDOF 26
ENDMDL
MODEL 6
REMARK VINA RESULT:    -4.616      3.602      7.742
REMARK INTER + INTRA:         -15.782
REMARK INTER:                 -10.897
REMARK INTRA:                  -4.885
REMARK UNBOUND:                -4.151
REMARK SMILES CCCCCCCCCCCCCCCCCCCCCCCCCCCC(=O)[O-]
REMARK SMILES IDX 15 1 16 2 17 3 18 4 19 5 20 6 21 7 22 8 23 9 24 10 25 11
REMARK SMILES IDX 26 12 27 13 28 14 29 15 30 16 14 17 13 18 12 19 11 20 10 21
REMARK SMILES IDX 9 22 8 23 7 24 6 25 5 26 4 27 3 28 2 29 1 30
REMARK H PARENT
REMARK Flexibility Score: inf
ROOT
ATOM      1  C   UNL     1      15.187  72.968  19.624  1.00  0.00     0.000 C 
ENDROOT
BRANCH   1   2
ATOM      2  C   UNL     1      13.873  73.085  18.840  1.00  0.00     0.000 C 
BRANCH   2   3
ATOM      3  C   UNL     1      13.812  74.407  18.064  1.00  0.00     0.000 C 
BRANCH   3   4
ATOM      4  C   UNL     1      13.567  74.155  16.570  1.00  0.00     0.000 C 
BRANCH   4   5
ATOM      5  C   UNL     1      12.261  74.787  16.052  1.00  0.00     0.000 C 
BRANCH   5   6
ATOM      6  C   UNL     1      11.054  74.670  17.001  1.00  0.00     0.000 C 
BRANCH   6   7
ATOM      7  C   UNL     1      10.130  73.463  16.746  1.00  0.00     0.000 C 
BRANCH   7   8
ATOM      8  C   UNL     1      10.522  72.192  17.531  1.00  0.00     0.000 C 
BRANCH   8   9
ATOM      9  C   UNL     1      11.212  71.137  16.648  1.00  0.00     0.000 C 
BRANCH   9  10
ATOM     10  C   UNL     1      12.315  70.371  17.393  1.00  0.00     0.000 C 
BRANCH  10  11
ATOM     11  C   UNL     1      13.536  70.076  16.506  1.00  0.00     0.000 C 
BRANCH  11  12
ATOM     12  C   UNL     1      14.280  68.824  16.995  1.00  0.00     0.006 C 
BRANCH  12  13
ATOM     13  C   UNL     1      13.901  68.447  18.434  1.00  0.00     0.053 C 
BRANCH  13  14
ATOM     14  C   UNL     1      13.256  67.096  18.505  1.00  0.00     0.041 C 
ATOM     15  O   UNL     1      13.718  66.213  19.275  1.00  0.00    -0.550 OA
ATOM     16  O   UNL     1      12.123  66.824  17.748  1.00  0.00    -0.550 OA
ENDBRANCH  13  14
ENDBRANCH  12  13
ENDBRANCH  11  12
ENDBRANCH  10  11
ENDBRANCH   9  10
ENDBRANCH   8   9
ENDBRANCH   7   8
ENDBRANCH   6   7
ENDBRANCH   5   6
ENDBRANCH   4   5
ENDBRANCH   3   4
ENDBRANCH   2   3
ENDBRANCH   1   2
BRANCH   1  17
ATOM     17  C   UNL     1      15.564  71.508  19.937  1.00  0.00     0.000 C 
BRANCH  17  18
ATOM     18  C   UNL     1      16.952  71.316  20.584  1.00  0.00     0.000 C 
BRANCH  18  19
ATOM     19  C   UNL     1      17.647  69.981  20.263  1.00  0.00     0.000 C 
BRANCH  19  20
ATOM     20  C   UNL     1      17.520  69.513  18.800  1.00  0.00     0.000 C 
BRANCH  20  21
ATOM     21  C   UNL     1      18.186  70.459  17.777  1.00  0.00     0.000 C 
BRANCH  21  22
ATOM     22  C   UNL     1      17.305  70.707  16.541  1.00  0.00    -0.000 C 
BRANCH  22  23
ATOM     23  C   UNL     1      16.810  72.159  16.445  1.00  0.00    -0.000 C 
BRANCH  23  24
ATOM     24  C   UNL     1      17.697  73.161  17.214  1.00  0.00    -0.000 C 
BRANCH  24  25
ATOM     25  C   UNL     1      17.413  74.618  16.811  1.00  0.00    -0.000 C 
BRANCH  25  26
ATOM     26  C   UNL     1      17.286  75.555  18.023  1.00  0.00    -0.000 C 
BRANCH  26  27
ATOM     27  C   UNL     1      18.175  76.805  17.901  1.00  0.00    -0.000 C 
BRANCH  27  28
ATOM     28  C   UNL     1      18.954  77.104  19.191  1.00  0.00    -0.000 C 
BRANCH  28  29
ATOM     29  C   UNL     1      20.123  76.135  19.413  1.00  0.00    -0.003 C 
ATOM     30  C   UNL     1      21.421  76.699  18.840  1.00  0.00     0.004 C 
ENDBRANCH  28  29
ENDBRANCH  27  28
ENDBRANCH  26  27
ENDBRANCH  25  26
ENDBRANCH  24  25
ENDBRANCH  23  24
ENDBRANCH  22  23
ENDBRANCH  21  22
ENDBRANCH  20  21
ENDBRANCH  19  20
ENDBRANCH  18  19
ENDBRANCH  17  18
ENDBRANCH   1  17
TORSDOF 26
ENDMDL
MODEL 7
REMARK VINA RESULT:    -4.613      3.612      8.338
REMARK INTER + INTRA:         -15.776
REMARK INTER:                 -11.265
REMARK INTRA:                  -4.511
REMARK UNBOUND:                -4.151
REMARK SMILES CCCCCCCCCCCCCCCCCCCCCCCCCCCC(=O)[O-]
REMARK SMILES IDX 15 1 16 2 17 3 18 4 19 5 20 6 21 7 22 8 23 9 24 10 25 11
REMARK SMILES IDX 26 12 27 13 28 14 29 15 30 16 14 17 13 18 12 19 11 20 10 21
REMARK SMILES IDX 9 22 8 23 7 24 6 25 5 26 4 27 3 28 2 29 1 30
REMARK H PARENT
REMARK Flexibility Score: inf
ROOT
ATOM      1  C   UNL     1      18.193  72.461  20.378  1.00  0.00     0.000 C 
ENDROOT
BRANCH   1   2
ATOM      2  C   UNL     1      18.387  70.954  20.597  1.00  0.00     0.000 C 
BRANCH   2   3
ATOM      3  C   UNL     1      17.041  70.250  20.809  1.00  0.00     0.000 C 
BRANCH   3   4
ATOM      4  C   UNL     1      16.844  69.125  19.784  1.00  0.00     0.000 C 
BRANCH   4   5
ATOM      5  C   UNL     1      17.640  69.339  18.484  1.00  0.00     0.000 C 
BRANCH   5   6
ATOM      6  C   UNL     1      16.789  69.625  17.232  1.00  0.00     0.000 C 
BRANCH   6   7
ATOM      7  C   UNL     1      15.312  69.198  17.328  1.00  0.00     0.000 C 
BRANCH   7   8
ATOM      8  C   UNL     1      14.332  70.155  16.615  1.00  0.00     0.000 C 
BRANCH   8   9
ATOM      9  C   UNL     1      14.848  71.604  16.562  1.00  0.00     0.000 C 
BRANCH   9  10
ATOM     10  C   UNL     1      13.743  72.637  16.826  1.00  0.00     0.000 C 
BRANCH  10  11
ATOM     11  C   UNL     1      13.585  72.970  18.318  1.00  0.00     0.000 C 
BRANCH  11  12
ATOM     12  C   UNL     1      12.111  73.214  18.673  1.00  0.00     0.006 C 
BRANCH  12  13
ATOM     13  C   UNL     1      11.155  72.620  17.630  1.00  0.00     0.053 C 
BRANCH  13  14
ATOM     14  C   UNL     1       9.726  72.955  17.928  1.00  0.00     0.041 C 
ATOM     15  O   UNL     1       8.845  72.055  17.911  1.00  0.00    -0.550 OA
ATOM     16  O   UNL     1       9.370  74.257  18.261  1.00  0.00    -0.550 OA
ENDBRANCH  13  14
ENDBRANCH  12  13
ENDBRANCH  11  12
ENDBRANCH  10  11
ENDBRANCH   9  10
ENDBRANCH   8   9
ENDBRANCH   7   8
ENDBRANCH   6   7
ENDBRANCH   5   6
ENDBRANCH   4   5
ENDBRANCH   3   4
ENDBRANCH   2   3
ENDBRANCH   1   2
BRANCH   1  17
ATOM     17  C   UNL     1      17.107  72.773  19.332  1.00  0.00     0.000 C 
BRANCH  17  18
ATOM     18  C   UNL     1      17.025  74.252  18.897  1.00  0.00     0.000 C 
BRANCH  18  19
ATOM     19  C   UNL     1      17.092  74.494  17.379  1.00  0.00     0.000 C 
BRANCH  19  20
ATOM     20  C   UNL     1      16.149  75.592  16.850  1.00  0.00     0.000 C 
BRANCH  20  21
ATOM     21  C   UNL     1      16.825  76.592  15.887  1.00  0.00     0.000 C 
BRANCH  21  22
ATOM     22  C   UNL     1      18.350  76.659  16.079  1.00  0.00    -0.000 C 
BRANCH  22  23
ATOM     23  C   UNL     1      18.855  78.089  16.331  1.00  0.00    -0.000 C 
BRANCH  23  24
ATOM     24  C   UNL     1      19.529  78.268  17.708  1.00  0.00    -0.000 C 
BRANCH  24  25
ATOM     25  C   UNL     1      18.773  77.531  18.827  1.00  0.00    -0.000 C 
BRANCH  25  26
ATOM     26  C   UNL     1      19.686  76.614  19.656  1.00  0.00    -0.000 C 
BRANCH  26  27
ATOM     27  C   UNL     1      20.912  76.126  18.864  1.00  0.00    -0.000 C 
BRANCH  27  28
ATOM     28  C   UNL     1      20.659  74.790  18.149  1.00  0.00    -0.000 C 
BRANCH  28  29
ATOM     29  C   UNL     1      21.060  74.827  16.669  1.00  0.00    -0.003 C 
ATOM     30  C   UNL     1      22.003  75.993  16.383  1.00  0.00     0.004 C 
ENDBRANCH  28  29
ENDBRANCH  27  28
ENDBRANCH  26  27
ENDBRANCH  25  26
ENDBRANCH  24  25
ENDBRANCH  23  24
ENDBRANCH  22  23
ENDBRANCH  21  22
ENDBRANCH  20  21
ENDBRANCH  19  20
ENDBRANCH  18  19
ENDBRANCH  17  18
ENDBRANCH   1  17
TORSDOF 26
ENDMDL
MODEL 8
REMARK VINA RESULT:    -4.595      4.133      8.109
REMARK INTER + INTRA:         -15.731
REMARK INTER:                 -12.251
REMARK INTRA:                  -3.480
REMARK UNBOUND:                -4.151
REMARK SMILES CCCCCCCCCCCCCCCCCCCCCCCCCCCC(=O)[O-]
REMARK SMILES IDX 15 1 16 2 17 3 18 4 19 5 20 6 21 7 22 8 23 9 24 10 25 11
REMARK SMILES IDX 26 12 27 13 28 14 29 15 30 16 14 17 13 18 12 19 11 20 10 21
REMARK SMILES IDX 9 22 8 23 7 24 6 25 5 26 4 27 3 28 2 29 1 30
REMARK H PARENT
REMARK Flexibility Score: inf
ROOT
ATOM      1  C   UNL     1      19.504  77.149  18.888  1.00  0.00     0.000 C 
ENDROOT
BRANCH   1   2
ATOM      2  C   UNL     1      19.750  78.025  17.652  1.00  0.00     0.000 C 
BRANCH   2   3
ATOM      3  C   UNL     1      19.422  77.262  16.362  1.00  0.00     0.000 C 
BRANCH   3   4
ATOM      4  C   UNL     1      17.928  76.920  16.292  1.00  0.00     0.000 C 
BRANCH   4   5
ATOM      5  C   UNL     1      17.648  75.406  16.315  1.00  0.00     0.000 C 
BRANCH   5   6
ATOM      6  C   UNL     1      16.438  74.974  17.165  1.00  0.00     0.000 C 
BRANCH   6   7
ATOM      7  C   UNL     1      15.811  73.620  16.778  1.00  0.00     0.000 C 
BRANCH   7   8
ATOM      8  C   UNL     1      16.798  72.636  16.114  1.00  0.00     0.000 C 
BRANCH   8   9
ATOM      9  C   UNL     1      16.879  71.288  16.851  1.00  0.00     0.000 C 
BRANCH   9  10
ATOM     10  C   UNL     1      15.500  70.650  17.075  1.00  0.00     0.000 C 
BRANCH  10  11
ATOM     11  C   UNL     1      15.548  69.114  17.071  1.00  0.00     0.000 C 
BRANCH  11  12
ATOM     12  C   UNL     1      14.719  68.536  18.228  1.00  0.00     0.006 C 
BRANCH  12  13
ATOM     13  C   UNL     1      13.277  68.219  17.809  1.00  0.00     0.053 C 
BRANCH  13  14
ATOM     14  C   UNL     1      13.100  66.770  17.472  1.00  0.00     0.041 C 
ATOM     15  O   UNL     1      12.544  65.991  18.291  1.00  0.00    -0.550 OA
ATOM     16  O   UNL     1      13.515  66.286  16.237  1.00  0.00    -0.550 OA
ENDBRANCH  13  14
ENDBRANCH  12  13
ENDBRANCH  11  12
ENDBRANCH  10  11
ENDBRANCH   9  10
ENDBRANCH   8   9
ENDBRANCH   7   8
ENDBRANCH   6   7
ENDBRANCH   5   6
ENDBRANCH   4   5
ENDBRANCH   3   4
ENDBRANCH   2   3
ENDBRANCH   1   2
BRANCH   1  17
ATOM     17  C   UNL     1      20.465  75.949  18.967  1.00  0.00     0.000 C 
BRANCH  17  18
ATOM     18  C   UNL     1      20.017  74.812  19.910  1.00  0.00     0.000 C 
BRANCH  18  19
ATOM     19  C   UNL     1      19.051  73.787  19.291  1.00  0.00     0.000 C 
BRANCH  19  20
ATOM     20  C   UNL     1      18.396  72.818  20.293  1.00  0.00     0.000 C 
BRANCH  20  21
ATOM     21  C   UNL     1      16.852  72.852  20.285  1.00  0.00     0.000 C 
BRANCH  21  22
ATOM     22  C   UNL     1      16.229  71.461  20.490  1.00  0.00    -0.000 C 
BRANCH  22  23
ATOM     23  C   UNL     1      17.275  70.334  20.485  1.00  0.00    -0.000 C 
BRANCH  23  24
ATOM     24  C   UNL     1      16.797  69.050  21.196  1.00  0.00    -0.000 C 
BRANCH  24  25
ATOM     25  C   UNL     1      16.273  69.330  22.614  1.00  0.00    -0.000 C 
BRANCH  25  26
ATOM     26  C   UNL     1      17.273  68.921  23.708  1.00  0.00    -0.000 C 
BRANCH  26  27
ATOM     27  C   UNL     1      16.803  69.315  25.119  1.00  0.00    -0.000 C 
BRANCH  27  28
ATOM     28  C   UNL     1      16.967  68.175  26.136  1.00  0.00    -0.000 C 
BRANCH  28  29
ATOM     29  C   UNL     1      17.538  66.898  25.504  1.00  0.00    -0.003 C 
ATOM     30  C   UNL     1      16.675  65.684  25.842  1.00  0.00     0.004 C 
ENDBRANCH  28  29
ENDBRANCH  27  28
ENDBRANCH  26  27
ENDBRANCH  25  26
ENDBRANCH  24  25
ENDBRANCH  23  24
ENDBRANCH  22  23
ENDBRANCH  21  22
ENDBRANCH  20  21
ENDBRANCH  19  20
ENDBRANCH  18  19
ENDBRANCH  17  18
ENDBRANCH   1  17
TORSDOF 26
ENDMDL
MODEL 9
REMARK VINA RESULT:    -4.537      4.123      8.166
REMARK INTER + INTRA:         -15.584
REMARK INTER:                 -11.781
REMARK INTRA:                  -3.803
REMARK UNBOUND:                -4.151
REMARK SMILES CCCCCCCCCCCCCCCCCCCCCCCCCCCC(=O)[O-]
REMARK SMILES IDX 15 1 16 2 17 3 18 4 19 5 20 6 21 7 22 8 23 9 24 10 25 11
REMARK SMILES IDX 26 12 27 13 28 14 29 15 30 16 14 17 13 18 12 19 11 20 10 21
REMARK SMILES IDX 9 22 8 23 7 24 6 25 5 26 4 27 3 28 2 29 1 30
REMARK H PARENT
REMARK Flexibility Score: inf
ROOT
ATOM      1  C   UNL     1      17.574  72.704  20.313  1.00  0.00     0.000 C 
ENDROOT
BRANCH   1   2
ATOM      2  C   UNL     1      18.227  71.346  20.605  1.00  0.00     0.000 C 
BRANCH   2   3
ATOM      3  C   UNL     1      17.166  70.265  20.848  1.00  0.00     0.000 C 
BRANCH   3   4
ATOM      4  C   UNL     1      17.252  69.163  19.783  1.00  0.00     0.000 C 
BRANCH   4   5
ATOM      5  C   UNL     1      18.059  69.580  18.539  1.00  0.00     0.000 C 
BRANCH   5   6
ATOM      6  C   UNL     1      17.272  69.579  17.215  1.00  0.00     0.000 C 
BRANCH   6   7
ATOM      7  C   UNL     1      16.422  70.838  16.953  1.00  0.00     0.000 C 
BRANCH   7   8
ATOM      8  C   UNL     1      15.006  70.781  17.565  1.00  0.00     0.000 C 
BRANCH   8   9
ATOM      9  C   UNL     1      13.996  70.053  16.661  1.00  0.00     0.000 C 
BRANCH   9  10
ATOM     10  C   UNL     1      13.142  69.033  17.429  1.00  0.00     0.000 C 
BRANCH  10  11
ATOM     11  C   UNL     1      13.948  68.253  18.479  1.00  0.00     0.000 C 
BRANCH  11  12
ATOM     12  C   UNL     1      13.443  66.807  18.596  1.00  0.00     0.006 C 
BRANCH  12  13
ATOM     13  C   UNL     1      11.931  66.698  18.359  1.00  0.00     0.053 C 
BRANCH  13  14
ATOM     14  C   UNL     1      11.583  65.512  17.513  1.00  0.00     0.041 C 
ATOM     15  O   UNL     1      10.580  64.804  17.794  1.00  0.00    -0.550 OA
ATOM     16  O   UNL     1      12.344  65.209  16.391  1.00  0.00    -0.550 OA
ENDBRANCH  13  14
ENDBRANCH  12  13
ENDBRANCH  11  12
ENDBRANCH  10  11
ENDBRANCH   9  10
ENDBRANCH   8   9
ENDBRANCH   7   8
ENDBRANCH   6   7
ENDBRANCH   5   6
ENDBRANCH   4   5
ENDBRANCH   3   4
ENDBRANCH   2   3
ENDBRANCH   1   2
BRANCH   1  17
ATOM     17  C   UNL     1      18.050  73.319  18.985  1.00  0.00     0.000 C 
BRANCH  17  18
ATOM     18  C   UNL     1      19.530  73.757  18.961  1.00  0.00     0.000 C 
BRANCH  18  19
ATOM     19  C   UNL     1      19.986  74.598  20.167  1.00  0.00     0.000 C 
BRANCH  19  20
ATOM     20  C   UNL     1      20.406  76.042  19.834  1.00  0.00     0.000 C 
BRANCH  20  21
ATOM     21  C   UNL     1      19.274  76.905  19.236  1.00  0.00     0.000 C 
BRANCH  21  22
ATOM     22  C   UNL     1      19.776  77.865  18.144  1.00  0.00    -0.000 C 
BRANCH  22  23
ATOM     23  C   UNL     1      18.945  77.785  16.854  1.00  0.00    -0.000 C 
BRANCH  23  24
ATOM     24  C   UNL     1      18.558  76.342  16.463  1.00  0.00    -0.000 C 
BRANCH  24  25
ATOM     25  C   UNL     1      17.057  76.204  16.160  1.00  0.00    -0.000 C 
BRANCH  25  26
ATOM     26  C   UNL     1      16.260  75.644  17.349  1.00  0.00    -0.000 C 
BRANCH  26  27
ATOM     27  C   UNL     1      14.748  75.585  17.075  1.00  0.00    -0.000 C 
BRANCH  27  28
ATOM     28  C   UNL     1      14.213  74.146  17.017  1.00  0.00    -0.000 C 
BRANCH  28  29
ATOM     29  C   UNL     1      12.707  74.063  17.301  1.00  0.00    -0.003 C 
ATOM     30  C   UNL     1      12.433  73.302  18.595  1.00  0.00     0.004 C 
ENDBRANCH  28  29
ENDBRANCH  27  28
ENDBRANCH  26  27
ENDBRANCH  25  26
ENDBRANCH  24  25
ENDBRANCH  23  24
ENDBRANCH  22  23
ENDBRANCH  21  22
ENDBRANCH  20  21
ENDBRANCH  19  20
ENDBRANCH  18  19
ENDBRANCH  17  18
ENDBRANCH   1  17
TORSDOF 26
ENDMDL
