MODEL 1
REMARK VINA RESULT:    -4.578      0.000      0.000
REMARK INTER + INTRA:          -9.213
REMARK INTER:                  -8.324
REMARK INTRA:                  -0.889
REMARK UNBOUND:                -0.889
REMARK SMILES CCCCCCCCCCCCCCCC(=O)[O-]
REMARK SMILES IDX 9 1 10 2 11 3 12 4 13 5 14 6 15 7 16 8 17 9 18 10 8 11 7 12
REMARK SMILES IDX 6 13 5 14 4 15 3 16 2 17 1 18
REMARK H PARENT
REMARK Flexibility Score: inf
ROOT
ATOM      1  C   UNL     1      13.146  22.508 -22.434  1.00  0.00     0.000 C 
ENDROOT
BRANCH   1   2
ATOM      2  C   UNL     1      12.533  23.087 -21.151  1.00  0.00     0.000 C 
BRANCH   2   3
ATOM      3  C   UNL     1      11.997  21.968 -20.247  1.00  0.00     0.000 C 
BRANCH   3   4
ATOM      4  C   UNL     1      12.276  22.220 -18.754  1.00  0.00     0.000 C 
BRANCH   4   5
ATOM      5  C   UNL     1      13.452  21.417 -18.165  1.00  0.00     0.000 C 
BRANCH   5   6
ATOM      6  C   UNL     1      14.537  21.009 -19.178  1.00  0.00     0.006 C 
BRANCH   6   7
ATOM      7  C   UNL     1      15.421  19.861 -18.675  1.00  0.00     0.053 C 
BRANCH   7   8
ATOM      8  C   UNL     1      16.596  20.398 -17.921  1.00  0.00     0.041 C 
ATOM      9  O   UNL     1      17.210  19.667 -17.101  1.00  0.00    -0.550 OA
ATOM     10  O   UNL     1      16.982  21.722 -18.086  1.00  0.00    -0.550 OA
ENDBRANCH   7   8
ENDBRANCH   6   7
ENDBRANCH   5   6
ENDBRANCH   4   5
ENDBRANCH   3   4
ENDBRANCH   2   3
ENDBRANCH   1   2
BRANCH   1  11
ATOM     11  C   UNL     1      12.181  22.554 -23.633  1.00  0.00     0.000 C 
BRANCH  11  12
ATOM     12  C   UNL     1      12.679  23.379 -24.836  1.00  0.00    -0.000 C 
BRANCH  12  13
ATOM     13  C   UNL     1      13.690  22.660 -25.751  1.00  0.00    -0.000 C 
BRANCH  13  14
ATOM     14  C   UNL     1      13.148  22.269 -27.138  1.00  0.00    -0.000 C 
BRANCH  14  15
ATOM     15  C   UNL     1      11.980  21.274 -27.064  1.00  0.00    -0.000 C 
BRANCH  15  16
ATOM     16  C   UNL     1      12.293  20.000 -27.864  1.00  0.00    -0.000 C 
BRANCH  16  17
ATOM     17  C   UNL     1      12.460  18.766 -26.964  1.00  0.00    -0.003 C 
ATOM     18  C   UNL     1      12.642  19.127 -25.491  1.00  0.00     0.004 C 
ENDBRANCH  16  17
ENDBRANCH  15  16
ENDBRANCH  14  15
ENDBRANCH  13  14
ENDBRANCH  12  13
ENDBRANCH  11  12
ENDBRANCH   1  11
TORSDOF 14
ENDMDL
MODEL 2
REMARK VINA RESULT:    -4.396      3.533      8.036
REMARK INTER + INTRA:          -8.883
REMARK INTER:                  -8.147
REMARK INTRA:                  -0.736
REMARK UNBOUND:                -0.889
REMARK SMILES CCCCCCCCCCCCCCCC(=O)[O-]
REMARK SMILES IDX 9 1 10 2 11 3 12 4 13 5 14 6 15 7 16 8 17 9 18 10 8 11 7 12
REMARK SMILES IDX 6 13 5 14 4 15 3 16 2 17 1 18
REMARK H PARENT
REMARK Flexibility Score: inf
ROOT
ATOM      1  C   UNL     1      13.189  22.624 -21.987  1.00  0.00     0.000 C 
ENDROOT
BRANCH   1   2
ATOM      2  C   UNL     1      12.245  22.632 -23.199  1.00  0.00     0.000 C 
BRANCH   2   3
ATOM      3  C   UNL     1      12.847  23.440 -24.357  1.00  0.00     0.000 C 
BRANCH   3   4
ATOM      4  C   UNL     1      13.658  22.570 -25.335  1.00  0.00     0.000 C 
BRANCH   4   5
ATOM      5  C   UNL     1      13.003  22.355 -26.714  1.00  0.00     0.000 C 
BRANCH   5   6
ATOM      6  C   UNL     1      12.462  20.936 -26.966  1.00  0.00     0.006 C 
BRANCH   6   7
ATOM      7  C   UNL     1      12.658  20.002 -25.765  1.00  0.00     0.053 C 
BRANCH   7   8
ATOM      8  C   UNL     1      12.332  18.591 -26.142  1.00  0.00     0.041 C 
ATOM      9  O   UNL     1      12.202  17.712 -25.252  1.00  0.00    -0.550 OA
ATOM     10  O   UNL     1      12.221  18.238 -27.481  1.00  0.00    -0.550 OA
ENDBRANCH   7   8
ENDBRANCH   6   7
ENDBRANCH   5   6
ENDBRANCH   4   5
ENDBRANCH   3   4
ENDBRANCH   2   3
ENDBRANCH   1   2
BRANCH   1  11
ATOM     11  C   UNL     1      12.491  23.053 -20.683  1.00  0.00     0.000 C 
BRANCH  11  12
ATOM     12  C   UNL     1      12.119  21.896 -19.735  1.00  0.00    -0.000 C 
BRANCH  12  13
ATOM     13  C   UNL     1      13.150  21.598 -18.627  1.00  0.00    -0.000 C 
BRANCH  13  14
ATOM     14  C   UNL     1      14.190  20.521 -18.980  1.00  0.00    -0.000 C 
BRANCH  14  15
ATOM     15  C   UNL     1      15.581  20.822 -18.402  1.00  0.00    -0.000 C 
BRANCH  15  16
ATOM     16  C   UNL     1      16.267  19.534 -17.922  1.00  0.00    -0.000 C 
BRANCH  16  17
ATOM     17  C   UNL     1      17.506  19.813 -17.057  1.00  0.00    -0.003 C 
ATOM     18  C   UNL     1      18.210  21.116 -17.434  1.00  0.00     0.004 C 
ENDBRANCH  16  17
ENDBRANCH  15  16
ENDBRANCH  14  15
ENDBRANCH  13  14
ENDBRANCH  12  13
ENDBRANCH  11  12
ENDBRANCH   1  11
TORSDOF 14
ENDMDL
MODEL 3
REMARK VINA RESULT:    -4.352      1.638      2.647
REMARK INTER + INTRA:          -8.804
REMARK INTER:                  -7.148
REMARK INTRA:                  -1.655
REMARK UNBOUND:                -0.889
REMARK SMILES CCCCCCCCCCCCCCCC(=O)[O-]
REMARK SMILES IDX 9 1 10 2 11 3 12 4 13 5 14 6 15 7 16 8 17 9 18 10 8 11 7 12
REMARK SMILES IDX 6 13 5 14 4 15 3 16 2 17 1 18
REMARK H PARENT
REMARK Flexibility Score: inf
ROOT
ATOM      1  C   UNL     1      12.311  22.566 -22.018  1.00  0.00     0.000 C 
ENDROOT
BRANCH   1   2
ATOM      2  C   UNL     1      12.880  23.209 -20.745  1.00  0.00     0.000 C 
BRANCH   2   3
ATOM      3  C   UNL     1      12.167  22.672 -19.495  1.00  0.00     0.000 C 
BRANCH   3   4
ATOM      4  C   UNL     1      12.923  21.508 -18.829  1.00  0.00     0.000 C 
BRANCH   4   5
ATOM      5  C   UNL     1      14.450  21.512 -19.045  1.00  0.00     0.000 C 
BRANCH   5   6
ATOM      6  C   UNL     1      15.273  20.891 -17.901  1.00  0.00     0.006 C 
BRANCH   6   7
ATOM      7  C   UNL     1      16.771  20.817 -18.218  1.00  0.00     0.053 C 
BRANCH   7   8
ATOM      8  C   UNL     1      17.496  20.070 -17.144  1.00  0.00     0.041 C 
ATOM      9  O   UNL     1      16.904  19.178 -16.482  1.00  0.00    -0.550 OA
ATOM     10  O   UNL     1      18.812  20.394 -16.839  1.00  0.00    -0.550 OA
ENDBRANCH   7   8
ENDBRANCH   6   7
ENDBRANCH   5   6
ENDBRANCH   4   5
ENDBRANCH   3   4
ENDBRANCH   2   3
ENDBRANCH   1   2
BRANCH   1  11
ATOM     11  C   UNL     1      12.667  23.350 -23.294  1.00  0.00     0.000 C 
BRANCH  11  12
ATOM     12  C   UNL     1      12.373  22.610 -24.614  1.00  0.00    -0.000 C 
BRANCH  12  13
ATOM     13  C   UNL     1      11.876  21.159 -24.456  1.00  0.00    -0.000 C 
BRANCH  13  14
ATOM     14  C   UNL     1      12.837  20.081 -24.989  1.00  0.00    -0.000 C 
BRANCH  14  15
ATOM     15  C   UNL     1      12.910  18.845 -24.080  1.00  0.00    -0.000 C 
BRANCH  15  16
ATOM     16  C   UNL     1      12.046  19.035 -22.824  1.00  0.00    -0.000 C 
BRANCH  16  17
ATOM     17  C   UNL     1      12.858  18.908 -21.526  1.00  0.00    -0.003 C 
ATOM     18  C   UNL     1      14.367  18.940 -21.765  1.00  0.00     0.004 C 
ENDBRANCH  16  17
ENDBRANCH  15  16
ENDBRANCH  14  15
ENDBRANCH  13  14
ENDBRANCH  12  13
ENDBRANCH  11  12
ENDBRANCH   1  11
TORSDOF 14
ENDMDL
MODEL 4
REMARK VINA RESULT:    -4.337      2.298      4.731
REMARK INTER + INTRA:          -8.776
REMARK INTER:                  -7.956
REMARK INTRA:                  -0.820
REMARK UNBOUND:                -0.889
REMARK SMILES CCCCCCCCCCCCCCCC(=O)[O-]
REMARK SMILES IDX 9 1 10 2 11 3 12 4 13 5 14 6 15 7 16 8 17 9 18 10 8 11 7 12
REMARK SMILES IDX 6 13 5 14 4 15 3 16 2 17 1 18
REMARK H PARENT
REMARK Flexibility Score: inf
ROOT
ATOM      1  C   UNL     1      14.475  21.546 -19.127  1.00  0.00     0.000 C 
ENDROOT
BRANCH   1   2
ATOM      2  C   UNL     1      15.087  20.199 -18.719  1.00  0.00     0.000 C 
BRANCH   2   3
ATOM      3  C   UNL     1      16.031  20.367 -17.520  1.00  0.00     0.000 C 
BRANCH   3   4
ATOM      4  C   UNL     1      17.284  21.196 -17.857  1.00  0.00     0.000 C 
BRANCH   4   5
ATOM      5  C   UNL     1      18.551  20.816 -17.065  1.00  0.00     0.000 C 
BRANCH   5   6
ATOM      6  C   UNL     1      18.623  19.345 -16.615  1.00  0.00     0.006 C 
BRANCH   6   7
ATOM      7  C   UNL     1      19.741  19.088 -15.597  1.00  0.00     0.053 C 
BRANCH   7   8
ATOM      8  C   UNL     1      19.358  19.625 -14.255  1.00  0.00     0.041 C 
ATOM      9  O   UNL     1      18.496  19.031 -13.557  1.00  0.00    -0.550 OA
ATOM     10  O   UNL     1      19.918  20.810 -13.796  1.00  0.00    -0.550 OA
ENDBRANCH   7   8
ENDBRANCH   6   7
ENDBRANCH   5   6
ENDBRANCH   4   5
ENDBRANCH   3   4
ENDBRANCH   2   3
ENDBRANCH   1   2
BRANCH   1  11
ATOM     11  C   UNL     1      13.038  21.732 -18.606  1.00  0.00     0.000 C 
BRANCH  11  12
ATOM     12  C   UNL     1      12.148  22.649 -19.468  1.00  0.00    -0.000 C 
BRANCH  12  13
ATOM     13  C   UNL     1      12.792  23.145 -20.779  1.00  0.00    -0.000 C 
BRANCH  13  14
ATOM     14  C   UNL     1      12.303  22.432 -22.053  1.00  0.00    -0.000 C 
BRANCH  14  15
ATOM     15  C   UNL     1      13.455  21.985 -22.966  1.00  0.00    -0.000 C 
BRANCH  15  16
ATOM     16  C   UNL     1      12.981  20.920 -23.966  1.00  0.00    -0.000 C 
BRANCH  16  17
ATOM     17  C   UNL     1      13.121  21.378 -25.426  1.00  0.00    -0.003 C 
ATOM     18  C   UNL     1      13.743  22.768 -25.553  1.00  0.00     0.004 C 
ENDBRANCH  16  17
ENDBRANCH  15  16
ENDBRANCH  14  15
ENDBRANCH  13  14
ENDBRANCH  12  13
ENDBRANCH  11  12
ENDBRANCH   1  11
TORSDOF 14
ENDMDL
MODEL 5
REMARK VINA RESULT:    -4.293      3.674      9.118
REMARK INTER + INTRA:          -8.695
REMARK INTER:                  -7.803
REMARK INTRA:                  -0.892
REMARK UNBOUND:                -0.889
REMARK SMILES CCCCCCCCCCCCCCCC(=O)[O-]
REMARK SMILES IDX 9 1 10 2 11 3 12 4 13 5 14 6 15 7 16 8 17 9 18 10 8 11 7 12
REMARK SMILES IDX 6 13 5 14 4 15 3 16 2 17 1 18
REMARK H PARENT
REMARK Flexibility Score: inf
ROOT
ATOM      1  C   UNL     1      14.565  21.106 -18.230  1.00  0.00     0.000 C 
ENDROOT
BRANCH   1   2
ATOM      2  C   UNL     1      13.668  21.016 -19.473  1.00  0.00     0.000 C 
BRANCH   2   3
ATOM      3  C   UNL     1      12.288  21.629 -19.198  1.00  0.00     0.000 C 
BRANCH   3   4
ATOM      4  C   UNL     1      12.080  22.979 -19.909  1.00  0.00     0.000 C 
BRANCH   4   5
ATOM      5  C   UNL     1      12.960  23.203 -21.155  1.00  0.00     0.000 C 
BRANCH   5   6
ATOM      6  C   UNL     1      12.376  22.663 -22.473  1.00  0.00     0.006 C 
BRANCH   6   7
ATOM      7  C   UNL     1      13.451  22.128 -23.426  1.00  0.00     0.053 C 
BRANCH   7   8
ATOM      8  C   UNL     1      13.517  22.967 -24.663  1.00  0.00     0.041 C 
ATOM      9  O   UNL     1      12.460  23.381 -25.204  1.00  0.00    -0.550 OA
ATOM     10  O   UNL     1      14.746  23.250 -25.246  1.00  0.00    -0.550 OA
ENDBRANCH   7   8
ENDBRANCH   6   7
ENDBRANCH   5   6
ENDBRANCH   4   5
ENDBRANCH   3   4
ENDBRANCH   2   3
ENDBRANCH   1   2
BRANCH   1  11
ATOM     11  C   UNL     1      15.992  21.583 -18.556  1.00  0.00     0.000 C 
BRANCH  11  12
ATOM     12  C   UNL     1      17.113  20.833 -17.810  1.00  0.00    -0.000 C 
BRANCH  12  13
ATOM     13  C   UNL     1      16.699  19.485 -17.186  1.00  0.00    -0.000 C 
BRANCH  13  14
ATOM     14  C   UNL     1      17.818  18.748 -16.429  1.00  0.00    -0.000 C 
BRANCH  14  15
ATOM     15  C   UNL     1      19.038  19.639 -16.150  1.00  0.00    -0.000 C 
BRANCH  15  16
ATOM     16  C   UNL     1      19.632  19.339 -14.766  1.00  0.00    -0.000 C 
BRANCH  16  17
ATOM     17  C   UNL     1      18.560  18.956 -13.734  1.00  0.00    -0.003 C 
ATOM     18  C   UNL     1      19.137  18.212 -12.530  1.00  0.00     0.004 C 
ENDBRANCH  16  17
ENDBRANCH  15  16
ENDBRANCH  14  15
ENDBRANCH  13  14
ENDBRANCH  12  13
ENDBRANCH  11  12
ENDBRANCH   1  11
TORSDOF 14
ENDMDL
MODEL 6
REMARK VINA RESULT:    -4.269      3.219      6.255
REMARK INTER + INTRA:          -8.652
REMARK INTER:                  -6.468
REMARK INTRA:                  -2.185
REMARK UNBOUND:                -0.889
REMARK SMILES CCCCCCCCCCCCCCCC(=O)[O-]
REMARK SMILES IDX 9 1 10 2 11 3 12 4 13 5 14 6 15 7 16 8 17 9 18 10 8 11 7 12
REMARK SMILES IDX 6 13 5 14 4 15 3 16 2 17 1 18
REMARK H PARENT
REMARK Flexibility Score: inf
ROOT
ATOM      1  C   UNL     1      13.703  21.809 -22.906  1.00  0.00     0.000 C 
ENDROOT
BRANCH   1   2
ATOM      2  C   UNL     1      13.116  20.607 -23.659  1.00  0.00     0.000 C 
BRANCH   2   3
ATOM      3  C   UNL     1      13.495  19.290 -22.968  1.00  0.00     0.000 C 
BRANCH   3   4
ATOM      4  C   UNL     1      12.952  19.190 -21.531  1.00  0.00     0.000 C 
BRANCH   4   5
ATOM      5  C   UNL     1      13.764  18.281 -20.587  1.00  0.00     0.000 C 
BRANCH   5   6
ATOM      6  C   UNL     1      15.289  18.486 -20.635  1.00  0.00     0.006 C 
BRANCH   6   7
ATOM      7  C   UNL     1      16.071  17.181 -20.445  1.00  0.00     0.053 C 
BRANCH   7   8
ATOM      8  C   UNL     1      15.605  16.146 -21.419  1.00  0.00     0.041 C 
ATOM      9  O   UNL     1      15.835  16.283 -22.648  1.00  0.00    -0.550 OA
ATOM     10  O   UNL     1      14.873  15.053 -20.974  1.00  0.00    -0.550 OA
ENDBRANCH   7   8
ENDBRANCH   6   7
ENDBRANCH   5   6
ENDBRANCH   4   5
ENDBRANCH   3   4
ENDBRANCH   2   3
ENDBRANCH   1   2
BRANCH   1  11
ATOM     11  C   UNL     1      12.632  22.833 -22.486  1.00  0.00     0.000 C 
BRANCH  11  12
ATOM     12  C   UNL     1      12.699  23.274 -21.011  1.00  0.00    -0.000 C 
BRANCH  12  13
ATOM     13  C   UNL     1      13.808  22.604 -20.175  1.00  0.00    -0.000 C 
BRANCH  13  14
ATOM     14  C   UNL     1      13.312  21.814 -18.951  1.00  0.00    -0.000 C 
BRANCH  14  15
ATOM     15  C   UNL     1      14.447  21.102 -18.200  1.00  0.00    -0.000 C 
BRANCH  15  16
ATOM     16  C   UNL     1      15.808  21.724 -18.544  1.00  0.00    -0.000 C 
BRANCH  16  17
ATOM     17  C   UNL     1      16.985  20.809 -18.175  1.00  0.00    -0.003 C 
ATOM     18  C   UNL     1      16.588  19.696 -17.206  1.00  0.00     0.004 C 
ENDBRANCH  16  17
ENDBRANCH  15  16
ENDBRANCH  14  15
ENDBRANCH  13  14
ENDBRANCH  12  13
ENDBRANCH  11  12
ENDBRANCH   1  11
TORSDOF 14
ENDMDL
MODEL 7
REMARK VINA RESULT:    -4.240      3.175      6.163
REMARK INTER + INTRA:          -8.600
REMARK INTER:                  -7.742
REMARK INTRA:                  -0.859
REMARK UNBOUND:                -0.889
REMARK SMILES CCCCCCCCCCCCCCCC(=O)[O-]
REMARK SMILES IDX 9 1 10 2 11 3 12 4 13 5 14 6 15 7 16 8 17 9 18 10 8 11 7 12
REMARK SMILES IDX 6 13 5 14 4 15 3 16 2 17 1 18
REMARK H PARENT
REMARK Flexibility Score: inf
ROOT
ATOM      1  C   UNL     1      16.472  21.658 -18.247  1.00  0.00     0.000 C 
ENDROOT
BRANCH   1   2
ATOM      2  C   UNL     1      17.567  20.875 -17.508  1.00  0.00     0.000 C 
BRANCH   2   3
ATOM      3  C   UNL     1      17.071  19.475 -17.119  1.00  0.00     0.000 C 
BRANCH   3   4
ATOM      4  C   UNL     1      18.016  18.757 -16.137  1.00  0.00     0.000 C 
BRANCH   4   5
ATOM      5  C   UNL     1      19.478  18.631 -16.612  1.00  0.00     0.000 C 
BRANCH   5   6
ATOM      6  C   UNL     1      20.539  18.797 -15.509  1.00  0.00     0.006 C 
BRANCH   6   7
ATOM      7  C   UNL     1      20.232  19.959 -14.557  1.00  0.00     0.053 C 
BRANCH   7   8
ATOM      8  C   UNL     1      20.093  19.461 -13.153  1.00  0.00     0.041 C 
ATOM      9  O   UNL     1      18.983  19.530 -12.564  1.00  0.00    -0.550 OA
ATOM     10  O   UNL     1      21.202  18.968 -12.478  1.00  0.00    -0.550 OA
ENDBRANCH   7   8
ENDBRANCH   6   7
ENDBRANCH   5   6
ENDBRANCH   4   5
ENDBRANCH   3   4
ENDBRANCH   2   3
ENDBRANCH   1   2
BRANCH   1  11
ATOM     11  C   UNL     1      15.096  20.972 -18.178  1.00  0.00     0.000 C 
BRANCH  11  12
ATOM     12  C   UNL     1      14.200  21.188 -19.413  1.00  0.00    -0.000 C 
BRANCH  12  13
ATOM     13  C   UNL     1      14.110  22.644 -19.912  1.00  0.00    -0.000 C 
BRANCH  13  14
ATOM     14  C   UNL     1      12.737  23.056 -20.471  1.00  0.00    -0.000 C 
BRANCH  14  15
ATOM     15  C   UNL     1      12.230  22.109 -21.569  1.00  0.00    -0.000 C 
BRANCH  15  16
ATOM     16  C   UNL     1      12.407  22.737 -22.960  1.00  0.00    -0.000 C 
BRANCH  16  17
ATOM     17  C   UNL     1      13.691  22.266 -23.661  1.00  0.00    -0.003 C 
ATOM     18  C   UNL     1      13.877  22.897 -25.040  1.00  0.00     0.004 C 
ENDBRANCH  16  17
ENDBRANCH  15  16
ENDBRANCH  14  15
ENDBRANCH  13  14
ENDBRANCH  12  13
ENDBRANCH  11  12
ENDBRANCH   1  11
TORSDOF 14
ENDMDL
MODEL 8
REMARK VINA RESULT:    -4.186     20.076     22.119
REMARK INTER + INTRA:          -8.501
REMARK INTER:                  -7.262
REMARK INTRA:                  -1.240
REMARK UNBOUND:                -0.889
REMARK SMILES CCCCCCCCCCCCCCCC(=O)[O-]
REMARK SMILES IDX 9 1 10 2 11 3 12 4 13 5 14 6 15 7 16 8 17 9 18 10 8 11 7 12
REMARK SMILES IDX 6 13 5 14 4 15 3 16 2 17 1 18
REMARK H PARENT
REMARK Flexibility Score: inf
ROOT
ATOM      1  C   UNL     1      27.260   7.211 -20.111  1.00  0.00     0.000 C 
ENDROOT
BRANCH   1   2
ATOM      2  C   UNL     1      27.183   7.431 -18.594  1.00  0.00     0.000 C 
BRANCH   2   3
ATOM      3  C   UNL     1      28.556   7.817 -18.026  1.00  0.00     0.000 C 
BRANCH   3   4
ATOM      4  C   UNL     1      29.277   6.635 -17.350  1.00  0.00     0.000 C 
BRANCH   4   5
ATOM      5  C   UNL     1      28.394   5.775 -16.423  1.00  0.00     0.000 C 
BRANCH   5   6
ATOM      6  C   UNL     1      28.157   6.361 -15.019  1.00  0.00     0.006 C 
BRANCH   6   7
ATOM      7  C   UNL     1      27.286   5.460 -14.137  1.00  0.00     0.053 C 
BRANCH   7   8
ATOM      8  C   UNL     1      25.859   5.514 -14.584  1.00  0.00     0.041 C 
ATOM      9  O   UNL     1      25.272   6.621 -14.698  1.00  0.00    -0.550 OA
ATOM     10  O   UNL     1      25.162   4.337 -14.826  1.00  0.00    -0.550 OA
ENDBRANCH   7   8
ENDBRANCH   6   7
ENDBRANCH   5   6
ENDBRANCH   4   5
ENDBRANCH   3   4
ENDBRANCH   2   3
ENDBRANCH   1   2
BRANCH   1  11
ATOM     11  C   UNL     1      27.627   5.763 -20.487  1.00  0.00     0.000 C 
BRANCH  11  12
ATOM     12  C   UNL     1      28.795   5.627 -21.484  1.00  0.00    -0.000 C 
BRANCH  12  13
ATOM     13  C   UNL     1      30.202   5.752 -20.866  1.00  0.00    -0.000 C 
BRANCH  13  14
ATOM     14  C   UNL     1      31.365   5.533 -21.850  1.00  0.00    -0.000 C 
BRANCH  14  15
ATOM     15  C   UNL     1      31.268   4.196 -22.600  1.00  0.00    -0.000 C 
BRANCH  15  16
ATOM     16  C   UNL     1      31.332   4.414 -24.120  1.00  0.00    -0.000 C 
BRANCH  16  17
ATOM     17  C   UNL     1      31.107   5.881 -24.515  1.00  0.00    -0.003 C 
ATOM     18  C   UNL     1      31.709   6.227 -25.876  1.00  0.00     0.004 C 
ENDBRANCH  16  17
ENDBRANCH  15  16
ENDBRANCH  14  15
ENDBRANCH  13  14
ENDBRANCH  12  13
ENDBRANCH  11  12
ENDBRANCH   1  11
TORSDOF 14
ENDMDL
MODEL 9
REMARK VINA RESULT:    -4.154     20.749     23.493
REMARK INTER + INTRA:          -8.444
REMARK INTER:                  -7.092
REMARK INTRA:                  -1.352
REMARK UNBOUND:                -0.889
REMARK SMILES CCCCCCCCCCCCCCCC(=O)[O-]
REMARK SMILES IDX 9 1 10 2 11 3 12 4 13 5 14 6 15 7 16 8 17 9 18 10 8 11 7 12
REMARK SMILES IDX 6 13 5 14 4 15 3 16 2 17 1 18
REMARK H PARENT
REMARK Flexibility Score: inf
ROOT
ATOM      1  C   UNL     1      28.181   5.733 -20.906  1.00  0.00     0.000 C 
ENDROOT
BRANCH   1   2
ATOM      2  C   UNL     1      29.442   4.865 -20.787  1.00  0.00     0.000 C 
BRANCH   2   3
ATOM      3  C   UNL     1      30.685   5.736 -20.553  1.00  0.00     0.000 C 
BRANCH   3   4
ATOM      4  C   UNL     1      31.759   5.548 -21.641  1.00  0.00     0.000 C 
BRANCH   4   5
ATOM      5  C   UNL     1      31.642   4.246 -22.457  1.00  0.00     0.000 C 
BRANCH   5   6
ATOM      6  C   UNL     1      31.366   4.439 -23.960  1.00  0.00     0.006 C 
BRANCH   6   7
ATOM      7  C   UNL     1      30.931   5.868 -24.306  1.00  0.00     0.053 C 
BRANCH   7   8
ATOM      8  C   UNL     1      30.536   5.960 -25.746  1.00  0.00     0.041 C 
ATOM      9  O   UNL     1      29.482   5.405 -26.151  1.00  0.00    -0.550 OA
ATOM     10  O   UNL     1      31.360   6.616 -26.652  1.00  0.00    -0.550 OA
ENDBRANCH   7   8
ENDBRANCH   6   7
ENDBRANCH   5   6
ENDBRANCH   4   5
ENDBRANCH   3   4
ENDBRANCH   2   3
ENDBRANCH   1   2
BRANCH   1  11
ATOM     11  C   UNL     1      27.575   6.097 -19.538  1.00  0.00     0.000 C 
BRANCH  11  12
ATOM     12  C   UNL     1      27.573   7.603 -19.209  1.00  0.00    -0.000 C 
BRANCH  12  13
ATOM     13  C   UNL     1      28.056   7.965 -17.790  1.00  0.00    -0.000 C 
BRANCH  13  14
ATOM     14  C   UNL     1      29.557   7.741 -17.538  1.00  0.00    -0.000 C 
BRANCH  14  15
ATOM     15  C   UNL     1      29.830   6.661 -16.480  1.00  0.00    -0.000 C 
BRANCH  15  16
ATOM     16  C   UNL     1      28.516   6.077 -15.941  1.00  0.00    -0.000 C 
BRANCH  16  17
ATOM     17  C   UNL     1      28.339   6.316 -14.434  1.00  0.00    -0.003 C 
ATOM     18  C   UNL     1      27.204   5.488 -13.832  1.00  0.00     0.004 C 
ENDBRANCH  16  17
ENDBRANCH  15  16
ENDBRANCH  14  15
ENDBRANCH  13  14
ENDBRANCH  12  13
ENDBRANCH  11  12
ENDBRANCH   1  11
TORSDOF 14
ENDMDL
