MODEL 1
REMARK VINA RESULT:    -1.530      0.000      0.000
REMARK INTER + INTRA:          -5.083
REMARK INTER:                  -3.497
REMARK INTRA:                  -1.585
REMARK UNBOUND:                -1.585
REMARK SMILES CCCCCCCCCCCCCCCCCCCCCCCC(=O)[O-]
REMARK SMILES IDX 13 1 14 2 15 3 16 4 17 5 18 6 19 7 20 8 21 9 22 10 23 11
REMARK SMILES IDX 24 12 25 13 26 14 12 15 11 16 10 17 9 18 8 19 7 20 6 21 5 22
REMARK SMILES IDX 4 23 3 24 2 25 1 26
REMARK H PARENT
REMARK Flexibility Score: inf
ROOT
ATOM      1  C   UNL     1      57.927  -1.845  24.139  1.00  0.00     0.000 C 
ENDROOT
BRANCH   1   2
ATOM      2  C   UNL     1      58.247  -2.015  22.645  1.00  0.00     0.000 C 
BRANCH   2   3
ATOM      3  C   UNL     1      57.088  -1.574  21.736  1.00  0.00     0.000 C 
BRANCH   3   4
ATOM      4  C   UNL     1      57.338  -0.210  21.065  1.00  0.00     0.000 C 
BRANCH   4   5
ATOM      5  C   UNL     1      56.433   0.936  21.551  1.00  0.00     0.000 C 
BRANCH   5   6
ATOM      6  C   UNL     1      54.945   0.551  21.591  1.00  0.00     0.000 C 
BRANCH   6   7
ATOM      7  C   UNL     1      54.015   1.783  21.617  1.00  0.00     0.000 C 
BRANCH   7   8
ATOM      8  C   UNL     1      53.181   1.959  20.333  1.00  0.00     0.000 C 
BRANCH   8   9
ATOM      9  C   UNL     1      51.724   1.470  20.430  1.00  0.00     0.000 C 
BRANCH   9  10
ATOM     10  C   UNL     1      51.543  -0.063  20.400  1.00  0.00     0.006 C 
BRANCH  10  11
ATOM     11  C   UNL     1      50.326  -0.549  19.594  1.00  0.00     0.053 C 
BRANCH  11  12
ATOM     12  C   UNL     1      50.130  -2.028  19.714  1.00  0.00     0.041 C 
ATOM     13  O   UNL     1      50.025  -2.741  18.682  1.00  0.00    -0.550 OA
ATOM     14  O   UNL     1      50.019  -2.615  20.969  1.00  0.00    -0.550 OA
ENDBRANCH  11  12
ENDBRANCH  10  11
ENDBRANCH   9  10
ENDBRANCH   8   9
ENDBRANCH   7   8
ENDBRANCH   6   7
ENDBRANCH   5   6
ENDBRANCH   4   5
ENDBRANCH   3   4
ENDBRANCH   2   3
ENDBRANCH   1   2
BRANCH   1  15
ATOM     15  C   UNL     1      57.732  -0.373  24.540  1.00  0.00     0.000 C 
BRANCH  15  16
ATOM     16  C   UNL     1      56.334  -0.104  25.125  1.00  0.00     0.000 C 
BRANCH  16  17
ATOM     17  C   UNL     1      55.842   1.326  24.841  1.00  0.00     0.000 C 
BRANCH  17  18
ATOM     18  C   UNL     1      54.337   1.501  25.104  1.00  0.00    -0.000 C 
BRANCH  18  19
ATOM     19  C   UNL     1      53.799   2.840  24.570  1.00  0.00    -0.000 C 
BRANCH  19  20
ATOM     20  C   UNL     1      52.409   2.701  23.927  1.00  0.00    -0.000 C 
BRANCH  20  21
ATOM     21  C   UNL     1      51.272   2.746  24.961  1.00  0.00    -0.000 C 
BRANCH  21  22
ATOM     22  C   UNL     1      49.959   2.233  24.359  1.00  0.00    -0.000 C 
BRANCH  22  23
ATOM     23  C   UNL     1      50.193   0.951  23.546  1.00  0.00    -0.000 C 
BRANCH  23  24
ATOM     24  C   UNL     1      49.884  -0.325  24.346  1.00  0.00    -0.000 C 
BRANCH  24  25
ATOM     25  C   UNL     1      50.679  -1.542  23.849  1.00  0.00    -0.003 C 
ATOM     26  C   UNL     1      49.922  -2.839  24.117  1.00  0.00     0.004 C 
ENDBRANCH  24  25
ENDBRANCH  23  24
ENDBRANCH  22  23
ENDBRANCH  21  22
ENDBRANCH  20  21
ENDBRANCH  19  20
ENDBRANCH  18  19
ENDBRANCH  17  18
ENDBRANCH  16  17
ENDBRANCH  15  16
ENDBRANCH   1  15
TORSDOF 22
ENDMDL
MODEL 2
REMARK VINA RESULT:    -1.278      2.848      7.407
REMARK INTER + INTRA:          -4.506
REMARK INTER:                  -4.395
REMARK INTRA:                  -0.111
REMARK UNBOUND:                -1.585
REMARK SMILES CCCCCCCCCCCCCCCCCCCCCCCC(=O)[O-]
REMARK SMILES IDX 13 1 14 2 15 3 16 4 17 5 18 6 19 7 20 8 21 9 22 10 23 11
REMARK SMILES IDX 24 12 25 13 26 14 12 15 11 16 10 17 9 18 8 19 7 20 6 21 5 22
REMARK SMILES IDX 4 23 3 24 2 25 1 26
REMARK H PARENT
REMARK Flexibility Score: inf
ROOT
ATOM      1  C   UNL     1      56.647   1.528  22.542  1.00  0.00     0.000 C 
ENDROOT
BRANCH   1   2
ATOM      2  C   UNL     1      55.397   2.422  22.587  1.00  0.00     0.000 C 
BRANCH   2   3
ATOM      3  C   UNL     1      54.089   1.614  22.550  1.00  0.00     0.000 C 
BRANCH   3   4
ATOM      4  C   UNL     1      52.848   2.495  22.310  1.00  0.00     0.000 C 
BRANCH   4   5
ATOM      5  C   UNL     1      51.953   2.717  23.543  1.00  0.00     0.000 C 
BRANCH   5   6
ATOM      6  C   UNL     1      50.512   2.221  23.337  1.00  0.00     0.000 C 
BRANCH   6   7
ATOM      7  C   UNL     1      50.041   1.282  24.470  1.00  0.00     0.000 C 
BRANCH   7   8
ATOM      8  C   UNL     1      50.743  -0.089  24.471  1.00  0.00     0.000 C 
BRANCH   8   9
ATOM      9  C   UNL     1      50.047  -1.178  23.632  1.00  0.00     0.000 C 
BRANCH   9  10
ATOM     10  C   UNL     1      50.947  -1.880  22.592  1.00  0.00     0.006 C 
BRANCH  10  11
ATOM     11  C   UNL     1      51.704  -0.925  21.653  1.00  0.00     0.053 C 
BRANCH  11  12
ATOM     12  C   UNL     1      50.827  -0.409  20.554  1.00  0.00     0.041 C 
ATOM     13  O   UNL     1      49.875  -1.109  20.120  1.00  0.00    -0.550 OA
ATOM     14  O   UNL     1      51.088   0.829  19.980  1.00  0.00    -0.550 OA
ENDBRANCH  11  12
ENDBRANCH  10  11
ENDBRANCH   9  10
ENDBRANCH   8   9
ENDBRANCH   7   8
ENDBRANCH   6   7
ENDBRANCH   5   6
ENDBRANCH   4   5
ENDBRANCH   3   4
ENDBRANCH   2   3
ENDBRANCH   1   2
BRANCH   1  15
ATOM     15  C   UNL     1      56.314   0.034  22.697  1.00  0.00     0.000 C 
BRANCH  15  16
ATOM     16  C   UNL     1      56.894  -0.818  21.555  1.00  0.00     0.000 C 
BRANCH  16  17
ATOM     17  C   UNL     1      58.425  -0.701  21.452  1.00  0.00     0.000 C 
BRANCH  17  18
ATOM     18  C   UNL     1      59.140  -1.077  22.760  1.00  0.00    -0.000 C 
BRANCH  18  19
ATOM     19  C   UNL     1      58.157  -1.314  23.920  1.00  0.00    -0.000 C 
BRANCH  19  20
ATOM     20  C   UNL     1      58.773  -2.152  25.052  1.00  0.00    -0.000 C 
BRANCH  20  21
ATOM     21  C   UNL     1      60.306  -2.048  25.097  1.00  0.00    -0.000 C 
BRANCH  21  22
ATOM     22  C   UNL     1      60.758  -0.583  25.115  1.00  0.00    -0.000 C 
BRANCH  22  23
ATOM     23  C   UNL     1      62.291  -0.483  25.122  1.00  0.00    -0.000 C 
BRANCH  23  24
ATOM     24  C   UNL     1      62.792   0.970  25.124  1.00  0.00    -0.000 C 
BRANCH  24  25
ATOM     25  C   UNL     1      64.321   1.069  25.008  1.00  0.00    -0.003 C 
ATOM     26  C   UNL     1      64.781   2.523  25.042  1.00  0.00     0.004 C 
ENDBRANCH  24  25
ENDBRANCH  23  24
ENDBRANCH  22  23
ENDBRANCH  21  22
ENDBRANCH  20  21
ENDBRANCH  19  20
ENDBRANCH  18  19
ENDBRANCH  17  18
ENDBRANCH  16  17
ENDBRANCH  15  16
ENDBRANCH   1  15
TORSDOF 22
ENDMDL
MODEL 3
REMARK VINA RESULT:    -1.103      2.100      4.393
REMARK INTER + INTRA:          -4.107
REMARK INTER:                  -3.215
REMARK INTRA:                  -0.892
REMARK UNBOUND:                -1.585
REMARK SMILES CCCCCCCCCCCCCCCCCCCCCCCC(=O)[O-]
REMARK SMILES IDX 13 1 14 2 15 3 16 4 17 5 18 6 19 7 20 8 21 9 22 10 23 11
REMARK SMILES IDX 24 12 25 13 26 14 12 15 11 16 10 17 9 18 8 19 7 20 6 21 5 22
REMARK SMILES IDX 4 23 3 24 2 25 1 26
REMARK H PARENT
REMARK Flexibility Score: inf
ROOT
ATOM      1  C   UNL     1      56.880  -1.156  21.460  1.00  0.00     0.000 C 
ENDROOT
BRANCH   1   2
ATOM      2  C   UNL     1      57.797  -2.088  22.268  1.00  0.00     0.000 C 
BRANCH   2   3
ATOM      3  C   UNL     1      57.810  -1.753  23.769  1.00  0.00     0.000 C 
BRANCH   3   4
ATOM      4  C   UNL     1      58.538  -0.430  24.081  1.00  0.00     0.000 C 
BRANCH   4   5
ATOM      5  C   UNL     1      57.848   0.467  25.124  1.00  0.00     0.000 C 
BRANCH   5   6
ATOM      6  C   UNL     1      57.799   1.946  24.706  1.00  0.00     0.000 C 
BRANCH   6   7
ATOM      7  C   UNL     1      56.899   2.184  23.474  1.00  0.00     0.000 C 
BRANCH   7   8
ATOM      8  C   UNL     1      55.667   3.061  23.766  1.00  0.00     0.000 C 
BRANCH   8   9
ATOM      9  C   UNL     1      54.986   2.798  25.123  1.00  0.00     0.000 C 
BRANCH   9  10
ATOM     10  C   UNL     1      53.675   1.986  25.052  1.00  0.00     0.006 C 
BRANCH  10  11
ATOM     11  C   UNL     1      52.425   2.815  24.716  1.00  0.00     0.053 C 
BRANCH  11  12
ATOM     12  C   UNL     1      51.181   1.981  24.720  1.00  0.00     0.041 C 
ATOM     13  O   UNL     1      51.258   0.728  24.818  1.00  0.00    -0.550 OA
ATOM     14  O   UNL     1      49.938   2.585  24.574  1.00  0.00    -0.550 OA
ENDBRANCH  11  12
ENDBRANCH  10  11
ENDBRANCH   9  10
ENDBRANCH   8   9
ENDBRANCH   7   8
ENDBRANCH   6   7
ENDBRANCH   5   6
ENDBRANCH   4   5
ENDBRANCH   3   4
ENDBRANCH   2   3
ENDBRANCH   1   2
BRANCH   1  15
ATOM     15  C   UNL     1      55.782  -0.510  22.324  1.00  0.00     0.000 C 
BRANCH  15  16
ATOM     16  C   UNL     1      54.432  -0.426  21.590  1.00  0.00     0.000 C 
BRANCH  16  17
ATOM     17  C   UNL     1      54.055   1.017  21.213  1.00  0.00     0.000 C 
BRANCH  17  18
ATOM     18  C   UNL     1      52.547   1.289  21.333  1.00  0.00    -0.000 C 
BRANCH  18  19
ATOM     19  C   UNL     1      52.192   2.763  21.069  1.00  0.00    -0.000 C 
BRANCH  19  20
ATOM     20  C   UNL     1      50.681   2.981  20.881  1.00  0.00    -0.000 C 
BRANCH  20  21
ATOM     21  C   UNL     1      50.079   2.054  19.813  1.00  0.00    -0.000 C 
BRANCH  21  22
ATOM     22  C   UNL     1      50.879   0.750  19.701  1.00  0.00    -0.000 C 
BRANCH  22  23
ATOM     23  C   UNL     1      49.980  -0.467  19.966  1.00  0.00    -0.000 C 
BRANCH  23  24
ATOM     24  C   UNL     1      50.630  -1.491  20.910  1.00  0.00    -0.000 C 
BRANCH  24  25
ATOM     25  C   UNL     1      50.384  -1.170  22.392  1.00  0.00    -0.003 C 
ATOM     26  C   UNL     1      50.413  -2.437  23.241  1.00  0.00     0.004 C 
ENDBRANCH  24  25
ENDBRANCH  23  24
ENDBRANCH  22  23
ENDBRANCH  21  22
ENDBRANCH  20  21
ENDBRANCH  19  20
ENDBRANCH  18  19
ENDBRANCH  17  18
ENDBRANCH  16  17
ENDBRANCH  15  16
ENDBRANCH   1  15
TORSDOF 22
ENDMDL
MODEL 4
REMARK VINA RESULT:    -1.060      3.042      7.440
REMARK INTER + INTRA:          -4.008
REMARK INTER:                  -3.134
REMARK INTRA:                  -0.874
REMARK UNBOUND:                -1.585
REMARK SMILES CCCCCCCCCCCCCCCCCCCCCCCC(=O)[O-]
REMARK SMILES IDX 13 1 14 2 15 3 16 4 17 5 18 6 19 7 20 8 21 9 22 10 23 11
REMARK SMILES IDX 24 12 25 13 26 14 12 15 11 16 10 17 9 18 8 19 7 20 6 21 5 22
REMARK SMILES IDX 4 23 3 24 2 25 1 26
REMARK H PARENT
REMARK Flexibility Score: inf
ROOT
ATOM      1  C   UNL     1      56.557   1.908  21.989  1.00  0.00     0.000 C 
ENDROOT
BRANCH   1   2
ATOM      2  C   UNL     1      55.952   2.704  23.156  1.00  0.00     0.000 C 
BRANCH   2   3
ATOM      3  C   UNL     1      54.494   3.120  22.897  1.00  0.00     0.000 C 
BRANCH   3   4
ATOM      4  C   UNL     1      54.108   3.058  21.407  1.00  0.00     0.000 C 
BRANCH   4   5
ATOM      5  C   UNL     1      52.596   3.094  21.118  1.00  0.00     0.000 C 
BRANCH   5   6
ATOM      6  C   UNL     1      51.992   1.696  20.905  1.00  0.00     0.000 C 
BRANCH   6   7
ATOM      7  C   UNL     1      50.476   1.745  20.614  1.00  0.00     0.000 C 
BRANCH   7   8
ATOM      8  C   UNL     1      49.968   0.564  19.766  1.00  0.00     0.000 C 
BRANCH   8   9
ATOM      9  C   UNL     1      51.015  -0.528  19.476  1.00  0.00     0.000 C 
BRANCH   9  10
ATOM     10  C   UNL     1      51.703  -1.125  20.722  1.00  0.00     0.006 C 
BRANCH  10  11
ATOM     11  C   UNL     1      50.748  -1.808  21.715  1.00  0.00     0.053 C 
BRANCH  11  12
ATOM     12  C   UNL     1      50.750  -1.129  23.051  1.00  0.00     0.041 C 
ATOM     13  O   UNL     1      51.559  -0.194  23.286  1.00  0.00    -0.550 OA
ATOM     14  O   UNL     1      49.886  -1.560  24.050  1.00  0.00    -0.550 OA
ENDBRANCH  11  12
ENDBRANCH  10  11
ENDBRANCH   9  10
ENDBRANCH   8   9
ENDBRANCH   7   8
ENDBRANCH   6   7
ENDBRANCH   5   6
ENDBRANCH   4   5
ENDBRANCH   3   4
ENDBRANCH   2   3
ENDBRANCH   1   2
BRANCH   1  15
ATOM     15  C   UNL     1      57.459   0.754  22.462  1.00  0.00     0.000 C 
BRANCH  15  16
ATOM     16  C   UNL     1      57.108   0.280  23.883  1.00  0.00     0.000 C 
BRANCH  16  17
ATOM     17  C   UNL     1      57.163  -1.251  24.023  1.00  0.00     0.000 C 
BRANCH  17  18
ATOM     18  C   UNL     1      57.963  -1.923  22.895  1.00  0.00    -0.000 C 
BRANCH  18  19
ATOM     19  C   UNL     1      59.046  -2.877  23.429  1.00  0.00    -0.000 C 
BRANCH  19  20
ATOM     20  C   UNL     1      59.493  -2.520  24.856  1.00  0.00    -0.000 C 
BRANCH  20  21
ATOM     21  C   UNL     1      60.980  -2.139  24.931  1.00  0.00    -0.000 C 
BRANCH  21  22
ATOM     22  C   UNL     1      61.153  -0.628  25.125  1.00  0.00    -0.000 C 
BRANCH  22  23
ATOM     23  C   UNL     1      62.490  -0.151  24.538  1.00  0.00    -0.000 C 
BRANCH  23  24
ATOM     24  C   UNL     1      62.939   1.206  25.106  1.00  0.00    -0.000 C 
BRANCH  24  25
ATOM     25  C   UNL     1      64.394   1.545  24.749  1.00  0.00    -0.003 C 
ATOM     26  C   UNL     1      64.692   3.019  25.004  1.00  0.00     0.004 C 
ENDBRANCH  24  25
ENDBRANCH  23  24
ENDBRANCH  22  23
ENDBRANCH  21  22
ENDBRANCH  20  21
ENDBRANCH  19  20
ENDBRANCH  18  19
ENDBRANCH  17  18
ENDBRANCH  16  17
ENDBRANCH  15  16
ENDBRANCH   1  15
TORSDOF 22
ENDMDL
MODEL 5
REMARK VINA RESULT:    -0.840      1.316      4.611
REMARK INTER + INTRA:          -3.505
REMARK INTER:                  -2.435
REMARK INTRA:                  -1.069
REMARK UNBOUND:                -1.585
REMARK SMILES CCCCCCCCCCCCCCCCCCCCCCCC(=O)[O-]
REMARK SMILES IDX 13 1 14 2 15 3 16 4 17 5 18 6 19 7 20 8 21 9 22 10 23 11
REMARK SMILES IDX 24 12 25 13 26 14 12 15 11 16 10 17 9 18 8 19 7 20 6 21 5 22
REMARK SMILES IDX 4 23 3 24 2 25 1 26
REMARK H PARENT
REMARK Flexibility Score: inf
ROOT
ATOM      1  C   UNL     1      57.001  -0.834  24.647  1.00  0.00     0.000 C 
ENDROOT
BRANCH   1   2
ATOM      2  C   UNL     1      57.181   0.647  25.017  1.00  0.00     0.000 C 
BRANCH   2   3
ATOM      3  C   UNL     1      55.844   1.399  25.124  1.00  0.00     0.000 C 
BRANCH   3   4
ATOM      4  C   UNL     1      54.930   1.172  23.905  1.00  0.00     0.000 C 
BRANCH   4   5
ATOM      5  C   UNL     1      53.915   2.296  23.628  1.00  0.00     0.000 C 
BRANCH   5   6
ATOM      6  C   UNL     1      53.499   3.056  24.898  1.00  0.00     0.000 C 
BRANCH   6   7
ATOM      7  C   UNL     1      51.966   3.125  25.072  1.00  0.00     0.000 C 
BRANCH   7   8
ATOM      8  C   UNL     1      51.199   2.087  24.231  1.00  0.00     0.000 C 
BRANCH   8   9
ATOM      9  C   UNL     1      50.919   0.749  24.943  1.00  0.00     0.000 C 
BRANCH   9  10
ATOM     10  C   UNL     1      49.880  -0.158  24.249  1.00  0.00     0.006 C 
BRANCH  10  11
ATOM     11  C   UNL     1      49.896  -1.623  24.717  1.00  0.00     0.053 C 
BRANCH  11  12
ATOM     12  C   UNL     1      50.022  -2.576  23.568  1.00  0.00     0.041 C 
ATOM     13  O   UNL     1      50.226  -3.800  23.779  1.00  0.00    -0.550 OA
ATOM     14  O   UNL     1      49.956  -2.104  22.263  1.00  0.00    -0.550 OA
ENDBRANCH  11  12
ENDBRANCH  10  11
ENDBRANCH   9  10
ENDBRANCH   8   9
ENDBRANCH   7   8
ENDBRANCH   6   7
ENDBRANCH   5   6
ENDBRANCH   4   5
ENDBRANCH   3   4
ENDBRANCH   2   3
ENDBRANCH   1   2
BRANCH   1  15
ATOM     15  C   UNL     1      58.178  -1.710  25.112  1.00  0.00     0.000 C 
BRANCH  15  16
ATOM     16  C   UNL     1      59.494  -1.348  24.402  1.00  0.00     0.000 C 
BRANCH  16  17
ATOM     17  C   UNL     1      59.344  -1.299  22.872  1.00  0.00     0.000 C 
BRANCH  17  18
ATOM     18  C   UNL     1      58.072  -2.007  22.376  1.00  0.00    -0.000 C 
BRANCH  18  19
ATOM     19  C   UNL     1      57.595  -1.472  21.014  1.00  0.00    -0.000 C 
BRANCH  19  20
ATOM     20  C   UNL     1      57.155  -0.000  21.080  1.00  0.00    -0.000 C 
BRANCH  20  21
ATOM     21  C   UNL     1      55.667   0.186  20.742  1.00  0.00    -0.000 C 
BRANCH  21  22
ATOM     22  C   UNL     1      54.796  -0.810  21.516  1.00  0.00    -0.000 C 
BRANCH  22  23
ATOM     23  C   UNL     1      53.395  -0.234  21.766  1.00  0.00    -0.000 C 
BRANCH  23  24
ATOM     24  C   UNL     1      52.752   0.341  20.493  1.00  0.00    -0.000 C 
BRANCH  24  25
ATOM     25  C   UNL     1      51.296   0.778  20.711  1.00  0.00    -0.003 C 
ATOM     26  C   UNL     1      50.344  -0.030  19.835  1.00  0.00     0.004 C 
ENDBRANCH  24  25
ENDBRANCH  23  24
ENDBRANCH  22  23
ENDBRANCH  21  22
ENDBRANCH  20  21
ENDBRANCH  19  20
ENDBRANCH  18  19
ENDBRANCH  17  18
ENDBRANCH  16  17
ENDBRANCH  15  16
ENDBRANCH   1  15
TORSDOF 22
ENDMDL
MODEL 6
REMARK VINA RESULT:    -0.587      2.713      7.074
REMARK INTER + INTRA:          -2.928
REMARK INTER:                  -2.038
REMARK INTRA:                  -0.890
REMARK UNBOUND:                -1.585
REMARK SMILES CCCCCCCCCCCCCCCCCCCCCCCC(=O)[O-]
REMARK SMILES IDX 13 1 14 2 15 3 16 4 17 5 18 6 19 7 20 8 21 9 22 10 23 11
REMARK SMILES IDX 24 12 25 13 26 14 12 15 11 16 10 17 9 18 8 19 7 20 6 21 5 22
REMARK SMILES IDX 4 23 3 24 2 25 1 26
REMARK H PARENT
REMARK Flexibility Score: inf
ROOT
ATOM      1  C   UNL     1      53.851   2.129  22.337  1.00  0.00     0.000 C 
ENDROOT
BRANCH   1   2
ATOM      2  C   UNL     1      52.861   0.981  22.590  1.00  0.00     0.000 C 
BRANCH   2   3
ATOM      3  C   UNL     1      51.463   1.481  22.995  1.00  0.00     0.000 C 
BRANCH   3   4
ATOM      4  C   UNL     1      51.003   0.933  24.359  1.00  0.00     0.000 C 
BRANCH   4   5
ATOM      5  C   UNL     1      50.417  -0.491  24.330  1.00  0.00     0.000 C 
BRANCH   5   6
ATOM      6  C   UNL     1      50.999  -1.357  23.201  1.00  0.00     0.000 C 
BRANCH   6   7
ATOM      7  C   UNL     1      49.904  -1.980  22.308  1.00  0.00     0.000 C 
BRANCH   7   8
ATOM      8  C   UNL     1      50.068  -1.660  20.810  1.00  0.00     0.000 C 
BRANCH   8   9
ATOM      9  C   UNL     1      49.893  -0.176  20.437  1.00  0.00     0.000 C 
BRANCH   9  10
ATOM     10  C   UNL     1      50.306   0.192  18.996  1.00  0.00     0.006 C 
BRANCH  10  11
ATOM     11  C   UNL     1      50.014   1.648  18.598  1.00  0.00     0.053 C 
BRANCH  11  12
ATOM     12  C   UNL     1      50.762   2.623  19.456  1.00  0.00     0.041 C 
ATOM     13  O   UNL     1      51.916   3.002  19.127  1.00  0.00    -0.550 OA
ATOM     14  O   UNL     1      50.199   3.079  20.642  1.00  0.00    -0.550 OA
ENDBRANCH  11  12
ENDBRANCH  10  11
ENDBRANCH   9  10
ENDBRANCH   8   9
ENDBRANCH   7   8
ENDBRANCH   6   7
ENDBRANCH   5   6
ENDBRANCH   4   5
ENDBRANCH   3   4
ENDBRANCH   2   3
ENDBRANCH   1   2
BRANCH   1  15
ATOM     15  C   UNL     1      55.268   1.813  22.847  1.00  0.00     0.000 C 
BRANCH  15  16
ATOM     16  C   UNL     1      55.364   1.869  24.382  1.00  0.00     0.000 C 
BRANCH  16  17
ATOM     17  C   UNL     1      55.124   0.497  25.037  1.00  0.00     0.000 C 
BRANCH  17  18
ATOM     18  C   UNL     1      56.307  -0.467  24.850  1.00  0.00    -0.000 C 
BRANCH  18  19
ATOM     19  C   UNL     1      56.423  -0.982  23.404  1.00  0.00    -0.000 C 
BRANCH  19  20
ATOM     20  C   UNL     1      57.605  -1.948  23.217  1.00  0.00    -0.000 C 
BRANCH  20  21
ATOM     21  C   UNL     1      58.522  -2.006  24.449  1.00  0.00    -0.000 C 
BRANCH  21  22
ATOM     22  C   UNL     1      59.999  -2.005  24.038  1.00  0.00    -0.000 C 
BRANCH  22  23
ATOM     23  C   UNL     1      60.858  -1.280  25.086  1.00  0.00    -0.000 C 
BRANCH  23  24
ATOM     24  C   UNL     1      62.346  -1.657  24.998  1.00  0.00    -0.000 C 
BRANCH  24  25
ATOM     25  C   UNL     1      63.240  -0.458  24.646  1.00  0.00    -0.003 C 
ATOM     26  C   UNL     1      62.452   0.847  24.698  1.00  0.00     0.004 C 
ENDBRANCH  24  25
ENDBRANCH  23  24
ENDBRANCH  22  23
ENDBRANCH  21  22
ENDBRANCH  20  21
ENDBRANCH  19  20
ENDBRANCH  18  19
ENDBRANCH  17  18
ENDBRANCH  16  17
ENDBRANCH  15  16
ENDBRANCH   1  15
TORSDOF 22
ENDMDL
