MODEL 1
REMARK VINA RESULT:    -3.530      0.000      0.000
REMARK INTER + INTRA:          -7.019
REMARK INTER:                  -5.593
REMARK INTRA:                  -1.425
REMARK UNBOUND:                -1.425
REMARK SMILES CCCCCCCCCCCC(=O)[O-]
REMARK SMILES IDX 7 1 8 2 9 3 10 4 11 5 12 6 13 7 14 8 6 9 5 10 4 11 3 12 2 13
REMARK SMILES IDX 1 14
REMARK H PARENT
REMARK Flexibility Score: inf
ROOT
ATOM      1  C   UNL     1      27.529  29.169 -19.761  1.00  0.00     0.000 C 
ENDROOT
BRANCH   1   2
ATOM      2  C   UNL     1      27.902  29.655 -18.347  1.00  0.00     0.000 C 
BRANCH   2   3
ATOM      3  C   UNL     1      27.525  31.117 -18.037  1.00  0.00     0.000 C 
BRANCH   3   4
ATOM      4  C   UNL     1      26.143  31.316 -17.386  1.00  0.00     0.006 C 
BRANCH   4   5
ATOM      5  C   UNL     1      24.960  30.986 -18.316  1.00  0.00     0.053 C 
BRANCH   5   6
ATOM      6  C   UNL     1      23.662  30.864 -17.577  1.00  0.00     0.041 C 
ATOM      7  O   UNL     1      22.628  30.458 -18.171  1.00  0.00    -0.550 OA
ATOM      8  O   UNL     1      23.601  31.165 -16.222  1.00  0.00    -0.550 OA
ENDBRANCH   5   6
ENDBRANCH   4   5
ENDBRANCH   3   4
ENDBRANCH   2   3
ENDBRANCH   1   2
BRANCH   1   9
ATOM      9  C   UNL     1      27.271  27.654 -19.886  1.00  0.00     0.000 C 
BRANCH   9  10
ATOM     10  C   UNL     1      26.497  27.028 -18.712  1.00  0.00    -0.000 C 
BRANCH  10  11
ATOM     11  C   UNL     1      24.994  27.338 -18.756  1.00  0.00    -0.000 C 
BRANCH  11  12
ATOM     12  C   UNL     1      24.407  27.414 -17.341  1.00  0.00    -0.000 C 
BRANCH  12  13
ATOM     13  C   UNL     1      25.492  27.748 -16.312  1.00  0.00    -0.003 C 
ATOM     14  C   UNL     1      24.881  28.097 -14.958  1.00  0.00     0.004 C 
ENDBRANCH  12  13
ENDBRANCH  11  12
ENDBRANCH  10  11
ENDBRANCH   9  10
ENDBRANCH   1   9
TORSDOF 10
ENDMDL
MODEL 2
REMARK VINA RESULT:    -3.468     12.815     14.740
REMARK INTER + INTRA:          -6.921
REMARK INTER:                  -6.099
REMARK INTRA:                  -0.823
REMARK UNBOUND:                -1.425
REMARK SMILES CCCCCCCCCCCC(=O)[O-]
REMARK SMILES IDX 7 1 8 2 9 3 10 4 11 5 12 6 13 7 14 8 6 9 5 10 4 11 3 12 2 13
REMARK SMILES IDX 1 14
REMARK H PARENT
REMARK Flexibility Score: inf
ROOT
ATOM      1  C   UNL     1      32.030  14.281 -16.620  1.00  0.00     0.000 C 
ENDROOT
BRANCH   1   2
ATOM      2  C   UNL     1      30.883  14.128 -15.601  1.00  0.00     0.000 C 
BRANCH   2   3
ATOM      3  C   UNL     1      29.702  15.099 -15.795  1.00  0.00     0.000 C 
BRANCH   3   4
ATOM      4  C   UNL     1      29.591  15.727 -17.197  1.00  0.00     0.006 C 
BRANCH   4   5
ATOM      5  C   UNL     1      28.257  16.453 -17.454  1.00  0.00     0.053 C 
BRANCH   5   6
ATOM      6  C   UNL     1      28.446  17.895 -17.815  1.00  0.00     0.041 C 
ATOM      7  O   UNL     1      28.182  18.800 -16.979  1.00  0.00    -0.550 OA
ATOM      8  O   UNL     1      28.948  18.241 -19.063  1.00  0.00    -0.550 OA
ENDBRANCH   5   6
ENDBRANCH   4   5
ENDBRANCH   3   4
ENDBRANCH   2   3
ENDBRANCH   1   2
BRANCH   1   9
ATOM      9  C   UNL     1      33.443  14.019 -16.060  1.00  0.00     0.000 C 
BRANCH   9  10
ATOM     10  C   UNL     1      34.550  14.914 -16.647  1.00  0.00    -0.000 C 
BRANCH  10  11
ATOM     11  C   UNL     1      34.057  15.792 -17.805  1.00  0.00    -0.000 C 
BRANCH  11  12
ATOM     12  C   UNL     1      34.700  17.183 -17.752  1.00  0.00    -0.000 C 
BRANCH  12  13
ATOM     13  C   UNL     1      33.860  18.208 -18.522  1.00  0.00    -0.003 C 
ATOM     14  C   UNL     1      32.413  17.742 -18.662  1.00  0.00     0.004 C 
ENDBRANCH  12  13
ENDBRANCH  11  12
ENDBRANCH  10  11
ENDBRANCH   9  10
ENDBRANCH   1   9
TORSDOF 10
ENDMDL
MODEL 3
REMARK VINA RESULT:    -3.454      1.946      4.480
REMARK INTER + INTRA:          -6.898
REMARK INTER:                  -5.906
REMARK INTRA:                  -0.993
REMARK UNBOUND:                -1.425
REMARK SMILES CCCCCCCCCCCC(=O)[O-]
REMARK SMILES IDX 7 1 8 2 9 3 10 4 11 5 12 6 13 7 14 8 6 9 5 10 4 11 3 12 2 13
REMARK SMILES IDX 1 14
REMARK H PARENT
REMARK Flexibility Score: inf
ROOT
ATOM      1  C   UNL     1      27.575  27.899 -20.119  1.00  0.00     0.000 C 
ENDROOT
BRANCH   1   2
ATOM      2  C   UNL     1      26.553  26.784 -19.819  1.00  0.00     0.000 C 
BRANCH   2   3
ATOM      3  C   UNL     1      25.082  27.242 -19.765  1.00  0.00     0.000 C 
BRANCH   3   4
ATOM      4  C   UNL     1      24.369  27.005 -18.421  1.00  0.00     0.006 C 
BRANCH   4   5
ATOM      5  C   UNL     1      24.207  28.276 -17.566  1.00  0.00     0.053 C 
BRANCH   5   6
ATOM      6  C   UNL     1      25.200  28.349 -16.446  1.00  0.00     0.041 C 
ATOM      7  O   UNL     1      26.098  27.473 -16.335  1.00  0.00    -0.550 OA
ATOM      8  O   UNL     1      25.158  29.406 -15.545  1.00  0.00    -0.550 OA
ENDBRANCH   5   6
ENDBRANCH   4   5
ENDBRANCH   3   4
ENDBRANCH   2   3
ENDBRANCH   1   2
BRANCH   1   9
ATOM      9  C   UNL     1      27.148  29.314 -19.682  1.00  0.00     0.000 C 
BRANCH   9  10
ATOM     10  C   UNL     1      27.892  29.866 -18.453  1.00  0.00    -0.000 C 
BRANCH  10  11
ATOM     11  C   UNL     1      27.370  31.238 -18.005  1.00  0.00    -0.000 C 
BRANCH  11  12
ATOM     12  C   UNL     1      28.495  32.280 -18.000  1.00  0.00    -0.000 C 
BRANCH  12  13
ATOM     13  C   UNL     1      29.785  31.694 -17.417  1.00  0.00    -0.003 C 
ATOM     14  C   UNL     1      30.772  32.796 -17.043  1.00  0.00     0.004 C 
ENDBRANCH  12  13
ENDBRANCH  11  12
ENDBRANCH  10  11
ENDBRANCH   9  10
ENDBRANCH   1   9
TORSDOF 10
ENDMDL
MODEL 4
REMARK VINA RESULT:    -3.403     12.429     14.119
REMARK INTER + INTRA:          -6.818
REMARK INTER:                  -5.681
REMARK INTRA:                  -1.137
REMARK UNBOUND:                -1.425
REMARK SMILES CCCCCCCCCCCC(=O)[O-]
REMARK SMILES IDX 7 1 8 2 9 3 10 4 11 5 12 6 13 7 14 8 6 9 5 10 4 11 3 12 2 13
REMARK SMILES IDX 1 14
REMARK H PARENT
REMARK Flexibility Score: inf
ROOT
ATOM      1  C   UNL     1      33.570  18.182 -18.535  1.00  0.00     0.000 C 
ENDROOT
BRANCH   1   2
ATOM      2  C   UNL     1      32.412  17.466 -19.260  1.00  0.00     0.000 C 
BRANCH   2   3
ATOM      3  C   UNL     1      31.017  17.691 -18.645  1.00  0.00     0.000 C 
BRANCH   3   4
ATOM      4  C   UNL     1      29.929  16.703 -19.107  1.00  0.00     0.006 C 
BRANCH   4   5
ATOM      5  C   UNL     1      28.595  16.842 -18.349  1.00  0.00     0.053 C 
BRANCH   5   6
ATOM      6  C   UNL     1      28.182  18.271 -18.165  1.00  0.00     0.041 C 
ATOM      7  O   UNL     1      27.835  18.965 -19.157  1.00  0.00    -0.550 OA
ATOM      8  O   UNL     1      28.145  18.827 -16.892  1.00  0.00    -0.550 OA
ENDBRANCH   5   6
ENDBRANCH   4   5
ENDBRANCH   3   4
ENDBRANCH   2   3
ENDBRANCH   1   2
BRANCH   1   9
ATOM      9  C   UNL     1      34.635  17.251 -17.924  1.00  0.00     0.000 C 
BRANCH   9  10
ATOM     10  C   UNL     1      34.288  15.752 -17.963  1.00  0.00    -0.000 C 
BRANCH  10  11
ATOM     11  C   UNL     1      34.639  15.023 -16.659  1.00  0.00    -0.000 C 
BRANCH  11  12
ATOM     12  C   UNL     1      33.465  14.159 -16.179  1.00  0.00    -0.000 C 
BRANCH  12  13
ATOM     13  C   UNL     1      32.238  14.350 -17.076  1.00  0.00    -0.003 C 
ATOM     14  C   UNL     1      30.964  14.485 -16.247  1.00  0.00     0.004 C 
ENDBRANCH  12  13
ENDBRANCH  11  12
ENDBRANCH  10  11
ENDBRANCH   9  10
ENDBRANCH   1   9
TORSDOF 10
ENDMDL
MODEL 5
REMARK VINA RESULT:    -3.393     13.852     15.709
REMARK INTER + INTRA:          -6.803
REMARK INTER:                  -5.839
REMARK INTRA:                  -0.963
REMARK UNBOUND:                -1.425
REMARK SMILES CCCCCCCCCCCC(=O)[O-]
REMARK SMILES IDX 7 1 8 2 9 3 10 4 11 5 12 6 13 7 14 8 6 9 5 10 4 11 3 12 2 13
REMARK SMILES IDX 1 14
REMARK H PARENT
REMARK Flexibility Score: inf
ROOT
ATOM      1  C   UNL     1      34.764  14.834 -16.633  1.00  0.00     0.000 C 
ENDROOT
BRANCH   1   2
ATOM      2  C   UNL     1      33.681  13.929 -16.011  1.00  0.00     0.000 C 
BRANCH   2   3
ATOM      3  C   UNL     1      32.241  14.219 -16.475  1.00  0.00     0.000 C 
BRANCH   3   4
ATOM      4  C   UNL     1      31.206  13.133 -16.124  1.00  0.00     0.006 C 
BRANCH   4   5
ATOM      5  C   UNL     1      30.182  13.565 -15.058  1.00  0.00     0.053 C 
BRANCH   5   6
ATOM      6  C   UNL     1      29.097  14.435 -15.619  1.00  0.00     0.041 C 
ATOM      7  O   UNL     1      28.199  13.940 -16.350  1.00  0.00    -0.550 OA
ATOM      8  O   UNL     1      29.057  15.788 -15.304  1.00  0.00    -0.550 OA
ENDBRANCH   5   6
ENDBRANCH   4   5
ENDBRANCH   3   4
ENDBRANCH   2   3
ENDBRANCH   1   2
BRANCH   1   9
ATOM      9  C   UNL     1      34.295  15.690 -17.826  1.00  0.00     0.000 C 
BRANCH   9  10
ATOM     10  C   UNL     1      34.727  17.167 -17.775  1.00  0.00    -0.000 C 
BRANCH  10  11
ATOM     11  C   UNL     1      33.753  18.100 -18.509  1.00  0.00    -0.000 C 
BRANCH  11  12
ATOM     12  C   UNL     1      32.626  17.303 -19.176  1.00  0.00    -0.000 C 
BRANCH  12  13
ATOM     13  C   UNL     1      31.259  17.702 -18.610  1.00  0.00    -0.003 C 
ATOM     14  C   UNL     1      30.298  16.516 -18.600  1.00  0.00     0.004 C 
ENDBRANCH  12  13
ENDBRANCH  11  12
ENDBRANCH  10  11
ENDBRANCH   9  10
ENDBRANCH   1   9
TORSDOF 10
ENDMDL
MODEL 6
REMARK VINA RESULT:    -3.336     13.280     15.091
REMARK INTER + INTRA:          -6.712
REMARK INTER:                  -5.998
REMARK INTRA:                  -0.714
REMARK UNBOUND:                -1.425
REMARK SMILES CCCCCCCCCCCC(=O)[O-]
REMARK SMILES IDX 7 1 8 2 9 3 10 4 11 5 12 6 13 7 14 8 6 9 5 10 4 11 3 12 2 13
REMARK SMILES IDX 1 14
REMARK H PARENT
REMARK Flexibility Score: inf
ROOT
ATOM      1  C   UNL     1      32.036  14.430 -16.507  1.00  0.00     0.000 C 
ENDROOT
BRANCH   1   2
ATOM      2  C   UNL     1      33.478  14.005 -16.164  1.00  0.00     0.000 C 
BRANCH   2   3
ATOM      3  C   UNL     1      34.580  14.940 -16.700  1.00  0.00     0.000 C 
BRANCH   3   4
ATOM      4  C   UNL     1      34.198  15.761 -17.946  1.00  0.00     0.006 C 
BRANCH   4   5
ATOM      5  C   UNL     1      34.628  17.238 -17.879  1.00  0.00     0.053 C 
BRANCH   5   6
ATOM      6  C   UNL     1      33.769  18.128 -18.725  1.00  0.00     0.041 C 
ATOM      7  O   UNL     1      33.277  19.183 -18.242  1.00  0.00    -0.550 OA
ATOM      8  O   UNL     1      33.541  17.813 -20.058  1.00  0.00    -0.550 OA
ENDBRANCH   5   6
ENDBRANCH   4   5
ENDBRANCH   3   4
ENDBRANCH   2   3
ENDBRANCH   1   2
BRANCH   1   9
ATOM      9  C   UNL     1      30.980  14.085 -15.439  1.00  0.00     0.000 C 
BRANCH   9  10
ATOM     10  C   UNL     1      29.591  14.704 -15.674  1.00  0.00    -0.000 C 
BRANCH  10  11
ATOM     11  C   UNL     1      29.480  15.426 -17.025  1.00  0.00    -0.000 C 
BRANCH  11  12
ATOM     12  C   UNL     1      28.583  16.664 -16.914  1.00  0.00    -0.000 C 
BRANCH  12  13
ATOM     13  C   UNL     1      28.734  17.566 -18.143  1.00  0.00    -0.003 C 
ATOM     14  C   UNL     1      30.147  17.489 -18.714  1.00  0.00     0.004 C 
ENDBRANCH  12  13
ENDBRANCH  11  12
ENDBRANCH  10  11
ENDBRANCH   9  10
ENDBRANCH   1   9
TORSDOF 10
ENDMDL
MODEL 7
REMARK VINA RESULT:    -3.333     11.672     13.451
REMARK INTER + INTRA:          -6.707
REMARK INTER:                  -5.897
REMARK INTRA:                  -0.810
REMARK UNBOUND:                -1.425
REMARK SMILES CCCCCCCCCCCC(=O)[O-]
REMARK SMILES IDX 7 1 8 2 9 3 10 4 11 5 12 6 13 7 14 8 6 9 5 10 4 11 3 12 2 13
REMARK SMILES IDX 1 14
REMARK H PARENT
REMARK Flexibility Score: inf
ROOT
ATOM      1  C   UNL     1      31.748  17.381 -19.219  1.00  0.00     0.000 C 
ENDROOT
BRANCH   1   2
ATOM      2  C   UNL     1      30.311  17.801 -18.852  1.00  0.00     0.000 C 
BRANCH   2   3
ATOM      3  C   UNL     1      29.489  16.735 -18.103  1.00  0.00     0.000 C 
BRANCH   3   4
ATOM      4  C   UNL     1      28.202  17.250 -17.431  1.00  0.00     0.006 C 
BRANCH   4   5
ATOM      5  C   UNL     1      28.122  18.784 -17.324  1.00  0.00     0.053 C 
BRANCH   5   6
ATOM      6  C   UNL     1      26.953  19.354 -18.069  1.00  0.00     0.041 C 
ATOM      7  O   UNL     1      27.119  20.301 -18.883  1.00  0.00    -0.550 OA
ATOM      8  O   UNL     1      25.685  18.816 -17.893  1.00  0.00    -0.550 OA
ENDBRANCH   5   6
ENDBRANCH   4   5
ENDBRANCH   3   4
ENDBRANCH   2   3
ENDBRANCH   1   2
BRANCH   1   9
ATOM      9  C   UNL     1      32.864  18.169 -18.505  1.00  0.00     0.000 C 
BRANCH   9  10
ATOM     10  C   UNL     1      34.200  17.419 -18.361  1.00  0.00    -0.000 C 
BRANCH  10  11
ATOM     11  C   UNL     1      34.024  15.896 -18.278  1.00  0.00    -0.000 C 
BRANCH  11  12
ATOM     12  C   UNL     1      34.560  15.352 -16.948  1.00  0.00    -0.000 C 
BRANCH  12  13
ATOM     13  C   UNL     1      33.616  14.297 -16.364  1.00  0.00    -0.003 C 
ATOM     14  C   UNL     1      32.234  14.375 -17.007  1.00  0.00     0.004 C 
ENDBRANCH  12  13
ENDBRANCH  11  12
ENDBRANCH  10  11
ENDBRANCH   9  10
ENDBRANCH   1   9
TORSDOF 10
ENDMDL
MODEL 8
REMARK VINA RESULT:    -3.315     13.428     15.064
REMARK INTER + INTRA:          -6.678
REMARK INTER:                  -5.503
REMARK INTRA:                  -1.175
REMARK UNBOUND:                -1.425
REMARK SMILES CCCCCCCCCCCC(=O)[O-]
REMARK SMILES IDX 7 1 8 2 9 3 10 4 11 5 12 6 13 7 14 8 6 9 5 10 4 11 3 12 2 13
REMARK SMILES IDX 1 14
REMARK H PARENT
REMARK Flexibility Score: inf
ROOT
ATOM      1  C   UNL     1      31.948  17.686 -19.370  1.00  0.00     0.000 C 
ENDROOT
BRANCH   1   2
ATOM      2  C   UNL     1      30.890  16.988 -18.493  1.00  0.00     0.000 C 
BRANCH   2   3
ATOM      3  C   UNL     1      30.982  15.450 -18.457  1.00  0.00     0.000 C 
BRANCH   3   4
ATOM      4  C   UNL     1      30.193  14.770 -17.322  1.00  0.00     0.006 C 
BRANCH   4   5
ATOM      5  C   UNL     1      28.672  15.002 -17.391  1.00  0.00     0.053 C 
BRANCH   5   6
ATOM      6  C   UNL     1      28.073  15.306 -16.051  1.00  0.00     0.041 C 
ATOM      7  O   UNL     1      28.667  16.074 -15.248  1.00  0.00    -0.550 OA
ATOM      8  O   UNL     1      26.840  14.771 -15.701  1.00  0.00    -0.550 OA
ENDBRANCH   5   6
ENDBRANCH   4   5
ENDBRANCH   3   4
ENDBRANCH   2   3
ENDBRANCH   1   2
BRANCH   1   9
ATOM      9  C   UNL     1      33.034  18.459 -18.596  1.00  0.00     0.000 C 
BRANCH   9  10
ATOM     10  C   UNL     1      34.271  17.629 -18.210  1.00  0.00    -0.000 C 
BRANCH  10  11
ATOM     11  C   UNL     1      34.546  16.477 -19.187  1.00  0.00    -0.000 C 
BRANCH  11  12
ATOM     12  C   UNL     1      34.516  15.125 -18.465  1.00  0.00    -0.000 C 
BRANCH  12  13
ATOM     13  C   UNL     1      34.548  15.312 -16.944  1.00  0.00    -0.003 C 
ATOM     14  C   UNL     1      33.765  14.210 -16.236  1.00  0.00     0.004 C 
ENDBRANCH  12  13
ENDBRANCH  11  12
ENDBRANCH  10  11
ENDBRANCH   9  10
ENDBRANCH   1   9
TORSDOF 10
ENDMDL
MODEL 9
REMARK VINA RESULT:    -3.247     13.622     15.498
REMARK INTER + INTRA:          -6.570
REMARK INTER:                  -5.247
REMARK INTRA:                  -1.323
REMARK UNBOUND:                -1.425
REMARK SMILES CCCCCCCCCCCC(=O)[O-]
REMARK SMILES IDX 7 1 8 2 9 3 10 4 11 5 12 6 13 7 14 8 6 9 5 10 4 11 3 12 2 13
REMARK SMILES IDX 1 14
REMARK H PARENT
REMARK Flexibility Score: inf
ROOT
ATOM      1  C   UNL     1      32.274  14.311 -15.942  1.00  0.00     0.000 C 
ENDROOT
BRANCH   1   2
ATOM      2  C   UNL     1      31.292  13.527 -16.836  1.00  0.00     0.000 C 
BRANCH   2   3
ATOM      3  C   UNL     1      30.709  14.321 -18.021  1.00  0.00     0.000 C 
BRANCH   3   4
ATOM      4  C   UNL     1      30.724  15.853 -17.856  1.00  0.00     0.006 C 
BRANCH   4   5
ATOM      5  C   UNL     1      29.325  16.482 -17.717  1.00  0.00     0.053 C 
BRANCH   5   6
ATOM      6  C   UNL     1      28.523  15.867 -16.610  1.00  0.00     0.041 C 
ATOM      7  O   UNL     1      27.413  15.325 -16.854  1.00  0.00    -0.550 OA
ATOM      8  O   UNL     1      29.019  15.859 -15.312  1.00  0.00    -0.550 OA
ENDBRANCH   5   6
ENDBRANCH   4   5
ENDBRANCH   3   4
ENDBRANCH   2   3
ENDBRANCH   1   2
BRANCH   1   9
ATOM      9  C   UNL     1      33.766  14.019 -16.196  1.00  0.00     0.000 C 
BRANCH   9  10
ATOM     10  C   UNL     1      34.525  15.125 -16.950  1.00  0.00    -0.000 C 
BRANCH  10  11
ATOM     11  C   UNL     1      34.394  15.007 -18.475  1.00  0.00    -0.000 C 
BRANCH  11  12
ATOM     12  C   UNL     1      34.497  16.383 -19.144  1.00  0.00    -0.000 C 
BRANCH  12  13
ATOM     13  C   UNL     1      34.375  17.508 -18.111  1.00  0.00    -0.003 C 
ATOM     14  C   UNL     1      33.336  18.541 -18.539  1.00  0.00     0.004 C 
ENDBRANCH  12  13
ENDBRANCH  11  12
ENDBRANCH  10  11
ENDBRANCH   9  10
ENDBRANCH   1   9
TORSDOF 10
ENDMDL
