MODEL 1
REMARK VINA RESULT:    -4.261      0.000      0.000
REMARK INTER + INTRA:         -10.821
REMARK INTER:                  -8.247
REMARK INTRA:                  -2.574
REMARK UNBOUND:                -2.574
REMARK SMILES CCCCCCCCCCCCCCCCCC(=O)[O-]
REMARK SMILES IDX 10 1 11 2 12 3 13 4 14 5 15 6 16 7 17 8 18 9 19 10 20 11
REMARK SMILES IDX 9 12 8 13 7 14 6 15 5 16 4 17 3 18 2 19 1 20
REMARK H PARENT
REMARK Flexibility Score: inf
ROOT
ATOM      1  C   UNL     1     164.760 177.689 180.679  1.00  0.00     0.000 C 
ENDROOT
BRANCH   1   2
ATOM      2  C   UNL     1     164.396 179.182 180.699  1.00  0.00     0.000 C 
BRANCH   2   3
ATOM      3  C   UNL     1     163.159 179.489 181.561  1.00  0.00     0.000 C 
BRANCH   3   4
ATOM      4  C   UNL     1     161.944 179.993 180.754  1.00  0.00     0.000 C 
BRANCH   4   5
ATOM      5  C   UNL     1     162.215 180.024 179.241  1.00  0.00     0.000 C 
BRANCH   5   6
ATOM      6  C   UNL     1     161.407 178.939 178.515  1.00  0.00     0.000 C 
BRANCH   6   7
ATOM      7  C   UNL     1     162.289 178.005 177.672  1.00  0.00     0.006 C 
BRANCH   7   8
ATOM      8  C   UNL     1     161.637 176.639 177.420  1.00  0.00     0.053 C 
BRANCH   8   9
ATOM      9  C   UNL     1     161.569 176.357 175.951  1.00  0.00     0.041 C 
ATOM     10  O   UNL     1     162.189 177.089 175.135  1.00  0.00    -0.550 OA
ATOM     11  O   UNL     1     160.848 175.263 175.486  1.00  0.00    -0.550 OA
ENDBRANCH   8   9
ENDBRANCH   7   8
ENDBRANCH   6   7
ENDBRANCH   5   6
ENDBRANCH   4   5
ENDBRANCH   3   4
ENDBRANCH   2   3
ENDBRANCH   1   2
BRANCH   1  12
ATOM     12  C   UNL     1     163.870 176.856 181.626  1.00  0.00     0.000 C 
BRANCH  12  13
ATOM     13  C   UNL     1     162.850 175.974 180.884  1.00  0.00    -0.000 C 
BRANCH  13  14
ATOM     14  C   UNL     1     161.397 176.407 181.133  1.00  0.00    -0.000 C 
BRANCH  14  15
ATOM     15  C   UNL     1     160.430 175.216 181.231  1.00  0.00    -0.000 C 
BRANCH  15  16
ATOM     16  C   UNL     1     160.733 174.126 180.188  1.00  0.00    -0.000 C 
BRANCH  16  17
ATOM     17  C   UNL     1     160.943 172.742 180.825  1.00  0.00    -0.000 C 
BRANCH  17  18
ATOM     18  C   UNL     1     161.015 172.801 182.358  1.00  0.00    -0.000 C 
BRANCH  18  19
ATOM     19  C   UNL     1     162.454 172.608 182.849  1.00  0.00    -0.003 C 
ATOM     20  C   UNL     1     163.249 171.719 181.897  1.00  0.00     0.004 C 
ENDBRANCH  18  19
ENDBRANCH  17  18
ENDBRANCH  16  17
ENDBRANCH  15  16
ENDBRANCH  14  15
ENDBRANCH  13  14
ENDBRANCH  12  13
ENDBRANCH   1  12
TORSDOF 16
ENDMDL
MODEL 2
REMARK VINA RESULT:    -4.061      2.997      6.416
REMARK INTER + INTRA:         -10.433
REMARK INTER:                  -7.842
REMARK INTRA:                  -2.591
REMARK UNBOUND:                -2.574
REMARK SMILES CCCCCCCCCCCCCCCCCC(=O)[O-]
REMARK SMILES IDX 10 1 11 2 12 3 13 4 14 5 15 6 16 7 17 8 18 9 19 10 20 11
REMARK SMILES IDX 9 12 8 13 7 14 6 15 5 16 4 17 3 18 2 19 1 20
REMARK H PARENT
REMARK Flexibility Score: inf
ROOT
ATOM      1  C   UNL     1     163.118 175.799 181.046  1.00  0.00     0.000 C 
ENDROOT
BRANCH   1   2
ATOM      2  C   UNL     1     161.702 176.397 181.069  1.00  0.00     0.000 C 
BRANCH   2   3
ATOM      3  C   UNL     1     160.599 175.331 181.200  1.00  0.00     0.000 C 
BRANCH   3   4
ATOM      4  C   UNL     1     160.679 174.214 180.138  1.00  0.00     0.000 C 
BRANCH   4   5
ATOM      5  C   UNL     1     160.977 172.838 180.755  1.00  0.00     0.000 C 
BRANCH   5   6
ATOM      6  C   UNL     1     161.031 172.922 182.287  1.00  0.00     0.000 C 
BRANCH   6   7
ATOM      7  C   UNL     1     162.440 172.670 182.847  1.00  0.00     0.006 C 
BRANCH   7   8
ATOM      8  C   UNL     1     163.372 171.995 181.831  1.00  0.00     0.053 C 
BRANCH   8   9
ATOM      9  C   UNL     1     164.736 171.807 182.419  1.00  0.00     0.041 C 
ATOM     10  O   UNL     1     164.973 170.821 183.165  1.00  0.00    -0.550 OA
ATOM     11  O   UNL     1     165.754 172.702 182.114  1.00  0.00    -0.550 OA
ENDBRANCH   8   9
ENDBRANCH   7   8
ENDBRANCH   6   7
ENDBRANCH   5   6
ENDBRANCH   4   5
ENDBRANCH   3   4
ENDBRANCH   2   3
ENDBRANCH   1   2
BRANCH   1  12
ATOM     12  C   UNL     1     164.203 176.854 181.347  1.00  0.00     0.000 C 
BRANCH  12  13
ATOM     13  C   UNL     1     163.630 178.252 181.638  1.00  0.00    -0.000 C 
BRANCH  13  14
ATOM     14  C   UNL     1     164.375 179.368 180.888  1.00  0.00    -0.000 C 
BRANCH  14  15
ATOM     15  C   UNL     1     163.697 179.746 179.561  1.00  0.00    -0.000 C 
BRANCH  15  16
ATOM     16  C   UNL     1     162.166 179.829 179.686  1.00  0.00    -0.000 C 
BRANCH  16  17
ATOM     17  C   UNL     1     161.441 179.012 178.604  1.00  0.00    -0.000 C 
BRANCH  17  18
ATOM     18  C   UNL     1     162.408 178.213 177.717  1.00  0.00    -0.000 C 
BRANCH  18  19
ATOM     19  C   UNL     1     161.743 176.937 177.188  1.00  0.00    -0.003 C 
ATOM     20  C   UNL     1     162.648 175.723 177.378  1.00  0.00     0.004 C 
ENDBRANCH  18  19
ENDBRANCH  17  18
ENDBRANCH  16  17
ENDBRANCH  15  16
ENDBRANCH  14  15
ENDBRANCH  13  14
ENDBRANCH  12  13
ENDBRANCH   1  12
TORSDOF 16
ENDMDL
MODEL 3
REMARK VINA RESULT:    -4.001     10.654     13.613
REMARK INTER + INTRA:         -10.316
REMARK INTER:                  -7.439
REMARK INTRA:                  -2.877
REMARK UNBOUND:                -2.574
REMARK SMILES CCCCCCCCCCCCCCCCCC(=O)[O-]
REMARK SMILES IDX 10 1 11 2 12 3 13 4 14 5 15 6 16 7 17 8 18 9 19 10 20 11
REMARK SMILES IDX 9 12 8 13 7 14 6 15 5 16 4 17 3 18 2 19 1 20
REMARK H PARENT
REMARK Flexibility Score: inf
ROOT
ATOM      1  C   UNL     1     177.054 175.939 179.458  1.00  0.00     0.000 C 
ENDROOT
BRANCH   1   2
ATOM      2  C   UNL     1     176.079 175.214 180.400  1.00  0.00     0.000 C 
BRANCH   2   3
ATOM      3  C   UNL     1     174.635 175.187 179.869  1.00  0.00     0.000 C 
BRANCH   3   4
ATOM      4  C   UNL     1     173.980 176.581 179.768  1.00  0.00     0.000 C 
BRANCH   4   5
ATOM      5  C   UNL     1     173.474 177.091 181.128  1.00  0.00     0.000 C 
BRANCH   5   6
ATOM      6  C   UNL     1     171.939 177.083 181.181  1.00  0.00     0.000 C 
BRANCH   6   7
ATOM      7  C   UNL     1     171.350 178.452 181.554  1.00  0.00     0.006 C 
BRANCH   7   8
ATOM      8  C   UNL     1     171.861 179.585 180.653  1.00  0.00     0.053 C 
BRANCH   8   9
ATOM      9  C   UNL     1     171.191 179.531 179.315  1.00  0.00     0.041 C 
ATOM     10  O   UNL     1     169.941 179.402 179.237  1.00  0.00    -0.550 OA
ATOM     11  O   UNL     1     171.946 179.657 178.155  1.00  0.00    -0.550 OA
ENDBRANCH   8   9
ENDBRANCH   7   8
ENDBRANCH   6   7
ENDBRANCH   5   6
ENDBRANCH   4   5
ENDBRANCH   3   4
ENDBRANCH   2   3
ENDBRANCH   1   2
BRANCH   1  12
ATOM     12  C   UNL     1     177.836 177.060 180.175  1.00  0.00     0.000 C 
BRANCH  12  13
ATOM     13  C   UNL     1     177.189 177.503 181.500  1.00  0.00    -0.000 C 
BRANCH  13  14
ATOM     14  C   UNL     1     176.857 179.003 181.527  1.00  0.00    -0.000 C 
BRANCH  14  15
ATOM     15  C   UNL     1     176.882 179.642 180.129  1.00  0.00    -0.000 C 
BRANCH  15  16
ATOM     16  C   UNL     1     175.473 179.793 179.527  1.00  0.00    -0.000 C 
BRANCH  16  17
ATOM     17  C   UNL     1     175.486 179.790 177.989  1.00  0.00    -0.000 C 
BRANCH  17  18
ATOM     18  C   UNL     1     176.766 179.171 177.408  1.00  0.00    -0.000 C 
BRANCH  18  19
ATOM     19  C   UNL     1     176.467 178.399 176.118  1.00  0.00    -0.003 C 
ATOM     20  C   UNL     1     175.416 177.316 176.352  1.00  0.00     0.004 C 
ENDBRANCH  18  19
ENDBRANCH  17  18
ENDBRANCH  16  17
ENDBRANCH  15  16
ENDBRANCH  14  15
ENDBRANCH  13  14
ENDBRANCH  12  13
ENDBRANCH   1  12
TORSDOF 16
ENDMDL
MODEL 4
REMARK VINA RESULT:    -3.973      9.964     12.868
REMARK INTER + INTRA:         -10.263
REMARK INTER:                  -7.707
REMARK INTRA:                  -2.555
REMARK UNBOUND:                -2.574
REMARK SMILES CCCCCCCCCCCCCCCCCC(=O)[O-]
REMARK SMILES IDX 10 1 11 2 12 3 13 4 14 5 15 6 16 7 17 8 18 9 19 10 20 11
REMARK SMILES IDX 9 12 8 13 7 14 6 15 5 16 4 17 3 18 2 19 1 20
REMARK H PARENT
REMARK Flexibility Score: inf
ROOT
ATOM      1  C   UNL     1     175.754 177.384 181.637  1.00  0.00     0.000 C 
ENDROOT
BRANCH   1   2
ATOM      2  C   UNL     1     174.297 176.924 181.470  1.00  0.00     0.000 C 
BRANCH   2   3
ATOM      3  C   UNL     1     173.487 177.821 180.518  1.00  0.00     0.000 C 
BRANCH   3   4
ATOM      4  C   UNL     1     173.415 179.299 180.961  1.00  0.00     0.000 C 
BRANCH   4   5
ATOM      5  C   UNL     1     171.983 179.740 181.303  1.00  0.00     0.000 C 
BRANCH   5   6
ATOM      6  C   UNL     1     170.953 178.943 180.490  1.00  0.00     0.000 C 
BRANCH   6   7
ATOM      7  C   UNL     1     169.766 178.465 181.341  1.00  0.00     0.006 C 
BRANCH   7   8
ATOM      8  C   UNL     1     170.191 177.963 182.728  1.00  0.00     0.053 C 
BRANCH   8   9
ATOM      9  C   UNL     1     170.338 176.473 182.721  1.00  0.00     0.041 C 
ATOM     10  O   UNL     1     171.395 175.938 183.147  1.00  0.00    -0.550 OA
ATOM     11  O   UNL     1     169.291 175.674 182.275  1.00  0.00    -0.550 OA
ENDBRANCH   8   9
ENDBRANCH   7   8
ENDBRANCH   6   7
ENDBRANCH   5   6
ENDBRANCH   4   5
ENDBRANCH   3   4
ENDBRANCH   2   3
ENDBRANCH   1   2
BRANCH   1  12
ATOM     12  C   UNL     1     176.703 176.698 180.633  1.00  0.00     0.000 C 
BRANCH  12  13
ATOM     13  C   UNL     1     177.641 177.681 179.910  1.00  0.00    -0.000 C 
BRANCH  13  14
ATOM     14  C   UNL     1     177.128 179.129 179.950  1.00  0.00    -0.000 C 
BRANCH  14  15
ATOM     15  C   UNL     1     176.910 179.721 178.549  1.00  0.00    -0.000 C 
BRANCH  15  16
ATOM     16  C   UNL     1     176.781 178.636 177.466  1.00  0.00    -0.000 C 
BRANCH  16  17
ATOM     17  C   UNL     1     175.352 178.526 176.908  1.00  0.00    -0.000 C 
BRANCH  17  18
ATOM     18  C   UNL     1     174.417 179.615 177.455  1.00  0.00    -0.000 C 
BRANCH  18  19
ATOM     19  C   UNL     1     173.094 179.643 176.682  1.00  0.00    -0.003 C 
ATOM     20  C   UNL     1     172.224 178.439 177.032  1.00  0.00     0.004 C 
ENDBRANCH  18  19
ENDBRANCH  17  18
ENDBRANCH  16  17
ENDBRANCH  15  16
ENDBRANCH  14  15
ENDBRANCH  13  14
ENDBRANCH  12  13
ENDBRANCH   1  12
TORSDOF 16
ENDMDL
MODEL 5
REMARK VINA RESULT:    -3.948     10.899     13.300
REMARK INTER + INTRA:         -10.215
REMARK INTER:                  -7.899
REMARK INTRA:                  -2.316
REMARK UNBOUND:                -2.574
REMARK SMILES CCCCCCCCCCCCCCCCCC(=O)[O-]
REMARK SMILES IDX 10 1 11 2 12 3 13 4 14 5 15 6 16 7 17 8 18 9 19 10 20 11
REMARK SMILES IDX 9 12 8 13 7 14 6 15 5 16 4 17 3 18 2 19 1 20
REMARK H PARENT
REMARK Flexibility Score: inf
ROOT
ATOM      1  C   UNL     1     177.413 180.120 180.200  1.00  0.00     0.000 C 
ENDROOT
BRANCH   1   2
ATOM      2  C   UNL     1     177.423 178.726 180.849  1.00  0.00     0.000 C 
BRANCH   2   3
ATOM      3  C   UNL     1     176.256 178.508 181.827  1.00  0.00     0.000 C 
BRANCH   3   4
ATOM      4  C   UNL     1     175.354 177.308 181.468  1.00  0.00     0.000 C 
BRANCH   4   5
ATOM      5  C   UNL     1     173.939 177.741 181.051  1.00  0.00     0.000 C 
BRANCH   5   6
ATOM      6  C   UNL     1     173.776 179.264 181.159  1.00  0.00     0.000 C 
BRANCH   6   7
ATOM      7  C   UNL     1     172.304 179.705 181.168  1.00  0.00     0.006 C 
BRANCH   7   8
ATOM      8  C   UNL     1     171.369 178.672 180.524  1.00  0.00     0.053 C 
BRANCH   8   9
ATOM      9  C   UNL     1     170.679 179.263 179.334  1.00  0.00     0.041 C 
ATOM     10  O   UNL     1     171.352 179.758 178.392  1.00  0.00    -0.550 OA
ATOM     11  O   UNL     1     169.292 179.235 179.251  1.00  0.00    -0.550 OA
ENDBRANCH   8   9
ENDBRANCH   7   8
ENDBRANCH   6   7
ENDBRANCH   5   6
ENDBRANCH   4   5
ENDBRANCH   3   4
ENDBRANCH   2   3
ENDBRANCH   1   2
BRANCH   1  12
ATOM     12  C   UNL     1     177.218 180.052 178.671  1.00  0.00     0.000 C 
BRANCH  12  13
ATOM     13  C   UNL     1     175.752 179.846 178.251  1.00  0.00    -0.000 C 
BRANCH  13  14
ATOM     14  C   UNL     1     175.590 178.771 177.165  1.00  0.00    -0.000 C 
BRANCH  14  15
ATOM     15  C   UNL     1     175.047 177.444 177.719  1.00  0.00    -0.000 C 
BRANCH  15  16
ATOM     16  C   UNL     1     176.160 176.410 177.962  1.00  0.00    -0.000 C 
BRANCH  16  17
ATOM     17  C   UNL     1     175.639 174.963 177.928  1.00  0.00    -0.000 C 
BRANCH  17  18
ATOM     18  C   UNL     1     176.559 173.984 178.673  1.00  0.00    -0.000 C 
BRANCH  18  19
ATOM     19  C   UNL     1     176.812 174.454 180.110  1.00  0.00    -0.003 C 
ATOM     20  C   UNL     1     177.786 173.526 180.832  1.00  0.00     0.004 C 
ENDBRANCH  18  19
ENDBRANCH  17  18
ENDBRANCH  16  17
ENDBRANCH  15  16
ENDBRANCH  14  15
ENDBRANCH  13  14
ENDBRANCH  12  13
ENDBRANCH   1  12
TORSDOF 16
ENDMDL
MODEL 6
REMARK VINA RESULT:    -3.943      2.699      5.940
REMARK INTER + INTRA:         -10.205
REMARK INTER:                  -7.324
REMARK INTRA:                  -2.881
REMARK UNBOUND:                -2.574
REMARK SMILES CCCCCCCCCCCCCCCCCC(=O)[O-]
REMARK SMILES IDX 10 1 11 2 12 3 13 4 14 5 15 6 16 7 17 8 18 9 19 10 20 11
REMARK SMILES IDX 9 12 8 13 7 14 6 15 5 16 4 17 3 18 2 19 1 20
REMARK H PARENT
REMARK Flexibility Score: inf
ROOT
ATOM      1  C   UNL     1     163.919 178.021 181.277  1.00  0.00     0.000 C 
ENDROOT
BRANCH   1   2
ATOM      2  C   UNL     1     163.555 176.528 181.297  1.00  0.00     0.000 C 
BRANCH   2   3
ATOM      3  C   UNL     1     162.059 176.270 181.045  1.00  0.00     0.000 C 
BRANCH   3   4
ATOM      4  C   UNL     1     161.777 175.341 179.845  1.00  0.00     0.000 C 
BRANCH   4   5
ATOM      5  C   UNL     1     160.761 174.238 180.181  1.00  0.00     0.000 C 
BRANCH   5   6
ATOM      6  C   UNL     1     160.623 174.063 181.700  1.00  0.00     0.000 C 
BRANCH   6   7
ATOM      7  C   UNL     1     161.040 172.663 182.177  1.00  0.00     0.006 C 
BRANCH   7   8
ATOM      8  C   UNL     1     162.431 172.646 182.826  1.00  0.00     0.053 C 
BRANCH   8   9
ATOM      9  C   UNL     1     163.433 172.034 181.897  1.00  0.00     0.041 C 
ATOM     10  O   UNL     1     163.674 170.799 181.948  1.00  0.00    -0.550 OA
ATOM     11  O   UNL     1     164.075 172.824 180.950  1.00  0.00    -0.550 OA
ENDBRANCH   8   9
ENDBRANCH   7   8
ENDBRANCH   6   7
ENDBRANCH   5   6
ENDBRANCH   4   5
ENDBRANCH   3   4
ENDBRANCH   2   3
ENDBRANCH   1   2
BRANCH   1  12
ATOM     12  C   UNL     1     162.878 178.888 182.017  1.00  0.00     0.000 C 
BRANCH  12  13
ATOM     13  C   UNL     1     162.261 179.987 181.133  1.00  0.00    -0.000 C 
BRANCH  13  14
ATOM     14  C   UNL     1     162.736 179.911 179.673  1.00  0.00    -0.000 C 
BRANCH  14  15
ATOM     15  C   UNL     1     161.604 179.549 178.698  1.00  0.00    -0.000 C 
BRANCH  15  16
ATOM     16  C   UNL     1     161.972 178.367 177.783  1.00  0.00    -0.000 C 
BRANCH  16  17
ATOM     17  C   UNL     1     163.472 178.327 177.446  1.00  0.00    -0.000 C 
BRANCH  17  18
ATOM     18  C   UNL     1     164.046 176.903 177.468  1.00  0.00    -0.000 C 
BRANCH  18  19
ATOM     19  C   UNL     1     165.458 176.888 178.065  1.00  0.00    -0.003 C 
ATOM     20  C   UNL     1     165.978 178.306 178.289  1.00  0.00     0.004 C 
ENDBRANCH  18  19
ENDBRANCH  17  18
ENDBRANCH  16  17
ENDBRANCH  15  16
ENDBRANCH  14  15
ENDBRANCH  13  14
ENDBRANCH  12  13
ENDBRANCH   1  12
TORSDOF 16
ENDMDL
MODEL 7
REMARK VINA RESULT:    -3.938      1.850      2.713
REMARK INTER + INTRA:         -10.194
REMARK INTER:                  -7.708
REMARK INTRA:                  -2.487
REMARK UNBOUND:                -2.574
REMARK SMILES CCCCCCCCCCCCCCCCCC(=O)[O-]
REMARK SMILES IDX 10 1 11 2 12 3 13 4 14 5 15 6 16 7 17 8 18 9 19 10 20 11
REMARK SMILES IDX 9 12 8 13 7 14 6 15 5 16 4 17 3 18 2 19 1 20
REMARK H PARENT
REMARK Flexibility Score: inf
ROOT
ATOM      1  C   UNL     1     163.999 176.262 180.096  1.00  0.00     0.000 C 
ENDROOT
BRANCH   1   2
ATOM      2  C   UNL     1     163.940 176.915 181.486  1.00  0.00     0.000 C 
BRANCH   2   3
ATOM      3  C   UNL     1     164.110 178.443 181.442  1.00  0.00     0.000 C 
BRANCH   3   4
ATOM      4  C   UNL     1     162.969 179.220 182.133  1.00  0.00     0.000 C 
BRANCH   4   5
ATOM      5  C   UNL     1     162.001 179.862 181.125  1.00  0.00     0.000 C 
BRANCH   5   6
ATOM      6  C   UNL     1     162.644 179.963 179.734  1.00  0.00     0.000 C 
BRANCH   6   7
ATOM      7  C   UNL     1     161.642 179.711 178.597  1.00  0.00     0.006 C 
BRANCH   7   8
ATOM      8  C   UNL     1     162.098 178.601 177.638  1.00  0.00     0.053 C 
BRANCH   8   9
ATOM      9  C   UNL     1     163.400 178.969 176.997  1.00  0.00     0.041 C 
ATOM     10  O   UNL     1     163.464 179.949 176.209  1.00  0.00    -0.550 OA
ATOM     11  O   UNL     1     164.550 178.248 177.297  1.00  0.00    -0.550 OA
ENDBRANCH   8   9
ENDBRANCH   7   8
ENDBRANCH   6   7
ENDBRANCH   5   6
ENDBRANCH   4   5
ENDBRANCH   3   4
ENDBRANCH   2   3
ENDBRANCH   1   2
BRANCH   1  12
ATOM     12  C   UNL     1     162.657 175.612 179.698  1.00  0.00     0.000 C 
BRANCH  12  13
ATOM     13  C   UNL     1     161.451 176.181 180.467  1.00  0.00    -0.000 C 
BRANCH  13  14
ATOM     14  C   UNL     1     160.651 175.097 181.204  1.00  0.00    -0.000 C 
BRANCH  14  15
ATOM     15  C   UNL     1     161.531 173.933 181.686  1.00  0.00    -0.000 C 
BRANCH  15  16
ATOM     16  C   UNL     1     160.703 172.726 182.162  1.00  0.00    -0.000 C 
BRANCH  16  17
ATOM     17  C   UNL     1     160.824 171.518 181.219  1.00  0.00    -0.000 C 
BRANCH  17  18
ATOM     18  C   UNL     1     161.891 171.721 180.131  1.00  0.00    -0.000 C 
BRANCH  18  19
ATOM     19  C   UNL     1     161.289 171.547 178.732  1.00  0.00    -0.003 C 
ATOM     20  C   UNL     1     161.415 172.829 177.913  1.00  0.00     0.004 C 
ENDBRANCH  18  19
ENDBRANCH  17  18
ENDBRANCH  16  17
ENDBRANCH  15  16
ENDBRANCH  14  15
ENDBRANCH  13  14
ENDBRANCH  12  13
ENDBRANCH   1  12
TORSDOF 16
ENDMDL
MODEL 8
REMARK VINA RESULT:    -3.914      1.940      5.322
REMARK INTER + INTRA:         -10.149
REMARK INTER:                  -7.444
REMARK INTRA:                  -2.705
REMARK UNBOUND:                -2.574
REMARK SMILES CCCCCCCCCCCCCCCCCC(=O)[O-]
REMARK SMILES IDX 10 1 11 2 12 3 13 4 14 5 15 6 16 7 17 8 18 9 19 10 20 11
REMARK SMILES IDX 9 12 8 13 7 14 6 15 5 16 4 17 3 18 2 19 1 20
REMARK H PARENT
REMARK Flexibility Score: inf
ROOT
ATOM      1  C   UNL     1     166.863 178.432 179.337  1.00  0.00     0.000 C 
ENDROOT
BRANCH   1   2
ATOM      2  C   UNL     1     166.321 177.002 179.490  1.00  0.00     0.000 C 
BRANCH   2   3
ATOM      3  C   UNL     1     165.212 176.666 178.477  1.00  0.00     0.000 C 
BRANCH   3   4
ATOM      4  C   UNL     1     164.044 175.853 179.075  1.00  0.00     0.000 C 
BRANCH   4   5
ATOM      5  C   UNL     1     164.115 175.763 180.608  1.00  0.00     0.000 C 
BRANCH   5   6
ATOM      6  C   UNL     1     162.882 175.045 181.174  1.00  0.00     0.000 C 
BRANCH   6   7
ATOM      7  C   UNL     1     161.586 175.846 180.980  1.00  0.00     0.006 C 
BRANCH   7   8
ATOM      8  C   UNL     1     160.359 174.949 180.759  1.00  0.00     0.053 C 
BRANCH   8   9
ATOM      9  C   UNL     1     160.459 174.245 179.442  1.00  0.00     0.041 C 
ATOM     10  O   UNL     1     160.328 172.994 179.381  1.00  0.00    -0.550 OA
ATOM     11  O   UNL     1     160.663 174.975 178.277  1.00  0.00    -0.550 OA
ENDBRANCH   8   9
ENDBRANCH   7   8
ENDBRANCH   6   7
ENDBRANCH   5   6
ENDBRANCH   4   5
ENDBRANCH   3   4
ENDBRANCH   2   3
ENDBRANCH   1   2
BRANCH   1  12
ATOM     12  C   UNL     1     166.346 179.375 180.445  1.00  0.00     0.000 C 
BRANCH  12  13
ATOM     13  C   UNL     1     164.859 179.739 180.290  1.00  0.00    -0.000 C 
BRANCH  13  14
ATOM     14  C   UNL     1     164.016 179.330 181.508  1.00  0.00    -0.000 C 
BRANCH  14  15
ATOM     15  C   UNL     1     162.525 179.174 181.173  1.00  0.00    -0.000 C 
BRANCH  15  16
ATOM     16  C   UNL     1     162.116 179.971 179.921  1.00  0.00    -0.000 C 
BRANCH  16  17
ATOM     17  C   UNL     1     161.599 179.067 178.790  1.00  0.00    -0.000 C 
BRANCH  17  18
ATOM     18  C   UNL     1     162.501 179.099 177.547  1.00  0.00    -0.000 C 
BRANCH  18  19
ATOM     19  C   UNL     1     162.234 177.890 176.642  1.00  0.00    -0.003 C 
ATOM     20  C   UNL     1     163.174 177.881 175.440  1.00  0.00     0.004 C 
ENDBRANCH  18  19
ENDBRANCH  17  18
ENDBRANCH  16  17
ENDBRANCH  15  16
ENDBRANCH  14  15
ENDBRANCH  13  14
ENDBRANCH  12  13
ENDBRANCH   1  12
TORSDOF 16
ENDMDL
MODEL 9
REMARK VINA RESULT:    -3.896      2.286      5.781
REMARK INTER + INTRA:         -10.114
REMARK INTER:                  -7.261
REMARK INTRA:                  -2.853
REMARK UNBOUND:                -2.574
REMARK SMILES CCCCCCCCCCCCCCCCCC(=O)[O-]
REMARK SMILES IDX 10 1 11 2 12 3 13 4 14 5 15 6 16 7 17 8 18 9 19 10 20 11
REMARK SMILES IDX 9 12 8 13 7 14 6 15 5 16 4 17 3 18 2 19 1 20
REMARK H PARENT
REMARK Flexibility Score: inf
ROOT
ATOM      1  C   UNL     1     163.212 176.750 177.590  1.00  0.00     0.000 C 
ENDROOT
BRANCH   1   2
ATOM      2  C   UNL     1     161.760 176.340 177.886  1.00  0.00     0.000 C 
BRANCH   2   3
ATOM      3  C   UNL     1     161.650 175.238 178.954  1.00  0.00     0.000 C 
BRANCH   3   4
ATOM      4  C   UNL     1     160.782 175.630 180.169  1.00  0.00     0.000 C 
BRANCH   4   5
ATOM      5  C   UNL     1     161.317 175.043 181.486  1.00  0.00     0.000 C 
BRANCH   5   6
ATOM      6  C   UNL     1     162.516 174.120 181.229  1.00  0.00     0.000 C 
BRANCH   6   7
ATOM      7  C   UNL     1     162.344 172.731 181.865  1.00  0.00     0.006 C 
BRANCH   7   8
ATOM      8  C   UNL     1     160.882 172.262 181.883  1.00  0.00     0.053 C 
BRANCH   8   9
ATOM      9  C   UNL     1     160.572 171.475 180.648  1.00  0.00     0.041 C 
ATOM     10  O   UNL     1     160.154 172.058 179.613  1.00  0.00    -0.550 OA
ATOM     11  O   UNL     1     160.779 170.100 180.630  1.00  0.00    -0.550 OA
ENDBRANCH   8   9
ENDBRANCH   7   8
ENDBRANCH   6   7
ENDBRANCH   5   6
ENDBRANCH   4   5
ENDBRANCH   3   4
ENDBRANCH   2   3
ENDBRANCH   1   2
BRANCH   1  12
ATOM     12  C   UNL     1     163.387 178.282 177.528  1.00  0.00     0.000 C 
BRANCH  12  13
ATOM     13  C   UNL     1     162.076 179.055 177.760  1.00  0.00    -0.000 C 
BRANCH  13  14
ATOM     14  C   UNL     1     162.113 179.919 179.030  1.00  0.00    -0.000 C 
BRANCH  14  15
ATOM     15  C   UNL     1     161.758 179.127 180.298  1.00  0.00    -0.000 C 
BRANCH  15  16
ATOM     16  C   UNL     1     162.414 179.714 181.561  1.00  0.00    -0.000 C 
BRANCH  16  17
ATOM     17  C   UNL     1     163.607 178.877 182.050  1.00  0.00    -0.000 C 
BRANCH  17  18
ATOM     18  C   UNL     1     163.842 177.623 181.193  1.00  0.00    -0.000 C 
BRANCH  18  19
ATOM     19  C   UNL     1     165.284 177.572 180.676  1.00  0.00    -0.003 C 
ATOM     20  C   UNL     1     165.773 178.959 180.264  1.00  0.00     0.004 C 
ENDBRANCH  18  19
ENDBRANCH  17  18
ENDBRANCH  16  17
ENDBRANCH  15  16
ENDBRANCH  14  15
ENDBRANCH  13  14
ENDBRANCH  12  13
ENDBRANCH   1  12
TORSDOF 16
ENDMDL
