MODEL 1
REMARK VINA RESULT:    -5.983      0.000      0.000
REMARK INTER + INTRA:         -12.042
REMARK INTER:                 -11.229
REMARK INTRA:                  -0.813
REMARK UNBOUND:                -0.813
REMARK SMILES CCCCCCCCC=CCCCCCCCC(=O)[O-]
REMARK SMILES IDX 10 1 9 2 11 3 12 4 13 5 14 6 15 7 16 8 17 9 18 10 19 11
REMARK SMILES IDX 20 12 8 13 7 14 6 15 5 16 4 17 3 18 2 19 1 20
REMARK H PARENT
REMARK Flexibility Score: inf
ROOT
ATOM      1  C   UNL     1      -9.333 -68.359 -28.461  1.00  0.00    -0.031 C 
ATOM      2  C   UNL     1     -10.115 -68.363 -29.550  1.00  0.00    -0.031 C 
ENDROOT
BRANCH   1   3
ATOM      3  C   UNL     1      -9.740 -69.064 -27.194  1.00  0.00     0.027 C 
BRANCH   3   4
ATOM      4  C   UNL     1     -10.399 -68.116 -26.176  1.00  0.00     0.004 C 
BRANCH   4   5
ATOM      5  C   UNL     1      -9.437 -67.091 -25.542  1.00  0.00     0.000 C 
BRANCH   5   6
ATOM      6  C   UNL     1     -10.115 -66.007 -24.685  1.00  0.00     0.000 C 
BRANCH   6   7
ATOM      7  C   UNL     1     -11.298 -66.548 -23.864  1.00  0.00     0.000 C 
BRANCH   7   8
ATOM      8  C   UNL     1     -12.567 -65.697 -24.020  1.00  0.00     0.006 C 
BRANCH   8   9
ATOM      9  C   UNL     1     -13.672 -66.424 -24.800  1.00  0.00     0.053 C 
BRANCH   9  10
ATOM     10  C   UNL     1     -14.645 -65.438 -25.364  1.00  0.00     0.041 C 
ATOM     11  O   UNL     1     -15.869 -65.732 -25.446  1.00  0.00    -0.550 OA
ATOM     12  O   UNL     1     -14.214 -64.169 -25.734  1.00  0.00    -0.550 OA
ENDBRANCH   9  10
ENDBRANCH   8   9
ENDBRANCH   7   8
ENDBRANCH   6   7
ENDBRANCH   5   6
ENDBRANCH   4   5
ENDBRANCH   3   4
ENDBRANCH   1   3
BRANCH   2  13
ATOM     13  C   UNL     1      -9.692 -67.637 -30.799  1.00  0.00     0.027 C 
BRANCH  13  14
ATOM     14  C   UNL     1     -10.912 -67.155 -31.599  1.00  0.00     0.004 C 
BRANCH  14  15
ATOM     15  C   UNL     1     -10.575 -66.886 -33.074  1.00  0.00     0.000 C 
BRANCH  15  16
ATOM     16  C   UNL     1     -10.319 -65.396 -33.356  1.00  0.00     0.000 C 
BRANCH  16  17
ATOM     17  C   UNL     1      -8.865 -65.019 -33.037  1.00  0.00    -0.000 C 
BRANCH  17  18
ATOM     18  C   UNL     1      -8.174 -64.263 -34.188  1.00  0.00    -0.000 C 
BRANCH  18  19
ATOM     19  C   UNL     1      -9.106 -63.838 -35.338  1.00  0.00    -0.003 C 
ATOM     20  C   UNL     1      -8.352 -63.248 -36.531  1.00  0.00     0.004 C 
ENDBRANCH  18  19
ENDBRANCH  17  18
ENDBRANCH  16  17
ENDBRANCH  15  16
ENDBRANCH  14  15
ENDBRANCH  13  14
ENDBRANCH   2  13
TORSDOF 15
ENDMDL
MODEL 2
REMARK VINA RESULT:    -5.951      2.927      4.227
REMARK INTER + INTRA:         -11.983
REMARK INTER:                 -11.058
REMARK INTRA:                  -0.924
REMARK UNBOUND:                -0.813
REMARK SMILES CCCCCCCCC=CCCCCCCCC(=O)[O-]
REMARK SMILES IDX 10 1 9 2 11 3 12 4 13 5 14 6 15 7 16 8 17 9 18 10 19 11
REMARK SMILES IDX 20 12 8 13 7 14 6 15 5 16 4 17 3 18 2 19 1 20
REMARK H PARENT
REMARK Flexibility Score: inf
ROOT
ATOM      1  C   UNL     1      -9.346 -67.264 -31.107  1.00  0.00    -0.031 C 
ATOM      2  C   UNL     1     -10.569 -67.263 -31.658  1.00  0.00    -0.031 C 
ENDROOT
BRANCH   1   3
ATOM      3  C   UNL     1      -9.061 -67.984 -29.816  1.00  0.00     0.027 C 
BRANCH   3   4
ATOM      4  C   UNL     1     -10.271 -68.788 -29.309  1.00  0.00     0.004 C 
BRANCH   4   5
ATOM      5  C   UNL     1     -10.298 -69.007 -27.782  1.00  0.00     0.000 C 
BRANCH   5   6
ATOM      6  C   UNL     1      -9.682 -67.867 -26.952  1.00  0.00     0.000 C 
BRANCH   6   7
ATOM      7  C   UNL     1      -9.936 -68.022 -25.443  1.00  0.00     0.000 C 
BRANCH   7   8
ATOM      8  C   UNL     1     -10.610 -66.788 -24.825  1.00  0.00     0.006 C 
BRANCH   8   9
ATOM      9  C   UNL     1     -12.139 -66.916 -24.771  1.00  0.00     0.053 C 
BRANCH   9  10
ATOM     10  C   UNL     1     -12.763 -65.589 -24.473  1.00  0.00     0.041 C 
ATOM     11  O   UNL     1     -13.679 -65.499 -23.611  1.00  0.00    -0.550 OA
ATOM     12  O   UNL     1     -12.285 -64.441 -25.095  1.00  0.00    -0.550 OA
ENDBRANCH   9  10
ENDBRANCH   8   9
ENDBRANCH   7   8
ENDBRANCH   6   7
ENDBRANCH   5   6
ENDBRANCH   4   5
ENDBRANCH   3   4
ENDBRANCH   1   3
BRANCH   2  13
ATOM     13  C   UNL     1     -10.831 -66.523 -32.941  1.00  0.00     0.027 C 
BRANCH  13  14
ATOM     14  C   UNL     1     -12.335 -66.458 -33.245  1.00  0.00     0.004 C 
BRANCH  14  15
ATOM     15  C   UNL     1     -13.111 -65.643 -32.197  1.00  0.00     0.000 C 
BRANCH  15  16
ATOM     16  C   UNL     1     -14.602 -66.015 -32.150  1.00  0.00     0.000 C 
BRANCH  16  17
ATOM     17  C   UNL     1     -15.272 -65.775 -33.511  1.00  0.00    -0.000 C 
BRANCH  17  18
ATOM     18  C   UNL     1     -15.866 -67.058 -34.122  1.00  0.00    -0.000 C 
BRANCH  18  19
ATOM     19  C   UNL     1     -15.438 -67.345 -35.574  1.00  0.00    -0.003 C 
ATOM     20  C   UNL     1     -16.198 -66.502 -36.599  1.00  0.00     0.004 C 
ENDBRANCH  18  19
ENDBRANCH  17  18
ENDBRANCH  16  17
ENDBRANCH  15  16
ENDBRANCH  14  15
ENDBRANCH  13  14
ENDBRANCH   2  13
TORSDOF 15
ENDMDL
MODEL 3
REMARK VINA RESULT:    -5.885      2.472      3.833
REMARK INTER + INTRA:         -11.858
REMARK INTER:                 -10.244
REMARK INTRA:                  -1.614
REMARK UNBOUND:                -0.813
REMARK SMILES CCCCCCCCC=CCCCCCCCC(=O)[O-]
REMARK SMILES IDX 10 1 9 2 11 3 12 4 13 5 14 6 15 7 16 8 17 9 18 10 19 11
REMARK SMILES IDX 20 12 8 13 7 14 6 15 5 16 4 17 3 18 2 19 1 20
REMARK H PARENT
REMARK Flexibility Score: inf
ROOT
ATOM      1  C   UNL     1     -10.038 -68.373 -28.064  1.00  0.00    -0.031 C 
ATOM      2  C   UNL     1      -9.905 -68.735 -29.348  1.00  0.00    -0.031 C 
ENDROOT
BRANCH   1   3
ATOM      3  C   UNL     1      -9.408 -69.167 -26.950  1.00  0.00     0.027 C 
BRANCH   3   4
ATOM      4  C   UNL     1      -9.543 -68.476 -25.582  1.00  0.00     0.004 C 
BRANCH   4   5
ATOM      5  C   UNL     1     -10.864 -67.706 -25.383  1.00  0.00     0.000 C 
BRANCH   5   6
ATOM      6  C   UNL     1     -10.741 -66.405 -24.568  1.00  0.00     0.000 C 
BRANCH   6   7
ATOM      7  C   UNL     1     -11.612 -66.410 -23.301  1.00  0.00     0.000 C 
BRANCH   7   8
ATOM      8  C   UNL     1     -12.926 -65.635 -23.481  1.00  0.00     0.006 C 
BRANCH   8   9
ATOM      9  C   UNL     1     -12.699 -64.186 -23.933  1.00  0.00     0.053 C 
BRANCH   9  10
ATOM     10  C   UNL     1     -13.356 -63.944 -25.256  1.00  0.00     0.041 C 
ATOM     11  O   UNL     1     -12.954 -63.010 -26.001  1.00  0.00    -0.550 OA
ATOM     12  O   UNL     1     -14.365 -64.793 -25.696  1.00  0.00    -0.550 OA
ENDBRANCH   9  10
ENDBRANCH   8   9
ENDBRANCH   7   8
ENDBRANCH   6   7
ENDBRANCH   5   6
ENDBRANCH   4   5
ENDBRANCH   3   4
ENDBRANCH   1   3
BRANCH   2  13
ATOM     13  C   UNL     1     -10.558 -67.933 -30.441  1.00  0.00     0.027 C 
BRANCH  13  14
ATOM     14  C   UNL     1      -9.507 -67.256 -31.334  1.00  0.00     0.004 C 
BRANCH  14  15
ATOM     15  C   UNL     1      -8.071 -67.518 -30.851  1.00  0.00     0.000 C 
BRANCH  15  16
ATOM     16  C   UNL     1      -7.138 -66.323 -31.106  1.00  0.00     0.000 C 
BRANCH  16  17
ATOM     17  C   UNL     1      -6.403 -65.915 -29.821  1.00  0.00    -0.000 C 
BRANCH  17  18
ATOM     18  C   UNL     1      -7.226 -66.186 -28.547  1.00  0.00    -0.000 C 
BRANCH  18  19
ATOM     19  C   UNL     1      -6.917 -65.251 -27.363  1.00  0.00    -0.003 C 
ATOM     20  C   UNL     1      -8.102 -65.078 -26.412  1.00  0.00     0.004 C 
ENDBRANCH  18  19
ENDBRANCH  17  18
ENDBRANCH  16  17
ENDBRANCH  15  16
ENDBRANCH  14  15
ENDBRANCH  13  14
ENDBRANCH   2  13
TORSDOF 15
ENDMDL
MODEL 4
REMARK VINA RESULT:    -5.876      3.836      8.983
REMARK INTER + INTRA:         -11.842
REMARK INTER:                 -11.079
REMARK INTRA:                  -0.764
REMARK UNBOUND:                -0.813
REMARK SMILES CCCCCCCCC=CCCCCCCCC(=O)[O-]
REMARK SMILES IDX 10 1 9 2 11 3 12 4 13 5 14 6 15 7 16 8 17 9 18 10 19 11
REMARK SMILES IDX 20 12 8 13 7 14 6 15 5 16 4 17 3 18 2 19 1 20
REMARK H PARENT
REMARK Flexibility Score: inf
ROOT
ATOM      1  C   UNL     1      -8.763 -67.589 -29.592  1.00  0.00    -0.031 C 
ATOM      2  C   UNL     1      -9.600 -68.502 -29.078  1.00  0.00    -0.031 C 
ENDROOT
BRANCH   1   3
ATOM      3  C   UNL     1      -8.835 -67.177 -31.038  1.00  0.00     0.027 C 
BRANCH   3   4
ATOM      4  C   UNL     1     -10.258 -67.285 -31.614  1.00  0.00     0.004 C 
BRANCH   4   5
ATOM      5  C   UNL     1     -10.524 -66.381 -32.835  1.00  0.00     0.000 C 
BRANCH   5   6
ATOM      6  C   UNL     1     -11.880 -66.608 -33.528  1.00  0.00     0.000 C 
BRANCH   6   7
ATOM      7  C   UNL     1     -11.744 -67.308 -34.891  1.00  0.00     0.000 C 
BRANCH   7   8
ATOM      8  C   UNL     1     -13.103 -67.672 -35.509  1.00  0.00     0.006 C 
BRANCH   8   9
ATOM      9  C   UNL     1     -14.286 -67.162 -34.673  1.00  0.00     0.053 C 
BRANCH   9  10
ATOM     10  C   UNL     1     -15.579 -67.623 -35.268  1.00  0.00     0.041 C 
ATOM     11  O   UNL     1     -16.060 -67.032 -36.274  1.00  0.00    -0.550 OA
ATOM     12  O   UNL     1     -16.219 -68.746 -34.756  1.00  0.00    -0.550 OA
ENDBRANCH   9  10
ENDBRANCH   8   9
ENDBRANCH   7   8
ENDBRANCH   6   7
ENDBRANCH   5   6
ENDBRANCH   4   5
ENDBRANCH   3   4
ENDBRANCH   1   3
BRANCH   2  13
ATOM     13  C   UNL     1      -9.498 -68.908 -27.633  1.00  0.00     0.027 C 
BRANCH  13  14
ATOM     14  C   UNL     1     -10.291 -67.950 -26.731  1.00  0.00     0.004 C 
BRANCH  14  15
ATOM     15  C   UNL     1      -9.499 -67.532 -25.481  1.00  0.00     0.000 C 
BRANCH  15  16
ATOM     16  C   UNL     1     -10.357 -66.739 -24.481  1.00  0.00     0.000 C 
BRANCH  16  17
ATOM     17  C   UNL     1     -11.784 -66.547 -25.013  1.00  0.00    -0.000 C 
BRANCH  17  18
ATOM     18  C   UNL     1     -12.310 -65.112 -24.818  1.00  0.00    -0.000 C 
BRANCH  18  19
ATOM     19  C   UNL     1     -12.484 -64.678 -23.350  1.00  0.00    -0.003 C 
ATOM     20  C   UNL     1     -13.432 -65.586 -22.565  1.00  0.00     0.004 C 
ENDBRANCH  18  19
ENDBRANCH  17  18
ENDBRANCH  16  17
ENDBRANCH  15  16
ENDBRANCH  14  15
ENDBRANCH  13  14
ENDBRANCH   2  13
TORSDOF 15
ENDMDL
MODEL 5
REMARK VINA RESULT:    -5.858      2.606      4.120
REMARK INTER + INTRA:         -11.807
REMARK INTER:                 -11.088
REMARK INTRA:                  -0.719
REMARK UNBOUND:                -0.813
REMARK SMILES CCCCCCCCC=CCCCCCCCC(=O)[O-]
REMARK SMILES IDX 10 1 9 2 11 3 12 4 13 5 14 6 15 7 16 8 17 9 18 10 19 11
REMARK SMILES IDX 20 12 8 13 7 14 6 15 5 16 4 17 3 18 2 19 1 20
REMARK H PARENT
REMARK Flexibility Score: inf
ROOT
ATOM      1  C   UNL     1      -9.413 -67.708 -30.401  1.00  0.00    -0.031 C 
ATOM      2  C   UNL     1     -10.307 -67.397 -31.350  1.00  0.00    -0.031 C 
ENDROOT
BRANCH   1   3
ATOM      3  C   UNL     1      -9.795 -68.519 -29.192  1.00  0.00     0.027 C 
BRANCH   3   4
ATOM      4  C   UNL     1      -9.018 -68.101 -27.930  1.00  0.00     0.004 C 
BRANCH   4   5
ATOM      5  C   UNL     1      -9.167 -69.069 -26.738  1.00  0.00     0.000 C 
BRANCH   5   6
ATOM      6  C   UNL     1     -10.313 -68.732 -25.768  1.00  0.00     0.000 C 
BRANCH   6   7
ATOM      7  C   UNL     1     -10.316 -67.256 -25.336  1.00  0.00     0.000 C 
BRANCH   7   8
ATOM      8  C   UNL     1     -11.691 -66.788 -24.834  1.00  0.00     0.006 C 
BRANCH   8   9
ATOM      9  C   UNL     1     -11.609 -66.061 -23.485  1.00  0.00     0.053 C 
BRANCH   9  10
ATOM     10  C   UNL     1     -12.764 -65.122 -23.328  1.00  0.00     0.041 C 
ATOM     11  O   UNL     1     -12.668 -63.929 -23.724  1.00  0.00    -0.550 OA
ATOM     12  O   UNL     1     -13.970 -65.583 -22.811  1.00  0.00    -0.550 OA
ENDBRANCH   9  10
ENDBRANCH   8   9
ENDBRANCH   7   8
ENDBRANCH   6   7
ENDBRANCH   5   6
ENDBRANCH   4   5
ENDBRANCH   3   4
ENDBRANCH   1   3
BRANCH   2  13
ATOM     13  C   UNL     1      -9.904 -66.571 -32.542  1.00  0.00     0.027 C 
BRANCH  13  14
ATOM     14  C   UNL     1     -11.108 -65.816 -33.125  1.00  0.00     0.004 C 
BRANCH  14  15
ATOM     15  C   UNL     1     -12.202 -66.766 -33.639  1.00  0.00     0.000 C 
BRANCH  15  16
ATOM     16  C   UNL     1     -11.879 -67.337 -35.030  1.00  0.00     0.000 C 
BRANCH  16  17
ATOM     17  C   UNL     1     -13.164 -67.702 -35.787  1.00  0.00    -0.000 C 
BRANCH  17  18
ATOM     18  C   UNL     1     -14.439 -67.210 -35.077  1.00  0.00    -0.000 C 
BRANCH  18  19
ATOM     19  C   UNL     1     -15.580 -68.241 -35.000  1.00  0.00    -0.003 C 
ATOM     20  C   UNL     1     -16.610 -67.914 -33.917  1.00  0.00     0.004 C 
ENDBRANCH  18  19
ENDBRANCH  17  18
ENDBRANCH  16  17
ENDBRANCH  15  16
ENDBRANCH  14  15
ENDBRANCH  13  14
ENDBRANCH   2  13
TORSDOF 15
ENDMDL
MODEL 6
REMARK VINA RESULT:    -5.836      2.257      3.369
REMARK INTER + INTRA:         -11.766
REMARK INTER:                 -10.947
REMARK INTRA:                  -0.819
REMARK UNBOUND:                -0.813
REMARK SMILES CCCCCCCCC=CCCCCCCCC(=O)[O-]
REMARK SMILES IDX 10 1 9 2 11 3 12 4 13 5 14 6 15 7 16 8 17 9 18 10 19 11
REMARK SMILES IDX 20 12 8 13 7 14 6 15 5 16 4 17 3 18 2 19 1 20
REMARK H PARENT
REMARK Flexibility Score: inf
ROOT
ATOM      1  C   UNL     1      -9.217 -68.143 -29.210  1.00  0.00    -0.031 C 
ATOM      2  C   UNL     1      -8.501 -67.223 -29.874  1.00  0.00    -0.031 C 
ENDROOT
BRANCH   1   3
ATOM      3  C   UNL     1      -9.000 -68.404 -27.744  1.00  0.00     0.027 C 
BRANCH   3   4
ATOM      4  C   UNL     1     -10.230 -69.037 -27.069  1.00  0.00     0.004 C 
BRANCH   4   5
ATOM      5  C   UNL     1     -10.730 -68.285 -25.818  1.00  0.00     0.000 C 
BRANCH   5   6
ATOM      6  C   UNL     1      -9.810 -67.151 -25.331  1.00  0.00     0.000 C 
BRANCH   6   7
ATOM      7  C   UNL     1     -10.450 -66.296 -24.225  1.00  0.00     0.000 C 
BRANCH   7   8
ATOM      8  C   UNL     1     -11.595 -65.413 -24.745  1.00  0.00     0.006 C 
BRANCH   8   9
ATOM      9  C   UNL     1     -12.717 -65.234 -23.713  1.00  0.00     0.053 C 
BRANCH   9  10
ATOM     10  C   UNL     1     -13.561 -66.468 -23.643  1.00  0.00     0.041 C 
ATOM     11  O   UNL     1     -13.633 -67.125 -22.569  1.00  0.00    -0.550 OA
ATOM     12  O   UNL     1     -14.322 -66.853 -24.740  1.00  0.00    -0.550 OA
ENDBRANCH   9  10
ENDBRANCH   8   9
ENDBRANCH   7   8
ENDBRANCH   6   7
ENDBRANCH   5   6
ENDBRANCH   4   5
ENDBRANCH   3   4
ENDBRANCH   1   3
BRANCH   2  13
ATOM     13  C   UNL     1      -8.726 -66.992 -31.344  1.00  0.00     0.027 C 
BRANCH  13  14
ATOM     14  C   UNL     1     -10.186 -67.267 -31.731  1.00  0.00     0.004 C 
BRANCH  14  15
ATOM     15  C   UNL     1     -10.689 -66.323 -32.835  1.00  0.00     0.000 C 
BRANCH  15  16
ATOM     16  C   UNL     1     -11.178 -67.082 -34.080  1.00  0.00     0.000 C 
BRANCH  16  17
ATOM     17  C   UNL     1     -12.693 -66.910 -34.267  1.00  0.00    -0.000 C 
BRANCH  17  18
ATOM     18  C   UNL     1     -13.234 -67.658 -35.500  1.00  0.00    -0.000 C 
BRANCH  18  19
ATOM     19  C   UNL     1     -14.758 -67.562 -35.701  1.00  0.00    -0.003 C 
ATOM     20  C   UNL     1     -15.482 -66.942 -34.505  1.00  0.00     0.004 C 
ENDBRANCH  18  19
ENDBRANCH  17  18
ENDBRANCH  16  17
ENDBRANCH  15  16
ENDBRANCH  14  15
ENDBRANCH  13  14
ENDBRANCH   2  13
TORSDOF 15
ENDMDL
MODEL 7
REMARK VINA RESULT:    -5.830      1.373      2.897
REMARK INTER + INTRA:         -11.756
REMARK INTER:                 -10.479
REMARK INTRA:                  -1.276
REMARK UNBOUND:                -0.813
REMARK SMILES CCCCCCCCC=CCCCCCCCC(=O)[O-]
REMARK SMILES IDX 10 1 9 2 11 3 12 4 13 5 14 6 15 7 16 8 17 9 18 10 19 11
REMARK SMILES IDX 20 12 8 13 7 14 6 15 5 16 4 17 3 18 2 19 1 20
REMARK H PARENT
REMARK Flexibility Score: inf
ROOT
ATOM      1  C   UNL     1      -8.619 -67.586 -30.588  1.00  0.00    -0.031 C 
ATOM      2  C   UNL     1      -7.634 -66.741 -30.252  1.00  0.00    -0.031 C 
ENDROOT
BRANCH   1   3
ATOM      3  C   UNL     1      -9.654 -68.030 -29.589  1.00  0.00     0.027 C 
BRANCH   3   4
ATOM      4  C   UNL     1      -9.108 -68.071 -28.151  1.00  0.00     0.004 C 
BRANCH   4   5
ATOM      5  C   UNL     1     -10.176 -68.335 -27.069  1.00  0.00     0.000 C 
BRANCH   5   6
ATOM      6  C   UNL     1      -9.741 -67.998 -25.631  1.00  0.00     0.000 C 
BRANCH   6   7
ATOM      7  C   UNL     1     -10.505 -66.800 -25.042  1.00  0.00     0.000 C 
BRANCH   7   8
ATOM      8  C   UNL     1     -12.004 -67.085 -24.861  1.00  0.00     0.006 C 
BRANCH   8   9
ATOM      9  C   UNL     1     -12.727 -65.969 -24.094  1.00  0.00     0.053 C 
BRANCH   9  10
ATOM     10  C   UNL     1     -13.662 -65.234 -25.002  1.00  0.00     0.041 C 
ATOM     11  O   UNL     1     -13.319 -64.130 -25.505  1.00  0.00    -0.550 OA
ATOM     12  O   UNL     1     -14.883 -65.802 -25.350  1.00  0.00    -0.550 OA
ENDBRANCH   9  10
ENDBRANCH   8   9
ENDBRANCH   7   8
ENDBRANCH   6   7
ENDBRANCH   5   6
ENDBRANCH   4   5
ENDBRANCH   3   4
ENDBRANCH   1   3
BRANCH   2  13
ATOM     13  C   UNL     1      -6.602 -66.325 -31.266  1.00  0.00     0.027 C 
BRANCH  13  14
ATOM     14  C   UNL     1      -6.879 -64.908 -31.788  1.00  0.00     0.004 C 
BRANCH  14  15
ATOM     15  C   UNL     1      -7.268 -64.897 -33.276  1.00  0.00     0.000 C 
BRANCH  15  16
ATOM     16  C   UNL     1      -8.548 -64.088 -33.543  1.00  0.00     0.000 C 
BRANCH  16  17
ATOM     17  C   UNL     1      -9.684 -65.001 -34.026  1.00  0.00    -0.000 C 
BRANCH  17  18
ATOM     18  C   UNL     1     -10.619 -65.450 -32.888  1.00  0.00    -0.000 C 
BRANCH  18  19
ATOM     19  C   UNL     1     -11.314 -66.806 -33.114  1.00  0.00    -0.003 C 
ATOM     20  C   UNL     1     -11.574 -67.106 -34.591  1.00  0.00     0.004 C 
ENDBRANCH  18  19
ENDBRANCH  17  18
ENDBRANCH  16  17
ENDBRANCH  15  16
ENDBRANCH  14  15
ENDBRANCH  13  14
ENDBRANCH   2  13
TORSDOF 15
ENDMDL
MODEL 8
REMARK VINA RESULT:    -5.790      3.724      8.635
REMARK INTER + INTRA:         -11.680
REMARK INTER:                 -10.691
REMARK INTRA:                  -0.989
REMARK UNBOUND:                -0.813
REMARK SMILES CCCCCCCCC=CCCCCCCCC(=O)[O-]
REMARK SMILES IDX 10 1 9 2 11 3 12 4 13 5 14 6 15 7 16 8 17 9 18 10 19 11
REMARK SMILES IDX 20 12 8 13 7 14 6 15 5 16 4 17 3 18 2 19 1 20
REMARK H PARENT
REMARK Flexibility Score: inf
ROOT
ATOM      1  C   UNL     1     -10.142 -67.041 -31.841  1.00  0.00    -0.031 C 
ATOM      2  C   UNL     1      -8.890 -66.886 -31.386  1.00  0.00    -0.031 C 
ENDROOT
BRANCH   1   3
ATOM      3  C   UNL     1     -10.620 -66.349 -33.089  1.00  0.00     0.027 C 
BRANCH   3   4
ATOM      4  C   UNL     1     -11.975 -66.888 -33.582  1.00  0.00     0.004 C 
BRANCH   4   5
ATOM      5  C   UNL     1     -12.031 -67.192 -35.093  1.00  0.00     0.000 C 
BRANCH   5   6
ATOM      6  C   UNL     1     -13.228 -68.051 -35.539  1.00  0.00     0.000 C 
BRANCH   6   7
ATOM      7  C   UNL     1     -14.122 -67.341 -36.569  1.00  0.00     0.000 C 
BRANCH   7   8
ATOM      8  C   UNL     1     -15.485 -66.933 -35.990  1.00  0.00     0.006 C 
BRANCH   8   9
ATOM      9  C   UNL     1     -15.978 -67.902 -34.906  1.00  0.00     0.053 C 
BRANCH   9  10
ATOM     10  C   UNL     1     -16.222 -67.168 -33.625  1.00  0.00     0.041 C 
ATOM     11  O   UNL     1     -17.111 -67.569 -32.826  1.00  0.00    -0.550 OA
ATOM     12  O   UNL     1     -15.422 -66.085 -33.281  1.00  0.00    -0.550 OA
ENDBRANCH   9  10
ENDBRANCH   8   9
ENDBRANCH   7   8
ENDBRANCH   6   7
ENDBRANCH   5   6
ENDBRANCH   4   5
ENDBRANCH   3   4
ENDBRANCH   1   3
BRANCH   2  13
ATOM     13  C   UNL     1      -8.441 -67.576 -30.126  1.00  0.00     0.027 C 
BRANCH  13  14
ATOM     14  C   UNL     1      -9.583 -68.395 -29.507  1.00  0.00     0.004 C 
BRANCH  14  15
ATOM     15  C   UNL     1      -9.262 -68.862 -28.078  1.00  0.00     0.000 C 
BRANCH  15  16
ATOM     16  C   UNL     1     -10.523 -69.249 -27.288  1.00  0.00     0.000 C 
BRANCH  16  17
ATOM     17  C   UNL     1     -10.376 -68.884 -25.804  1.00  0.00    -0.000 C 
BRANCH  17  18
ATOM     18  C   UNL     1     -11.039 -67.541 -25.447  1.00  0.00    -0.000 C 
BRANCH  18  19
ATOM     19  C   UNL     1     -10.166 -66.588 -24.609  1.00  0.00    -0.003 C 
ATOM     20  C   UNL     1      -9.135 -65.829 -25.446  1.00  0.00     0.004 C 
ENDBRANCH  18  19
ENDBRANCH  17  18
ENDBRANCH  16  17
ENDBRANCH  15  16
ENDBRANCH  14  15
ENDBRANCH  13  14
ENDBRANCH   2  13
TORSDOF 15
ENDMDL
MODEL 9
REMARK VINA RESULT:    -5.691     12.737     16.058
REMARK INTER + INTRA:         -11.494
REMARK INTER:                  -8.402
REMARK INTRA:                  -3.092
REMARK UNBOUND:                -0.813
REMARK SMILES CCCCCCCCC=CCCCCCCCC(=O)[O-]
REMARK SMILES IDX 10 1 9 2 11 3 12 4 13 5 14 6 15 7 16 8 17 9 18 10 19 11
REMARK SMILES IDX 20 12 8 13 7 14 6 15 5 16 4 17 3 18 2 19 1 20
REMARK H PARENT
REMARK Flexibility Score: inf
ROOT
ATOM      1  C   UNL     1      -7.972 -54.419 -36.638  1.00  0.00    -0.031 C 
ATOM      2  C   UNL     1      -7.308 -54.828 -37.729  1.00  0.00    -0.031 C 
ENDROOT
BRANCH   1   3
ATOM      3  C   UNL     1      -7.747 -53.056 -36.041  1.00  0.00     0.027 C 
BRANCH   3   4
ATOM      4  C   UNL     1      -6.666 -53.061 -34.945  1.00  0.00     0.004 C 
BRANCH   4   5
ATOM      5  C   UNL     1      -5.392 -52.268 -35.300  1.00  0.00     0.000 C 
BRANCH   5   6
ATOM      6  C   UNL     1      -4.078 -53.062 -35.180  1.00  0.00     0.000 C 
BRANCH   6   7
ATOM      7  C   UNL     1      -4.042 -54.299 -36.093  1.00  0.00     0.000 C 
BRANCH   7   8
ATOM      8  C   UNL     1      -3.909 -53.935 -37.580  1.00  0.00     0.006 C 
BRANCH   8   9
ATOM      9  C   UNL     1      -3.155 -55.004 -38.383  1.00  0.00     0.053 C 
BRANCH   9  10
ATOM     10  C   UNL     1      -3.504 -54.907 -39.835  1.00  0.00     0.041 C 
ATOM     11  O   UNL     1      -2.700 -55.331 -40.709  1.00  0.00    -0.550 OA
ATOM     12  O   UNL     1      -4.745 -54.412 -40.220  1.00  0.00    -0.550 OA
ENDBRANCH   9  10
ENDBRANCH   8   9
ENDBRANCH   7   8
ENDBRANCH   6   7
ENDBRANCH   5   6
ENDBRANCH   4   5
ENDBRANCH   3   4
ENDBRANCH   1   3
BRANCH   2  13
ATOM     13  C   UNL     1      -7.540 -56.202 -38.297  1.00  0.00     0.027 C 
BRANCH  13  14
ATOM     14  C   UNL     1      -6.260 -57.048 -38.240  1.00  0.00     0.004 C 
BRANCH  14  15
ATOM     15  C   UNL     1      -5.985 -57.601 -36.832  1.00  0.00     0.000 C 
BRANCH  15  16
ATOM     16  C   UNL     1      -7.223 -58.268 -36.211  1.00  0.00     0.000 C 
BRANCH  16  17
ATOM     17  C   UNL     1      -7.437 -57.794 -34.766  1.00  0.00    -0.000 C 
BRANCH  17  18
ATOM     18  C   UNL     1      -6.326 -56.847 -34.275  1.00  0.00    -0.000 C 
BRANCH  18  19
ATOM     19  C   UNL     1      -6.633 -56.113 -32.956  1.00  0.00    -0.003 C 
ATOM     20  C   UNL     1      -8.117 -55.780 -32.788  1.00  0.00     0.004 C 
ENDBRANCH  18  19
ENDBRANCH  17  18
ENDBRANCH  16  17
ENDBRANCH  15  16
ENDBRANCH  14  15
ENDBRANCH  13  14
ENDBRANCH   2  13
TORSDOF 15
ENDMDL
