MODEL 1
REMARK VINA RESULT:    -4.231      0.000      0.000
REMARK INTER + INTRA:          -9.831
REMARK INTER:                  -8.189
REMARK INTRA:                  -1.642
REMARK UNBOUND:                -1.642
REMARK SMILES CCCCCCCCCCCCCCCCCC(=O)[O-]
REMARK SMILES IDX 10 1 11 2 12 3 13 4 14 5 15 6 16 7 17 8 18 9 19 10 20 11
REMARK SMILES IDX 9 12 8 13 7 14 6 15 5 16 4 17 3 18 2 19 1 20
REMARK H PARENT
REMARK Flexibility Score: inf
ROOT
ATOM      1  C   UNL     1       2.669 125.118 110.995  1.00  0.00     0.000 C 
ENDROOT
BRANCH   1   2
ATOM      2  C   UNL     1       2.151 126.516 110.619  1.00  0.00     0.000 C 
BRANCH   2   3
ATOM      3  C   UNL     1       2.766 127.633 111.479  1.00  0.00     0.000 C 
BRANCH   3   4
ATOM      4  C   UNL     1       2.287 127.582 112.939  1.00  0.00     0.000 C 
BRANCH   4   5
ATOM      5  C   UNL     1       3.275 128.251 113.908  1.00  0.00     0.000 C 
BRANCH   5   6
ATOM      6  C   UNL     1       4.653 128.423 113.253  1.00  0.00     0.000 C 
BRANCH   6   7
ATOM      7  C   UNL     1       5.706 128.981 114.223  1.00  0.00     0.006 C 
BRANCH   7   8
ATOM      8  C   UNL     1       6.043 130.452 113.951  1.00  0.00     0.053 C 
BRANCH   8   9
ATOM      9  C   UNL     1       7.373 130.802 114.541  1.00  0.00     0.041 C 
ATOM     10  O   UNL     1       8.426 130.633 113.872  1.00  0.00    -0.550 OA
ATOM     11  O   UNL     1       7.455 131.261 115.849  1.00  0.00    -0.550 OA
ENDBRANCH   8   9
ENDBRANCH   7   8
ENDBRANCH   6   7
ENDBRANCH   5   6
ENDBRANCH   4   5
ENDBRANCH   3   4
ENDBRANCH   2   3
ENDBRANCH   1   2
BRANCH   1  12
ATOM     12  C   UNL     1       4.147 124.884 110.618  1.00  0.00     0.000 C 
BRANCH  12  13
ATOM     13  C   UNL     1       4.888 124.045 111.674  1.00  0.00    -0.000 C 
BRANCH  13  14
ATOM     14  C   UNL     1       5.541 124.909 112.764  1.00  0.00    -0.000 C 
BRANCH  14  15
ATOM     15  C   UNL     1       7.078 124.890 112.692  1.00  0.00    -0.000 C 
BRANCH  15  16
ATOM     16  C   UNL     1       7.608 123.984 111.569  1.00  0.00    -0.000 C 
BRANCH  16  17
ATOM     17  C   UNL     1       7.972 124.772 110.298  1.00  0.00    -0.000 C 
BRANCH  17  18
ATOM     18  C   UNL     1       7.591 124.020 109.012  1.00  0.00    -0.000 C 
BRANCH  18  19
ATOM     19  C   UNL     1       7.922 124.815 107.742  1.00  0.00    -0.003 C 
ATOM     20  C   UNL     1       6.700 125.576 107.236  1.00  0.00     0.004 C 
ENDBRANCH  18  19
ENDBRANCH  17  18
ENDBRANCH  16  17
ENDBRANCH  15  16
ENDBRANCH  14  15
ENDBRANCH  13  14
ENDBRANCH  12  13
ENDBRANCH   1  12
TORSDOF 16
ENDMDL
MODEL 2
REMARK VINA RESULT:    -4.227      1.687      3.314
REMARK INTER + INTRA:          -9.823
REMARK INTER:                  -7.534
REMARK INTRA:                  -2.289
REMARK UNBOUND:                -1.642
REMARK SMILES CCCCCCCCCCCCCCCCCC(=O)[O-]
REMARK SMILES IDX 10 1 11 2 12 3 13 4 14 5 15 6 16 7 17 8 18 9 19 10 20 11
REMARK SMILES IDX 9 12 8 13 7 14 6 15 5 16 4 17 3 18 2 19 1 20
REMARK H PARENT
REMARK Flexibility Score: inf
ROOT
ATOM      1  C   UNL     1       2.766 125.301 110.643  1.00  0.00     0.000 C 
ENDROOT
BRANCH   1   2
ATOM      2  C   UNL     1       2.115 126.549 111.263  1.00  0.00     0.000 C 
BRANCH   2   3
ATOM      3  C   UNL     1       2.086 127.748 110.300  1.00  0.00     0.000 C 
BRANCH   3   4
ATOM      4  C   UNL     1       2.753 128.999 110.897  1.00  0.00     0.000 C 
BRANCH   4   5
ATOM      5  C   UNL     1       3.377 128.734 112.276  1.00  0.00     0.000 C 
BRANCH   5   6
ATOM      6  C   UNL     1       4.139 129.968 112.778  1.00  0.00     0.000 C 
BRANCH   6   7
ATOM      7  C   UNL     1       5.144 129.633 113.891  1.00  0.00     0.006 C 
BRANCH   7   8
ATOM      8  C   UNL     1       5.643 130.878 114.635  1.00  0.00     0.053 C 
BRANCH   8   9
ATOM      9  C   UNL     1       7.138 130.897 114.681  1.00  0.00     0.041 C 
ATOM     10  O   UNL     1       7.736 131.124 115.766  1.00  0.00    -0.550 OA
ATOM     11  O   UNL     1       7.873 130.718 113.516  1.00  0.00    -0.550 OA
ENDBRANCH   8   9
ENDBRANCH   7   8
ENDBRANCH   6   7
ENDBRANCH   5   6
ENDBRANCH   4   5
ENDBRANCH   3   4
ENDBRANCH   2   3
ENDBRANCH   1   2
BRANCH   1  12
ATOM     12  C   UNL     1       4.176 125.559 110.070  1.00  0.00     0.000 C 
BRANCH  12  13
ATOM     13  C   UNL     1       5.212 125.820 111.179  1.00  0.00    -0.000 C 
BRANCH  13  14
ATOM     14  C   UNL     1       6.506 125.017 110.980  1.00  0.00    -0.000 C 
BRANCH  14  15
ATOM     15  C   UNL     1       6.639 123.853 111.978  1.00  0.00    -0.000 C 
BRANCH  15  16
ATOM     16  C   UNL     1       5.598 122.748 111.743  1.00  0.00    -0.000 C 
BRANCH  16  17
ATOM     17  C   UNL     1       4.558 122.665 112.875  1.00  0.00    -0.000 C 
BRANCH  17  18
ATOM     18  C   UNL     1       4.960 123.496 114.103  1.00  0.00    -0.000 C 
BRANCH  18  19
ATOM     19  C   UNL     1       3.887 124.519 114.502  1.00  0.00    -0.003 C 
ATOM     20  C   UNL     1       4.476 125.923 114.600  1.00  0.00     0.004 C 
ENDBRANCH  18  19
ENDBRANCH  17  18
ENDBRANCH  16  17
ENDBRANCH  15  16
ENDBRANCH  14  15
ENDBRANCH  13  14
ENDBRANCH  12  13
ENDBRANCH   1  12
TORSDOF 16
ENDMDL
MODEL 3
REMARK VINA RESULT:    -4.224      2.629      4.845
REMARK INTER + INTRA:          -9.817
REMARK INTER:                  -6.905
REMARK INTRA:                  -2.912
REMARK UNBOUND:                -1.642
REMARK SMILES CCCCCCCCCCCCCCCCCC(=O)[O-]
REMARK SMILES IDX 10 1 11 2 12 3 13 4 14 5 15 6 16 7 17 8 18 9 19 10 20 11
REMARK SMILES IDX 9 12 8 13 7 14 6 15 5 16 4 17 3 18 2 19 1 20
REMARK H PARENT
REMARK Flexibility Score: inf
ROOT
ATOM      1  C   UNL     1       2.251 123.935 113.245  1.00  0.00     0.000 C 
ENDROOT
BRANCH   1   2
ATOM      2  C   UNL     1       3.403 124.242 114.218  1.00  0.00     0.000 C 
BRANCH   2   3
ATOM      3  C   UNL     1       3.203 125.562 114.981  1.00  0.00     0.000 C 
BRANCH   3   4
ATOM      4  C   UNL     1       4.440 126.473 114.916  1.00  0.00     0.000 C 
BRANCH   4   5
ATOM      5  C   UNL     1       5.150 126.408 113.554  1.00  0.00     0.000 C 
BRANCH   5   6
ATOM      6  C   UNL     1       5.623 127.801 113.116  1.00  0.00     0.000 C 
BRANCH   6   7
ATOM      7  C   UNL     1       5.468 128.856 114.222  1.00  0.00     0.006 C 
BRANCH   7   8
ATOM      8  C   UNL     1       5.839 130.268 113.751  1.00  0.00     0.053 C 
BRANCH   8   9
ATOM      9  C   UNL     1       7.194 130.649 114.258  1.00  0.00     0.041 C 
ATOM     10  O   UNL     1       8.172 130.710 113.467  1.00  0.00    -0.550 OA
ATOM     11  O   UNL     1       7.390 130.883 115.613  1.00  0.00    -0.550 OA
ENDBRANCH   8   9
ENDBRANCH   7   8
ENDBRANCH   6   7
ENDBRANCH   5   6
ENDBRANCH   4   5
ENDBRANCH   3   4
ENDBRANCH   2   3
ENDBRANCH   1   2
BRANCH   1  12
ATOM     12  C   UNL     1       2.041 125.024 112.172  1.00  0.00     0.000 C 
BRANCH  12  13
ATOM     13  C   UNL     1       3.044 124.894 111.011  1.00  0.00    -0.000 C 
BRANCH  13  14
ATOM     14  C   UNL     1       3.302 126.231 110.300  1.00  0.00    -0.000 C 
BRANCH  14  15
ATOM     15  C   UNL     1       2.053 127.129 110.257  1.00  0.00    -0.000 C 
BRANCH  15  16
ATOM     16  C   UNL     1       2.394 128.610 110.034  1.00  0.00    -0.000 C 
BRANCH  16  17
ATOM     17  C   UNL     1       2.922 129.293 111.308  1.00  0.00    -0.000 C 
BRANCH  17  18
ATOM     18  C   UNL     1       1.805 129.590 112.322  1.00  0.00    -0.000 C 
BRANCH  18  19
ATOM     19  C   UNL     1       1.954 128.785 113.620  1.00  0.00    -0.003 C 
ATOM     20  C   UNL     1       0.665 128.041 113.957  1.00  0.00     0.004 C 
ENDBRANCH  18  19
ENDBRANCH  17  18
ENDBRANCH  16  17
ENDBRANCH  15  16
ENDBRANCH  14  15
ENDBRANCH  13  14
ENDBRANCH  12  13
ENDBRANCH   1  12
TORSDOF 16
ENDMDL
MODEL 4
REMARK VINA RESULT:    -4.196      2.598      5.913
REMARK INTER + INTRA:          -9.763
REMARK INTER:                  -6.524
REMARK INTRA:                  -3.239
REMARK UNBOUND:                -1.642
REMARK SMILES CCCCCCCCCCCCCCCCCC(=O)[O-]
REMARK SMILES IDX 10 1 11 2 12 3 13 4 14 5 15 6 16 7 17 8 18 9 19 10 20 11
REMARK SMILES IDX 9 12 8 13 7 14 6 15 5 16 4 17 3 18 2 19 1 20
REMARK H PARENT
REMARK Flexibility Score: inf
ROOT
ATOM      1  C   UNL     1       1.370 127.098 112.759  1.00  0.00     0.000 C 
ENDROOT
BRANCH   1   2
ATOM      2  C   UNL     1       1.133 125.616 113.096  1.00  0.00     0.000 C 
BRANCH   2   3
ATOM      3  C   UNL     1       2.162 124.681 112.438  1.00  0.00     0.000 C 
BRANCH   3   4
ATOM      4  C   UNL     1       2.671 125.221 111.092  1.00  0.00     0.000 C 
BRANCH   4   5
ATOM      5  C   UNL     1       4.112 124.781 110.786  1.00  0.00     0.000 C 
BRANCH   5   6
ATOM      6  C   UNL     1       4.596 123.743 111.809  1.00  0.00     0.000 C 
BRANCH   6   7
ATOM      7  C   UNL     1       6.038 123.281 111.549  1.00  0.00     0.006 C 
BRANCH   7   8
ATOM      8  C   UNL     1       6.784 124.192 110.566  1.00  0.00     0.053 C 
BRANCH   8   9
ATOM      9  C   UNL     1       7.881 124.930 111.267  1.00  0.00     0.041 C 
ATOM     10  O   UNL     1       8.732 124.300 111.950  1.00  0.00    -0.550 OA
ATOM     11  O   UNL     1       7.933 126.317 111.212  1.00  0.00    -0.550 OA
ENDBRANCH   8   9
ENDBRANCH   7   8
ENDBRANCH   6   7
ENDBRANCH   5   6
ENDBRANCH   4   5
ENDBRANCH   3   4
ENDBRANCH   2   3
ENDBRANCH   1   2
BRANCH   1  12
ATOM     12  C   UNL     1       1.383 128.020 113.997  1.00  0.00     0.000 C 
BRANCH  12  13
ATOM     13  C   UNL     1       2.337 129.215 113.818  1.00  0.00    -0.000 C 
BRANCH  13  14
ATOM     14  C   UNL     1       3.328 129.013 112.662  1.00  0.00    -0.000 C 
BRANCH  14  15
ATOM     15  C   UNL     1       4.765 128.761 113.153  1.00  0.00    -0.000 C 
BRANCH  15  16
ATOM     16  C   UNL     1       5.163 127.278 113.084  1.00  0.00    -0.000 C 
BRANCH  16  17
ATOM     17  C   UNL     1       5.508 126.696 114.467  1.00  0.00    -0.000 C 
BRANCH  17  18
ATOM     18  C   UNL     1       4.504 125.623 114.919  1.00  0.00    -0.000 C 
BRANCH  18  19
ATOM     19  C   UNL     1       3.647 126.077 116.108  1.00  0.00    -0.003 C 
ATOM     20  C   UNL     1       4.096 127.444 116.617  1.00  0.00     0.004 C 
ENDBRANCH  18  19
ENDBRANCH  17  18
ENDBRANCH  16  17
ENDBRANCH  15  16
ENDBRANCH  14  15
ENDBRANCH  13  14
ENDBRANCH  12  13
ENDBRANCH   1  12
TORSDOF 16
ENDMDL
MODEL 5
REMARK VINA RESULT:    -4.137      2.843      3.629
REMARK INTER + INTRA:          -9.649
REMARK INTER:                  -7.403
REMARK INTRA:                  -2.246
REMARK UNBOUND:                -1.642
REMARK SMILES CCCCCCCCCCCCCCCCCC(=O)[O-]
REMARK SMILES IDX 10 1 11 2 12 3 13 4 14 5 15 6 16 7 17 8 18 9 19 10 20 11
REMARK SMILES IDX 9 12 8 13 7 14 6 15 5 16 4 17 3 18 2 19 1 20
REMARK H PARENT
REMARK Flexibility Score: inf
ROOT
ATOM      1  C   UNL     1       2.412 127.125 110.424  1.00  0.00     0.000 C 
ENDROOT
BRANCH   1   2
ATOM      2  C   UNL     1       2.815 128.594 110.642  1.00  0.00     0.000 C 
BRANCH   2   3
ATOM      3  C   UNL     1       2.912 128.972 112.130  1.00  0.00     0.000 C 
BRANCH   3   4
ATOM      4  C   UNL     1       4.147 128.362 112.813  1.00  0.00     0.000 C 
BRANCH   4   5
ATOM      5  C   UNL     1       3.776 127.372 113.928  1.00  0.00     0.000 C 
BRANCH   5   6
ATOM      6  C   UNL     1       5.010 126.999 114.763  1.00  0.00     0.000 C 
BRANCH   6   7
ATOM      7  C   UNL     1       5.150 125.483 114.970  1.00  0.00     0.006 C 
BRANCH   7   8
ATOM      8  C   UNL     1       6.468 125.097 115.653  1.00  0.00     0.053 C 
BRANCH   8   9
ATOM      9  C   UNL     1       6.909 123.738 115.208  1.00  0.00     0.041 C 
ATOM     10  O   UNL     1       6.408 122.707 115.731  1.00  0.00    -0.550 OA
ATOM     11  O   UNL     1       7.912 123.608 114.256  1.00  0.00    -0.550 OA
ENDBRANCH   8   9
ENDBRANCH   7   8
ENDBRANCH   6   7
ENDBRANCH   5   6
ENDBRANCH   4   5
ENDBRANCH   3   4
ENDBRANCH   2   3
ENDBRANCH   1   2
BRANCH   1  12
ATOM     12  C   UNL     1       3.595 126.210 110.040  1.00  0.00     0.000 C 
BRANCH  12  13
ATOM     13  C   UNL     1       3.535 124.853 110.762  1.00  0.00    -0.000 C 
BRANCH  13  14
ATOM     14  C   UNL     1       4.884 124.449 111.375  1.00  0.00    -0.000 C 
BRANCH  14  15
ATOM     15  C   UNL     1       5.900 125.605 111.383  1.00  0.00    -0.000 C 
BRANCH  15  16
ATOM     16  C   UNL     1       7.352 125.120 111.252  1.00  0.00    -0.000 C 
BRANCH  16  17
ATOM     17  C   UNL     1       7.547 124.155 110.068  1.00  0.00    -0.000 C 
BRANCH  17  18
ATOM     18  C   UNL     1       8.249 124.824 108.875  1.00  0.00    -0.000 C 
BRANCH  18  19
ATOM     19  C   UNL     1       7.530 124.564 107.544  1.00  0.00    -0.003 C 
ATOM     20  C   UNL     1       6.443 125.606 107.295  1.00  0.00     0.004 C 
ENDBRANCH  18  19
ENDBRANCH  17  18
ENDBRANCH  16  17
ENDBRANCH  15  16
ENDBRANCH  14  15
ENDBRANCH  13  14
ENDBRANCH  12  13
ENDBRANCH   1  12
TORSDOF 16
ENDMDL
MODEL 6
REMARK VINA RESULT:    -4.118      1.436      2.117
REMARK INTER + INTRA:          -9.611
REMARK INTER:                  -7.614
REMARK INTRA:                  -1.997
REMARK UNBOUND:                -1.642
REMARK SMILES CCCCCCCCCCCCCCCCCC(=O)[O-]
REMARK SMILES IDX 10 1 11 2 12 3 13 4 14 5 15 6 16 7 17 8 18 9 19 10 20 11
REMARK SMILES IDX 9 12 8 13 7 14 6 15 5 16 4 17 3 18 2 19 1 20
REMARK H PARENT
REMARK Flexibility Score: inf
ROOT
ATOM      1  C   UNL     1       3.045 124.883 110.605  1.00  0.00     0.000 C 
ENDROOT
BRANCH   1   2
ATOM      2  C   UNL     1       3.182 126.356 110.182  1.00  0.00     0.000 C 
BRANCH   2   3
ATOM      3  C   UNL     1       1.931 127.190 110.508  1.00  0.00     0.000 C 
BRANCH   3   4
ATOM      4  C   UNL     1       2.224 128.699 110.547  1.00  0.00     0.000 C 
BRANCH   4   5
ATOM      5  C   UNL     1       2.770 129.159 111.907  1.00  0.00     0.000 C 
BRANCH   5   6
ATOM      6  C   UNL     1       2.111 128.379 113.054  1.00  0.00     0.000 C 
BRANCH   6   7
ATOM      7  C   UNL     1       3.112 127.974 114.148  1.00  0.00     0.006 C 
BRANCH   7   8
ATOM      8  C   UNL     1       4.504 127.653 113.589  1.00  0.00     0.053 C 
BRANCH   8   9
ATOM      9  C   UNL     1       5.546 128.480 114.274  1.00  0.00     0.041 C 
ATOM     10  O   UNL     1       5.648 128.456 115.529  1.00  0.00    -0.550 OA
ATOM     11  O   UNL     1       6.367 129.320 113.533  1.00  0.00    -0.550 OA
ENDBRANCH   8   9
ENDBRANCH   7   8
ENDBRANCH   6   7
ENDBRANCH   5   6
ENDBRANCH   4   5
ENDBRANCH   3   4
ENDBRANCH   2   3
ENDBRANCH   1   2
BRANCH   1  12
ATOM     12  C   UNL     1       2.732 124.698 112.105  1.00  0.00     0.000 C 
BRANCH  12  13
ATOM     13  C   UNL     1       3.853 123.943 112.842  1.00  0.00    -0.000 C 
BRANCH  13  14
ATOM     14  C   UNL     1       4.930 123.406 111.888  1.00  0.00    -0.000 C 
BRANCH  14  15
ATOM     15  C   UNL     1       6.225 124.237 111.929  1.00  0.00    -0.000 C 
BRANCH  15  16
ATOM     16  C   UNL     1       7.268 123.762 110.905  1.00  0.00    -0.000 C 
BRANCH  16  17
ATOM     17  C   UNL     1       8.305 124.849 110.571  1.00  0.00    -0.000 C 
BRANCH  17  18
ATOM     18  C   UNL     1       8.625 124.914 109.069  1.00  0.00    -0.000 C 
BRANCH  18  19
ATOM     19  C   UNL     1       7.500 124.338 108.199  1.00  0.00    -0.003 C 
ATOM     20  C   UNL     1       6.830 125.433 107.373  1.00  0.00     0.004 C 
ENDBRANCH  18  19
ENDBRANCH  17  18
ENDBRANCH  16  17
ENDBRANCH  15  16
ENDBRANCH  14  15
ENDBRANCH  13  14
ENDBRANCH  12  13
ENDBRANCH   1  12
TORSDOF 16
ENDMDL
MODEL 7
REMARK VINA RESULT:    -4.114      2.400      4.260
REMARK INTER + INTRA:          -9.603
REMARK INTER:                  -6.820
REMARK INTRA:                  -2.783
REMARK UNBOUND:                -1.642
REMARK SMILES CCCCCCCCCCCCCCCCCC(=O)[O-]
REMARK SMILES IDX 10 1 11 2 12 3 13 4 14 5 15 6 16 7 17 8 18 9 19 10 20 11
REMARK SMILES IDX 9 12 8 13 7 14 6 15 5 16 4 17 3 18 2 19 1 20
REMARK H PARENT
REMARK Flexibility Score: inf
ROOT
ATOM      1  C   UNL     1       0.866 128.817 111.805  1.00  0.00     0.000 C 
ENDROOT
BRANCH   1   2
ATOM      2  C   UNL     1       1.096 127.854 112.982  1.00  0.00     0.000 C 
BRANCH   2   3
ATOM      3  C   UNL     1       2.220 128.318 113.923  1.00  0.00     0.000 C 
BRANCH   3   4
ATOM      4  C   UNL     1       3.522 127.527 113.721  1.00  0.00     0.000 C 
BRANCH   4   5
ATOM      5  C   UNL     1       4.691 128.418 113.272  1.00  0.00     0.000 C 
BRANCH   5   6
ATOM      6  C   UNL     1       4.208 129.845 112.974  1.00  0.00     0.000 C 
BRANCH   6   7
ATOM      7  C   UNL     1       4.731 130.873 113.988  1.00  0.00     0.006 C 
BRANCH   7   8
ATOM      8  C   UNL     1       5.601 130.239 115.081  1.00  0.00     0.053 C 
BRANCH   8   9
ATOM      9  C   UNL     1       6.954 130.877 115.108  1.00  0.00     0.041 C 
ATOM     10  O   UNL     1       7.948 130.276 114.620  1.00  0.00    -0.550 OA
ATOM     11  O   UNL     1       7.130 132.111 115.721  1.00  0.00    -0.550 OA
ENDBRANCH   8   9
ENDBRANCH   7   8
ENDBRANCH   6   7
ENDBRANCH   5   6
ENDBRANCH   4   5
ENDBRANCH   3   4
ENDBRANCH   2   3
ENDBRANCH   1   2
BRANCH   1  12
ATOM     12  C   UNL     1       1.071 128.162 110.422  1.00  0.00     0.000 C 
BRANCH  12  13
ATOM     13  C   UNL     1       1.801 126.812 110.523  1.00  0.00    -0.000 C 
BRANCH  13  14
ATOM     14  C   UNL     1       3.265 126.895 110.065  1.00  0.00    -0.000 C 
BRANCH  14  15
ATOM     15  C   UNL     1       4.037 125.586 110.309  1.00  0.00    -0.000 C 
BRANCH  15  16
ATOM     16  C   UNL     1       3.191 124.525 111.030  1.00  0.00    -0.000 C 
BRANCH  16  17
ATOM     17  C   UNL     1       3.848 124.029 112.331  1.00  0.00    -0.000 C 
BRANCH  17  18
ATOM     18  C   UNL     1       2.837 123.875 113.478  1.00  0.00    -0.000 C 
BRANCH  18  19
ATOM     19  C   UNL     1       1.397 124.175 113.042  1.00  0.00    -0.003 C 
ATOM     20  C   UNL     1       0.503 124.446 114.249  1.00  0.00     0.004 C 
ENDBRANCH  18  19
ENDBRANCH  17  18
ENDBRANCH  16  17
ENDBRANCH  15  16
ENDBRANCH  14  15
ENDBRANCH  13  14
ENDBRANCH  12  13
ENDBRANCH   1  12
TORSDOF 16
ENDMDL
MODEL 8
REMARK VINA RESULT:    -4.109      3.268      6.196
REMARK INTER + INTRA:          -9.594
REMARK INTER:                  -6.336
REMARK INTRA:                  -3.258
REMARK UNBOUND:                -1.642
REMARK SMILES CCCCCCCCCCCCCCCCCC(=O)[O-]
REMARK SMILES IDX 10 1 11 2 12 3 13 4 14 5 15 6 16 7 17 8 18 9 19 10 20 11
REMARK SMILES IDX 9 12 8 13 7 14 6 15 5 16 4 17 3 18 2 19 1 20
REMARK H PARENT
REMARK Flexibility Score: inf
ROOT
ATOM      1  C   UNL     1       1.448 126.442 112.282  1.00  0.00     0.000 C 
ENDROOT
BRANCH   1   2
ATOM      2  C   UNL     1       1.171 125.345 113.324  1.00  0.00     0.000 C 
BRANCH   2   3
ATOM      3  C   UNL     1       2.065 124.107 113.141  1.00  0.00     0.000 C 
BRANCH   3   4
ATOM      4  C   UNL     1       3.187 124.031 114.190  1.00  0.00     0.000 C 
BRANCH   4   5
ATOM      5  C   UNL     1       4.426 123.282 113.675  1.00  0.00     0.000 C 
BRANCH   5   6
ATOM      6  C   UNL     1       4.477 123.297 112.141  1.00  0.00     0.000 C 
BRANCH   6   7
ATOM      7  C   UNL     1       5.880 122.997 111.590  1.00  0.00     0.006 C 
BRANCH   7   8
ATOM      8  C   UNL     1       6.781 124.237 111.552  1.00  0.00     0.053 C 
BRANCH   8   9
ATOM      9  C   UNL     1       8.144 123.910 112.073  1.00  0.00     0.041 C 
ATOM     10  O   UNL     1       8.275 123.171 113.085  1.00  0.00    -0.550 OA
ATOM     11  O   UNL     1       9.269 124.463 111.476  1.00  0.00    -0.550 OA
ENDBRANCH   8   9
ENDBRANCH   7   8
ENDBRANCH   6   7
ENDBRANCH   5   6
ENDBRANCH   4   5
ENDBRANCH   3   4
ENDBRANCH   2   3
ENDBRANCH   1   2
BRANCH   1  12
ATOM     12  C   UNL     1       2.245 125.944 111.058  1.00  0.00     0.000 C 
BRANCH  12  13
ATOM     13  C   UNL     1       3.591 126.676 110.907  1.00  0.00    -0.000 C 
BRANCH  13  14
ATOM     14  C   UNL     1       3.886 127.619 112.082  1.00  0.00    -0.000 C 
BRANCH  14  15
ATOM     15  C   UNL     1       5.112 127.177 112.902  1.00  0.00    -0.000 C 
BRANCH  15  16
ATOM     16  C   UNL     1       4.814 127.077 114.406  1.00  0.00    -0.000 C 
BRANCH  16  17
ATOM     17  C   UNL     1       3.871 128.191 114.897  1.00  0.00    -0.000 C 
BRANCH  17  18
ATOM     18  C   UNL     1       2.690 127.642 115.714  1.00  0.00    -0.000 C 
BRANCH  18  19
ATOM     19  C   UNL     1       1.452 128.547 115.645  1.00  0.00    -0.003 C 
ATOM     20  C   UNL     1       1.453 129.381 114.367  1.00  0.00     0.004 C 
ENDBRANCH  18  19
ENDBRANCH  17  18
ENDBRANCH  16  17
ENDBRANCH  15  16
ENDBRANCH  14  15
ENDBRANCH  13  14
ENDBRANCH  12  13
ENDBRANCH   1  12
TORSDOF 16
ENDMDL
MODEL 9
REMARK VINA RESULT:    -4.063      2.046      2.997
REMARK INTER + INTRA:          -9.504
REMARK INTER:                  -6.807
REMARK INTRA:                  -2.697
REMARK UNBOUND:                -1.642
REMARK SMILES CCCCCCCCCCCCCCCCCC(=O)[O-]
REMARK SMILES IDX 10 1 11 2 12 3 13 4 14 5 15 6 16 7 17 8 18 9 19 10 20 11
REMARK SMILES IDX 9 12 8 13 7 14 6 15 5 16 4 17 3 18 2 19 1 20
REMARK H PARENT
REMARK Flexibility Score: inf
ROOT
ATOM      1  C   UNL     1       1.388 126.359 113.031  1.00  0.00     0.000 C 
ENDROOT
BRANCH   1   2
ATOM      2  C   UNL     1       0.862 127.374 112.002  1.00  0.00     0.000 C 
BRANCH   2   3
ATOM      3  C   UNL     1       1.602 128.720 112.059  1.00  0.00     0.000 C 
BRANCH   3   4
ATOM      4  C   UNL     1       2.696 128.746 113.139  1.00  0.00     0.000 C 
BRANCH   4   5
ATOM      5  C   UNL     1       4.091 129.031 112.561  1.00  0.00     0.000 C 
BRANCH   5   6
ATOM      6  C   UNL     1       5.189 128.510 113.498  1.00  0.00     0.000 C 
BRANCH   6   7
ATOM      7  C   UNL     1       5.322 126.980 113.465  1.00  0.00     0.006 C 
BRANCH   7   8
ATOM      8  C   UNL     1       4.885 126.318 114.778  1.00  0.00     0.053 C 
BRANCH   8   9
ATOM      9  C   UNL     1       5.785 126.734 115.898  1.00  0.00     0.041 C 
ATOM     10  O   UNL     1       5.340 127.445 116.837  1.00  0.00    -0.550 OA
ATOM     11  O   UNL     1       7.129 126.383 115.878  1.00  0.00    -0.550 OA
ENDBRANCH   8   9
ENDBRANCH   7   8
ENDBRANCH   6   7
ENDBRANCH   5   6
ENDBRANCH   4   5
ENDBRANCH   3   4
ENDBRANCH   2   3
ENDBRANCH   1   2
BRANCH   1  12
ATOM     12  C   UNL     1       1.926 125.058 112.398  1.00  0.00     0.000 C 
BRANCH  12  13
ATOM     13  C   UNL     1       2.704 125.326 111.098  1.00  0.00    -0.000 C 
BRANCH  13  14
ATOM     14  C   UNL     1       4.028 124.551 111.030  1.00  0.00    -0.000 C 
BRANCH  14  15
ATOM     15  C   UNL     1       4.187 123.550 112.188  1.00  0.00    -0.000 C 
BRANCH  15  16
ATOM     16  C   UNL     1       5.648 123.395 112.642  1.00  0.00    -0.000 C 
BRANCH  16  17
ATOM     17  C   UNL     1       6.643 123.499 111.472  1.00  0.00    -0.000 C 
BRANCH  17  18
ATOM     18  C   UNL     1       7.781 124.493 111.755  1.00  0.00    -0.000 C 
BRANCH  18  19
ATOM     19  C   UNL     1       7.919 125.561 110.662  1.00  0.00    -0.003 C 
ATOM     20  C   UNL     1       7.558 124.995 109.292  1.00  0.00     0.004 C 
ENDBRANCH  18  19
ENDBRANCH  17  18
ENDBRANCH  16  17
ENDBRANCH  15  16
ENDBRANCH  14  15
ENDBRANCH  13  14
ENDBRANCH  12  13
ENDBRANCH   1  12
TORSDOF 16
ENDMDL
