MODEL 1
REMARK VINA RESULT:    -6.691      0.000      0.000
REMARK INTER + INTRA:          -7.575
REMARK INTER:                  -7.864
REMARK INTRA:                   0.289
REMARK UNBOUND:                 0.289
REMARK SMILES O=c1c(O)c(-c2ccc(O)cc2)oc2cc(O)cc(O)c12
REMARK SMILES IDX 5 1 3 2 2 3 1 4 21 5 19 6 18 7 16 8 15 9 14 10 13 11 6 12
REMARK SMILES IDX 7 13 8 14 9 15 12 16 11 17 10 18 4 20 20 22 17 24
REMARK H PARENT 10 19 4 21 20 23 17 25
REMARK Flexibility Score: inf
ROOT
ATOM      1  C   UNL     1      10.334  -3.244  19.227  1.00  0.00     0.180 A 
ATOM      2  C   UNL     1      11.558  -2.704  18.799  1.00  0.00     0.208 A 
ATOM      3  C   UNL     1      11.650  -1.321  18.570  1.00  0.00     0.238 A 
ATOM      4  O   UNL     1      12.763  -0.835  18.239  1.00  0.00    -0.285 OA
ATOM      5  C   UNL     1      10.512  -0.500  18.755  1.00  0.00     0.111 A 
ATOM      6  C   UNL     1      10.480   0.907  18.512  1.00  0.00     0.134 A 
ATOM      7  C   UNL     1       9.337   1.641  18.854  1.00  0.00     0.093 A 
ATOM      8  C   UNL     1       8.202   1.008  19.368  1.00  0.00     0.123 A 
ATOM      9  C   UNL     1       8.203  -0.372  19.551  1.00  0.00     0.094 A 
ATOM     10  C   UNL     1       9.341  -1.126  19.254  1.00  0.00     0.146 A 
ATOM     11  O   UNL     1       9.303  -2.437  19.455  1.00  0.00    -0.452 OA
ENDROOT
BRANCH   1  12
ATOM     12  C   UNL     1      10.153  -4.694  19.466  1.00  0.00     0.021 A 
ATOM     13  C   UNL     1      11.209  -5.499  19.928  1.00  0.00     0.016 A 
ATOM     14  C   UNL     1      11.021  -6.870  20.122  1.00  0.00     0.047 A 
ATOM     15  C   UNL     1       9.779  -7.457  19.845  1.00  0.00     0.115 A 
ATOM     16  C   UNL     1       8.917  -5.294  19.170  1.00  0.00     0.016 A 
ATOM     17  C   UNL     1       8.731  -6.666  19.367  1.00  0.00     0.047 A 
BRANCH  15  18
ATOM     18  O   UNL     1       9.581  -8.823  20.037  1.00  0.00    -0.508 OA
ATOM     19  H   UNL     1       8.651  -9.222  20.075  1.00  0.00     0.293 HD
ENDBRANCH  15  18
ENDBRANCH   1  12
BRANCH   2  20
ATOM     20  O   UNL     1      12.675  -3.529  18.644  1.00  0.00    -0.502 OA
ATOM     21  H   UNL     1      12.919  -4.248  19.314  1.00  0.00     0.293 HD
ENDBRANCH   2  20
BRANCH   6  22
ATOM     22  O   UNL     1      11.525   1.620  17.918  1.00  0.00    -0.507 OA
ATOM     23  H   UNL     1      11.836   1.498  16.967  1.00  0.00     0.293 HD
ENDBRANCH   6  22
BRANCH   8  24
ATOM     24  O   UNL     1       7.064   1.744  19.690  1.00  0.00    -0.508 OA
ATOM     25  H   UNL     1       6.274   1.320  20.164  1.00  0.00     0.293 HD
ENDBRANCH   8  24
TORSDOF 5
ENDMDL
MODEL 2
REMARK VINA RESULT:    -6.012      1.376      3.045
REMARK INTER + INTRA:          -6.777
REMARK INTER:                  -7.281
REMARK INTRA:                   0.504
REMARK UNBOUND:                 0.289
REMARK SMILES O=c1c(O)c(-c2ccc(O)cc2)oc2cc(O)cc(O)c12
REMARK SMILES IDX 5 1 3 2 2 3 1 4 21 5 19 6 18 7 16 8 15 9 14 10 13 11 6 12
REMARK SMILES IDX 7 13 8 14 9 15 12 16 11 17 10 18 4 20 20 22 17 24
REMARK H PARENT 10 19 4 21 20 23 17 25
REMARK Flexibility Score: inf
ROOT
ATOM      1  C   UNL     1       9.265  -2.930  19.111  1.00  0.00     0.180 A 
ATOM      2  C   UNL     1       8.039  -2.379  18.702  1.00  0.00     0.208 A 
ATOM      3  C   UNL     1       7.944  -0.990  18.520  1.00  0.00     0.238 A 
ATOM      4  O   UNL     1       6.859  -0.507  18.102  1.00  0.00    -0.285 OA
ATOM      5  C   UNL     1       9.070  -0.169  18.767  1.00  0.00     0.111 A 
ATOM      6  C   UNL     1       9.075   1.255  18.654  1.00  0.00     0.134 A 
ATOM      7  C   UNL     1      10.280   1.954  18.794  1.00  0.00     0.093 A 
ATOM      8  C   UNL     1      11.468   1.287  19.108  1.00  0.00     0.123 A 
ATOM      9  C   UNL     1      11.460  -0.095  19.279  1.00  0.00     0.094 A 
ATOM     10  C   UNL     1      10.281  -0.823  19.110  1.00  0.00     0.146 A 
ATOM     11  O   UNL     1      10.320  -2.141  19.270  1.00  0.00    -0.452 OA
ENDROOT
BRANCH   1  12
ATOM     12  C   UNL     1       9.436  -4.382  19.348  1.00  0.00     0.021 A 
ATOM     13  C   UNL     1       8.385  -5.290  19.124  1.00  0.00     0.016 A 
ATOM     14  C   UNL     1       8.563  -6.654  19.378  1.00  0.00     0.047 A 
ATOM     15  C   UNL     1       9.787  -7.125  19.870  1.00  0.00     0.115 A 
ATOM     16  C   UNL     1      10.652  -4.860  19.862  1.00  0.00     0.016 A 
ATOM     17  C   UNL     1      10.828  -6.224  20.113  1.00  0.00     0.047 A 
BRANCH  15  18
ATOM     18  O   UNL     1       9.975  -8.482  20.125  1.00  0.00    -0.508 OA
ATOM     19  H   UNL     1      10.888  -8.857  20.351  1.00  0.00     0.293 HD
ENDBRANCH  15  18
ENDBRANCH   1  12
BRANCH   2  20
ATOM     20  O   UNL     1       6.945  -3.210  18.443  1.00  0.00    -0.502 OA
ATOM     21  H   UNL     1       6.852  -4.132  18.852  1.00  0.00     0.293 HD
ENDBRANCH   2  20
BRANCH   6  22
ATOM     22  O   UNL     1       7.929   2.024  18.435  1.00  0.00    -0.507 OA
ATOM     23  H   UNL     1       7.086   1.968  18.984  1.00  0.00     0.293 HD
ENDBRANCH   6  22
BRANCH   8  24
ATOM     24  O   UNL     1      12.660   1.993  19.262  1.00  0.00    -0.508 OA
ATOM     25  H   UNL     1      12.682   3.006  19.247  1.00  0.00     0.293 HD
ENDBRANCH   8  24
TORSDOF 5
ENDMDL
MODEL 3
REMARK VINA RESULT:    -5.903      1.404      6.469
REMARK INTER + INTRA:          -6.649
REMARK INTER:                  -6.778
REMARK INTRA:                   0.129
REMARK UNBOUND:                 0.289
REMARK SMILES O=c1c(O)c(-c2ccc(O)cc2)oc2cc(O)cc(O)c12
REMARK SMILES IDX 5 1 3 2 2 3 1 4 21 5 19 6 18 7 16 8 15 9 14 10 13 11 6 12
REMARK SMILES IDX 7 13 8 14 9 15 12 16 11 17 10 18 4 20 20 22 17 24
REMARK H PARENT 10 19 4 21 20 23 17 25
REMARK Flexibility Score: inf
ROOT
ATOM      1  C   UNL     1       9.957  -2.038  19.242  1.00  0.00     0.180 A 
ATOM      2  C   UNL     1      11.303  -2.437  19.286  1.00  0.00     0.208 A 
ATOM      3  C   UNL     1      11.604  -3.796  19.474  1.00  0.00     0.238 A 
ATOM      4  O   UNL     1      12.811  -4.156  19.459  1.00  0.00    -0.285 OA
ATOM      5  C   UNL     1      10.556  -4.734  19.632  1.00  0.00     0.111 A 
ATOM      6  C   UNL     1      10.747  -6.130  19.868  1.00  0.00     0.134 A 
ATOM      7  C   UNL     1       9.638  -6.986  19.878  1.00  0.00     0.093 A 
ATOM      8  C   UNL     1       8.341  -6.487  19.726  1.00  0.00     0.123 A 
ATOM      9  C   UNL     1       8.142  -5.120  19.554  1.00  0.00     0.094 A 
ATOM     10  C   UNL     1       9.230  -4.246  19.504  1.00  0.00     0.146 A 
ATOM     11  O   UNL     1       8.996  -2.951  19.327  1.00  0.00    -0.452 OA
ENDROOT
BRANCH   1  12
ATOM     12  C   UNL     1       9.561  -0.621  19.072  1.00  0.00     0.021 A 
ATOM     13  C   UNL     1      10.239   0.415  19.739  1.00  0.00     0.016 A 
ATOM     14  C   UNL     1       9.831   1.743  19.583  1.00  0.00     0.047 A 
ATOM     15  C   UNL     1       8.733   2.051  18.768  1.00  0.00     0.115 A 
ATOM     16  C   UNL     1       8.448  -0.305  18.274  1.00  0.00     0.016 A 
ATOM     17  C   UNL     1       8.043   1.024  18.118  1.00  0.00     0.047 A 
BRANCH  15  18
ATOM     18  O   UNL     1       8.320   3.372  18.604  1.00  0.00    -0.508 OA
ATOM     19  H   UNL     1       8.986   4.133  18.554  1.00  0.00     0.293 HD
ENDBRANCH  15  18
ENDBRANCH   1  12
BRANCH   2  20
ATOM     20  O   UNL     1      12.322  -1.498  19.106  1.00  0.00    -0.502 OA
ATOM     21  H   UNL     1      13.281  -1.764  18.918  1.00  0.00     0.293 HD
ENDBRANCH   2  20
BRANCH   6  22
ATOM     22  O   UNL     1      11.990  -6.715  20.125  1.00  0.00    -0.507 OA
ATOM     23  H   UNL     1      12.711  -6.305  20.698  1.00  0.00     0.293 HD
ENDBRANCH   6  22
BRANCH   8  24
ATOM     24  O   UNL     1       7.243  -7.344  19.753  1.00  0.00    -0.508 OA
ATOM     25  H   UNL     1       7.322  -8.297  20.090  1.00  0.00     0.293 HD
ENDBRANCH   8  24
TORSDOF 5
ENDMDL
MODEL 4
REMARK VINA RESULT:    -5.627      1.810      7.140
REMARK INTER + INTRA:          -6.325
REMARK INTER:                  -6.301
REMARK INTRA:                  -0.024
REMARK UNBOUND:                 0.289
REMARK SMILES O=c1c(O)c(-c2ccc(O)cc2)oc2cc(O)cc(O)c12
REMARK SMILES IDX 5 1 3 2 2 3 1 4 21 5 19 6 18 7 16 8 15 9 14 10 13 11 6 12
REMARK SMILES IDX 7 13 8 14 9 15 12 16 11 17 10 18 4 20 20 22 17 24
REMARK H PARENT 10 19 4 21 20 23 17 25
REMARK Flexibility Score: inf
ROOT
ATOM      1  C   UNL     1       8.853  -2.372  19.435  1.00  0.00     0.180 A 
ATOM      2  C   UNL     1       7.723  -3.195  19.575  1.00  0.00     0.208 A 
ATOM      3  C   UNL     1       7.905  -4.576  19.751  1.00  0.00     0.238 A 
ATOM      4  O   UNL     1       6.892  -5.302  19.929  1.00  0.00    -0.285 OA
ATOM      5  C   UNL     1       9.213  -5.118  19.768  1.00  0.00     0.111 A 
ATOM      6  C   UNL     1       9.512  -6.508  19.900  1.00  0.00     0.134 A 
ATOM      7  C   UNL     1      10.845  -6.917  20.036  1.00  0.00     0.093 A 
ATOM      8  C   UNL     1      11.892  -5.993  19.979  1.00  0.00     0.123 A 
ATOM      9  C   UNL     1      11.611  -4.642  19.791  1.00  0.00     0.094 A 
ATOM     10  C   UNL     1      10.291  -4.199  19.689  1.00  0.00     0.146 A 
ATOM     11  O   UNL     1      10.068  -2.901  19.522  1.00  0.00    -0.452 OA
ENDROOT
BRANCH   1  12
ATOM     12  C   UNL     1       8.742  -0.911  19.221  1.00  0.00     0.021 A 
ATOM     13  C   UNL     1       7.943  -0.379  18.192  1.00  0.00     0.016 A 
ATOM     14  C   UNL     1       7.873   1.003  17.993  1.00  0.00     0.047 A 
ATOM     15  C   UNL     1       8.609   1.870  18.811  1.00  0.00     0.115 A 
ATOM     16  C   UNL     1       9.492  -0.035  20.022  1.00  0.00     0.016 A 
ATOM     17  C   UNL     1       9.419   1.347  19.823  1.00  0.00     0.047 A 
BRANCH  15  18
ATOM     18  O   UNL     1       8.544   3.249  18.623  1.00  0.00    -0.508 OA
ATOM     19  H   UNL     1       8.604   3.661  17.700  1.00  0.00     0.293 HD
ENDBRANCH  15  18
ENDBRANCH   1  12
BRANCH   2  20
ATOM     20  O   UNL     1       6.442  -2.637  19.576  1.00  0.00    -0.502 OA
ATOM     21  H   UNL     1       5.650  -3.092  20.015  1.00  0.00     0.293 HD
ENDBRANCH   2  20
BRANCH   6  22
ATOM     22  O   UNL     1       8.548  -7.520  19.875  1.00  0.00    -0.507 OA
ATOM     23  H   UNL     1       7.623  -7.422  19.487  1.00  0.00     0.293 HD
ENDBRANCH   6  22
BRANCH   8  24
ATOM     24  O   UNL     1      13.215  -6.411  20.100  1.00  0.00    -0.508 OA
ATOM     25  H   UNL     1      13.451  -7.378  20.287  1.00  0.00     0.293 HD
ENDBRANCH   8  24
TORSDOF 5
ENDMDL
MODEL 5
REMARK VINA RESULT:    -5.622      2.578      6.526
REMARK INTER + INTRA:          -6.318
REMARK INTER:                  -6.793
REMARK INTRA:                   0.475
REMARK UNBOUND:                 0.289
REMARK SMILES O=c1c(O)c(-c2ccc(O)cc2)oc2cc(O)cc(O)c12
REMARK SMILES IDX 5 1 3 2 2 3 1 4 21 5 19 6 18 7 16 8 15 9 14 10 13 11 6 12
REMARK SMILES IDX 7 13 8 14 9 15 12 16 11 17 10 18 4 20 20 22 17 24
REMARK H PARENT 10 19 4 21 20 23 17 25
REMARK Flexibility Score: inf
ROOT
ATOM      1  C   UNL     1      12.357  -3.547  19.824  1.00  0.00     0.180 A 
ATOM      2  C   UNL     1      11.246  -2.694  19.717  1.00  0.00     0.208 A 
ATOM      3  C   UNL     1       9.961  -3.256  19.648  1.00  0.00     0.238 A 
ATOM      4  O   UNL     1       8.965  -2.486  19.606  1.00  0.00    -0.285 OA
ATOM      5  C   UNL     1       9.805  -4.663  19.671  1.00  0.00     0.111 A 
ATOM      6  C   UNL     1       8.552  -5.341  19.566  1.00  0.00     0.134 A 
ATOM      7  C   UNL     1       8.504  -6.730  19.732  1.00  0.00     0.093 A 
ATOM      8  C   UNL     1       9.671  -7.473  19.933  1.00  0.00     0.123 A 
ATOM      9  C   UNL     1      10.903  -6.826  19.977  1.00  0.00     0.094 A 
ATOM     10  C   UNL     1      10.979  -5.437  19.851  1.00  0.00     0.146 A 
ATOM     11  O   UNL     1      12.173  -4.860  19.910  1.00  0.00    -0.452 OA
ENDROOT
BRANCH   1  12
ATOM     12  C   UNL     1      13.744  -3.031  19.876  1.00  0.00     0.021 A 
ATOM     13  C   UNL     1      14.030  -1.672  19.655  1.00  0.00     0.016 A 
ATOM     14  C   UNL     1      15.350  -1.212  19.685  1.00  0.00     0.047 A 
ATOM     15  C   UNL     1      16.401  -2.107  19.923  1.00  0.00     0.115 A 
ATOM     16  C   UNL     1      14.807  -3.924  20.093  1.00  0.00     0.016 A 
ATOM     17  C   UNL     1      16.126  -3.462  20.125  1.00  0.00     0.047 A 
BRANCH  15  18
ATOM     18  O   UNL     1      17.720  -1.659  19.957  1.00  0.00    -0.508 OA
ATOM     19  H   UNL     1      18.180  -1.432  20.830  1.00  0.00     0.293 HD
ENDBRANCH  15  18
ENDBRANCH   1  12
BRANCH   2  20
ATOM     20  O   UNL     1      11.420  -1.308  19.717  1.00  0.00    -0.502 OA
ATOM     21  H   UNL     1      11.699  -0.793  18.890  1.00  0.00     0.293 HD
ENDBRANCH   2  20
BRANCH   6  22
ATOM     22  O   UNL     1       7.342  -4.704  19.276  1.00  0.00    -0.507 OA
ATOM     23  H   UNL     1       6.448  -5.166  19.223  1.00  0.00     0.293 HD
ENDBRANCH   6  22
BRANCH   8  24
ATOM     24  O   UNL     1       9.615  -8.857  20.082  1.00  0.00    -0.508 OA
ATOM     25  H   UNL     1       8.735  -9.359  20.051  1.00  0.00     0.293 HD
ENDBRANCH   8  24
TORSDOF 5
ENDMDL
MODEL 6
REMARK VINA RESULT:    -5.562      3.553      3.885
REMARK INTER + INTRA:          -6.249
REMARK INTER:                  -6.207
REMARK INTRA:                  -0.042
REMARK UNBOUND:                 0.289
REMARK SMILES O=c1c(O)c(-c2ccc(O)cc2)oc2cc(O)cc(O)c12
REMARK SMILES IDX 5 1 3 2 2 3 1 4 21 5 19 6 18 7 16 8 15 9 14 10 13 11 6 12
REMARK SMILES IDX 7 13 8 14 9 15 12 16 11 17 10 18 4 20 20 22 17 24
REMARK H PARENT 10 19 4 21 20 23 17 25
REMARK Flexibility Score: inf
ROOT
ATOM      1  C   UNL     1       9.461  -0.941  17.151  1.00  0.00     0.180 A 
ATOM      2  C   UNL     1      10.785  -0.782  17.595  1.00  0.00     0.208 A 
ATOM      3  C   UNL     1      11.089   0.282  18.459  1.00  0.00     0.238 A 
ATOM      4  O   UNL     1      12.265   0.388  18.898  1.00  0.00    -0.285 OA
ATOM      5  C   UNL     1      10.071   1.182  18.854  1.00  0.00     0.111 A 
ATOM      6  C   UNL     1      10.275   2.319  19.694  1.00  0.00     0.134 A 
ATOM      7  C   UNL     1       9.172   3.066  20.125  1.00  0.00     0.093 A 
ATOM      8  C   UNL     1       7.879   2.756  19.694  1.00  0.00     0.123 A 
ATOM      9  C   UNL     1       7.677   1.685  18.827  1.00  0.00     0.094 A 
ATOM     10  C   UNL     1       8.754   0.900  18.409  1.00  0.00     0.146 A 
ATOM     11  O   UNL     1       8.516  -0.119  17.591  1.00  0.00    -0.452 OA
ENDROOT
BRANCH   1  12
ATOM     12  C   UNL     1       9.068  -2.023  16.220  1.00  0.00     0.021 A 
ATOM     13  C   UNL     1       9.724  -2.206  14.989  1.00  0.00     0.016 A 
ATOM     14  C   UNL     1       9.318  -3.219  14.115  1.00  0.00     0.047 A 
ATOM     15  C   UNL     1       8.245  -4.054  14.454  1.00  0.00     0.115 A 
ATOM     16  C   UNL     1       7.979  -2.851  16.541  1.00  0.00     0.016 A 
ATOM     17  C   UNL     1       7.577  -3.865  15.667  1.00  0.00     0.047 A 
BRANCH  15  18
ATOM     18  O   UNL     1       7.834  -5.068  13.591  1.00  0.00    -0.508 OA
ATOM     19  H   UNL     1       8.494  -5.561  13.001  1.00  0.00     0.293 HD
ENDBRANCH  15  18
ENDBRANCH   1  12
BRANCH   2  20
ATOM     20  O   UNL     1      11.771  -1.695  17.211  1.00  0.00    -0.502 OA
ATOM     21  H   UNL     1      11.552  -2.633  16.895  1.00  0.00     0.293 HD
ENDBRANCH   2  20
BRANCH   6  22
ATOM     22  O   UNL     1      11.533   2.769  20.105  1.00  0.00    -0.507 OA
ATOM     23  H   UNL     1      11.700   3.623  20.614  1.00  0.00     0.293 HD
ENDBRANCH   6  22
BRANCH   8  24
ATOM     24  O   UNL     1       6.789   3.514  20.116  1.00  0.00    -0.508 OA
ATOM     25  H   UNL     1       6.106   3.145  20.767  1.00  0.00     0.293 HD
ENDBRANCH   8  24
TORSDOF 5
ENDMDL
MODEL 7
REMARK VINA RESULT:    -5.310      2.077      4.062
REMARK INTER + INTRA:          -5.952
REMARK INTER:                  -6.412
REMARK INTRA:                   0.460
REMARK UNBOUND:                 0.289
REMARK SMILES O=c1c(O)c(-c2ccc(O)cc2)oc2cc(O)cc(O)c12
REMARK SMILES IDX 5 1 3 2 2 3 1 4 21 5 19 6 18 7 16 8 15 9 14 10 13 11 6 12
REMARK SMILES IDX 7 13 8 14 9 15 12 16 11 17 10 18 4 20 20 22 17 24
REMARK H PARENT 10 19 4 21 20 23 17 25
REMARK Flexibility Score: inf
ROOT
ATOM      1  C   UNL     1      10.284  -3.513  19.713  1.00  0.00     0.180 A 
ATOM      2  C   UNL     1       9.869  -2.179  19.566  1.00  0.00     0.208 A 
ATOM      3  C   UNL     1      10.837  -1.163  19.545  1.00  0.00     0.238 A 
ATOM      4  O   UNL     1      10.464   0.025  19.359  1.00  0.00    -0.285 OA
ATOM      5  C   UNL     1      12.207  -1.492  19.687  1.00  0.00     0.111 A 
ATOM      6  C   UNL     1      13.270  -0.540  19.720  1.00  0.00     0.134 A 
ATOM      7  C   UNL     1      14.597  -0.987  19.733  1.00  0.00     0.093 A 
ATOM      8  C   UNL     1      14.898  -2.351  19.780  1.00  0.00     0.123 A 
ATOM      9  C   UNL     1      13.865  -3.286  19.809  1.00  0.00     0.094 A 
ATOM     10  C   UNL     1      12.533  -2.871  19.760  1.00  0.00     0.146 A 
ATOM     11  O   UNL     1      11.580  -3.796  19.777  1.00  0.00    -0.452 OA
ENDROOT
BRANCH   1  12
ATOM     12  C   UNL     1       9.321  -4.636  19.770  1.00  0.00     0.021 A 
ATOM     13  C   UNL     1       9.708  -5.952  19.456  1.00  0.00     0.016 A 
ATOM     14  C   UNL     1       8.775  -6.992  19.493  1.00  0.00     0.047 A 
ATOM     15  C   UNL     1       7.440  -6.729  19.831  1.00  0.00     0.115 A 
ATOM     16  C   UNL     1       7.976  -4.379  20.087  1.00  0.00     0.016 A 
ATOM     17  C   UNL     1       7.045  -5.421  20.125  1.00  0.00     0.047 A 
BRANCH  15  18
ATOM     18  O   UNL     1       6.503  -7.759  19.873  1.00  0.00    -0.508 OA
ATOM     19  H   UNL     1       5.965  -7.953  20.709  1.00  0.00     0.293 HD
ENDBRANCH  15  18
ENDBRANCH   1  12
BRANCH   2  20
ATOM     20  O   UNL     1       8.514  -1.877  19.406  1.00  0.00    -0.502 OA
ATOM     21  H   UNL     1       7.857  -1.893  20.177  1.00  0.00     0.293 HD
ENDBRANCH   2  20
BRANCH   6  22
ATOM     22  O   UNL     1      13.077   0.844  19.769  1.00  0.00    -0.507 OA
ATOM     23  H   UNL     1      13.513   1.507  19.148  1.00  0.00     0.293 HD
ENDBRANCH   6  22
BRANCH   8  24
ATOM     24  O   UNL     1      16.221  -2.787  19.809  1.00  0.00    -0.508 OA
ATOM     25  H   UNL     1      16.862  -2.586  19.050  1.00  0.00     0.293 HD
ENDBRANCH   8  24
TORSDOF 5
ENDMDL
MODEL 8
REMARK VINA RESULT:    -5.199      3.202      4.661
REMARK INTER + INTRA:          -5.822
REMARK INTER:                  -6.230
REMARK INTRA:                   0.408
REMARK UNBOUND:                 0.289
REMARK SMILES O=c1c(O)c(-c2ccc(O)cc2)oc2cc(O)cc(O)c12
REMARK SMILES IDX 5 1 3 2 2 3 1 4 21 5 19 6 18 7 16 8 15 9 14 10 13 11 6 12
REMARK SMILES IDX 7 13 8 14 9 15 12 16 11 17 10 18 4 20 20 22 17 24
REMARK H PARENT 10 19 4 21 20 23 17 25
REMARK Flexibility Score: inf
ROOT
ATOM      1  C   UNL     1      10.937  -0.762  18.588  1.00  0.00     0.180 A 
ATOM      2  C   UNL     1       9.926  -1.621  18.126  1.00  0.00     0.208 A 
ATOM      3  C   UNL     1       8.633  -1.110  17.933  1.00  0.00     0.238 A 
ATOM      4  O   UNL     1       7.744  -1.871  17.468  1.00  0.00    -0.285 OA
ATOM      5  C   UNL     1       8.363   0.250  18.219  1.00  0.00     0.111 A 
ATOM      6  C   UNL     1       7.080   0.865  18.098  1.00  0.00     0.134 A 
ATOM      7  C   UNL     1       6.957   2.248  18.283  1.00  0.00     0.093 A 
ATOM      8  C   UNL     1       8.058   3.027  18.649  1.00  0.00     0.123 A 
ATOM      9  C   UNL     1       9.302   2.425  18.827  1.00  0.00     0.094 A 
ATOM     10  C   UNL     1       9.463   1.055  18.615  1.00  0.00     0.146 A 
ATOM     11  O   UNL     1      10.668   0.524  18.785  1.00  0.00    -0.452 OA
ENDROOT
BRANCH   1  12
ATOM     12  C   UNL     1      12.317  -1.233  18.841  1.00  0.00     0.021 A 
ATOM     13  C   UNL     1      12.815  -2.402  18.236  1.00  0.00     0.016 A 
ATOM     14  C   UNL     1      14.114  -2.842  18.509  1.00  0.00     0.047 A 
ATOM     15  C   UNL     1      14.927  -2.126  19.398  1.00  0.00     0.115 A 
ATOM     16  C   UNL     1      13.132  -0.534  19.747  1.00  0.00     0.016 A 
ATOM     17  C   UNL     1      14.432  -0.974  20.016  1.00  0.00     0.047 A 
BRANCH  15  18
ATOM     18  O   UNL     1      16.224  -2.554  19.675  1.00  0.00    -0.508 OA
ATOM     19  H   UNL     1      16.707  -3.205  19.069  1.00  0.00     0.293 HD
ENDBRANCH  15  18
ENDBRANCH   1  12
BRANCH   2  20
ATOM     20  O   UNL     1      10.218  -2.955  17.829  1.00  0.00    -0.502 OA
ATOM     21  H   UNL     1       9.500  -3.666  17.750  1.00  0.00     0.293 HD
ENDBRANCH   2  20
BRANCH   6  22
ATOM     22  O   UNL     1       5.901   0.164  17.828  1.00  0.00    -0.507 OA
ATOM     23  H   UNL     1       4.975   0.486  18.060  1.00  0.00     0.293 HD
ENDBRANCH   6  22
BRANCH   8  24
ATOM     24  O   UNL     1       7.923   4.399  18.846  1.00  0.00    -0.508 OA
ATOM     25  H   UNL     1       8.164   4.835  19.729  1.00  0.00     0.293 HD
ENDBRANCH   8  24
TORSDOF 5
ENDMDL
MODEL 9
REMARK VINA RESULT:    -5.184      3.899      7.719
REMARK INTER + INTRA:          -5.804
REMARK INTER:                  -5.843
REMARK INTRA:                   0.040
REMARK UNBOUND:                 0.289
REMARK SMILES O=c1c(O)c(-c2ccc(O)cc2)oc2cc(O)cc(O)c12
REMARK SMILES IDX 5 1 3 2 2 3 1 4 21 5 19 6 18 7 16 8 15 9 14 10 13 11 6 12
REMARK SMILES IDX 7 13 8 14 9 15 12 16 11 17 10 18 4 20 20 22 17 24
REMARK H PARENT 10 19 4 21 20 23 17 25
REMARK Flexibility Score: inf
ROOT
ATOM      1  C   UNL     1      13.666  -1.403  19.534  1.00  0.00     0.180 A 
ATOM      2  C   UNL     1      13.263  -2.736  19.720  1.00  0.00     0.208 A 
ATOM      3  C   UNL     1      14.242  -3.725  19.905  1.00  0.00     0.238 A 
ATOM      4  O   UNL     1      13.874  -4.909  20.125  1.00  0.00    -0.285 OA
ATOM      5  C   UNL     1      15.613  -3.370  19.886  1.00  0.00     0.111 A 
ATOM      6  C   UNL     1      16.691  -4.297  20.023  1.00  0.00     0.134 A 
ATOM      7  C   UNL     1      18.004  -3.818  20.120  1.00  0.00     0.093 A 
ATOM      8  C   UNL     1      18.282  -2.452  20.019  1.00  0.00     0.123 A 
ATOM      9  C   UNL     1      17.242  -1.547  19.825  1.00  0.00     0.094 A 
ATOM     10  C   UNL     1      15.919  -1.991  19.761  1.00  0.00     0.146 A 
ATOM     11  O   UNL     1      14.957  -1.093  19.587  1.00  0.00    -0.452 OA
ENDROOT
BRANCH   1  12
ATOM     12  C   UNL     1      12.694  -0.310  19.307  1.00  0.00     0.021 A 
ATOM     13  C   UNL     1      12.699   0.853  20.100  1.00  0.00     0.016 A 
ATOM     14  C   UNL     1      11.755   1.861  19.883  1.00  0.00     0.047 A 
ATOM     15  C   UNL     1      10.786   1.715  18.881  1.00  0.00     0.115 A 
ATOM     16  C   UNL     1      11.706  -0.457  18.319  1.00  0.00     0.016 A 
ATOM     17  C   UNL     1      10.764   0.554  18.103  1.00  0.00     0.047 A 
BRANCH  15  18
ATOM     18  O   UNL     1       9.842   2.714  18.655  1.00  0.00    -0.508 OA
ATOM     19  H   UNL     1       9.945   3.639  19.054  1.00  0.00     0.293 HD
ENDBRANCH  15  18
ENDBRANCH   1  12
BRANCH   2  20
ATOM     20  O   UNL     1      11.904  -3.061  19.757  1.00  0.00    -0.502 OA
ATOM     21  H   UNL     1      11.566  -4.008  19.630  1.00  0.00     0.293 HD
ENDBRANCH   2  20
BRANCH   6  22
ATOM     22  O   UNL     1      16.530  -5.685  20.041  1.00  0.00    -0.507 OA
ATOM     23  H   UNL     1      15.932  -6.202  19.415  1.00  0.00     0.293 HD
ENDBRANCH   6  22
BRANCH   8  24
ATOM     24  O   UNL     1      19.593  -1.986  20.101  1.00  0.00    -0.508 OA
ATOM     25  H   UNL     1      20.020  -1.467  19.343  1.00  0.00     0.293 HD
ENDBRANCH   8  24
TORSDOF 5
ENDMDL
