MODEL 1
REMARK VINA RESULT:    -6.213      0.000      0.000
REMARK INTER + INTRA:          -7.743
REMARK INTER:                  -7.484
REMARK INTRA:                  -0.258
REMARK UNBOUND:                -0.258
REMARK SMILES O=c1c(O)c(-c2ccc(O)c(O)c2)oc2cc(O)cc(O)c12
REMARK SMILES IDX 5 1 3 2 2 3 1 4 22 5 20 6 19 7 17 8 16 9 15 10 14 11 6 12
REMARK SMILES IDX 7 13 8 14 9 15 13 16 11 17 10 18 12 20 4 22 21 24 18 26
REMARK H PARENT 10 19 12 21 4 23 21 25 18 27
REMARK Flexibility Score: inf
ROOT
ATOM      1  C   UNL     1      39.640  20.695  -5.991  1.00  0.00     0.180 A 
ATOM      2  C   UNL     1      40.301  19.468  -6.174  1.00  0.00     0.208 A 
ATOM      3  C   UNL     1      41.124  18.978  -5.147  1.00  0.00     0.238 A 
ATOM      4  O   UNL     1      41.670  17.853  -5.296  1.00  0.00    -0.285 OA
ATOM      5  C   UNL     1      41.287  19.726  -3.957  1.00  0.00     0.111 A 
ATOM      6  C   UNL     1      42.126  19.343  -2.867  1.00  0.00     0.134 A 
ATOM      7  C   UNL     1      42.109  20.094  -1.685  1.00  0.00     0.093 A 
ATOM      8  C   UNL     1      41.334  21.248  -1.576  1.00  0.00     0.123 A 
ATOM      9  C   UNL     1      40.554  21.664  -2.657  1.00  0.00     0.094 A 
ATOM     10  C   UNL     1      40.523  20.916  -3.837  1.00  0.00     0.146 A 
ATOM     11  O   UNL     1      39.761  21.341  -4.837  1.00  0.00    -0.452 OA
ENDROOT
BRANCH   1  12
ATOM     12  C   UNL     1      38.777  21.288  -7.037  1.00  0.00     0.025 A 
ATOM     13  C   UNL     1      39.365  21.863  -8.173  1.00  0.00     0.016 A 
ATOM     14  C   UNL     1      38.569  22.411  -9.183  1.00  0.00     0.051 A 
ATOM     15  C   UNL     1      37.175  22.377  -9.080  1.00  0.00     0.157 A 
ATOM     16  C   UNL     1      37.374  21.237  -6.945  1.00  0.00     0.062 A 
ATOM     17  C   UNL     1      36.573  21.784  -7.958  1.00  0.00     0.158 A 
BRANCH  15  18
ATOM     18  O   UNL     1      36.406  22.933 -10.102  1.00  0.00    -0.504 OA
ATOM     19  H   UNL     1      36.775  23.083 -11.033  1.00  0.00     0.293 HD
ENDBRANCH  15  18
BRANCH  17  20
ATOM     20  O   UNL     1      35.183  21.735  -7.856  1.00  0.00    -0.504 OA
ATOM     21  H   UNL     1      34.690  20.856  -7.750  1.00  0.00     0.293 HD
ENDBRANCH  17  20
ENDBRANCH   1  12
BRANCH   2  22
ATOM     22  O   UNL     1      40.110  18.735  -7.348  1.00  0.00    -0.502 OA
ATOM     23  H   UNL     1      40.631  17.891  -7.554  1.00  0.00     0.293 HD
ENDBRANCH   2  22
BRANCH   6  24
ATOM     24  O   UNL     1      43.008  18.259  -2.905  1.00  0.00    -0.507 OA
ATOM     25  H   UNL     1      43.486  17.936  -3.733  1.00  0.00     0.293 HD
ENDBRANCH   6  24
BRANCH   8  26
ATOM     26  O   UNL     1      41.354  21.980  -0.392  1.00  0.00    -0.508 OA
ATOM     27  H   UNL     1      40.833  21.683   0.424  1.00  0.00     0.293 HD
ENDBRANCH   8  26
TORSDOF 6
ENDMDL
MODEL 2
REMARK VINA RESULT:    -6.193      7.436     12.808
REMARK INTER + INTRA:          -7.719
REMARK INTER:                  -7.457
REMARK INTRA:                  -0.261
REMARK UNBOUND:                -0.258
REMARK SMILES O=c1c(O)c(-c2ccc(O)c(O)c2)oc2cc(O)cc(O)c12
REMARK SMILES IDX 5 1 3 2 2 3 1 4 22 5 20 6 19 7 17 8 16 9 15 10 14 11 6 12
REMARK SMILES IDX 7 13 8 14 9 15 13 16 11 17 10 18 12 20 4 22 21 24 18 26
REMARK H PARENT 10 19 12 21 4 23 21 25 18 27
REMARK Flexibility Score: inf
ROOT
ATOM      1  C   UNL     1      41.975  20.384   5.636  1.00  0.00     0.180 A 
ATOM      2  C   UNL     1      42.134  21.772   5.790  1.00  0.00     0.208 A 
ATOM      3  C   UNL     1      42.303  22.569   4.647  1.00  0.00     0.238 A 
ATOM      4  O   UNL     1      42.391  23.817   4.789  1.00  0.00    -0.285 OA
ATOM      5  C   UNL     1      42.325  21.969   3.366  1.00  0.00     0.111 A 
ATOM      6  C   UNL     1      42.529  22.675   2.142  1.00  0.00     0.134 A 
ATOM      7  C   UNL     1      42.400  21.997   0.923  1.00  0.00     0.093 A 
ATOM      8  C   UNL     1      42.141  20.629   0.884  1.00  0.00     0.123 A 
ATOM      9  C   UNL     1      41.998  19.915   2.076  1.00  0.00     0.094 A 
ATOM     10  C   UNL     1      42.086  20.571   3.307  1.00  0.00     0.146 A 
ATOM     11  O   UNL     1      41.934  19.858   4.417  1.00  0.00    -0.452 OA
ENDROOT
BRANCH   1  12
ATOM     12  C   UNL     1      41.817  19.475   6.794  1.00  0.00     0.025 A 
ATOM     13  C   UNL     1      42.913  18.716   7.231  1.00  0.00     0.016 A 
ATOM     14  C   UNL     1      42.793  17.868   8.335  1.00  0.00     0.051 A 
ATOM     15  C   UNL     1      41.582  17.778   9.028  1.00  0.00     0.157 A 
ATOM     16  C   UNL     1      40.605  19.399   7.506  1.00  0.00     0.062 A 
ATOM     17  C   UNL     1      40.484  18.550   8.615  1.00  0.00     0.158 A 
BRANCH  15  18
ATOM     18  O   UNL     1      41.491  16.921  10.125  1.00  0.00    -0.504 OA
ATOM     19  H   UNL     1      42.262  16.331  10.413  1.00  0.00     0.293 HD
ENDBRANCH  15  18
BRANCH  17  20
ATOM     20  O   UNL     1      39.277  18.475   9.310  1.00  0.00    -0.504 OA
ATOM     21  H   UNL     1      39.174  17.892  10.132  1.00  0.00     0.293 HD
ENDBRANCH  17  20
ENDBRANCH   1  12
BRANCH   2  22
ATOM     22  O   UNL     1      42.088  22.348   7.063  1.00  0.00    -0.502 OA
ATOM     23  H   UNL     1      41.216  22.564   7.531  1.00  0.00     0.293 HD
ENDBRANCH   2  22
BRANCH   6  24
ATOM     24  O   UNL     1      42.883  24.026   2.071  1.00  0.00    -0.507 OA
ATOM     25  H   UNL     1      43.328  24.462   1.278  1.00  0.00     0.293 HD
ENDBRANCH   6  24
BRANCH   8  26
ATOM     26  O   UNL     1      42.036  19.983  -0.345  1.00  0.00    -0.508 OA
ATOM     27  H   UNL     1      42.092  18.975  -0.422  1.00  0.00     0.293 HD
ENDBRANCH   8  26
TORSDOF 6
ENDMDL
MODEL 3
REMARK VINA RESULT:    -5.726      2.707      5.557
REMARK INTER + INTRA:          -7.156
REMARK INTER:                  -6.838
REMARK INTRA:                  -0.318
REMARK UNBOUND:                -0.258
REMARK SMILES O=c1c(O)c(-c2ccc(O)c(O)c2)oc2cc(O)cc(O)c12
REMARK SMILES IDX 5 1 3 2 2 3 1 4 22 5 20 6 19 7 17 8 16 9 15 10 14 11 6 12
REMARK SMILES IDX 7 13 8 14 9 15 13 16 11 17 10 18 12 20 4 22 21 24 18 26
REMARK H PARENT 10 19 12 21 4 23 21 25 18 27
REMARK Flexibility Score: inf
ROOT
ATOM      1  C   UNL     1      41.368  18.428  -5.231  1.00  0.00     0.180 A 
ATOM      2  C   UNL     1      42.064  18.575  -4.018  1.00  0.00     0.208 A 
ATOM      3  C   UNL     1      41.681  19.597  -3.133  1.00  0.00     0.238 A 
ATOM      4  O   UNL     1      42.272  19.689  -2.026  1.00  0.00    -0.285 OA
ATOM      5  C   UNL     1      40.619  20.467  -3.478  1.00  0.00     0.111 A 
ATOM      6  C   UNL     1      40.173  21.559  -2.675  1.00  0.00     0.134 A 
ATOM      7  C   UNL     1      39.028  22.272  -3.054  1.00  0.00     0.093 A 
ATOM      8  C   UNL     1      38.353  21.975  -4.236  1.00  0.00     0.123 A 
ATOM      9  C   UNL     1      38.815  20.946  -5.059  1.00  0.00     0.094 A 
ATOM     10  C   UNL     1      39.933  20.194  -4.690  1.00  0.00     0.146 A 
ATOM     11  O   UNL     1      40.334  19.217  -5.496  1.00  0.00    -0.452 OA
ENDROOT
BRANCH   1  12
ATOM     12  C   UNL     1      41.729  17.392  -6.224  1.00  0.00     0.025 A 
ATOM     13  C   UNL     1      42.752  17.648  -7.150  1.00  0.00     0.016 A 
ATOM     14  C   UNL     1      43.123  16.677  -8.083  1.00  0.00     0.051 A 
ATOM     15  C   UNL     1      42.491  15.431  -8.095  1.00  0.00     0.157 A 
ATOM     16  C   UNL     1      41.108  16.129  -6.225  1.00  0.00     0.062 A 
ATOM     17  C   UNL     1      41.481  15.152  -7.159  1.00  0.00     0.158 A 
BRANCH  15  18
ATOM     18  O   UNL     1      42.880  14.481  -9.040  1.00  0.00    -0.504 OA
ATOM     19  H   UNL     1      42.207  13.926  -9.554  1.00  0.00     0.293 HD
ENDBRANCH  15  18
BRANCH  17  20
ATOM     20  O   UNL     1      40.855  13.906  -7.157  1.00  0.00    -0.504 OA
ATOM     21  H   UNL     1      40.741  13.371  -6.304  1.00  0.00     0.293 HD
ENDBRANCH  17  20
ENDBRANCH   1  12
BRANCH   2  22
ATOM     22  O   UNL     1      43.095  17.693  -3.687  1.00  0.00    -0.502 OA
ATOM     23  H   UNL     1      43.975  17.671  -4.187  1.00  0.00     0.293 HD
ENDBRANCH   2  22
BRANCH   6  24
ATOM     24  O   UNL     1      40.829  21.999  -1.522  1.00  0.00    -0.507 OA
ATOM     25  H   UNL     1      40.523  21.810  -0.579  1.00  0.00     0.293 HD
ENDBRANCH   6  24
BRANCH   8  26
ATOM     26  O   UNL     1      37.228  22.716  -4.591  1.00  0.00    -0.508 OA
ATOM     27  H   UNL     1      36.430  22.797  -3.972  1.00  0.00     0.293 HD
ENDBRANCH   8  26
TORSDOF 6
ENDMDL
MODEL 4
REMARK VINA RESULT:    -5.642      5.298      9.201
REMARK INTER + INTRA:          -7.055
REMARK INTER:                  -7.063
REMARK INTRA:                   0.008
REMARK UNBOUND:                -0.258
REMARK SMILES O=c1c(O)c(-c2ccc(O)c(O)c2)oc2cc(O)cc(O)c12
REMARK SMILES IDX 5 1 3 2 2 3 1 4 22 5 20 6 19 7 17 8 16 9 15 10 14 11 6 12
REMARK SMILES IDX 7 13 8 14 9 15 13 16 11 17 10 18 12 20 4 22 21 24 18 26
REMARK H PARENT 10 19 12 21 4 23 21 25 18 27
REMARK Flexibility Score: inf
ROOT
ATOM      1  C   UNL     1      42.301  21.256   2.196  1.00  0.00     0.180 A 
ATOM      2  C   UNL     1      42.441  22.548   2.731  1.00  0.00     0.208 A 
ATOM      3  C   UNL     1      42.375  22.719   4.124  1.00  0.00     0.238 A 
ATOM      4  O   UNL     1      42.555  23.870   4.600  1.00  0.00    -0.285 OA
ATOM      5  C   UNL     1      42.155  21.599   4.962  1.00  0.00     0.111 A 
ATOM      6  C   UNL     1      42.032  21.662   6.382  1.00  0.00     0.134 A 
ATOM      7  C   UNL     1      41.947  20.475   7.121  1.00  0.00     0.093 A 
ATOM      8  C   UNL     1      41.916  19.234   6.488  1.00  0.00     0.123 A 
ATOM      9  C   UNL     1      41.976  19.163   5.095  1.00  0.00     0.094 A 
ATOM     10  C   UNL     1      42.097  20.328   4.333  1.00  0.00     0.146 A 
ATOM     11  O   UNL     1      42.162  20.217   3.011  1.00  0.00    -0.452 OA
ENDROOT
BRANCH   1  12
ATOM     12  C   UNL     1      42.335  21.000   0.738  1.00  0.00     0.025 A 
ATOM     13  C   UNL     1      43.096  19.931   0.242  1.00  0.00     0.016 A 
ATOM     14  C   UNL     1      43.125  19.658  -1.129  1.00  0.00     0.051 A 
ATOM     15  C   UNL     1      42.382  20.437  -2.020  1.00  0.00     0.157 A 
ATOM     16  C   UNL     1      41.571  21.770  -0.158  1.00  0.00     0.062 A 
ATOM     17  C   UNL     1      41.597  21.496  -1.534  1.00  0.00     0.158 A 
BRANCH  15  18
ATOM     18  O   UNL     1      42.432  20.143  -3.382  1.00  0.00    -0.504 OA
ATOM     19  H   UNL     1      42.857  20.772  -4.053  1.00  0.00     0.293 HD
ENDBRANCH  15  18
BRANCH  17  20
ATOM     20  O   UNL     1      40.843  22.268  -2.416  1.00  0.00    -0.504 OA
ATOM     21  H   UNL     1      39.948  21.950  -2.768  1.00  0.00     0.293 HD
ENDBRANCH  17  20
ENDBRANCH   1  12
BRANCH   2  22
ATOM     22  O   UNL     1      42.679  23.637   1.888  1.00  0.00    -0.502 OA
ATOM     23  H   UNL     1      43.519  24.199   1.949  1.00  0.00     0.293 HD
ENDBRANCH   2  22
BRANCH   6  24
ATOM     24  O   UNL     1      41.961  22.855   7.107  1.00  0.00    -0.507 OA
ATOM     25  H   UNL     1      42.046  23.777   6.707  1.00  0.00     0.293 HD
ENDBRANCH   6  24
BRANCH   8  26
ATOM     26  O   UNL     1      41.814  18.074   7.253  1.00  0.00    -0.508 OA
ATOM     27  H   UNL     1      41.031  17.916   7.875  1.00  0.00     0.293 HD
ENDBRANCH   8  26
TORSDOF 6
ENDMDL
MODEL 5
REMARK VINA RESULT:    -5.596      2.323      7.579
REMARK INTER + INTRA:          -7.000
REMARK INTER:                  -7.263
REMARK INTRA:                   0.263
REMARK UNBOUND:                -0.258
REMARK SMILES O=c1c(O)c(-c2ccc(O)c(O)c2)oc2cc(O)cc(O)c12
REMARK SMILES IDX 5 1 3 2 2 3 1 4 22 5 20 6 19 7 17 8 16 9 15 10 14 11 6 12
REMARK SMILES IDX 7 13 8 14 9 15 13 16 11 17 10 18 12 20 4 22 21 24 18 26
REMARK H PARENT 10 19 12 21 4 23 21 25 18 27
REMARK Flexibility Score: inf
ROOT
ATOM      1  C   UNL     1      41.296  20.596  -1.499  1.00  0.00     0.180 A 
ATOM      2  C   UNL     1      41.978  19.630  -2.258  1.00  0.00     0.208 A 
ATOM      3  C   UNL     1      41.510  19.322  -3.546  1.00  0.00     0.238 A 
ATOM      4  O   UNL     1      42.157  18.495  -4.242  1.00  0.00    -0.285 OA
ATOM      5  C   UNL     1      40.360  19.972  -4.052  1.00  0.00     0.111 A 
ATOM      6  C   UNL     1      39.775  19.710  -5.328  1.00  0.00     0.134 A 
ATOM      7  C   UNL     1      38.715  20.507  -5.779  1.00  0.00     0.093 A 
ATOM      8  C   UNL     1      38.177  21.511  -4.976  1.00  0.00     0.123 A 
ATOM      9  C   UNL     1      38.702  21.737  -3.703  1.00  0.00     0.094 A 
ATOM     10  C   UNL     1      39.783  20.982  -3.239  1.00  0.00     0.146 A 
ATOM     11  O   UNL     1      40.260  21.237  -2.026  1.00  0.00    -0.452 OA
ENDROOT
BRANCH   1  12
ATOM     12  C   UNL     1      41.714  20.956  -0.125  1.00  0.00     0.025 A 
ATOM     13  C   UNL     1      42.286  19.978   0.702  1.00  0.00     0.016 A 
ATOM     14  C   UNL     1      42.706  20.300   1.995  1.00  0.00     0.051 A 
ATOM     15  C   UNL     1      42.577  21.606   2.475  1.00  0.00     0.157 A 
ATOM     16  C   UNL     1      41.603  22.275   0.353  1.00  0.00     0.062 A 
ATOM     17  C   UNL     1      42.027  22.601   1.650  1.00  0.00     0.158 A 
BRANCH  15  18
ATOM     18  O   UNL     1      43.003  21.899   3.771  1.00  0.00    -0.504 OA
ATOM     19  H   UNL     1      43.542  22.729   3.985  1.00  0.00     0.293 HD
ENDBRANCH  15  18
BRANCH  17  20
ATOM     20  O   UNL     1      41.907  23.909   2.117  1.00  0.00    -0.504 OA
ATOM     21  H   UNL     1      42.674  24.377   2.586  1.00  0.00     0.293 HD
ENDBRANCH  17  20
ENDBRANCH   1  12
BRANCH   2  22
ATOM     22  O   UNL     1      43.125  19.015  -1.749  1.00  0.00    -0.502 OA
ATOM     23  H   UNL     1      43.963  19.533  -1.517  1.00  0.00     0.293 HD
ENDBRANCH   2  22
BRANCH   6  24
ATOM     24  O   UNL     1      40.178  18.671  -6.172  1.00  0.00    -0.507 OA
ATOM     25  H   UNL     1      39.698  17.789  -6.267  1.00  0.00     0.293 HD
ENDBRANCH   6  24
BRANCH   8  26
ATOM     26  O   UNL     1      37.112  22.273  -5.450  1.00  0.00    -0.508 OA
ATOM     27  H   UNL     1      37.247  23.006  -6.136  1.00  0.00     0.293 HD
ENDBRANCH   8  26
TORSDOF 6
ENDMDL
MODEL 6
REMARK VINA RESULT:    -5.552      1.684      3.597
REMARK INTER + INTRA:          -6.946
REMARK INTER:                  -6.664
REMARK INTRA:                  -0.282
REMARK UNBOUND:                -0.258
REMARK SMILES O=c1c(O)c(-c2ccc(O)c(O)c2)oc2cc(O)cc(O)c12
REMARK SMILES IDX 5 1 3 2 2 3 1 4 22 5 20 6 19 7 17 8 16 9 15 10 14 11 6 12
REMARK SMILES IDX 7 13 8 14 9 15 13 16 11 17 10 18 12 20 4 22 21 24 18 26
REMARK H PARENT 10 19 12 21 4 23 21 25 18 27
REMARK Flexibility Score: inf
ROOT
ATOM      1  C   UNL     1      39.541  20.306  -6.672  1.00  0.00     0.180 A 
ATOM      2  C   UNL     1      39.952  20.638  -5.370  1.00  0.00     0.208 A 
ATOM      3  C   UNL     1      40.870  19.804  -4.712  1.00  0.00     0.238 A 
ATOM      4  O   UNL     1      41.275  20.136  -3.567  1.00  0.00    -0.285 OA
ATOM      5  C   UNL     1      41.355  18.642  -5.358  1.00  0.00     0.111 A 
ATOM      6  C   UNL     1      42.258  17.705  -4.771  1.00  0.00     0.134 A 
ATOM      7  C   UNL     1      42.773  16.661  -5.551  1.00  0.00     0.093 A 
ATOM      8  C   UNL     1      42.368  16.481  -6.872  1.00  0.00     0.123 A 
ATOM      9  C   UNL     1      41.440  17.357  -7.439  1.00  0.00     0.094 A 
ATOM     10  C   UNL     1      40.936  18.430  -6.697  1.00  0.00     0.146 A 
ATOM     11  O   UNL     1      40.063  19.246  -7.277  1.00  0.00    -0.452 OA
ENDROOT
BRANCH   1  12
ATOM     12  C   UNL     1      38.557  21.122  -7.420  1.00  0.00     0.025 A 
ATOM     13  C   UNL     1      38.991  21.916  -8.492  1.00  0.00     0.016 A 
ATOM     14  C   UNL     1      38.077  22.678  -9.225  1.00  0.00     0.051 A 
ATOM     15  C   UNL     1      36.716  22.645  -8.908  1.00  0.00     0.157 A 
ATOM     16  C   UNL     1      37.184  21.074  -7.116  1.00  0.00     0.062 A 
ATOM     17  C   UNL     1      36.265  21.836  -7.852  1.00  0.00     0.158 A 
BRANCH  15  18
ATOM     18  O   UNL     1      35.827  23.417  -9.655  1.00  0.00    -0.504 OA
ATOM     19  H   UNL     1      35.905  24.426  -9.711  1.00  0.00     0.293 HD
ENDBRANCH  15  18
BRANCH  17  20
ATOM     20  O   UNL     1      34.907  21.788  -7.539  1.00  0.00    -0.504 OA
ATOM     21  H   UNL     1      34.205  21.622  -8.250  1.00  0.00     0.293 HD
ENDBRANCH  17  20
ENDBRANCH   1  12
BRANCH   2  22
ATOM     22  O   UNL     1      39.478  21.802  -4.758  1.00  0.00    -0.502 OA
ATOM     23  H   UNL     1      39.296  21.859  -3.763  1.00  0.00     0.293 HD
ENDBRANCH   2  22
BRANCH   6  24
ATOM     24  O   UNL     1      42.656  17.739  -3.432  1.00  0.00    -0.507 OA
ATOM     25  H   UNL     1      42.611  16.955  -2.799  1.00  0.00     0.293 HD
ENDBRANCH   6  24
BRANCH   8  26
ATOM     26  O   UNL     1      42.888  15.422  -7.613  1.00  0.00    -0.508 OA
ATOM     27  H   UNL     1      42.452  15.113  -8.473  1.00  0.00     0.293 HD
ENDBRANCH   8  26
TORSDOF 6
ENDMDL
MODEL 7
REMARK VINA RESULT:    -5.490      1.893      6.922
REMARK INTER + INTRA:          -6.871
REMARK INTER:                  -6.700
REMARK INTRA:                  -0.171
REMARK UNBOUND:                -0.258
REMARK SMILES O=c1c(O)c(-c2ccc(O)c(O)c2)oc2cc(O)cc(O)c12
REMARK SMILES IDX 5 1 3 2 2 3 1 4 22 5 20 6 19 7 17 8 16 9 15 10 14 11 6 12
REMARK SMILES IDX 7 13 8 14 9 15 13 16 11 17 10 18 12 20 4 22 21 24 18 26
REMARK H PARENT 10 19 12 21 4 23 21 25 18 27
REMARK Flexibility Score: inf
ROOT
ATOM      1  C   UNL     1      40.893  21.029  -4.324  1.00  0.00     0.180 A 
ATOM      2  C   UNL     1      41.743  21.312  -5.408  1.00  0.00     0.208 A 
ATOM      3  C   UNL     1      41.183  21.503  -6.681  1.00  0.00     0.238 A 
ATOM      4  O   UNL     1      41.945  21.809  -7.636  1.00  0.00    -0.285 OA
ATOM      5  C   UNL     1      39.783  21.393  -6.859  1.00  0.00     0.111 A 
ATOM      6  C   UNL     1      39.112  21.528  -8.112  1.00  0.00     0.134 A 
ATOM      7  C   UNL     1      37.712  21.530  -8.148  1.00  0.00     0.093 A 
ATOM      8  C   UNL     1      36.961  21.338  -6.990  1.00  0.00     0.123 A 
ATOM      9  C   UNL     1      37.608  21.146  -5.768  1.00  0.00     0.094 A 
ATOM     10  C   UNL     1      39.003  21.174  -5.694  1.00  0.00     0.146 A 
ATOM     11  O   UNL     1      39.579  20.998  -4.511  1.00  0.00    -0.452 OA
ENDROOT
BRANCH   1  12
ATOM     12  C   UNL     1      41.411  20.791  -2.958  1.00  0.00     0.025 A 
ATOM     13  C   UNL     1      42.224  19.674  -2.712  1.00  0.00     0.016 A 
ATOM     14  C   UNL     1      42.740  19.442  -1.434  1.00  0.00     0.051 A 
ATOM     15  C   UNL     1      42.467  20.329  -0.390  1.00  0.00     0.157 A 
ATOM     16  C   UNL     1      41.154  21.694  -1.910  1.00  0.00     0.062 A 
ATOM     17  C   UNL     1      41.674  21.464  -0.628  1.00  0.00     0.158 A 
BRANCH  15  18
ATOM     18  O   UNL     1      42.994  20.071   0.875  1.00  0.00    -0.504 OA
ATOM     19  H   UNL     1      42.774  20.647   1.679  1.00  0.00     0.293 HD
ENDBRANCH  15  18
BRANCH  17  20
ATOM     20  O   UNL     1      41.409  22.360   0.407  1.00  0.00    -0.504 OA
ATOM     21  H   UNL     1      41.441  23.363   0.261  1.00  0.00     0.293 HD
ENDBRANCH  17  20
ENDBRANCH   1  12
BRANCH   2  22
ATOM     22  O   UNL     1      43.121  21.438  -5.207  1.00  0.00    -0.502 OA
ATOM     23  H   UNL     1      43.647  20.797  -4.626  1.00  0.00     0.293 HD
ENDBRANCH   2  22
BRANCH   6  24
ATOM     24  O   UNL     1      39.769  21.634  -9.341  1.00  0.00    -0.507 OA
ATOM     25  H   UNL     1      40.225  22.468  -9.679  1.00  0.00     0.293 HD
ENDBRANCH   6  24
BRANCH   8  26
ATOM     26  O   UNL     1      35.570  21.329  -7.066  1.00  0.00    -0.508 OA
ATOM     27  H   UNL     1      34.994  21.313  -6.233  1.00  0.00     0.293 HD
ENDBRANCH   8  26
TORSDOF 6
ENDMDL
MODEL 8
REMARK VINA RESULT:    -5.481      2.784      5.226
REMARK INTER + INTRA:          -6.860
REMARK INTER:                  -6.529
REMARK INTRA:                  -0.331
REMARK UNBOUND:                -0.258
REMARK SMILES O=c1c(O)c(-c2ccc(O)c(O)c2)oc2cc(O)cc(O)c12
REMARK SMILES IDX 5 1 3 2 2 3 1 4 22 5 20 6 19 7 17 8 16 9 15 10 14 11 6 12
REMARK SMILES IDX 7 13 8 14 9 15 13 16 11 17 10 18 12 20 4 22 21 24 18 26
REMARK H PARENT 10 19 12 21 4 23 21 25 18 27
REMARK Flexibility Score: inf
ROOT
ATOM      1  C   UNL     1      41.322  18.662  -5.528  1.00  0.00     0.180 A 
ATOM      2  C   UNL     1      40.283  19.558  -5.836  1.00  0.00     0.208 A 
ATOM      3  C   UNL     1      39.959  20.567  -4.915  1.00  0.00     0.238 A 
ATOM      4  O   UNL     1      39.064  21.399  -5.221  1.00  0.00    -0.285 OA
ATOM      5  C   UNL     1      40.666  20.659  -3.692  1.00  0.00     0.111 A 
ATOM      6  C   UNL     1      40.395  21.618  -2.670  1.00  0.00     0.134 A 
ATOM      7  C   UNL     1      41.243  21.700  -1.558  1.00  0.00     0.093 A 
ATOM      8  C   UNL     1      42.311  20.818  -1.401  1.00  0.00     0.123 A 
ATOM      9  C   UNL     1      42.550  19.838  -2.366  1.00  0.00     0.094 A 
ATOM     10  C   UNL     1      41.742  19.755  -3.504  1.00  0.00     0.146 A 
ATOM     11  O   UNL     1      42.010  18.815  -4.403  1.00  0.00    -0.452 OA
ENDROOT
BRANCH   1  12
ATOM     12  C   UNL     1      41.705  17.558  -6.436  1.00  0.00     0.025 A 
ATOM     13  C   UNL     1      42.726  17.759  -7.377  1.00  0.00     0.016 A 
ATOM     14  C   UNL     1      43.118  16.724  -8.230  1.00  0.00     0.051 A 
ATOM     15  C   UNL     1      42.508  15.470  -8.146  1.00  0.00     0.157 A 
ATOM     16  C   UNL     1      41.105  16.288  -6.339  1.00  0.00     0.062 A 
ATOM     17  C   UNL     1      41.499  15.248  -7.193  1.00  0.00     0.158 A 
BRANCH  15  18
ATOM     18  O   UNL     1      42.918  14.456  -9.012  1.00  0.00    -0.504 OA
ATOM     19  H   UNL     1      42.256  13.880  -9.518  1.00  0.00     0.293 HD
ENDBRANCH  15  18
BRANCH  17  20
ATOM     20  O   UNL     1      40.895  13.995  -7.095  1.00  0.00    -0.504 OA
ATOM     21  H   UNL     1      41.431  13.139  -7.185  1.00  0.00     0.293 HD
ENDBRANCH  17  20
ENDBRANCH   1  12
BRANCH   2  22
ATOM     22  O   UNL     1      39.612  19.464  -7.059  1.00  0.00    -0.502 OA
ATOM     23  H   UNL     1      39.700  18.659  -7.667  1.00  0.00     0.293 HD
ENDBRANCH   2  22
BRANCH   6  24
ATOM     24  O   UNL     1      39.299  22.486  -2.684  1.00  0.00    -0.507 OA
ATOM     25  H   UNL     1      38.749  22.703  -3.502  1.00  0.00     0.293 HD
ENDBRANCH   6  24
BRANCH   8  26
ATOM     26  O   UNL     1      43.125  20.917  -0.274  1.00  0.00    -0.508 OA
ATOM     27  H   UNL     1      43.127  20.203   0.443  1.00  0.00     0.293 HD
ENDBRANCH   8  26
TORSDOF 6
ENDMDL
MODEL 9
REMARK VINA RESULT:    -5.473      3.501      8.502
REMARK INTER + INTRA:          -6.851
REMARK INTER:                  -7.092
REMARK INTRA:                   0.241
REMARK UNBOUND:                -0.258
REMARK SMILES O=c1c(O)c(-c2ccc(O)c(O)c2)oc2cc(O)cc(O)c12
REMARK SMILES IDX 5 1 3 2 2 3 1 4 22 5 20 6 19 7 17 8 16 9 15 10 14 11 6 12
REMARK SMILES IDX 7 13 8 14 9 15 13 16 11 17 10 18 12 20 4 22 21 24 18 26
REMARK H PARENT 10 19 12 21 4 23 21 25 18 27
REMARK Flexibility Score: inf
ROOT
ATOM      1  C   UNL     1      41.735  21.460  -0.533  1.00  0.00     0.180 A 
ATOM      2  C   UNL     1      41.229  22.544  -1.271  1.00  0.00     0.208 A 
ATOM      3  C   UNL     1      41.054  22.403  -2.657  1.00  0.00     0.238 A 
ATOM      4  O   UNL     1      40.550  23.358  -3.304  1.00  0.00    -0.285 OA
ATOM      5  C   UNL     1      41.402  21.185  -3.291  1.00  0.00     0.111 A 
ATOM      6  C   UNL     1      41.303  20.944  -4.694  1.00  0.00     0.134 A 
ATOM      7  C   UNL     1      41.550  19.659  -5.193  1.00  0.00     0.093 A 
ATOM      8  C   UNL     1      41.955  18.625  -4.351  1.00  0.00     0.123 A 
ATOM      9  C   UNL     1      42.111  18.864  -2.985  1.00  0.00     0.094 A 
ATOM     10  C   UNL     1      41.837  20.127  -2.452  1.00  0.00     0.146 A 
ATOM     11  O   UNL     1      41.989  20.309  -1.145  1.00  0.00    -0.452 OA
ENDROOT
BRANCH   1  12
ATOM     12  C   UNL     1      41.970  21.542   0.926  1.00  0.00     0.025 A 
ATOM     13  C   UNL     1      41.909  20.374   1.702  1.00  0.00     0.016 A 
ATOM     14  C   UNL     1      42.148  20.425   3.078  1.00  0.00     0.051 A 
ATOM     15  C   UNL     1      42.467  21.638   3.695  1.00  0.00     0.157 A 
ATOM     16  C   UNL     1      42.311  22.758   1.546  1.00  0.00     0.062 A 
ATOM     17  C   UNL     1      42.553  22.810   2.926  1.00  0.00     0.158 A 
BRANCH  15  18
ATOM     18  O   UNL     1      42.698  21.658   5.071  1.00  0.00    -0.504 OA
ATOM     19  H   UNL     1      42.164  21.087   5.715  1.00  0.00     0.293 HD
ENDBRANCH  15  18
BRANCH  17  20
ATOM     20  O   UNL     1      42.884  24.021   3.534  1.00  0.00    -0.504 OA
ATOM     21  H   UNL     1      42.415  24.884   3.287  1.00  0.00     0.293 HD
ENDBRANCH  17  20
ENDBRANCH   1  12
BRANCH   2  22
ATOM     22  O   UNL     1      40.871  23.730  -0.624  1.00  0.00    -0.502 OA
ATOM     23  H   UNL     1      39.937  24.118  -0.673  1.00  0.00     0.293 HD
ENDBRANCH   2  22
BRANCH   6  24
ATOM     24  O   UNL     1      40.996  21.931  -5.635  1.00  0.00    -0.507 OA
ATOM     25  H   UNL     1      40.068  22.281  -5.819  1.00  0.00     0.293 HD
ENDBRANCH   6  24
BRANCH   8  26
ATOM     26  O   UNL     1      42.208  17.363  -4.884  1.00  0.00    -0.508 OA
ATOM     27  H   UNL     1      41.844  16.522  -4.453  1.00  0.00     0.293 HD
ENDBRANCH   8  26
TORSDOF 6
ENDMDL
