MODEL 1
REMARK VINA RESULT:    -4.751      0.000      0.000
REMARK INTER + INTRA:          -5.029
REMARK INTER:                  -5.029
REMARK INTRA:                   0.000
REMARK UNBOUND:                 0.000
REMARK SMILES O=c1ccc2cc(O)c(O)cc2o1
REMARK SMILES IDX 4 1 3 2 2 3 1 4 13 5 12 6 11 7 9 8 7 9 6 10 5 11 8 12 10 14
REMARK H PARENT 8 13 10 15
REMARK Flexibility Score: inf
ROOT
ATOM      1  C   UNL     1      74.727  37.619  18.253  1.00  0.00     0.019 A 
ATOM      2  C   UNL     1      73.783  36.665  17.875  1.00  0.00     0.094 A 
ATOM      3  C   UNL     1      72.754  36.338  18.766  1.00  0.00     0.336 A 
ATOM      4  O   UNL     1      71.893  35.480  18.443  1.00  0.00    -0.246 OA
ATOM      5  O   UNL     1      72.681  36.930  19.956  1.00  0.00    -0.423 OA
ATOM      6  C   UNL     1      73.561  37.845  20.356  1.00  0.00     0.142 A 
ATOM      7  C   UNL     1      73.433  38.433  21.618  1.00  0.00     0.098 A 
ATOM      8  C   UNL     1      74.355  39.396  22.046  1.00  0.00     0.161 A 
ATOM      9  C   UNL     1      75.416  39.777  21.204  1.00  0.00     0.158 A 
ATOM     10  C   UNL     1      75.548  39.189  19.937  1.00  0.00     0.062 A 
ATOM     11  C   UNL     1      74.625  38.225  19.510  1.00  0.00     0.022 A 
ENDROOT
BRANCH   9  12
ATOM     12  O   UNL     1      76.334  40.736  21.629  1.00  0.00    -0.504 OA
ATOM     13  H   UNL     1      77.307  40.699  21.350  1.00  0.00     0.293 HD
ENDBRANCH   9  12
BRANCH   8  14
ATOM     14  O   UNL     1      74.200  39.965  23.310  1.00  0.00    -0.504 OA
ATOM     15  H   UNL     1      74.612  40.857  23.554  1.00  0.00     0.293 HD
ENDBRANCH   8  14
TORSDOF 2
ENDMDL
MODEL 2
REMARK VINA RESULT:    -4.477      1.271      2.485
REMARK INTER + INTRA:          -4.739
REMARK INTER:                  -4.739
REMARK INTRA:                   0.000
REMARK UNBOUND:                 0.000
REMARK SMILES O=c1ccc2cc(O)c(O)cc2o1
REMARK SMILES IDX 4 1 3 2 2 3 1 4 13 5 12 6 11 7 9 8 7 9 6 10 5 11 8 12 10 14
REMARK H PARENT 8 13 10 15
REMARK Flexibility Score: inf
ROOT
ATOM      1  C   UNL     1      73.000  37.780  20.907  1.00  0.00     0.019 A 
ATOM      2  C   UNL     1      72.464  36.884  19.982  1.00  0.00     0.094 A 
ATOM      3  C   UNL     1      73.065  36.768  18.724  1.00  0.00     0.336 A 
ATOM      4  O   UNL     1      72.596  35.966  17.875  1.00  0.00    -0.246 OA
ATOM      5  O   UNL     1      74.132  37.502  18.417  1.00  0.00    -0.423 OA
ATOM      6  C   UNL     1      74.675  38.367  19.269  1.00  0.00     0.142 A 
ATOM      7  C   UNL     1      75.797  39.111  18.892  1.00  0.00     0.098 A 
ATOM      8  C   UNL     1      76.374  40.024  19.783  1.00  0.00     0.161 A 
ATOM      9  C   UNL     1      75.825  40.195  21.067  1.00  0.00     0.158 A 
ATOM     10  C   UNL     1      74.699  39.451  21.450  1.00  0.00     0.062 A 
ATOM     11  C   UNL     1      74.122  38.538  20.557  1.00  0.00     0.022 A 
ENDROOT
BRANCH   9  12
ATOM     12  O   UNL     1      76.398  41.103  21.955  1.00  0.00    -0.504 OA
ATOM     13  H   UNL     1      77.207  40.859  22.515  1.00  0.00     0.293 HD
ENDBRANCH   9  12
BRANCH   8  14
ATOM     14  O   UNL     1      77.492  40.750  19.376  1.00  0.00    -0.504 OA
ATOM     15  H   UNL     1      78.430  40.507  19.672  1.00  0.00     0.293 HD
ENDBRANCH   8  14
TORSDOF 2
ENDMDL
MODEL 3
REMARK VINA RESULT:    -4.423      3.205      4.255
REMARK INTER + INTRA:          -4.682
REMARK INTER:                  -4.682
REMARK INTRA:                   0.000
REMARK UNBOUND:                 0.000
REMARK SMILES O=c1ccc2cc(O)c(O)cc2o1
REMARK SMILES IDX 4 1 3 2 2 3 1 4 13 5 12 6 11 7 9 8 7 9 6 10 5 11 8 12 10 14
REMARK H PARENT 8 13 10 15
REMARK Flexibility Score: inf
ROOT
ATOM      1  C   UNL     1      74.557  40.949  18.588  1.00  0.00     0.019 A 
ATOM      2  C   UNL     1      75.749  41.118  17.882  1.00  0.00     0.094 A 
ATOM      3  C   UNL     1      76.964  40.966  18.559  1.00  0.00     0.336 A 
ATOM      4  O   UNL     1      78.050  41.116  17.939  1.00  0.00    -0.246 OA
ATOM      5  O   UNL     1      76.981  40.667  19.855  1.00  0.00    -0.423 OA
ATOM      6  C   UNL     1      75.869  40.497  20.565  1.00  0.00     0.142 A 
ATOM      7  C   UNL     1      75.947  40.182  21.925  1.00  0.00     0.098 A 
ATOM      8  C   UNL     1      74.782  40.001  22.679  1.00  0.00     0.161 A 
ATOM      9  C   UNL     1      73.522  40.137  22.067  1.00  0.00     0.158 A 
ATOM     10  C   UNL     1      73.437  40.453  20.703  1.00  0.00     0.062 A 
ATOM     11  C   UNL     1      74.605  40.634  19.950  1.00  0.00     0.022 A 
ENDROOT
BRANCH   9  12
ATOM     12  O   UNL     1      72.360  39.957  22.817  1.00  0.00    -0.504 OA
ATOM     13  H   UNL     1      72.027  40.669  23.457  1.00  0.00     0.293 HD
ENDBRANCH   9  12
BRANCH   8  14
ATOM     14  O   UNL     1      74.894  39.687  24.033  1.00  0.00    -0.504 OA
ATOM     15  H   UNL     1      75.737  39.875  24.561  1.00  0.00     0.293 HD
ENDBRANCH   8  14
TORSDOF 2
ENDMDL
MODEL 4
REMARK VINA RESULT:    -4.263      2.415      4.032
REMARK INTER + INTRA:          -4.512
REMARK INTER:                  -4.512
REMARK INTRA:                   0.000
REMARK UNBOUND:                 0.000
REMARK SMILES O=c1ccc2cc(O)c(O)cc2o1
REMARK SMILES IDX 4 1 3 2 2 3 1 4 13 5 12 6 11 7 9 8 7 9 6 10 5 11 8 12 10 14
REMARK H PARENT 8 13 10 15
REMARK Flexibility Score: inf
ROOT
ATOM      1  C   UNL     1      71.991  38.619  20.715  1.00  0.00     0.019 A 
ATOM      2  C   UNL     1      71.153  39.273  21.618  1.00  0.00     0.094 A 
ATOM      3  C   UNL     1      71.638  40.390  22.306  1.00  0.00     0.336 A 
ATOM      4  O   UNL     1      70.897  40.993  23.126  1.00  0.00    -0.246 OA
ATOM      5  O   UNL     1      72.881  40.820  22.101  1.00  0.00    -0.423 OA
ATOM      6  C   UNL     1      73.712  40.227  21.249  1.00  0.00     0.142 A 
ATOM      7  C   UNL     1      75.007  40.724  21.074  1.00  0.00     0.098 A 
ATOM      8  C   UNL     1      75.889  40.104  20.179  1.00  0.00     0.161 A 
ATOM      9  C   UNL     1      75.471  38.976  19.450  1.00  0.00     0.158 A 
ATOM     10  C   UNL     1      74.173  38.473  19.623  1.00  0.00     0.062 A 
ATOM     11  C   UNL     1      73.292  39.093  20.519  1.00  0.00     0.022 A 
ENDROOT
BRANCH   9  12
ATOM     12  O   UNL     1      76.348  38.358  18.559  1.00  0.00    -0.504 OA
ATOM     13  H   UNL     1      77.051  37.701  18.876  1.00  0.00     0.293 HD
ENDBRANCH   9  12
BRANCH   8  14
ATOM     14  O   UNL     1      77.173  40.625  20.026  1.00  0.00    -0.504 OA
ATOM     15  H   UNL     1      77.936  40.365  20.639  1.00  0.00     0.293 HD
ENDBRANCH   8  14
TORSDOF 2
ENDMDL
MODEL 5
REMARK VINA RESULT:    -4.246      3.091      3.540
REMARK INTER + INTRA:          -4.494
REMARK INTER:                  -4.494
REMARK INTRA:                   0.000
REMARK UNBOUND:                 0.000
REMARK SMILES O=c1ccc2cc(O)c(O)cc2o1
REMARK SMILES IDX 4 1 3 2 2 3 1 4 13 5 12 6 11 7 9 8 7 9 6 10 5 11 8 12 10 14
REMARK H PARENT 8 13 10 15
REMARK Flexibility Score: inf
ROOT
ATOM      1  C   UNL     1      71.786  39.945  18.760  1.00  0.00     0.019 A 
ATOM      2  C   UNL     1      70.459  40.376  18.772  1.00  0.00     0.094 A 
ATOM      3  C   UNL     1      69.871  40.726  19.992  1.00  0.00     0.336 A 
ATOM      4  O   UNL     1      68.675  41.117  20.023  1.00  0.00    -0.246 OA
ATOM      5  O   UNL     1      70.568  40.647  21.123  1.00  0.00    -0.423 OA
ATOM      6  C   UNL     1      71.834  40.242  21.157  1.00  0.00     0.142 A 
ATOM      7  C   UNL     1      72.517  40.179  22.375  1.00  0.00     0.098 A 
ATOM      8  C   UNL     1      73.850  39.753  22.419  1.00  0.00     0.161 A 
ATOM      9  C   UNL     1      74.509  39.386  21.232  1.00  0.00     0.158 A 
ATOM     10  C   UNL     1      73.829  39.446  20.007  1.00  0.00     0.062 A 
ATOM     11  C   UNL     1      72.494  39.872  19.964  1.00  0.00     0.022 A 
ENDROOT
BRANCH   9  12
ATOM     12  O   UNL     1      75.836  38.961  21.274  1.00  0.00    -0.504 OA
ATOM     13  H   UNL     1      76.129  38.092  20.844  1.00  0.00     0.293 HD
ENDBRANCH   9  12
BRANCH   8  14
ATOM     14  O   UNL     1      74.503  39.703  23.650  1.00  0.00    -0.504 OA
ATOM     15  H   UNL     1      74.018  39.863  24.525  1.00  0.00     0.293 HD
ENDBRANCH   8  14
TORSDOF 2
ENDMDL
MODEL 6
REMARK VINA RESULT:    -4.199      3.292      4.551
REMARK INTER + INTRA:          -4.445
REMARK INTER:                  -4.445
REMARK INTRA:                   0.000
REMARK UNBOUND:                 0.000
REMARK SMILES O=c1ccc2cc(O)c(O)cc2o1
REMARK SMILES IDX 4 1 3 2 2 3 1 4 13 5 12 6 11 7 9 8 7 9 6 10 5 11 8 12 10 14
REMARK H PARENT 8 13 10 15
REMARK Flexibility Score: inf
ROOT
ATOM      1  C   UNL     1      70.907  40.360  22.746  1.00  0.00     0.019 A 
ATOM      2  C   UNL     1      69.636  40.714  22.293  1.00  0.00     0.094 A 
ATOM      3  C   UNL     1      69.370  40.669  20.920  1.00  0.00     0.336 A 
ATOM      4  O   UNL     1      68.229  40.985  20.491  1.00  0.00    -0.246 OA
ATOM      5  O   UNL     1      70.315  40.294  20.062  1.00  0.00    -0.423 OA
ATOM      6  C   UNL     1      71.540  39.949  20.452  1.00  0.00     0.142 A 
ATOM      7  C   UNL     1      72.493  39.563  19.505  1.00  0.00     0.098 A 
ATOM      8  C   UNL     1      73.783  39.199  19.907  1.00  0.00     0.161 A 
ATOM      9  C   UNL     1      74.126  39.218  21.272  1.00  0.00     0.158 A 
ATOM     10  C   UNL     1      73.173  39.605  22.226  1.00  0.00     0.062 A 
ATOM     11  C   UNL     1      71.882  39.970  21.822  1.00  0.00     0.022 A 
ENDROOT
BRANCH   9  12
ATOM     12  O   UNL     1      75.410  38.855  21.674  1.00  0.00    -0.504 OA
ATOM     13  H   UNL     1      75.619  38.624  22.638  1.00  0.00     0.293 HD
ENDBRANCH   9  12
BRANCH   8  14
ATOM     14  O   UNL     1      74.711  38.818  18.938  1.00  0.00    -0.504 OA
ATOM     15  H   UNL     1      75.350  38.045  19.078  1.00  0.00     0.293 HD
ENDBRANCH   8  14
TORSDOF 2
ENDMDL
MODEL 7
REMARK VINA RESULT:    -4.184      1.760      4.840
REMARK INTER + INTRA:          -4.429
REMARK INTER:                  -4.429
REMARK INTRA:                   0.000
REMARK UNBOUND:                 0.000
REMARK SMILES O=c1ccc2cc(O)c(O)cc2o1
REMARK SMILES IDX 4 1 3 2 2 3 1 4 13 5 12 6 11 7 9 8 7 9 6 10 5 11 8 12 10 14
REMARK H PARENT 8 13 10 15
REMARK Flexibility Score: inf
ROOT
ATOM      1  C   UNL     1      74.923  39.889  21.306  1.00  0.00     0.019 A 
ATOM      2  C   UNL     1      75.984  40.668  20.843  1.00  0.00     0.094 A 
ATOM      3  C   UNL     1      76.487  40.433  19.558  1.00  0.00     0.336 A 
ATOM      4  O   UNL     1      77.444  41.125  19.123  1.00  0.00    -0.246 OA
ATOM      5  O   UNL     1      75.961  39.480  18.793  1.00  0.00    -0.423 OA
ATOM      6  C   UNL     1      74.949  38.715  19.195  1.00  0.00     0.142 A 
ATOM      7  C   UNL     1      74.436  37.730  18.347  1.00  0.00     0.098 A 
ATOM      8  C   UNL     1      73.372  36.921  18.763  1.00  0.00     0.161 A 
ATOM      9  C   UNL     1      72.813  37.099  20.042  1.00  0.00     0.158 A 
ATOM     10  C   UNL     1      73.324  38.086  20.897  1.00  0.00     0.062 A 
ATOM     11  C   UNL     1      74.389  38.895  20.479  1.00  0.00     0.022 A 
ENDROOT
BRANCH   9  12
ATOM     12  O   UNL     1      71.753  36.294  20.457  1.00  0.00    -0.504 OA
ATOM     13  H   UNL     1      71.745  35.859  21.373  1.00  0.00     0.293 HD
ENDBRANCH   9  12
BRANCH   8  14
ATOM     14  O   UNL     1      72.883  35.947  17.893  1.00  0.00    -0.504 OA
ATOM     15  H   UNL     1      72.154  36.145  17.218  1.00  0.00     0.293 HD
ENDBRANCH   8  14
TORSDOF 2
ENDMDL
MODEL 8
REMARK VINA RESULT:    -4.131      2.672      3.906
REMARK INTER + INTRA:          -4.372
REMARK INTER:                  -4.372
REMARK INTRA:                   0.000
REMARK UNBOUND:                 0.000
REMARK SMILES O=c1ccc2cc(O)c(O)cc2o1
REMARK SMILES IDX 4 1 3 2 2 3 1 4 13 5 12 6 11 7 9 8 7 9 6 10 5 11 8 12 10 14
REMARK H PARENT 8 13 10 15
REMARK Flexibility Score: inf
ROOT
ATOM      1  C   UNL     1      74.901  39.287  21.317  1.00  0.00     0.019 A 
ATOM      2  C   UNL     1      75.624  39.003  20.159  1.00  0.00     0.094 A 
ATOM      3  C   UNL     1      74.953  38.969  18.931  1.00  0.00     0.336 A 
ATOM      4  O   UNL     1      75.588  38.713  17.875  1.00  0.00    -0.246 OA
ATOM      5  O   UNL     1      73.645  39.203  18.873  1.00  0.00    -0.423 OA
ATOM      6  C   UNL     1      72.917  39.478  19.952  1.00  0.00     0.142 A 
ATOM      7  C   UNL     1      71.545  39.716  19.830  1.00  0.00     0.098 A 
ATOM      8  C   UNL     1      70.773  40.006  20.961  1.00  0.00     0.161 A 
ATOM      9  C   UNL     1      71.378  40.060  22.230  1.00  0.00     0.158 A 
ATOM     10  C   UNL     1      72.755  39.821  22.358  1.00  0.00     0.062 A 
ATOM     11  C   UNL     1      73.526  39.530  21.225  1.00  0.00     0.022 A 
ENDROOT
BRANCH   9  12
ATOM     12  O   UNL     1      70.611  40.348  23.357  1.00  0.00    -0.504 OA
ATOM     13  H   UNL     1      69.844  39.751  23.644  1.00  0.00     0.293 HD
ENDBRANCH   9  12
BRANCH   8  14
ATOM     14  O   UNL     1      69.407  40.240  20.805  1.00  0.00    -0.504 OA
ATOM     15  H   UNL     1      68.877  40.798  21.464  1.00  0.00     0.293 HD
ENDBRANCH   8  14
TORSDOF 2
ENDMDL
MODEL 9
REMARK VINA RESULT:    -3.903      3.160      4.028
REMARK INTER + INTRA:          -4.131
REMARK INTER:                  -4.131
REMARK INTRA:                   0.000
REMARK UNBOUND:                 0.000
REMARK SMILES O=c1ccc2cc(O)c(O)cc2o1
REMARK SMILES IDX 4 1 3 2 2 3 1 4 13 5 12 6 11 7 9 8 7 9 6 10 5 11 8 12 10 14
REMARK H PARENT 8 13 10 15
REMARK Flexibility Score: inf
ROOT
ATOM      1  C   UNL     1      72.352  39.612  18.289  1.00  0.00     0.019 A 
ATOM      2  C   UNL     1      73.665  39.178  18.107  1.00  0.00     0.094 A 
ATOM      3  C   UNL     1      74.462  38.940  19.232  1.00  0.00     0.336 A 
ATOM      4  O   UNL     1      75.650  38.548  19.088  1.00  0.00    -0.246 OA
ATOM      5  O   UNL     1      73.973  39.126  20.456  1.00  0.00    -0.423 OA
ATOM      6  C   UNL     1      72.727  39.539  20.674  1.00  0.00     0.142 A 
ATOM      7  C   UNL     1      72.268  39.716  21.982  1.00  0.00     0.098 A 
ATOM      8  C   UNL     1      70.958  40.151  22.220  1.00  0.00     0.161 A 
ATOM      9  C   UNL     1      70.097  40.410  21.138  1.00  0.00     0.158 A 
ATOM     10  C   UNL     1      70.553  40.233  19.824  1.00  0.00     0.062 A 
ATOM     11  C   UNL     1      71.864  39.799  19.587  1.00  0.00     0.022 A 
ENDROOT
BRANCH   9  12
ATOM     12  O   UNL     1      68.793  40.842  21.374  1.00  0.00    -0.504 OA
ATOM     13  H   UNL     1      68.528  41.277  22.250  1.00  0.00     0.293 HD
ENDBRANCH   9  12
BRANCH   8  14
ATOM     14  O   UNL     1      70.530  40.317  23.537  1.00  0.00    -0.504 OA
ATOM     15  H   UNL     1      69.626  40.714  23.764  1.00  0.00     0.293 HD
ENDBRANCH   8  14
TORSDOF 2
ENDMDL
