MODEL 1
REMARK VINA RESULT:    -9.509      0.000      0.000
REMARK INTER + INTRA:         -11.727
REMARK INTER:                 -11.454
REMARK INTRA:                  -0.273
REMARK UNBOUND:                -0.273
REMARK SMILES O=c1c(O)c(-c2ccc(O)c(O)c2)oc2cc(O)cc(O)c12
REMARK SMILES IDX 5 1 3 2 2 3 1 4 22 5 20 6 19 7 17 8 16 9 15 10 14 11 6 12
REMARK SMILES IDX 7 13 8 14 9 15 13 16 11 17 10 18 12 20 4 22 21 24 18 26
REMARK H PARENT 10 19 12 21 4 23 21 25 18 27
REMARK Flexibility Score: inf
ROOT
ATOM      1  C   UNL     1       8.038  -6.966 -10.264  1.00  0.00     0.180 A 
ATOM      2  C   UNL     1       8.611  -8.206 -10.595  1.00  0.00     0.208 A 
ATOM      3  C   UNL     1       9.873  -8.232 -11.209  1.00  0.00     0.238 A 
ATOM      4  O   UNL     1      10.405  -9.345 -11.454  1.00  0.00    -0.285 OA
ATOM      5  C   UNL     1      10.540  -7.016 -11.500  1.00  0.00     0.111 A 
ATOM      6  C   UNL     1      11.804  -6.922 -12.156  1.00  0.00     0.134 A 
ATOM      7  C   UNL     1      12.429  -5.675 -12.274  1.00  0.00     0.093 A 
ATOM      8  C   UNL     1      11.806  -4.510 -11.819  1.00  0.00     0.123 A 
ATOM      9  C   UNL     1      10.546  -4.586 -11.230  1.00  0.00     0.094 A 
ATOM     10  C   UNL     1       9.912  -5.819 -11.066  1.00  0.00     0.146 A 
ATOM     11  O   UNL     1       8.716  -5.847 -10.490  1.00  0.00    -0.452 OA
ENDROOT
BRANCH   1  12
ATOM     12  C   UNL     1       6.700  -6.857  -9.639  1.00  0.00     0.025 A 
ATOM     13  C   UNL     1       6.553  -6.611  -8.262  1.00  0.00     0.016 A 
ATOM     14  C   UNL     1       5.282  -6.536  -7.689  1.00  0.00     0.051 A 
ATOM     15  C   UNL     1       4.138  -6.718  -8.478  1.00  0.00     0.157 A 
ATOM     16  C   UNL     1       5.552  -7.060 -10.422  1.00  0.00     0.062 A 
ATOM     17  C   UNL     1       4.276  -6.985  -9.851  1.00  0.00     0.158 A 
BRANCH  15  18
ATOM     18  O   UNL     1       2.871  -6.640  -7.904  1.00  0.00    -0.504 OA
ATOM     19  H   UNL     1       2.062  -6.354  -8.441  1.00  0.00     0.293 HD
ENDBRANCH  15  18
BRANCH  17  20
ATOM     20  O   UNL     1       3.158  -7.179 -10.663  1.00  0.00    -0.504 OA
ATOM     21  H   UNL     1       2.714  -8.083 -10.759  1.00  0.00     0.293 HD
ENDBRANCH  17  20
ENDBRANCH   1  12
BRANCH   2  22
ATOM     22  O   UNL     1       7.945  -9.395 -10.279  1.00  0.00    -0.502 OA
ATOM     23  H   UNL     1       8.181  -9.950  -9.466  1.00  0.00     0.293 HD
ENDBRANCH   2  22
BRANCH   6  24
ATOM     24  O   UNL     1      12.469  -8.011 -12.729  1.00  0.00    -0.507 OA
ATOM     25  H   UNL     1      13.410  -8.292 -12.503  1.00  0.00     0.293 HD
ENDBRANCH   6  24
BRANCH   8  26
ATOM     26  O   UNL     1      12.428  -3.272 -11.955  1.00  0.00    -0.508 OA
ATOM     27  H   UNL     1      12.291  -2.532 -11.276  1.00  0.00     0.293 HD
ENDBRANCH   8  26
TORSDOF 6
ENDMDL
MODEL 2
REMARK VINA RESULT:    -8.844      4.389     10.108
REMARK INTER + INTRA:         -10.926
REMARK INTER:                 -10.603
REMARK INTRA:                  -0.324
REMARK UNBOUND:                -0.273
REMARK SMILES O=c1c(O)c(-c2ccc(O)c(O)c2)oc2cc(O)cc(O)c12
REMARK SMILES IDX 5 1 3 2 2 3 1 4 22 5 20 6 19 7 17 8 16 9 15 10 14 11 6 12
REMARK SMILES IDX 7 13 8 14 9 15 13 16 11 17 10 18 12 20 4 22 21 24 18 26
REMARK H PARENT 10 19 12 21 4 23 21 25 18 27
REMARK Flexibility Score: inf
ROOT
ATOM      1  C   UNL     1       1.522  -6.409  -8.322  1.00  0.00     0.180 A 
ATOM      2  C   UNL     1       0.796  -7.487  -7.787  1.00  0.00     0.208 A 
ATOM      3  C   UNL     1      -0.480  -7.250  -7.250  1.00  0.00     0.238 A 
ATOM      4  O   UNL     1      -1.147  -8.226  -6.823  1.00  0.00    -0.285 OA
ATOM      5  C   UNL     1      -1.006  -5.934  -7.240  1.00  0.00     0.111 A 
ATOM      6  C   UNL     1      -2.270  -5.573  -6.686  1.00  0.00     0.134 A 
ATOM      7  C   UNL     1      -2.746  -4.266  -6.848  1.00  0.00     0.093 A 
ATOM      8  C   UNL     1      -1.975  -3.292  -7.486  1.00  0.00     0.123 A 
ATOM      9  C   UNL     1      -0.715  -3.622  -7.979  1.00  0.00     0.094 A 
ATOM     10  C   UNL     1      -0.227  -4.925  -7.864  1.00  0.00     0.146 A 
ATOM     11  O   UNL     1       0.975  -5.199  -8.357  1.00  0.00    -0.452 OA
ENDROOT
BRANCH   1  12
ATOM     12  C   UNL     1       2.883  -6.576  -8.882  1.00  0.00     0.025 A 
ATOM     13  C   UNL     1       3.083  -6.896 -10.236  1.00  0.00     0.016 A 
ATOM     14  C   UNL     1       4.375  -7.072 -10.737  1.00  0.00     0.051 A 
ATOM     15  C   UNL     1       5.485  -6.943  -9.892  1.00  0.00     0.157 A 
ATOM     16  C   UNL     1       3.998  -6.468  -8.034  1.00  0.00     0.062 A 
ATOM     17  C   UNL     1       5.294  -6.643  -8.533  1.00  0.00     0.158 A 
BRANCH  15  18
ATOM     18  O   UNL     1       6.773  -7.117 -10.396  1.00  0.00    -0.504 OA
ATOM     19  H   UNL     1       7.410  -6.337 -10.506  1.00  0.00     0.293 HD
ENDBRANCH  15  18
BRANCH  17  20
ATOM     20  O   UNL     1       6.377  -6.515  -7.664  1.00  0.00    -0.504 OA
ATOM     21  H   UNL     1       7.305  -6.277  -7.992  1.00  0.00     0.293 HD
ENDBRANCH  17  20
ENDBRANCH   1  12
BRANCH   2  22
ATOM     22  O   UNL     1       1.325  -8.780  -7.827  1.00  0.00    -0.502 OA
ATOM     23  H   UNL     1       1.997  -9.071  -8.527  1.00  0.00     0.293 HD
ENDBRANCH   2  22
BRANCH   6  24
ATOM     24  O   UNL     1      -3.078  -6.445  -5.948  1.00  0.00    -0.507 OA
ATOM     25  H   UNL     1      -3.775  -7.056  -6.345  1.00  0.00     0.293 HD
ENDBRANCH   6  24
BRANCH   8  26
ATOM     26  O   UNL     1      -2.450  -1.991  -7.629  1.00  0.00    -0.508 OA
ATOM     27  H   UNL     1      -2.301  -1.289  -6.913  1.00  0.00     0.293 HD
ENDBRANCH   8  26
TORSDOF 6
ENDMDL
MODEL 3
REMARK VINA RESULT:    -8.803      4.376     10.552
REMARK INTER + INTRA:         -10.877
REMARK INTER:                 -10.547
REMARK INTRA:                  -0.331
REMARK UNBOUND:                -0.273
REMARK SMILES O=c1c(O)c(-c2ccc(O)c(O)c2)oc2cc(O)cc(O)c12
REMARK SMILES IDX 5 1 3 2 2 3 1 4 22 5 20 6 19 7 17 8 16 9 15 10 14 11 6 12
REMARK SMILES IDX 7 13 8 14 9 15 13 16 11 17 10 18 12 20 4 22 21 24 18 26
REMARK H PARENT 10 19 12 21 4 23 21 25 18 27
REMARK Flexibility Score: inf
ROOT
ATOM      1  C   UNL     1       1.565  -6.397  -8.184  1.00  0.00     0.180 A 
ATOM      2  C   UNL     1       0.932  -5.143  -8.129  1.00  0.00     0.208 A 
ATOM      3  C   UNL     1      -0.338  -5.046  -7.538  1.00  0.00     0.238 A 
ATOM      4  O   UNL     1      -0.876  -3.913  -7.443  1.00  0.00    -0.285 OA
ATOM      5  C   UNL     1      -0.966  -6.208  -7.024  1.00  0.00     0.111 A 
ATOM      6  C   UNL     1      -2.268  -6.233  -6.440  1.00  0.00     0.134 A 
ATOM      7  C   UNL     1      -2.736  -7.411  -5.848  1.00  0.00     0.093 A 
ATOM      8  C   UNL     1      -1.976  -8.583  -5.876  1.00  0.00     0.123 A 
ATOM      9  C   UNL     1      -0.729  -8.583  -6.495  1.00  0.00     0.094 A 
ATOM     10  C   UNL     1      -0.220  -7.414  -7.064  1.00  0.00     0.146 A 
ATOM     11  O   UNL     1       0.979  -7.455  -7.635  1.00  0.00    -0.452 OA
ENDROOT
BRANCH   1  12
ATOM     12  C   UNL     1       2.892  -6.583  -8.814  1.00  0.00     0.025 A 
ATOM     13  C   UNL     1       3.017  -6.906 -10.177  1.00  0.00     0.016 A 
ATOM     14  C   UNL     1       4.279  -7.100 -10.744  1.00  0.00     0.051 A 
ATOM     15  C   UNL     1       5.433  -6.989  -9.957  1.00  0.00     0.157 A 
ATOM     16  C   UNL     1       4.050  -6.493  -8.025  1.00  0.00     0.062 A 
ATOM     17  C   UNL     1       5.317  -6.687  -8.590  1.00  0.00     0.158 A 
BRANCH  15  18
ATOM     18  O   UNL     1       6.690  -7.181 -10.527  1.00  0.00    -0.504 OA
ATOM     19  H   UNL     1       7.199  -8.049 -10.410  1.00  0.00     0.293 HD
ENDBRANCH  15  18
BRANCH  17  20
ATOM     20  O   UNL     1       6.445  -6.577  -7.778  1.00  0.00    -0.504 OA
ATOM     21  H   UNL     1       6.729  -5.695  -7.370  1.00  0.00     0.293 HD
ENDBRANCH  17  20
ENDBRANCH   1  12
BRANCH   2  22
ATOM     22  O   UNL     1       1.580  -4.007  -8.622  1.00  0.00    -0.502 OA
ATOM     23  H   UNL     1       2.472  -3.692  -8.264  1.00  0.00     0.293 HD
ENDBRANCH   2  22
BRANCH   6  24
ATOM     24  O   UNL     1      -3.146  -5.143  -6.442  1.00  0.00    -0.507 OA
ATOM     25  H   UNL     1      -3.096  -4.367  -7.083  1.00  0.00     0.293 HD
ENDBRANCH   6  24
BRANCH   8  26
ATOM     26  O   UNL     1      -2.456  -9.756  -5.297  1.00  0.00    -0.508 OA
ATOM     27  H   UNL     1      -2.398 -10.647  -5.776  1.00  0.00     0.293 HD
ENDBRANCH   8  26
TORSDOF 6
ENDMDL
MODEL 4
REMARK VINA RESULT:    -7.601      1.955      7.212
REMARK INTER + INTRA:          -9.429
REMARK INTER:                  -9.870
REMARK INTRA:                   0.441
REMARK UNBOUND:                -0.273
REMARK SMILES O=c1c(O)c(-c2ccc(O)c(O)c2)oc2cc(O)cc(O)c12
REMARK SMILES IDX 5 1 3 2 2 3 1 4 22 5 20 6 19 7 17 8 16 9 15 10 14 11 6 12
REMARK SMILES IDX 7 13 8 14 9 15 13 16 11 17 10 18 12 20 4 22 21 24 18 26
REMARK H PARENT 10 19 12 21 4 23 21 25 18 27
REMARK Flexibility Score: inf
ROOT
ATOM      1  C   UNL     1      11.303  -6.325 -12.136  1.00  0.00     0.180 A 
ATOM      2  C   UNL     1      11.425  -7.720 -12.256  1.00  0.00     0.208 A 
ATOM      3  C   UNL     1      10.435  -8.542 -11.694  1.00  0.00     0.238 A 
ATOM      4  O   UNL     1      10.522  -9.787 -11.851  1.00  0.00    -0.285 OA
ATOM      5  C   UNL     1       9.344  -7.959 -11.005  1.00  0.00     0.111 A 
ATOM      6  C   UNL     1       8.304  -8.697 -10.363  1.00  0.00     0.134 A 
ATOM      7  C   UNL     1       7.206  -8.016  -9.824  1.00  0.00     0.093 A 
ATOM      8  C   UNL     1       7.142  -6.621  -9.847  1.00  0.00     0.123 A 
ATOM      9  C   UNL     1       8.180  -5.890 -10.419  1.00  0.00     0.094 A 
ATOM     10  C   UNL     1       9.271  -6.542 -10.996  1.00  0.00     0.146 A 
ATOM     11  O   UNL     1      10.234  -5.807 -11.541  1.00  0.00    -0.452 OA
ENDROOT
BRANCH   1  12
ATOM     12  C   UNL     1      12.318  -5.394 -12.679  1.00  0.00     0.025 A 
ATOM     13  C   UNL     1      12.405  -4.063 -12.234  1.00  0.00     0.016 A 
ATOM     14  C   UNL     1      13.356  -3.196 -12.778  1.00  0.00     0.051 A 
ATOM     15  C   UNL     1      14.225  -3.641 -13.783  1.00  0.00     0.157 A 
ATOM     16  C   UNL     1      13.178  -5.829 -13.701  1.00  0.00     0.062 A 
ATOM     17  C   UNL     1      14.133  -4.963 -14.248  1.00  0.00     0.158 A 
BRANCH  15  18
ATOM     18  O   UNL     1      15.174  -2.774 -14.321  1.00  0.00    -0.504 OA
ATOM     19  H   UNL     1      15.413  -2.794 -15.305  1.00  0.00     0.293 HD
ENDBRANCH  15  18
BRANCH  17  20
ATOM     20  O   UNL     1      14.979  -5.435 -15.252  1.00  0.00    -0.504 OA
ATOM     21  H   UNL     1      15.349  -4.827 -15.971  1.00  0.00     0.293 HD
ENDBRANCH  17  20
ENDBRANCH   1  12
BRANCH   2  22
ATOM     22  O   UNL     1      12.500  -8.273 -12.959  1.00  0.00    -0.502 OA
ATOM     23  H   UNL     1      12.846  -7.875 -13.823  1.00  0.00     0.293 HD
ENDBRANCH   2  22
BRANCH   6  24
ATOM     24  O   UNL     1       8.317 -10.086 -10.204  1.00  0.00    -0.507 OA
ATOM     25  H   UNL     1       8.908 -10.718 -10.721  1.00  0.00     0.293 HD
ENDBRANCH   6  24
BRANCH   8  26
ATOM     26  O   UNL     1       6.052  -5.951  -9.294  1.00  0.00    -0.508 OA
ATOM     27  H   UNL     1       5.662  -6.220  -8.399  1.00  0.00     0.293 HD
ENDBRANCH   8  26
TORSDOF 6
ENDMDL
MODEL 5
REMARK VINA RESULT:    -7.240      2.786      4.980
REMARK INTER + INTRA:          -8.995
REMARK INTER:                  -9.318
REMARK INTRA:                   0.323
REMARK UNBOUND:                -0.273
REMARK SMILES O=c1c(O)c(-c2ccc(O)c(O)c2)oc2cc(O)cc(O)c12
REMARK SMILES IDX 5 1 3 2 2 3 1 4 22 5 20 6 19 7 17 8 16 9 15 10 14 11 6 12
REMARK SMILES IDX 7 13 8 14 9 15 13 16 11 17 10 18 12 20 4 22 21 24 18 26
REMARK H PARENT 10 19 12 21 4 23 21 25 18 27
REMARK Flexibility Score: inf
ROOT
ATOM      1  C   UNL     1      11.320  -6.904 -12.101  1.00  0.00     0.180 A 
ATOM      2  C   UNL     1      11.411  -5.676 -11.424  1.00  0.00     0.208 A 
ATOM      3  C   UNL     1      12.295  -4.696 -11.904  1.00  0.00     0.238 A 
ATOM      4  O   UNL     1      12.333  -3.580 -11.325  1.00  0.00    -0.285 OA
ATOM      5  C   UNL     1      13.088  -4.963 -13.047  1.00  0.00     0.111 A 
ATOM      6  C   UNL     1      14.045  -4.058 -13.597  1.00  0.00     0.134 A 
ATOM      7  C   UNL     1      14.678  -4.374 -14.805  1.00  0.00     0.093 A 
ATOM      8  C   UNL     1      14.437  -5.590 -15.448  1.00  0.00     0.123 A 
ATOM      9  C   UNL     1      13.548  -6.505 -14.888  1.00  0.00     0.094 A 
ATOM     10  C   UNL     1      12.875  -6.203 -13.702  1.00  0.00     0.146 A 
ATOM     11  O   UNL     1      12.028  -7.099 -13.208  1.00  0.00    -0.452 OA
ENDROOT
BRANCH   1  12
ATOM     12  C   UNL     1      10.431  -7.995 -11.641  1.00  0.00     0.025 A 
ATOM     13  C   UNL     1      10.735  -9.344 -11.895  1.00  0.00     0.016 A 
ATOM     14  C   UNL     1       9.869 -10.355 -11.472  1.00  0.00     0.051 A 
ATOM     15  C   UNL     1       8.681 -10.035 -10.800  1.00  0.00     0.157 A 
ATOM     16  C   UNL     1       9.230  -7.678 -10.986  1.00  0.00     0.062 A 
ATOM     17  C   UNL     1       8.360  -8.689 -10.559  1.00  0.00     0.158 A 
BRANCH  15  18
ATOM     18  O   UNL     1       7.821 -11.046 -10.377  1.00  0.00    -0.504 OA
ATOM     19  H   UNL     1       7.545 -11.138  -9.407  1.00  0.00     0.293 HD
ENDBRANCH  15  18
BRANCH  17  20
ATOM     20  O   UNL     1       7.182  -8.336  -9.901  1.00  0.00    -0.504 OA
ATOM     21  H   UNL     1       6.842  -7.383  -9.882  1.00  0.00     0.293 HD
ENDBRANCH  17  20
ENDBRANCH   1  12
BRANCH   2  22
ATOM     22  O   UNL     1      10.603  -5.426 -10.310  1.00  0.00    -0.502 OA
ATOM     23  H   UNL     1       9.914  -4.685 -10.294  1.00  0.00     0.293 HD
ENDBRANCH   2  22
BRANCH   6  24
ATOM     24  O   UNL     1      14.428  -2.860 -12.986  1.00  0.00    -0.507 OA
ATOM     25  H   UNL     1      15.376  -2.613 -12.750  1.00  0.00     0.293 HD
ENDBRANCH   6  24
BRANCH   8  26
ATOM     26  O   UNL     1      15.083  -5.903 -16.642  1.00  0.00    -0.508 OA
ATOM     27  H   UNL     1      15.068  -6.842 -17.024  1.00  0.00     0.293 HD
ENDBRANCH   8  26
TORSDOF 6
ENDMDL
MODEL 6
REMARK VINA RESULT:    -7.229      5.373     10.875
REMARK INTER + INTRA:          -8.981
REMARK INTER:                  -8.935
REMARK INTRA:                  -0.046
REMARK UNBOUND:                -0.273
REMARK SMILES O=c1c(O)c(-c2ccc(O)c(O)c2)oc2cc(O)cc(O)c12
REMARK SMILES IDX 5 1 3 2 2 3 1 4 22 5 20 6 19 7 17 8 16 9 15 10 14 11 6 12
REMARK SMILES IDX 7 13 8 14 9 15 13 16 11 17 10 18 12 20 4 22 21 24 18 26
REMARK H PARENT 10 19 12 21 4 23 21 25 18 27
REMARK Flexibility Score: inf
ROOT
ATOM      1  C   UNL     1       0.873  -4.562  -8.341  1.00  0.00     0.180 A 
ATOM      2  C   UNL     1       0.140  -4.477  -9.537  1.00  0.00     0.208 A 
ATOM      3  C   UNL     1      -1.206  -4.080  -9.486  1.00  0.00     0.238 A 
ATOM      4  O   UNL     1      -1.841  -3.953 -10.564  1.00  0.00    -0.285 OA
ATOM      5  C   UNL     1      -1.806  -3.788  -8.237  1.00  0.00     0.111 A 
ATOM      6  C   UNL     1      -3.173  -3.414  -8.063  1.00  0.00     0.134 A 
ATOM      7  C   UNL     1      -3.625  -3.022  -6.798  1.00  0.00     0.093 A 
ATOM      8  C   UNL     1      -2.778  -3.052  -5.688  1.00  0.00     0.123 A 
ATOM      9  C   UNL     1      -1.458  -3.472  -5.837  1.00  0.00     0.094 A 
ATOM     10  C   UNL     1      -0.967  -3.835  -7.093  1.00  0.00     0.146 A 
ATOM     11  O   UNL     1       0.300  -4.219  -7.193  1.00  0.00    -0.452 OA
ENDROOT
BRANCH   1  12
ATOM     12  C   UNL     1       2.287  -4.999  -8.312  1.00  0.00     0.025 A 
ATOM     13  C   UNL     1       3.294  -4.184  -7.763  1.00  0.00     0.016 A 
ATOM     14  C   UNL     1       4.625  -4.606  -7.768  1.00  0.00     0.051 A 
ATOM     15  C   UNL     1       4.974  -5.841  -8.331  1.00  0.00     0.157 A 
ATOM     16  C   UNL     1       2.645  -6.226  -8.894  1.00  0.00     0.062 A 
ATOM     17  C   UNL     1       3.978  -6.652  -8.900  1.00  0.00     0.158 A 
BRANCH  15  18
ATOM     18  O   UNL     1       6.303  -6.260  -8.332  1.00  0.00    -0.504 OA
ATOM     19  H   UNL     1       6.888  -6.172  -7.510  1.00  0.00     0.293 HD
ENDBRANCH  15  18
BRANCH  17  20
ATOM     20  O   UNL     1       4.293  -7.883  -9.476  1.00  0.00    -0.504 OA
ATOM     21  H   UNL     1       3.673  -8.680  -9.413  1.00  0.00     0.293 HD
ENDBRANCH  17  20
ENDBRANCH   1  12
BRANCH   2  22
ATOM     22  O   UNL     1       0.759  -4.749 -10.761  1.00  0.00    -0.502 OA
ATOM     23  H   UNL     1       1.670  -5.188 -10.824  1.00  0.00     0.293 HD
ENDBRANCH   2  22
BRANCH   6  24
ATOM     24  O   UNL     1      -4.125  -3.439  -9.087  1.00  0.00    -0.507 OA
ATOM     25  H   UNL     1      -5.029  -2.994  -9.042  1.00  0.00     0.293 HD
ENDBRANCH   6  24
BRANCH   8  26
ATOM     26  O   UNL     1      -3.241  -2.675  -4.429  1.00  0.00    -0.508 OA
ATOM     27  H   UNL     1      -3.744  -1.807  -4.287  1.00  0.00     0.293 HD
ENDBRANCH   8  26
TORSDOF 6
ENDMDL
MODEL 7
REMARK VINA RESULT:    -7.020      2.015      4.244
REMARK INTER + INTRA:          -8.730
REMARK INTER:                  -8.760
REMARK INTRA:                   0.030
REMARK UNBOUND:                -0.273
REMARK SMILES O=c1c(O)c(-c2ccc(O)c(O)c2)oc2cc(O)cc(O)c12
REMARK SMILES IDX 5 1 3 2 2 3 1 4 22 5 20 6 19 7 17 8 16 9 15 10 14 11 6 12
REMARK SMILES IDX 7 13 8 14 9 15 13 16 11 17 10 18 12 20 4 22 21 24 18 26
REMARK H PARENT 10 19 12 21 4 23 21 25 18 27
REMARK Flexibility Score: inf
ROOT
ATOM      1  C   UNL     1      10.435  -5.595 -11.683  1.00  0.00     0.180 A 
ATOM      2  C   UNL     1      11.079  -4.477 -11.125  1.00  0.00     0.208 A 
ATOM      3  C   UNL     1      12.273  -4.018 -11.704  1.00  0.00     0.238 A 
ATOM      4  O   UNL     1      12.815  -2.985 -11.234  1.00  0.00    -0.285 OA
ATOM      5  C   UNL     1      12.816  -4.693 -12.825  1.00  0.00     0.111 A 
ATOM      6  C   UNL     1      14.040  -4.339 -13.468  1.00  0.00     0.134 A 
ATOM      7  C   UNL     1      14.415  -4.994 -14.647  1.00  0.00     0.093 A 
ATOM      8  C   UNL     1      13.643  -6.034 -15.170  1.00  0.00     0.123 A 
ATOM      9  C   UNL     1      12.477  -6.426 -14.516  1.00  0.00     0.094 A 
ATOM     10  C   UNL     1      12.059  -5.768 -13.358  1.00  0.00     0.146 A 
ATOM     11  O   UNL     1      10.935  -6.166 -12.773  1.00  0.00    -0.452 OA
ENDROOT
BRANCH   1  12
ATOM     12  C   UNL     1       9.188  -6.153 -11.112  1.00  0.00     0.025 A 
ATOM     13  C   UNL     1       8.092  -5.329 -10.803  1.00  0.00     0.016 A 
ATOM     14  C   UNL     1       6.934  -5.874 -10.243  1.00  0.00     0.051 A 
ATOM     15  C   UNL     1       6.857  -7.247  -9.972  1.00  0.00     0.157 A 
ATOM     16  C   UNL     1       9.114  -7.525 -10.820  1.00  0.00     0.062 A 
ATOM     17  C   UNL     1       7.955  -8.075 -10.260  1.00  0.00     0.158 A 
BRANCH  15  18
ATOM     18  O   UNL     1       5.699  -7.788  -9.417  1.00  0.00    -0.504 OA
ATOM     19  H   UNL     1       4.837  -7.258  -9.366  1.00  0.00     0.293 HD
ENDBRANCH  15  18
BRANCH  17  20
ATOM     20  O   UNL     1       7.914  -9.444  -9.996  1.00  0.00    -0.504 OA
ATOM     21  H   UNL     1       7.450  -9.819  -9.178  1.00  0.00     0.293 HD
ENDBRANCH  17  20
ENDBRANCH   1  12
BRANCH   2  22
ATOM     22  O   UNL     1      10.513  -3.813 -10.032  1.00  0.00    -0.502 OA
ATOM     23  H   UNL     1       9.535  -3.906  -9.786  1.00  0.00     0.293 HD
ENDBRANCH   2  22
BRANCH   6  24
ATOM     24  O   UNL     1      14.931  -3.378 -12.977  1.00  0.00    -0.507 OA
ATOM     25  H   UNL     1      15.170  -2.521 -13.451  1.00  0.00     0.293 HD
ENDBRANCH   6  24
BRANCH   8  26
ATOM     26  O   UNL     1      14.032  -6.691 -16.335  1.00  0.00    -0.508 OA
ATOM     27  H   UNL     1      13.537  -7.508 -16.674  1.00  0.00     0.293 HD
ENDBRANCH   8  26
TORSDOF 6
ENDMDL
MODEL 8
REMARK VINA RESULT:    -6.795      4.169      7.415
REMARK INTER + INTRA:          -8.458
REMARK INTER:                  -8.173
REMARK INTRA:                  -0.285
REMARK UNBOUND:                -0.273
REMARK SMILES O=c1c(O)c(-c2ccc(O)c(O)c2)oc2cc(O)cc(O)c12
REMARK SMILES IDX 5 1 3 2 2 3 1 4 22 5 20 6 19 7 17 8 16 9 15 10 14 11 6 12
REMARK SMILES IDX 7 13 8 14 9 15 13 16 11 17 10 18 12 20 4 22 21 24 18 26
REMARK H PARENT 10 19 12 21 4 23 21 25 18 27
REMARK Flexibility Score: inf
ROOT
ATOM      1  C   UNL     1       1.554  -5.207  -8.828  1.00  0.00     0.180 A 
ATOM      2  C   UNL     1       2.282  -4.523  -7.839  1.00  0.00     0.208 A 
ATOM      3  C   UNL     1       3.661  -4.761  -7.722  1.00  0.00     0.238 A 
ATOM      4  O   UNL     1       4.317  -4.106  -6.871  1.00  0.00    -0.285 OA
ATOM      5  C   UNL     1       4.291  -5.691  -8.584  1.00  0.00     0.111 A 
ATOM      6  C   UNL     1       5.674  -6.039  -8.528  1.00  0.00     0.134 A 
ATOM      7  C   UNL     1       6.217  -6.872  -9.513  1.00  0.00     0.093 A 
ATOM      8  C   UNL     1       5.413  -7.423 -10.514  1.00  0.00     0.123 A 
ATOM      9  C   UNL     1       4.050  -7.135 -10.542  1.00  0.00     0.094 A 
ATOM     10  C   UNL     1       3.486  -6.279  -9.594  1.00  0.00     0.146 A 
ATOM     11  O   UNL     1       2.185  -6.023  -9.664  1.00  0.00    -0.452 OA
ENDROOT
BRANCH   1  12
ATOM     12  C   UNL     1       0.094  -5.028  -8.997  1.00  0.00     0.025 A 
ATOM     13  C   UNL     1      -0.823  -5.617  -8.108  1.00  0.00     0.016 A 
ATOM     14  C   UNL     1      -2.197  -5.455  -8.301  1.00  0.00     0.051 A 
ATOM     15  C   UNL     1      -2.677  -4.714  -9.389  1.00  0.00     0.157 A 
ATOM     16  C   UNL     1      -0.392  -4.304 -10.098  1.00  0.00     0.062 A 
ATOM     17  C   UNL     1      -1.768  -4.139 -10.294  1.00  0.00     0.158 A 
BRANCH  15  18
ATOM     18  O   UNL     1      -4.048  -4.552  -9.577  1.00  0.00    -0.504 OA
ATOM     19  H   UNL     1      -4.497  -4.797 -10.451  1.00  0.00     0.293 HD
ENDBRANCH  15  18
BRANCH  17  20
ATOM     20  O   UNL     1      -2.213  -3.402 -11.391  1.00  0.00    -0.504 OA
ATOM     21  H   UNL     1      -3.133  -3.536 -11.791  1.00  0.00     0.293 HD
ENDBRANCH  17  20
ENDBRANCH   1  12
BRANCH   2  22
ATOM     22  O   UNL     1       1.644  -3.593  -7.013  1.00  0.00    -0.502 OA
ATOM     23  H   UNL     1       2.114  -3.141  -6.239  1.00  0.00     0.293 HD
ENDBRANCH   2  22
BRANCH   6  24
ATOM     24  O   UNL     1       6.545  -5.619  -7.517  1.00  0.00    -0.507 OA
ATOM     25  H   UNL     1       7.532  -5.823  -7.487  1.00  0.00     0.293 HD
ENDBRANCH   6  24
BRANCH   8  26
ATOM     26  O   UNL     1       5.958  -8.263 -11.482  1.00  0.00    -0.508 OA
ATOM     27  H   UNL     1       6.452  -9.112 -11.230  1.00  0.00     0.293 HD
ENDBRANCH   8  26
TORSDOF 6
ENDMDL
MODEL 9
REMARK VINA RESULT:    -6.646      1.213      2.989
REMARK INTER + INTRA:          -8.279
REMARK INTER:                  -7.967
REMARK INTRA:                  -0.312
REMARK UNBOUND:                -0.273
REMARK SMILES O=c1c(O)c(-c2ccc(O)c(O)c2)oc2cc(O)cc(O)c12
REMARK SMILES IDX 5 1 3 2 2 3 1 4 22 5 20 6 19 7 17 8 16 9 15 10 14 11 6 12
REMARK SMILES IDX 7 13 8 14 9 15 13 16 11 17 10 18 12 20 4 22 21 24 18 26
REMARK H PARENT 10 19 12 21 4 23 21 25 18 27
REMARK Flexibility Score: inf
ROOT
ATOM      1  C   UNL     1       7.947  -6.813 -10.397  1.00  0.00     0.180 A 
ATOM      2  C   UNL     1       8.657  -5.659 -10.772  1.00  0.00     0.208 A 
ATOM      3  C   UNL     1       9.885  -5.801 -11.438  1.00  0.00     0.238 A 
ATOM      4  O   UNL     1      10.489  -4.766 -11.820  1.00  0.00    -0.285 OA
ATOM      5  C   UNL     1      10.395  -7.095 -11.706  1.00  0.00     0.111 A 
ATOM      6  C   UNL     1      11.647  -7.356 -12.339  1.00  0.00     0.134 A 
ATOM      7  C   UNL     1      11.992  -8.672 -12.670  1.00  0.00     0.093 A 
ATOM      8  C   UNL     1      11.159  -9.741 -12.333  1.00  0.00     0.123 A 
ATOM      9  C   UNL     1       9.962  -9.501 -11.663  1.00  0.00     0.094 A 
ATOM     10  C   UNL     1       9.574  -8.196 -11.350  1.00  0.00     0.146 A 
ATOM     11  O   UNL     1       8.420  -8.011 -10.720  1.00  0.00    -0.452 OA
ENDROOT
BRANCH   1  12
ATOM     12  C   UNL     1       6.659  -6.744  -9.669  1.00  0.00     0.025 A 
ATOM     13  C   UNL     1       6.613  -6.526  -8.281  1.00  0.00     0.016 A 
ATOM     14  C   UNL     1       5.387  -6.489  -7.612  1.00  0.00     0.051 A 
ATOM     15  C   UNL     1       4.191  -6.682  -8.316  1.00  0.00     0.157 A 
ATOM     16  C   UNL     1       5.459  -6.957 -10.367  1.00  0.00     0.062 A 
ATOM     17  C   UNL     1       4.228  -6.920  -9.700  1.00  0.00     0.158 A 
BRANCH  15  18
ATOM     18  O   UNL     1       2.970  -6.641  -7.646  1.00  0.00    -0.504 OA
ATOM     19  H   UNL     1       2.515  -7.485  -7.318  1.00  0.00     0.293 HD
ENDBRANCH  15  18
BRANCH  17  20
ATOM     20  O   UNL     1       3.057  -7.123 -10.428  1.00  0.00    -0.504 OA
ATOM     21  H   UNL     1       2.586  -6.368 -10.911  1.00  0.00     0.293 HD
ENDBRANCH  17  20
ENDBRANCH   1  12
BRANCH   2  22
ATOM     22  O   UNL     1       8.124  -4.392 -10.517  1.00  0.00    -0.502 OA
ATOM     23  H   UNL     1       8.018  -4.025  -9.579  1.00  0.00     0.293 HD
ENDBRANCH   2  22
BRANCH   6  24
ATOM     24  O   UNL     1      12.594  -6.370 -12.635  1.00  0.00    -0.507 OA
ATOM     25  H   UNL     1      12.379  -5.398 -12.796  1.00  0.00     0.293 HD
ENDBRANCH   6  24
BRANCH   8  26
ATOM     26  O   UNL     1      11.516 -11.049 -12.653  1.00  0.00    -0.508 OA
ATOM     27  H   UNL     1      12.435 -11.417 -12.434  1.00  0.00     0.293 HD
ENDBRANCH   8  26
TORSDOF 6
ENDMDL
