MODEL 1
REMARK VINA RESULT:     5.290      0.000      0.000
REMARK INTER + INTRA:          10.096
REMARK INTER:                   7.609
REMARK INTRA:                   2.486
REMARK UNBOUND:                 2.486
REMARK SMILES O=c1c(O[C@H]2O[C@H](CO)[C@H](O)[C@@H](O)[C@@H]2O)c(-c2ccc(O)cc2)oc2cc(O)cc(O)c12
REMARK SMILES IDX 4 1 3 2 16 3 24 4 2 5 25 6 1 7 32 8 26 9 30 10 27 11 29 12
REMARK SMILES IDX 17 13 18 14 19 15 20 16 23 17 22 18 21 19 31 21 28 23 5 25
REMARK SMILES IDX 14 26 6 27 12 28 7 29 10 30 15 31 13 33 8 35 9 36 11 38
REMARK H PARENT 21 20 31 22 28 24 15 32 13 34 9 37 11 39
REMARK Flexibility Score: inf
ROOT
ATOM      1  O   UNL     1      11.014  68.147  -0.487  1.00  0.00    -0.454 OA
ENDROOT
BRANCH   1   2
ATOM      2  C   UNL     1      10.363  68.856   0.532  1.00  0.00     0.214 A 
ATOM      3  C   UNL     1       9.453  68.199   1.376  1.00  0.00     0.180 A 
ATOM      4  O   UNL     1       8.777  68.887   2.287  1.00  0.00    -0.452 OA
ATOM      5  C   UNL     1      10.535  70.241   0.674  1.00  0.00     0.239 A 
ATOM      6  C   UNL     1       8.938  70.190   2.484  1.00  0.00     0.146 A 
ATOM      7  O   UNL     1      11.228  70.856  -0.178  1.00  0.00    -0.285 OA
ATOM      8  C   UNL     1       9.867  70.932   1.711  1.00  0.00     0.111 A 
ATOM      9  C   UNL     1       8.164  70.820   3.463  1.00  0.00     0.094 A 
ATOM     10  C   UNL     1      10.032  72.320   1.994  1.00  0.00     0.134 A 
ATOM     11  C   UNL     1       8.291  72.192   3.688  1.00  0.00     0.123 A 
ATOM     12  C   UNL     1       9.217  72.932   2.953  1.00  0.00     0.093 A 
BRANCH   3  13
ATOM     13  C   UNL     1       9.194  66.751   1.261  1.00  0.00     0.021 A 
ATOM     14  C   UNL     1       9.533  66.078   0.077  1.00  0.00     0.016 A 
ATOM     15  C   UNL     1       9.275  64.710  -0.055  1.00  0.00     0.047 A 
ATOM     16  C   UNL     1       8.657  64.007   0.988  1.00  0.00     0.115 A 
ATOM     17  C   UNL     1       8.557  66.047   2.295  1.00  0.00     0.016 A 
ATOM     18  C   UNL     1       8.294  64.681   2.159  1.00  0.00     0.047 A 
BRANCH  16  19
ATOM     19  O   UNL     1       8.396  62.644   0.870  1.00  0.00    -0.508 OA
ATOM     20  H   UNL     1       8.692  61.984   1.579  1.00  0.00     0.293 HD
ENDBRANCH  16  19
ENDBRANCH   3  13
BRANCH  10  21
ATOM     21  O   UNL     1      11.001  73.125   1.386  1.00  0.00    -0.507 OA
ATOM     22  H   UNL     1      10.909  74.119   1.242  1.00  0.00     0.293 HD
ENDBRANCH  10  21
BRANCH  11  23
ATOM     23  O   UNL     1       7.507  72.830   4.646  1.00  0.00    -0.508 OA
ATOM     24  H   UNL     1       6.528  73.035   4.480  1.00  0.00     0.293 HD
ENDBRANCH  11  23
ENDBRANCH   1   2
BRANCH   1  25
ATOM     25  C   UNL     1      10.690  68.281  -1.875  1.00  0.00     0.339 C 
ATOM     26  C   UNL     1      10.834  69.757  -2.351  1.00  0.00     0.214 C 
ATOM     27  O   UNL     1       9.390  67.750  -2.097  1.00  0.00    -0.332 OA
ATOM     28  C   UNL     1       9.709  70.120  -3.338  1.00  0.00     0.180 C 
ATOM     29  C   UNL     1       8.394  68.674  -1.698  1.00  0.00     0.179 C 
ATOM     30  C   UNL     1       8.314  69.831  -2.728  1.00  0.00     0.177 C 
BRANCH  26  31
ATOM     31  O   UNL     1      12.081  69.930  -2.975  1.00  0.00    -0.384 OA
ATOM     32  H   UNL     1      12.764  69.534  -2.373  1.00  0.00     0.211 HD
ENDBRANCH  26  31
BRANCH  28  33
ATOM     33  O   UNL     1       9.809  71.477  -3.687  1.00  0.00    -0.387 OA
ATOM     34  H   UNL     1       9.782  71.521  -4.678  1.00  0.00     0.211 HD
ENDBRANCH  28  33
BRANCH  29  35
ATOM     35  C   UNL     1       7.054  67.943  -1.522  1.00  0.00     0.191 C 
BRANCH  35  36
ATOM     36  O   UNL     1       6.773  67.161  -2.652  1.00  0.00    -0.394 OA
ATOM     37  H   UNL     1       7.536  66.536  -2.762  1.00  0.00     0.210 HD
ENDBRANCH  35  36
ENDBRANCH  29  35
BRANCH  30  38
ATOM     38  O   UNL     1       7.416  69.514  -3.763  1.00  0.00    -0.387 OA
ATOM     39  H   UNL     1       7.477  70.243  -4.433  1.00  0.00     0.211 HD
ENDBRANCH  30  38
ENDBRANCH   1  25
TORSDOF 11
ENDMDL
MODEL 2
REMARK VINA RESULT:     5.599      1.792      4.953
REMARK INTER + INTRA:          10.540
REMARK INTER:                   7.437
REMARK INTRA:                   3.103
REMARK UNBOUND:                 2.486
REMARK SMILES O=c1c(O[C@H]2O[C@H](CO)[C@H](O)[C@@H](O)[C@@H]2O)c(-c2ccc(O)cc2)oc2cc(O)cc(O)c12
REMARK SMILES IDX 4 1 3 2 16 3 24 4 2 5 25 6 1 7 32 8 26 9 30 10 27 11 29 12
REMARK SMILES IDX 17 13 18 14 19 15 20 16 23 17 22 18 21 19 31 21 28 23 5 25
REMARK SMILES IDX 14 26 6 27 12 28 7 29 10 30 15 31 13 33 8 35 9 36 11 38
REMARK H PARENT 21 20 31 22 28 24 15 32 13 34 9 37 11 39
REMARK Flexibility Score: inf
ROOT
ATOM      1  O   UNL     1      10.910  68.524  -1.060  1.00  0.00    -0.454 OA
ENDROOT
BRANCH   1   2
ATOM      2  C   UNL     1      10.411  69.467  -0.151  1.00  0.00     0.214 A 
ATOM      3  C   UNL     1      10.539  70.840  -0.420  1.00  0.00     0.180 A 
ATOM      4  O   UNL     1      10.140  71.732   0.477  1.00  0.00    -0.452 OA
ATOM      5  C   UNL     1       9.859  69.069   1.076  1.00  0.00     0.239 A 
ATOM      6  C   UNL     1       9.574  71.402   1.633  1.00  0.00     0.146 A 
ATOM      7  O   UNL     1       9.886  67.850   1.385  1.00  0.00    -0.285 OA
ATOM      8  C   UNL     1       9.362  70.042   1.973  1.00  0.00     0.111 A 
ATOM      9  C   UNL     1       9.203  72.421   2.513  1.00  0.00     0.094 A 
ATOM     10  C   UNL     1       8.711  69.743   3.207  1.00  0.00     0.134 A 
ATOM     11  C   UNL     1       8.622  72.114   3.745  1.00  0.00     0.123 A 
ATOM     12  C   UNL     1       8.384  70.783   4.085  1.00  0.00     0.093 A 
BRANCH   3  13
ATOM     13  C   UNL     1      11.143  71.333  -1.673  1.00  0.00     0.021 A 
ATOM     14  C   UNL     1      11.409  70.432  -2.715  1.00  0.00     0.016 A 
ATOM     15  C   UNL     1      12.000  70.881  -3.901  1.00  0.00     0.047 A 
ATOM     16  C   UNL     1      12.348  72.230  -4.046  1.00  0.00     0.115 A 
ATOM     17  C   UNL     1      11.511  72.679  -1.816  1.00  0.00     0.016 A 
ATOM     18  C   UNL     1      12.108  73.125  -2.999  1.00  0.00     0.047 A 
BRANCH  16  19
ATOM     19  O   UNL     1      12.936  72.689  -5.223  1.00  0.00    -0.508 OA
ATOM     20  H   UNL     1      13.210  72.052  -5.962  1.00  0.00     0.293 HD
ENDBRANCH  16  19
ENDBRANCH   3  13
BRANCH  10  21
ATOM     21  O   UNL     1       8.337  68.452   3.594  1.00  0.00    -0.507 OA
ATOM     22  H   UNL     1       7.385  68.119   3.627  1.00  0.00     0.293 HD
ENDBRANCH  10  21
BRANCH  11  23
ATOM     23  O   UNL     1       8.270  73.125   4.635  1.00  0.00    -0.508 OA
ATOM     24  H   UNL     1       8.347  72.999   5.638  1.00  0.00     0.293 HD
ENDBRANCH  11  23
ENDBRANCH   1   2
BRANCH   1  25
ATOM     25  C   UNL     1      10.217  68.125  -2.247  1.00  0.00     0.339 C 
ATOM     26  C   UNL     1       8.853  68.867  -2.382  1.00  0.00     0.214 C 
ATOM     27  O   UNL     1      10.081  66.710  -2.246  1.00  0.00    -0.332 OA
ATOM     28  C   UNL     1       7.773  67.918  -2.934  1.00  0.00     0.180 C 
ATOM     29  C   UNL     1       9.021  66.306  -1.400  1.00  0.00     0.179 C 
ATOM     30  C   UNL     1       7.663  66.634  -2.073  1.00  0.00     0.177 C 
BRANCH  26  31
ATOM     31  O   UNL     1       9.001  69.966  -3.246  1.00  0.00    -0.384 OA
ATOM     32  H   UNL     1       9.262  70.743  -2.685  1.00  0.00     0.211 HD
ENDBRANCH  26  31
BRANCH  28  33
ATOM     33  O   UNL     1       6.536  68.582  -2.967  1.00  0.00    -0.387 OA
ATOM     34  H   UNL     1       5.833  67.882  -2.949  1.00  0.00     0.211 HD
ENDBRANCH  28  33
BRANCH  29  35
ATOM     35  C   UNL     1       9.170  64.814  -1.064  1.00  0.00     0.191 C 
BRANCH  35  36
ATOM     36  O   UNL     1      10.150  64.226  -1.878  1.00  0.00    -0.394 OA
ATOM     37  H   UNL     1      10.935  64.832  -1.859  1.00  0.00     0.210 HD
ENDBRANCH  35  36
ENDBRANCH  29  35
BRANCH  30  38
ATOM     38  O   UNL     1       7.241  65.568  -2.888  1.00  0.00    -0.387 OA
ATOM     39  H   UNL     1       6.262  65.471  -2.754  1.00  0.00     0.211 HD
ENDBRANCH  30  38
ENDBRANCH   1  25
TORSDOF 11
ENDMDL
MODEL 3
REMARK VINA RESULT:     5.987      2.033      5.254
REMARK INTER + INTRA:          11.099
REMARK INTER:                   8.580
REMARK INTRA:                   2.518
REMARK UNBOUND:                 2.486
REMARK SMILES O=c1c(O[C@H]2O[C@H](CO)[C@H](O)[C@@H](O)[C@@H]2O)c(-c2ccc(O)cc2)oc2cc(O)cc(O)c12
REMARK SMILES IDX 4 1 3 2 16 3 24 4 2 5 25 6 1 7 32 8 26 9 30 10 27 11 29 12
REMARK SMILES IDX 17 13 18 14 19 15 20 16 23 17 22 18 21 19 31 21 28 23 5 25
REMARK SMILES IDX 14 26 6 27 12 28 7 29 10 30 15 31 13 33 8 35 9 36 11 38
REMARK H PARENT 21 20 31 22 28 24 15 32 13 34 9 37 11 39
REMARK Flexibility Score: inf
ROOT
ATOM      1  O   UNL     1       8.113  68.471   1.131  1.00  0.00    -0.454 OA
ENDROOT
BRANCH   1   2
ATOM      2  C   UNL     1       8.900  68.905   0.056  1.00  0.00     0.214 A 
ATOM      3  C   UNL     1       9.531  67.967  -0.778  1.00  0.00     0.180 A 
ATOM      4  O   UNL     1      10.341  68.377  -1.745  1.00  0.00    -0.452 OA
ATOM      5  C   UNL     1       9.147  70.270  -0.156  1.00  0.00     0.239 A 
ATOM      6  C   UNL     1      10.571  69.658  -2.009  1.00  0.00     0.146 A 
ATOM      7  O   UNL     1       8.711  71.102   0.681  1.00  0.00    -0.285 OA
ATOM      8  C   UNL     1       9.945  70.679  -1.250  1.00  0.00     0.111 A 
ATOM      9  C   UNL     1      11.454  69.981  -3.043  1.00  0.00     0.094 A 
ATOM     10  C   UNL     1      10.193  72.039  -1.602  1.00  0.00     0.134 A 
ATOM     11  C   UNL     1      11.736  71.316  -3.339  1.00  0.00     0.123 A 
ATOM     12  C   UNL     1      11.111  72.333  -2.618  1.00  0.00     0.093 A 
BRANCH   3  13
ATOM     13  C   UNL     1       9.346  66.515  -0.592  1.00  0.00     0.021 A 
ATOM     14  C   UNL     1       8.832  66.031   0.621  1.00  0.00     0.016 A 
ATOM     15  C   UNL     1       8.670  64.656   0.820  1.00  0.00     0.047 A 
ATOM     16  C   UNL     1       9.041  63.752  -0.184  1.00  0.00     0.115 A 
ATOM     17  C   UNL     1       9.734  65.604  -1.587  1.00  0.00     0.016 A 
ATOM     18  C   UNL     1       9.579  64.230  -1.383  1.00  0.00     0.047 A 
BRANCH  16  19
ATOM     19  O   UNL     1       8.884  62.380   0.002  1.00  0.00    -0.508 OA
ATOM     20  H   UNL     1       8.041  61.995   0.412  1.00  0.00     0.293 HD
ENDBRANCH  16  19
ENDBRANCH   3  13
BRANCH  10  21
ATOM     21  O   UNL     1       9.540  73.125  -1.011  1.00  0.00    -0.507 OA
ATOM     22  H   UNL     1       8.607  73.427  -1.246  1.00  0.00     0.293 HD
ENDBRANCH  10  21
BRANCH  11  23
ATOM     23  O   UNL     1      12.632  71.644  -4.354  1.00  0.00    -0.508 OA
ATOM     24  H   UNL     1      13.570  71.262  -4.377  1.00  0.00     0.293 HD
ENDBRANCH  11  23
ENDBRANCH   1   2
BRANCH   1  25
ATOM     25  C   UNL     1       8.532  68.543   2.498  1.00  0.00     0.339 C 
ATOM     26  C   UNL     1       8.836  70.010   2.922  1.00  0.00     0.214 C 
ATOM     27  O   UNL     1       9.639  67.669   2.685  1.00  0.00    -0.332 OA
ATOM     28  C   UNL     1      10.067  70.063   3.846  1.00  0.00     0.180 C 
ATOM     29  C   UNL     1      10.833  68.262   2.209  1.00  0.00     0.179 C 
ATOM     30  C   UNL     1      11.290  69.374   3.189  1.00  0.00     0.177 C 
BRANCH  26  31
ATOM     31  O   UNL     1       7.722  70.546   3.590  1.00  0.00    -0.384 OA
ATOM     32  H   UNL     1       6.998  69.869   3.537  1.00  0.00     0.211 HD
ENDBRANCH  26  31
BRANCH  28  33
ATOM     33  O   UNL     1      10.373  71.401   4.145  1.00  0.00    -0.387 OA
ATOM     34  H   UNL     1      10.377  71.480   5.135  1.00  0.00     0.211 HD
ENDBRANCH  28  33
BRANCH  29  35
ATOM     35  C   UNL     1      11.901  67.176   2.006  1.00  0.00     0.191 C 
BRANCH  35  36
ATOM     36  O   UNL     1      12.371  67.196   0.684  1.00  0.00    -0.394 OA
ATOM     37  H   UNL     1      13.356  67.089   0.732  1.00  0.00     0.210 HD
ENDBRANCH  35  36
ENDBRANCH  29  35
BRANCH  30  38
ATOM     38  O   UNL     1      12.114  68.841   4.197  1.00  0.00    -0.387 OA
ATOM     39  H   UNL     1      12.887  68.415   3.743  1.00  0.00     0.211 HD
ENDBRANCH  30  38
ENDBRANCH   1  25
TORSDOF 11
ENDMDL
MODEL 4
REMARK VINA RESULT:     6.245      1.883      5.988
REMARK INTER + INTRA:          11.469
REMARK INTER:                   7.976
REMARK INTRA:                   3.494
REMARK UNBOUND:                 2.486
REMARK SMILES O=c1c(O[C@H]2O[C@H](CO)[C@H](O)[C@@H](O)[C@@H]2O)c(-c2ccc(O)cc2)oc2cc(O)cc(O)c12
REMARK SMILES IDX 4 1 3 2 16 3 24 4 2 5 25 6 1 7 32 8 26 9 30 10 27 11 29 12
REMARK SMILES IDX 17 13 18 14 19 15 20 16 23 17 22 18 21 19 31 21 28 23 5 25
REMARK SMILES IDX 14 26 6 27 12 28 7 29 10 30 15 31 13 33 8 35 9 36 11 38
REMARK H PARENT 21 20 31 22 28 24 15 32 13 34 9 37 11 39
REMARK Flexibility Score: inf
ROOT
ATOM      1  O   UNL     1       7.920  69.618   0.100  1.00  0.00    -0.454 OA
ENDROOT
BRANCH   1   2
ATOM      2  C   UNL     1       8.995  70.286  -0.504  1.00  0.00     0.214 A 
ATOM      3  C   UNL     1       9.676  71.298   0.193  1.00  0.00     0.180 A 
ATOM      4  O   UNL     1      10.639  71.984  -0.407  1.00  0.00    -0.452 OA
ATOM      5  C   UNL     1       9.355  70.023  -1.834  1.00  0.00     0.239 A 
ATOM      6  C   UNL     1      11.041  71.743  -1.650  1.00  0.00     0.146 A 
ATOM      7  O   UNL     1       8.648  69.230  -2.508  1.00  0.00    -0.285 OA
ATOM      8  C   UNL     1      10.445  70.710  -2.417  1.00  0.00     0.111 A 
ATOM      9  C   UNL     1      12.056  72.535  -2.191  1.00  0.00     0.094 A 
ATOM     10  C   UNL     1      10.943  70.464  -3.731  1.00  0.00     0.134 A 
ATOM     11  C   UNL     1      12.494  72.325  -3.501  1.00  0.00     0.123 A 
ATOM     12  C   UNL     1      11.935  71.298  -4.261  1.00  0.00     0.093 A 
BRANCH   3  13
ATOM     13  C   UNL     1       9.327  71.653   1.582  1.00  0.00     0.021 A 
ATOM     14  C   UNL     1       9.678  70.786   2.628  1.00  0.00     0.016 A 
ATOM     15  C   UNL     1       9.336  71.099   3.948  1.00  0.00     0.047 A 
ATOM     16  C   UNL     1       8.623  72.272   4.230  1.00  0.00     0.115 A 
ATOM     17  C   UNL     1       8.596  72.817   1.868  1.00  0.00     0.016 A 
ATOM     18  C   UNL     1       8.250  73.125   3.187  1.00  0.00     0.047 A 
BRANCH  16  19
ATOM     19  O   UNL     1       8.279  72.596   5.541  1.00  0.00    -0.508 OA
ATOM     20  H   UNL     1       8.538  72.001   6.319  1.00  0.00     0.293 HD
ENDBRANCH  16  19
ENDBRANCH   3  13
BRANCH  10  21
ATOM     21  O   UNL     1      10.522  69.400  -4.534  1.00  0.00    -0.507 OA
ATOM     22  H   UNL     1      10.432  69.442  -5.538  1.00  0.00     0.293 HD
ENDBRANCH  10  21
BRANCH  11  23
ATOM     23  O   UNL     1      13.490  73.125  -4.053  1.00  0.00    -0.508 OA
ATOM     24  H   UNL     1      14.102  72.781  -4.785  1.00  0.00     0.293 HD
ENDBRANCH  11  23
ENDBRANCH   1   2
BRANCH   1  25
ATOM     25  C   UNL     1       7.983  68.260   0.547  1.00  0.00     0.339 C 
ATOM     26  C   UNL     1       9.323  67.969   1.288  1.00  0.00     0.214 C 
ATOM     27  O   UNL     1       7.765  67.399  -0.563  1.00  0.00    -0.332 OA
ATOM     28  C   UNL     1       9.844  66.564   0.933  1.00  0.00     0.180 C 
ATOM     29  C   UNL     1       8.939  67.276  -1.343  1.00  0.00     0.179 C 
ATOM     30  C   UNL     1       9.968  66.383  -0.601  1.00  0.00     0.177 C 
BRANCH  26  31
ATOM     31  O   UNL     1       9.121  68.060   2.676  1.00  0.00    -0.384 OA
ATOM     32  H   UNL     1       9.231  67.146   3.046  1.00  0.00     0.211 HD
ENDBRANCH  26  31
BRANCH  28  33
ATOM     33  O   UNL     1      11.092  66.358   1.544  1.00  0.00    -0.387 OA
ATOM     34  H   UNL     1      11.262  67.145   2.123  1.00  0.00     0.211 HD
ENDBRANCH  28  33
BRANCH  29  35
ATOM     35  C   UNL     1       8.579  66.733  -2.735  1.00  0.00     0.191 C 
BRANCH  35  36
ATOM     36  O   UNL     1       7.241  67.023  -3.040  1.00  0.00    -0.394 OA
ATOM     37  H   UNL     1       6.981  66.415  -3.779  1.00  0.00     0.210 HD
ENDBRANCH  35  36
ENDBRANCH  29  35
BRANCH  30  38
ATOM     38  O   UNL     1       9.773  65.028  -0.922  1.00  0.00    -0.387 OA
ATOM     39  H   UNL     1       8.919  64.751  -0.498  1.00  0.00     0.211 HD
ENDBRANCH  30  38
ENDBRANCH   1  25
TORSDOF 11
ENDMDL
MODEL 5
REMARK VINA RESULT:     7.688      1.832      4.757
REMARK INTER + INTRA:          13.545
REMARK INTER:                   8.170
REMARK INTRA:                   5.375
REMARK UNBOUND:                 2.486
REMARK SMILES O=c1c(O[C@H]2O[C@H](CO)[C@H](O)[C@@H](O)[C@@H]2O)c(-c2ccc(O)cc2)oc2cc(O)cc(O)c12
REMARK SMILES IDX 4 1 3 2 16 3 24 4 2 5 25 6 1 7 32 8 26 9 30 10 27 11 29 12
REMARK SMILES IDX 17 13 18 14 19 15 20 16 23 17 22 18 21 19 31 21 28 23 5 25
REMARK SMILES IDX 14 26 6 27 12 28 7 29 10 30 15 31 13 33 8 35 9 36 11 38
REMARK H PARENT 21 20 31 22 28 24 15 32 13 34 9 37 11 39
REMARK Flexibility Score: inf
ROOT
ATOM      1  O   UNL     1      11.155  68.648  -0.532  1.00  0.00    -0.454 OA
ENDROOT
BRANCH   1   2
ATOM      2  C   UNL     1      10.532  69.557   0.333  1.00  0.00     0.214 A 
ATOM      3  C   UNL     1      10.455  70.917  -0.011  1.00  0.00     0.180 A 
ATOM      4  O   UNL     1       9.938  71.790   0.844  1.00  0.00    -0.452 OA
ATOM      5  C   UNL     1      10.056  69.152   1.589  1.00  0.00     0.239 A 
ATOM      6  C   UNL     1       9.438  71.445   2.025  1.00  0.00     0.146 A 
ATOM      7  O   UNL     1      10.264  67.968   1.962  1.00  0.00    -0.285 OA
ATOM      8  C   UNL     1       9.430  70.090   2.442  1.00  0.00     0.111 A 
ATOM      9  C   UNL     1       8.930  72.447   2.856  1.00  0.00     0.094 A 
ATOM     10  C   UNL     1       8.842  69.768   3.701  1.00  0.00     0.134 A 
ATOM     11  C   UNL     1       8.413  72.127   4.113  1.00  0.00     0.123 A 
ATOM     12  C   UNL     1       8.375  70.797   4.528  1.00  0.00     0.093 A 
BRANCH   3  13
ATOM     13  C   UNL     1      10.968  71.422  -1.299  1.00  0.00     0.021 A 
ATOM     14  C   UNL     1      10.879  70.617  -2.445  1.00  0.00     0.016 A 
ATOM     15  C   UNL     1      11.379  71.074  -3.668  1.00  0.00     0.047 A 
ATOM     16  C   UNL     1      11.992  72.332  -3.752  1.00  0.00     0.115 A 
ATOM     17  C   UNL     1      11.600  72.673  -1.384  1.00  0.00     0.016 A 
ATOM     18  C   UNL     1      12.106  73.125  -2.606  1.00  0.00     0.047 A 
BRANCH  16  19
ATOM     19  O   UNL     1      12.493  72.798  -4.965  1.00  0.00    -0.508 OA
ATOM     20  H   UNL     1      12.360  73.759  -5.259  1.00  0.00     0.293 HD
ENDBRANCH  16  19
ENDBRANCH   3  13
BRANCH  10  21
ATOM     21  O   UNL     1       8.665  68.461   4.163  1.00  0.00    -0.507 OA
ATOM     22  H   UNL     1       9.358  67.938   4.679  1.00  0.00     0.293 HD
ENDBRANCH  10  21
BRANCH  11  23
ATOM     23  O   UNL     1       7.924  73.124   4.954  1.00  0.00    -0.508 OA
ATOM     24  H   UNL     1       8.270  73.236   5.900  1.00  0.00     0.293 HD
ENDBRANCH  11  23
ENDBRANCH   1   2
BRANCH   1  25
ATOM     25  C   UNL     1      10.438  67.745  -1.381  1.00  0.00     0.339 C 
ATOM     26  C   UNL     1       9.842  68.483  -2.617  1.00  0.00     0.214 C 
ATOM     27  O   UNL     1       9.453  67.072  -0.607  1.00  0.00    -0.332 OA
ATOM     28  C   UNL     1       8.443  67.935  -2.952  1.00  0.00     0.180 C 
ATOM     29  C   UNL     1       8.322  67.899  -0.404  1.00  0.00     0.179 C 
ATOM     30  C   UNL     1       7.506  68.000  -1.719  1.00  0.00     0.177 C 
BRANCH  26  31
ATOM     31  O   UNL     1      10.693  68.308  -3.722  1.00  0.00    -0.384 OA
ATOM     32  H   UNL     1      11.261  69.120  -3.782  1.00  0.00     0.211 HD
ENDBRANCH  26  31
BRANCH  28  33
ATOM     33  O   UNL     1       7.891  68.670  -4.014  1.00  0.00    -0.387 OA
ATOM     34  H   UNL     1       7.267  68.062  -4.490  1.00  0.00     0.211 HD
ENDBRANCH  28  33
BRANCH  29  35
ATOM     35  C   UNL     1       7.491  67.355   0.769  1.00  0.00     0.191 C 
BRANCH  35  36
ATOM     36  O   UNL     1       8.236  66.420   1.502  1.00  0.00    -0.394 OA
ATOM     37  H   UNL     1       8.894  66.025   0.874  1.00  0.00     0.210 HD
ENDBRANCH  35  36
ENDBRANCH  29  35
BRANCH  30  38
ATOM     38  O   UNL     1       6.564  66.959  -1.800  1.00  0.00    -0.387 OA
ATOM     39  H   UNL     1       5.670  67.365  -1.651  1.00  0.00     0.211 HD
ENDBRANCH  30  38
ENDBRANCH   1  25
TORSDOF 11
ENDMDL
