MODEL 1
REMARK VINA RESULT:    -3.460      0.000      0.000
REMARK INTER + INTRA:          -8.985
REMARK INTER:                  -6.494
REMARK INTRA:                  -2.491
REMARK UNBOUND:                -2.491
REMARK SMILES CCCCCCCCC=CCCCCCCCC(=O)[O-]
REMARK SMILES IDX 10 1 9 2 11 3 12 4 13 5 14 6 15 7 16 8 17 9 18 10 19 11
REMARK SMILES IDX 20 12 8 13 7 14 6 15 5 16 4 17 3 18 2 19 1 20
REMARK H PARENT
REMARK Flexibility Score: inf
ROOT
ATOM      1  C   UNL     1      27.550  62.076  81.982  1.00  0.00    -0.031 C 
ATOM      2  C   UNL     1      27.624  61.489  83.191  1.00  0.00    -0.031 C 
ENDROOT
BRANCH   1   3
ATOM      3  C   UNL     1      26.320  62.087  81.106  1.00  0.00     0.027 C 
BRANCH   3   4
ATOM      4  C   UNL     1      26.504  61.225  79.847  1.00  0.00     0.004 C 
BRANCH   4   5
ATOM      5  C   UNL     1      27.945  61.276  79.316  1.00  0.00     0.000 C 
BRANCH   5   6
ATOM      6  C   UNL     1      28.428  59.877  78.910  1.00  0.00     0.000 C 
BRANCH   6   7
ATOM      7  C   UNL     1      28.376  58.871  80.073  1.00  0.00     0.000 C 
BRANCH   7   8
ATOM      8  C   UNL     1      29.657  58.025  80.182  1.00  0.00     0.006 C 
BRANCH   8   9
ATOM      9  C   UNL     1      30.748  58.731  80.998  1.00  0.00     0.053 C 
BRANCH   9  10
ATOM     10  C   UNL     1      31.429  57.793  81.948  1.00  0.00     0.041 C 
ATOM     11  O   UNL     1      30.775  56.875  82.509  1.00  0.00    -0.550 OA
ATOM     12  O   UNL     1      32.792  57.915  82.190  1.00  0.00    -0.550 OA
ENDBRANCH   9  10
ENDBRANCH   8   9
ENDBRANCH   7   8
ENDBRANCH   6   7
ENDBRANCH   5   6
ENDBRANCH   4   5
ENDBRANCH   3   4
ENDBRANCH   1   3
BRANCH   2  13
ATOM     13  C   UNL     1      26.463  60.838  83.900  1.00  0.00     0.027 C 
BRANCH  13  14
ATOM     14  C   UNL     1      26.607  59.311  83.885  1.00  0.00     0.004 C 
BRANCH  14  15
ATOM     15  C   UNL     1      28.085  58.898  83.828  1.00  0.00     0.000 C 
BRANCH  15  16
ATOM     16  C   UNL     1      28.522  58.061  85.043  1.00  0.00     0.000 C 
BRANCH  16  17
ATOM     17  C   UNL     1      29.168  58.865  86.187  1.00  0.00    -0.000 C 
BRANCH  17  18
ATOM     18  C   UNL     1      28.372  58.780  87.501  1.00  0.00    -0.000 C 
BRANCH  18  19
ATOM     19  C   UNL     1      27.405  59.960  87.681  1.00  0.00    -0.003 C 
ATOM     20  C   UNL     1      28.036  61.302  87.311  1.00  0.00     0.004 C 
ENDBRANCH  18  19
ENDBRANCH  17  18
ENDBRANCH  16  17
ENDBRANCH  15  16
ENDBRANCH  14  15
ENDBRANCH  13  14
ENDBRANCH   2  13
TORSDOF 15
ENDMDL
MODEL 2
REMARK VINA RESULT:    -3.340      2.097      3.774
REMARK INTER + INTRA:          -8.759
REMARK INTER:                  -6.075
REMARK INTRA:                  -2.684
REMARK UNBOUND:                -2.491
REMARK SMILES CCCCCCCCC=CCCCCCCCC(=O)[O-]
REMARK SMILES IDX 10 1 9 2 11 3 12 4 13 5 14 6 15 7 16 8 17 9 18 10 19 11
REMARK SMILES IDX 20 12 8 13 7 14 6 15 5 16 4 17 3 18 2 19 1 20
REMARK H PARENT
REMARK Flexibility Score: inf
ROOT
ATOM      1  C   UNL     1      26.787  61.388  83.880  1.00  0.00    -0.031 C 
ATOM      2  C   UNL     1      27.808  60.868  83.174  1.00  0.00    -0.031 C 
ENDROOT
BRANCH   1   3
ATOM      3  C   UNL     1      25.606  60.598  84.391  1.00  0.00     0.027 C 
BRANCH   3   4
ATOM      4  C   UNL     1      24.373  60.762  83.489  1.00  0.00     0.004 C 
BRANCH   4   5
ATOM      5  C   UNL     1      24.233  62.196  82.954  1.00  0.00     0.000 C 
BRANCH   5   6
ATOM      6  C   UNL     1      24.121  62.200  81.423  1.00  0.00     0.000 C 
BRANCH   6   7
ATOM      7  C   UNL     1      25.399  62.710  80.736  1.00  0.00     0.000 C 
BRANCH   7   8
ATOM      8  C   UNL     1      25.920  61.741  79.661  1.00  0.00     0.006 C 
BRANCH   8   9
ATOM      9  C   UNL     1      27.448  61.603  79.698  1.00  0.00     0.053 C 
BRANCH   9  10
ATOM     10  C   UNL     1      27.898  60.243  79.259  1.00  0.00     0.041 C 
ATOM     11  O   UNL     1      29.125  59.971  79.198  1.00  0.00    -0.550 OA
ATOM     12  O   UNL     1      26.960  59.267  78.946  1.00  0.00    -0.550 OA
ENDBRANCH   9  10
ENDBRANCH   8   9
ENDBRANCH   7   8
ENDBRANCH   6   7
ENDBRANCH   5   6
ENDBRANCH   4   5
ENDBRANCH   3   4
ENDBRANCH   1   3
BRANCH   2  13
ATOM     13  C   UNL     1      27.979  59.402  82.868  1.00  0.00     0.027 C 
BRANCH  13  14
ATOM     14  C   UNL     1      29.460  59.006  82.924  1.00  0.00     0.004 C 
BRANCH  14  15
ATOM     15  C   UNL     1      29.838  58.491  84.321  1.00  0.00     0.000 C 
BRANCH  15  16
ATOM     16  C   UNL     1      28.736  57.630  84.963  1.00  0.00     0.000 C 
BRANCH  16  17
ATOM     17  C   UNL     1      28.234  58.132  86.329  1.00  0.00    -0.000 C 
BRANCH  17  18
ATOM     18  C   UNL     1      28.694  59.566  86.645  1.00  0.00    -0.000 C 
BRANCH  18  19
ATOM     19  C   UNL     1      27.662  60.347  87.472  1.00  0.00    -0.003 C 
ATOM     20  C   UNL     1      28.059  61.808  87.682  1.00  0.00     0.004 C 
ENDBRANCH  18  19
ENDBRANCH  17  18
ENDBRANCH  16  17
ENDBRANCH  15  16
ENDBRANCH  14  15
ENDBRANCH  13  14
ENDBRANCH   2  13
TORSDOF 15
ENDMDL
MODEL 3
REMARK VINA RESULT:    -3.327      1.299      1.920
REMARK INTER + INTRA:          -8.735
REMARK INTER:                  -6.360
REMARK INTRA:                  -2.375
REMARK UNBOUND:                -2.491
REMARK SMILES CCCCCCCCC=CCCCCCCCC(=O)[O-]
REMARK SMILES IDX 10 1 9 2 11 3 12 4 13 5 14 6 15 7 16 8 17 9 18 10 19 11
REMARK SMILES IDX 20 12 8 13 7 14 6 15 5 16 4 17 3 18 2 19 1 20
REMARK H PARENT
REMARK Flexibility Score: inf
ROOT
ATOM      1  C   UNL     1      26.994  61.486  83.970  1.00  0.00    -0.031 C 
ATOM      2  C   UNL     1      25.774  61.276  84.499  1.00  0.00    -0.031 C 
ENDROOT
BRANCH   1   3
ATOM      3  C   UNL     1      27.656  60.587  82.954  1.00  0.00     0.027 C 
BRANCH   3   4
ATOM      4  C   UNL     1      27.439  61.086  81.518  1.00  0.00     0.004 C 
BRANCH   4   5
ATOM      5  C   UNL     1      26.515  60.157  80.715  1.00  0.00     0.000 C 
BRANCH   5   6
ATOM      6  C   UNL     1      27.330  59.123  79.926  1.00  0.00     0.000 C 
BRANCH   6   7
ATOM      7  C   UNL     1      28.613  59.717  79.320  1.00  0.00     0.000 C 
BRANCH   7   8
ATOM      8  C   UNL     1      29.850  58.837  79.575  1.00  0.00     0.006 C 
BRANCH   8   9
ATOM      9  C   UNL     1      29.908  58.325  81.021  1.00  0.00     0.053 C 
BRANCH   9  10
ATOM     10  C   UNL     1      31.312  58.287  81.544  1.00  0.00     0.041 C 
ATOM     11  O   UNL     1      32.133  59.184  81.219  1.00  0.00    -0.550 OA
ATOM     12  O   UNL     1      31.704  57.277  82.413  1.00  0.00    -0.550 OA
ENDBRANCH   9  10
ENDBRANCH   8   9
ENDBRANCH   7   8
ENDBRANCH   6   7
ENDBRANCH   5   6
ENDBRANCH   4   5
ENDBRANCH   3   4
ENDBRANCH   1   3
BRANCH   2  13
ATOM     13  C   UNL     1      24.841  60.166  84.087  1.00  0.00     0.027 C 
BRANCH  13  14
ATOM     14  C   UNL     1      24.765  59.090  85.178  1.00  0.00     0.004 C 
BRANCH  14  15
ATOM     15  C   UNL     1      25.808  57.988  84.937  1.00  0.00     0.000 C 
BRANCH  15  16
ATOM     16  C   UNL     1      26.972  58.034  85.942  1.00  0.00     0.000 C 
BRANCH  16  17
ATOM     17  C   UNL     1      26.551  58.134  87.420  1.00  0.00    -0.000 C 
BRANCH  17  18
ATOM     18  C   UNL     1      27.217  59.311  88.152  1.00  0.00    -0.000 C 
BRANCH  18  19
ATOM     19  C   UNL     1      28.107  60.154  87.226  1.00  0.00    -0.003 C 
ATOM     20  C   UNL     1      28.049  61.647  87.550  1.00  0.00     0.004 C 
ENDBRANCH  18  19
ENDBRANCH  17  18
ENDBRANCH  16  17
ENDBRANCH  15  16
ENDBRANCH  14  15
ENDBRANCH  13  14
ENDBRANCH   2  13
TORSDOF 15
ENDMDL
MODEL 4
REMARK VINA RESULT:    -3.251      2.544      6.349
REMARK INTER + INTRA:          -8.592
REMARK INTER:                  -6.640
REMARK INTRA:                  -1.952
REMARK UNBOUND:                -2.491
REMARK SMILES CCCCCCCCC=CCCCCCCCC(=O)[O-]
REMARK SMILES IDX 10 1 9 2 11 3 12 4 13 5 14 6 15 7 16 8 17 9 18 10 19 11
REMARK SMILES IDX 20 12 8 13 7 14 6 15 5 16 4 17 3 18 2 19 1 20
REMARK H PARENT
REMARK Flexibility Score: inf
ROOT
ATOM      1  C   UNL     1      29.781  58.733  81.848  1.00  0.00    -0.031 C 
ATOM      2  C   UNL     1      29.112  58.859  80.686  1.00  0.00    -0.031 C 
ENDROOT
BRANCH   1   3
ATOM      3  C   UNL     1      31.246  58.390  81.962  1.00  0.00     0.027 C 
BRANCH   3   4
ATOM      4  C   UNL     1      31.464  57.001  82.582  1.00  0.00     0.004 C 
BRANCH   4   5
ATOM      5  C   UNL     1      32.083  57.085  83.986  1.00  0.00     0.000 C 
BRANCH   5   6
ATOM      6  C   UNL     1      30.998  56.990  85.069  1.00  0.00     0.000 C 
BRANCH   6   7
ATOM      7  C   UNL     1      30.629  58.361  85.659  1.00  0.00     0.000 C 
BRANCH   7   8
ATOM      8  C   UNL     1      29.114  58.631  85.628  1.00  0.00     0.006 C 
BRANCH   8   9
ATOM      9  C   UNL     1      28.530  58.817  87.035  1.00  0.00     0.053 C 
BRANCH   9  10
ATOM     10  C   UNL     1      27.675  60.045  87.127  1.00  0.00     0.041 C 
ATOM     11  O   UNL     1      26.429  59.961  86.969  1.00  0.00    -0.550 OA
ATOM     12  O   UNL     1      28.252  61.275  87.416  1.00  0.00    -0.550 OA
ENDBRANCH   9  10
ENDBRANCH   8   9
ENDBRANCH   7   8
ENDBRANCH   6   7
ENDBRANCH   5   6
ENDBRANCH   4   5
ENDBRANCH   3   4
ENDBRANCH   1   3
BRANCH   2  13
ATOM     13  C   UNL     1      29.744  58.772  79.320  1.00  0.00     0.027 C 
BRANCH  13  14
ATOM     14  C   UNL     1      28.949  59.600  78.303  1.00  0.00     0.004 C 
BRANCH  14  15
ATOM     15  C   UNL     1      28.576  60.973  78.882  1.00  0.00     0.000 C 
BRANCH  15  16
ATOM     16  C   UNL     1      27.129  61.386  78.563  1.00  0.00     0.000 C 
BRANCH  16  17
ATOM     17  C   UNL     1      26.307  61.860  79.775  1.00  0.00    -0.000 C 
BRANCH  17  18
ATOM     18  C   UNL     1      27.148  61.978  81.058  1.00  0.00    -0.000 C 
BRANCH  18  19
ATOM     19  C   UNL     1      26.602  61.110  82.203  1.00  0.00    -0.003 C 
ATOM     20  C   UNL     1      27.271  61.414  83.543  1.00  0.00     0.004 C 
ENDBRANCH  18  19
ENDBRANCH  17  18
ENDBRANCH  16  17
ENDBRANCH  15  16
ENDBRANCH  14  15
ENDBRANCH  13  14
ENDBRANCH   2  13
TORSDOF 15
ENDMDL
MODEL 5
REMARK VINA RESULT:    -3.230      1.768      5.403
REMARK INTER + INTRA:          -8.553
REMARK INTER:                  -5.943
REMARK INTRA:                  -2.609
REMARK UNBOUND:                -2.491
REMARK SMILES CCCCCCCCC=CCCCCCCCC(=O)[O-]
REMARK SMILES IDX 10 1 9 2 11 3 12 4 13 5 14 6 15 7 16 8 17 9 18 10 19 11
REMARK SMILES IDX 20 12 8 13 7 14 6 15 5 16 4 17 3 18 2 19 1 20
REMARK H PARENT
REMARK Flexibility Score: inf
ROOT
ATOM      1  C   UNL     1      27.800  60.980  87.121  1.00  0.00    -0.031 C 
ATOM      2  C   UNL     1      27.274  61.358  85.941  1.00  0.00    -0.031 C 
ENDROOT
BRANCH   1   3
ATOM      3  C   UNL     1      27.265  59.859  87.979  1.00  0.00     0.027 C 
BRANCH   3   4
ATOM      4  C   UNL     1      28.049  58.554  87.773  1.00  0.00     0.004 C 
BRANCH   4   5
ATOM      5  C   UNL     1      27.259  57.529  86.944  1.00  0.00     0.000 C 
BRANCH   5   6
ATOM      6  C   UNL     1      28.122  56.963  85.807  1.00  0.00     0.000 C 
BRANCH   6   7
ATOM      7  C   UNL     1      28.435  58.008  84.724  1.00  0.00     0.000 C 
BRANCH   7   8
ATOM      8  C   UNL     1      29.932  58.358  84.653  1.00  0.00     0.006 C 
BRANCH   8   9
ATOM      9  C   UNL     1      30.785  57.162  84.211  1.00  0.00     0.053 C 
BRANCH   9  10
ATOM     10  C   UNL     1      32.067  57.075  84.983  1.00  0.00     0.041 C 
ATOM     11  O   UNL     1      32.044  56.877  86.226  1.00  0.00    -0.550 OA
ATOM     12  O   UNL     1      33.285  57.182  84.325  1.00  0.00    -0.550 OA
ENDBRANCH   9  10
ENDBRANCH   8   9
ENDBRANCH   7   8
ENDBRANCH   6   7
ENDBRANCH   5   6
ENDBRANCH   4   5
ENDBRANCH   3   4
ENDBRANCH   1   3
BRANCH   2  13
ATOM     13  C   UNL     1      26.133  60.659  85.248  1.00  0.00     0.027 C 
BRANCH  13  14
ATOM     14  C   UNL     1      25.944  61.206  83.827  1.00  0.00     0.004 C 
BRANCH  14  15
ATOM     15  C   UNL     1      27.299  61.410  83.132  1.00  0.00     0.000 C 
BRANCH  15  16
ATOM     16  C   UNL     1      27.161  61.801  81.650  1.00  0.00     0.000 C 
BRANCH  16  17
ATOM     17  C   UNL     1      27.603  60.719  80.649  1.00  0.00    -0.000 C 
BRANCH  17  18
ATOM     18  C   UNL     1      28.311  59.533  81.327  1.00  0.00    -0.000 C 
BRANCH  18  19
ATOM     19  C   UNL     1      27.613  58.193  81.049  1.00  0.00    -0.003 C 
ATOM     20  C   UNL     1      26.246  58.088  81.725  1.00  0.00     0.004 C 
ENDBRANCH  18  19
ENDBRANCH  17  18
ENDBRANCH  16  17
ENDBRANCH  15  16
ENDBRANCH  14  15
ENDBRANCH  13  14
ENDBRANCH   2  13
TORSDOF 15
ENDMDL
MODEL 6
REMARK VINA RESULT:    -3.213      2.085      4.693
REMARK INTER + INTRA:          -8.522
REMARK INTER:                  -6.039
REMARK INTRA:                  -2.482
REMARK UNBOUND:                -2.491
REMARK SMILES CCCCCCCCC=CCCCCCCCC(=O)[O-]
REMARK SMILES IDX 10 1 9 2 11 3 12 4 13 5 14 6 15 7 16 8 17 9 18 10 19 11
REMARK SMILES IDX 20 12 8 13 7 14 6 15 5 16 4 17 3 18 2 19 1 20
REMARK H PARENT
REMARK Flexibility Score: inf
ROOT
ATOM      1  C   UNL     1      28.496  59.669  87.041  1.00  0.00    -0.031 C 
ATOM      2  C   UNL     1      27.270  59.895  87.548  1.00  0.00    -0.031 C 
ENDROOT
BRANCH   1   3
ATOM      3  C   UNL     1      29.091  58.300  86.811  1.00  0.00     0.027 C 
BRANCH   3   4
ATOM      4  C   UNL     1      30.059  58.287  85.618  1.00  0.00     0.004 C 
BRANCH   4   5
ATOM      5  C   UNL     1      29.491  57.511  84.420  1.00  0.00     0.000 C 
BRANCH   5   6
ATOM      6  C   UNL     1      29.180  58.458  83.252  1.00  0.00     0.000 C 
BRANCH   6   7
ATOM      7  C   UNL     1      30.444  59.106  82.663  1.00  0.00     0.000 C 
BRANCH   7   8
ATOM      8  C   UNL     1      30.977  58.352  81.431  1.00  0.00     0.006 C 
BRANCH   8   9
ATOM      9  C   UNL     1      29.858  57.641  80.659  1.00  0.00     0.053 C 
BRANCH   9  10
ATOM     10  C   UNL     1      29.606  58.278  79.327  1.00  0.00     0.041 C 
ATOM     11  O   UNL     1      29.478  59.528  79.237  1.00  0.00    -0.550 OA
ATOM     12  O   UNL     1      29.542  57.496  78.181  1.00  0.00    -0.550 OA
ENDBRANCH   9  10
ENDBRANCH   8   9
ENDBRANCH   7   8
ENDBRANCH   6   7
ENDBRANCH   5   6
ENDBRANCH   4   5
ENDBRANCH   3   4
ENDBRANCH   1   3
BRANCH   2  13
ATOM     13  C   UNL     1      26.264  58.820  87.871  1.00  0.00     0.027 C 
BRANCH  13  14
ATOM     14  C   UNL     1      25.121  58.823  86.848  1.00  0.00     0.004 C 
BRANCH  14  15
ATOM     15  C   UNL     1      25.513  58.046  85.583  1.00  0.00     0.000 C 
BRANCH  15  16
ATOM     16  C   UNL     1      25.725  58.956  84.361  1.00  0.00     0.000 C 
BRANCH  16  17
ATOM     17  C   UNL     1      24.746  60.140  84.255  1.00  0.00    -0.000 C 
BRANCH  17  18
ATOM     18  C   UNL     1      25.453  61.475  83.960  1.00  0.00    -0.000 C 
BRANCH  18  19
ATOM     19  C   UNL     1      26.982  61.368  84.066  1.00  0.00    -0.003 C 
ATOM     20  C   UNL     1      27.690  61.725  82.759  1.00  0.00     0.004 C 
ENDBRANCH  18  19
ENDBRANCH  17  18
ENDBRANCH  16  17
ENDBRANCH  15  16
ENDBRANCH  14  15
ENDBRANCH  13  14
ENDBRANCH   2  13
TORSDOF 15
ENDMDL
MODEL 7
REMARK VINA RESULT:    -3.185      2.668      6.579
REMARK INTER + INTRA:          -8.468
REMARK INTER:                  -6.064
REMARK INTRA:                  -2.405
REMARK UNBOUND:                -2.491
REMARK SMILES CCCCCCCCC=CCCCCCCCC(=O)[O-]
REMARK SMILES IDX 10 1 9 2 11 3 12 4 13 5 14 6 15 7 16 8 17 9 18 10 19 11
REMARK SMILES IDX 20 12 8 13 7 14 6 15 5 16 4 17 3 18 2 19 1 20
REMARK H PARENT
REMARK Flexibility Score: inf
ROOT
ATOM      1  C   UNL     1      31.412  58.297  81.925  1.00  0.00    -0.031 C 
ATOM      2  C   UNL     1      30.191  58.635  81.472  1.00  0.00    -0.031 C 
ENDROOT
BRANCH   1   3
ATOM      3  C   UNL     1      31.737  57.004  82.634  1.00  0.00     0.027 C 
BRANCH   3   4
ATOM      4  C   UNL     1      32.118  57.235  84.104  1.00  0.00     0.004 C 
BRANCH   4   5
ATOM      5  C   UNL     1      30.927  57.023  85.051  1.00  0.00     0.000 C 
BRANCH   5   6
ATOM      6  C   UNL     1      30.441  58.360  85.628  1.00  0.00     0.000 C 
BRANCH   6   7
ATOM      7  C   UNL     1      29.105  58.231  86.378  1.00  0.00     0.000 C 
BRANCH   7   8
ATOM      8  C   UNL     1      28.499  59.597  86.747  1.00  0.00     0.006 C 
BRANCH   8   9
ATOM      9  C   UNL     1      27.527  59.499  87.930  1.00  0.00     0.053 C 
BRANCH   9  10
ATOM     10  C   UNL     1      26.144  59.128  87.488  1.00  0.00     0.041 C 
ATOM     11  O   UNL     1      25.368  58.527  88.276  1.00  0.00    -0.550 OA
ATOM     12  O   UNL     1      25.704  59.473  86.216  1.00  0.00    -0.550 OA
ENDBRANCH   9  10
ENDBRANCH   8   9
ENDBRANCH   7   8
ENDBRANCH   6   7
ENDBRANCH   5   6
ENDBRANCH   4   5
ENDBRANCH   3   4
ENDBRANCH   1   3
BRANCH   2  13
ATOM     13  C   UNL     1      28.982  57.736  81.514  1.00  0.00     0.027 C 
BRANCH  13  14
ATOM     14  C   UNL     1      28.123  58.042  82.748  1.00  0.00     0.004 C 
BRANCH  14  15
ATOM     15  C   UNL     1      27.972  59.557  82.952  1.00  0.00     0.000 C 
BRANCH  15  16
ATOM     16  C   UNL     1      26.504  60.018  82.964  1.00  0.00     0.000 C 
BRANCH  16  17
ATOM     17  C   UNL     1      26.263  61.432  82.405  1.00  0.00    -0.000 C 
BRANCH  17  18
ATOM     18  C   UNL     1      27.406  61.918  81.496  1.00  0.00    -0.000 C 
BRANCH  18  19
ATOM     19  C   UNL     1      27.080  61.760  80.003  1.00  0.00    -0.003 C 
ATOM     20  C   UNL     1      27.990  60.749  79.304  1.00  0.00     0.004 C 
ENDBRANCH  18  19
ENDBRANCH  17  18
ENDBRANCH  16  17
ENDBRANCH  15  16
ENDBRANCH  14  15
ENDBRANCH  13  14
ENDBRANCH   2  13
TORSDOF 15
ENDMDL
MODEL 8
REMARK VINA RESULT:    -3.173      2.457      6.245
REMARK INTER + INTRA:          -8.446
REMARK INTER:                  -5.721
REMARK INTRA:                  -2.725
REMARK UNBOUND:                -2.491
REMARK SMILES CCCCCCCCC=CCCCCCCCC(=O)[O-]
REMARK SMILES IDX 10 1 9 2 11 3 12 4 13 5 14 6 15 7 16 8 17 9 18 10 19 11
REMARK SMILES IDX 20 12 8 13 7 14 6 15 5 16 4 17 3 18 2 19 1 20
REMARK H PARENT
REMARK Flexibility Score: inf
ROOT
ATOM      1  C   UNL     1      28.514  58.116  82.133  1.00  0.00    -0.031 C 
ATOM      2  C   UNL     1      27.764  58.942  82.886  1.00  0.00    -0.031 C 
ENDROOT
BRANCH   1   3
ATOM      3  C   UNL     1      29.686  58.553  81.288  1.00  0.00     0.027 C 
BRANCH   3   4
ATOM      4  C   UNL     1      31.014  58.460  82.056  1.00  0.00     0.004 C 
BRANCH   4   5
ATOM      5  C   UNL     1      31.092  57.196  82.926  1.00  0.00     0.000 C 
BRANCH   5   6
ATOM      6  C   UNL     1      31.489  57.547  84.367  1.00  0.00     0.000 C 
BRANCH   6   7
ATOM      7  C   UNL     1      30.324  57.387  85.358  1.00  0.00     0.000 C 
BRANCH   7   8
ATOM      8  C   UNL     1      29.886  58.726  85.978  1.00  0.00     0.006 C 
BRANCH   8   9
ATOM      9  C   UNL     1      28.608  58.585  86.816  1.00  0.00     0.053 C 
BRANCH   9  10
ATOM     10  C   UNL     1      27.853  59.877  86.904  1.00  0.00     0.041 C 
ATOM     11  O   UNL     1      28.427  60.919  87.315  1.00  0.00    -0.550 OA
ATOM     12  O   UNL     1      26.524  59.935  86.503  1.00  0.00    -0.550 OA
ENDBRANCH   9  10
ENDBRANCH   8   9
ENDBRANCH   7   8
ENDBRANCH   6   7
ENDBRANCH   5   6
ENDBRANCH   4   5
ENDBRANCH   3   4
ENDBRANCH   1   3
BRANCH   2  13
ATOM     13  C   UNL     1      28.038  60.411  83.080  1.00  0.00     0.027 C 
BRANCH  13  14
ATOM     14  C   UNL     1      26.726  61.192  83.229  1.00  0.00     0.004 C 
BRANCH  14  15
ATOM     15  C   UNL     1      26.179  61.614  81.857  1.00  0.00     0.000 C 
BRANCH  15  16
ATOM     16  C   UNL     1      27.275  62.125  80.905  1.00  0.00     0.000 C 
BRANCH  16  17
ATOM     17  C   UNL     1      27.068  61.761  79.423  1.00  0.00    -0.000 C 
BRANCH  17  18
ATOM     18  C   UNL     1      28.275  61.024  78.816  1.00  0.00    -0.000 C 
BRANCH  18  19
ATOM     19  C   UNL     1      27.916  59.614  78.323  1.00  0.00    -0.003 C 
ATOM     20  C   UNL     1      26.653  59.061  78.985  1.00  0.00     0.004 C 
ENDBRANCH  18  19
ENDBRANCH  17  18
ENDBRANCH  16  17
ENDBRANCH  15  16
ENDBRANCH  14  15
ENDBRANCH  13  14
ENDBRANCH   2  13
TORSDOF 15
ENDMDL
MODEL 9
REMARK VINA RESULT:    -3.149      2.365      4.667
REMARK INTER + INTRA:          -8.400
REMARK INTER:                  -5.778
REMARK INTRA:                  -2.622
REMARK UNBOUND:                -2.491
REMARK SMILES CCCCCCCCC=CCCCCCCCC(=O)[O-]
REMARK SMILES IDX 10 1 9 2 11 3 12 4 13 5 14 6 15 7 16 8 17 9 18 10 19 11
REMARK SMILES IDX 20 12 8 13 7 14 6 15 5 16 4 17 3 18 2 19 1 20
REMARK H PARENT
REMARK Flexibility Score: inf
ROOT
ATOM      1  C   UNL     1      27.237  61.141  85.997  1.00  0.00    -0.031 C 
ATOM      2  C   UNL     1      27.723  60.653  87.154  1.00  0.00    -0.031 C 
ENDROOT
BRANCH   1   3
ATOM      3  C   UNL     1      26.195  60.455  85.147  1.00  0.00     0.027 C 
BRANCH   3   4
ATOM      4  C   UNL     1      26.211  60.964  83.698  1.00  0.00     0.004 C 
BRANCH   4   5
ATOM      5  C   UNL     1      27.516  61.700  83.357  1.00  0.00     0.000 C 
BRANCH   5   6
ATOM      6  C   UNL     1      27.616  61.967  81.848  1.00  0.00     0.000 C 
BRANCH   6   7
ATOM      7  C   UNL     1      26.242  61.990  81.158  1.00  0.00     0.000 C 
BRANCH   7   8
ATOM      8  C   UNL     1      26.339  61.767  79.638  1.00  0.00     0.006 C 
BRANCH   8   9
ATOM      9  C   UNL     1      27.787  61.554  79.176  1.00  0.00     0.053 C 
BRANCH   9  10
ATOM     10  C   UNL     1      27.868  60.624  78.004  1.00  0.00     0.041 C 
ATOM     11  O   UNL     1      26.848  59.985  77.631  1.00  0.00    -0.550 OA
ATOM     12  O   UNL     1      29.061  60.485  77.306  1.00  0.00    -0.550 OA
ENDBRANCH   9  10
ENDBRANCH   8   9
ENDBRANCH   7   8
ENDBRANCH   6   7
ENDBRANCH   5   6
ENDBRANCH   4   5
ENDBRANCH   3   4
ENDBRANCH   1   3
BRANCH   2  13
ATOM     13  C   UNL     1      27.231  59.398  87.829  1.00  0.00     0.027 C 
BRANCH  13  14
ATOM     14  C   UNL     1      28.324  58.322  87.833  1.00  0.00     0.004 C 
BRANCH  14  15
ATOM     15  C   UNL     1      28.351  57.559  86.500  1.00  0.00     0.000 C 
BRANCH  15  16
ATOM     16  C   UNL     1      29.599  57.869  85.655  1.00  0.00     0.000 C 
BRANCH  16  17
ATOM     17  C   UNL     1      29.314  58.530  84.295  1.00  0.00    -0.000 C 
BRANCH  17  18
ATOM     18  C   UNL     1      28.257  57.772  83.472  1.00  0.00    -0.000 C 
BRANCH  18  19
ATOM     19  C   UNL     1      28.136  58.303  82.036  1.00  0.00    -0.003 C 
ATOM     20  C   UNL     1      29.484  58.721  81.446  1.00  0.00     0.004 C 
ENDBRANCH  18  19
ENDBRANCH  17  18
ENDBRANCH  16  17
ENDBRANCH  15  16
ENDBRANCH  14  15
ENDBRANCH  13  14
ENDBRANCH   2  13
TORSDOF 15
ENDMDL
