MODEL 1
REMARK VINA RESULT:    -7.277      0.000      0.000
REMARK INTER + INTRA:          -9.174
REMARK INTER:                  -8.766
REMARK INTRA:                  -0.408
REMARK UNBOUND:                -0.408
REMARK SMILES O=c1c(O)c(-c2ccc(O)cc2O)oc2cc(O)cc(O)c12
REMARK SMILES IDX 5 1 3 2 2 3 1 4 22 5 20 6 19 7 17 8 16 9 15 10 14 11 6 12
REMARK SMILES IDX 8 13 7 14 9 15 11 16 12 17 10 18 13 20 4 22 21 24 18 26
REMARK H PARENT 10 19 13 21 4 23 21 25 18 27
REMARK Flexibility Score: inf
ROOT
ATOM      1  C   UNL     1      13.235  36.242  55.127  1.00  0.00     0.184 A 
ATOM      2  C   UNL     1      14.275  36.568  56.011  1.00  0.00     0.208 A 
ATOM      3  C   UNL     1      15.589  36.203  55.680  1.00  0.00     0.238 A 
ATOM      4  O   UNL     1      16.510  36.450  56.502  1.00  0.00    -0.285 OA
ATOM      5  C   UNL     1      15.847  35.531  54.461  1.00  0.00     0.111 A 
ATOM      6  C   UNL     1      17.144  35.148  54.005  1.00  0.00     0.134 A 
ATOM      7  C   UNL     1      17.267  34.373  52.846  1.00  0.00     0.093 A 
ATOM      8  C   UNL     1      16.146  34.022  52.090  1.00  0.00     0.123 A 
ATOM      9  C   UNL     1      14.881  34.440  52.495  1.00  0.00     0.094 A 
ATOM     10  C   UNL     1      14.721  35.184  53.666  1.00  0.00     0.146 A 
ATOM     11  O   UNL     1      13.497  35.553  54.022  1.00  0.00    -0.451 OA
ENDROOT
BRANCH   1  12
ATOM     12  C   UNL     1      11.832  36.613  55.407  1.00  0.00     0.063 A 
ATOM     13  C   UNL     1      10.149  38.354  55.629  1.00  0.00     0.047 A 
ATOM     14  C   UNL     1      11.465  37.968  55.364  1.00  0.00     0.020 A 
ATOM     15  C   UNL     1       9.186  37.393  55.953  1.00  0.00     0.119 A 
ATOM     16  C   UNL     1       9.547  36.041  56.020  1.00  0.00     0.093 A 
ATOM     17  C   UNL     1      10.868  35.646  55.761  1.00  0.00     0.130 A 
BRANCH  15  18
ATOM     18  O   UNL     1       7.876  37.793  56.209  1.00  0.00    -0.508 OA
ATOM     19  H   UNL     1       7.110  37.515  55.606  1.00  0.00     0.293 HD
ENDBRANCH  15  18
BRANCH  17  20
ATOM     20  O   UNL     1      11.226  34.304  55.880  1.00  0.00    -0.507 OA
ATOM     21  H   UNL     1      12.099  34.022  56.310  1.00  0.00     0.293 HD
ENDBRANCH  17  20
ENDBRANCH   1  12
BRANCH   2  22
ATOM     22  O   UNL     1      13.990  37.216  57.216  1.00  0.00    -0.502 OA
ATOM     23  H   UNL     1      13.167  37.003  57.766  1.00  0.00     0.293 HD
ENDBRANCH   2  22
BRANCH   6  24
ATOM     24  O   UNL     1      18.335  35.524  54.634  1.00  0.00    -0.507 OA
ATOM     25  H   UNL     1      19.119  35.955  54.168  1.00  0.00     0.293 HD
ENDBRANCH   6  24
BRANCH   8  26
ATOM     26  O   UNL     1      16.280  33.264  50.929  1.00  0.00    -0.508 OA
ATOM     27  H   UNL     1      15.509  32.722  50.557  1.00  0.00     0.293 HD
ENDBRANCH   8  26
TORSDOF 6
ENDMDL
MODEL 2
REMARK VINA RESULT:    -7.268      3.350      4.911
REMARK INTER + INTRA:          -9.164
REMARK INTER:                  -8.955
REMARK INTRA:                  -0.209
REMARK UNBOUND:                -0.408
REMARK SMILES O=c1c(O)c(-c2ccc(O)cc2O)oc2cc(O)cc(O)c12
REMARK SMILES IDX 5 1 3 2 2 3 1 4 22 5 20 6 19 7 17 8 16 9 15 10 14 11 6 12
REMARK SMILES IDX 8 13 7 14 9 15 11 16 12 17 10 18 13 20 4 22 21 24 18 26
REMARK H PARENT 10 19 13 21 4 23 21 25 18 27
REMARK Flexibility Score: inf
ROOT
ATOM      1  C   UNL     1      16.165  35.613  56.674  1.00  0.00     0.184 A 
ATOM      2  C   UNL     1      17.461  35.634  56.135  1.00  0.00     0.208 A 
ATOM      3  C   UNL     1      17.626  35.445  54.754  1.00  0.00     0.238 A 
ATOM      4  O   UNL     1      18.794  35.412  54.284  1.00  0.00    -0.285 OA
ATOM      5  C   UNL     1      16.491  35.252  53.929  1.00  0.00     0.111 A 
ATOM      6  C   UNL     1      16.537  35.090  52.512  1.00  0.00     0.134 A 
ATOM      7  C   UNL     1      15.365  34.776  51.814  1.00  0.00     0.093 A 
ATOM      8  C   UNL     1      14.137  34.684  52.474  1.00  0.00     0.123 A 
ATOM      9  C   UNL     1      14.071  34.899  53.848  1.00  0.00     0.094 A 
ATOM     10  C   UNL     1      15.229  35.177  54.578  1.00  0.00     0.146 A 
ATOM     11  O   UNL     1      15.125  35.364  55.888  1.00  0.00    -0.451 OA
ENDROOT
BRANCH   1  12
ATOM     12  C   UNL     1      15.920  35.823  58.117  1.00  0.00     0.063 A 
ATOM     13  C   UNL     1      15.006  34.990  60.211  1.00  0.00     0.047 A 
ATOM     14  C   UNL     1      15.258  34.822  58.847  1.00  0.00     0.020 A 
ATOM     15  C   UNL     1      15.399  36.165  60.859  1.00  0.00     0.119 A 
ATOM     16  C   UNL     1      16.040  37.179  60.135  1.00  0.00     0.093 A 
ATOM     17  C   UNL     1      16.292  37.019  58.763  1.00  0.00     0.130 A 
BRANCH  15  18
ATOM     18  O   UNL     1      15.144  36.316  62.220  1.00  0.00    -0.508 OA
ATOM     19  H   UNL     1      15.840  36.076  62.919  1.00  0.00     0.293 HD
ENDBRANCH  15  18
BRANCH  17  20
ATOM     20  O   UNL     1      16.886  38.055  58.043  1.00  0.00    -0.507 OA
ATOM     21  H   UNL     1      17.813  37.964  57.647  1.00  0.00     0.293 HD
ENDBRANCH  17  20
ENDBRANCH   1  12
BRANCH   2  22
ATOM     22  O   UNL     1      18.564  35.809  56.975  1.00  0.00    -0.502 OA
ATOM     23  H   UNL     1      18.904  36.724  57.241  1.00  0.00     0.293 HD
ENDBRANCH   2  22
BRANCH   6  24
ATOM     24  O   UNL     1      17.695  35.253  51.745  1.00  0.00    -0.507 OA
ATOM     25  H   UNL     1      18.599  34.869  51.980  1.00  0.00     0.293 HD
ENDBRANCH   6  24
BRANCH   8  26
ATOM     26  O   UNL     1      12.973  34.387  51.769  1.00  0.00    -0.508 OA
ATOM     27  H   UNL     1      12.744  34.856  50.899  1.00  0.00     0.293 HD
ENDBRANCH   8  26
TORSDOF 6
ENDMDL
MODEL 3
REMARK VINA RESULT:    -7.218      1.092      1.190
REMARK INTER + INTRA:          -9.103
REMARK INTER:                  -8.704
REMARK INTRA:                  -0.398
REMARK UNBOUND:                -0.408
REMARK SMILES O=c1c(O)c(-c2ccc(O)cc2O)oc2cc(O)cc(O)c12
REMARK SMILES IDX 5 1 3 2 2 3 1 4 22 5 20 6 19 7 17 8 16 9 15 10 14 11 6 12
REMARK SMILES IDX 8 13 7 14 9 15 11 16 12 17 10 18 13 20 4 22 21 24 18 26
REMARK H PARENT 10 19 13 21 4 23 21 25 18 27
REMARK Flexibility Score: inf
ROOT
ATOM      1  C   UNL     1      13.474  36.233  55.546  1.00  0.00     0.184 A 
ATOM      2  C   UNL     1      14.189  36.162  56.751  1.00  0.00     0.208 A 
ATOM      3  C   UNL     1      15.571  35.920  56.709  1.00  0.00     0.238 A 
ATOM      4  O   UNL     1      16.198  35.804  57.795  1.00  0.00    -0.285 OA
ATOM      5  C   UNL     1      16.222  35.770  55.460  1.00  0.00     0.111 A 
ATOM      6  C   UNL     1      17.624  35.561  55.296  1.00  0.00     0.134 A 
ATOM      7  C   UNL     1      18.138  35.296  54.021  1.00  0.00     0.093 A 
ATOM      8  C   UNL     1      17.311  35.296  52.896  1.00  0.00     0.123 A 
ATOM      9  C   UNL     1      15.950  35.557  53.037  1.00  0.00     0.094 A 
ATOM     10  C   UNL     1      15.401  35.789  54.300  1.00  0.00     0.146 A 
ATOM     11  O   UNL     1      14.097  36.022  54.393  1.00  0.00    -0.451 OA
ENDROOT
BRANCH   1  12
ATOM     12  C   UNL     1      12.020  36.502  55.519  1.00  0.00     0.063 A 
ATOM     13  C   UNL     1      10.210  38.118  55.364  1.00  0.00     0.047 A 
ATOM     14  C   UNL     1      11.577  37.828  55.387  1.00  0.00     0.020 A 
ATOM     15  C   UNL     1       9.271  37.090  55.486  1.00  0.00     0.119 A 
ATOM     16  C   UNL     1       9.703  35.767  55.642  1.00  0.00     0.093 A 
ATOM     17  C   UNL     1      11.075  35.468  55.672  1.00  0.00     0.130 A 
BRANCH  15  18
ATOM     18  O   UNL     1       7.912  37.394  55.457  1.00  0.00    -0.508 OA
ATOM     19  H   UNL     1       7.569  38.313  55.715  1.00  0.00     0.293 HD
ENDBRANCH  15  18
BRANCH  17  20
ATOM     20  O   UNL     1      11.493  34.153  55.876  1.00  0.00    -0.507 OA
ATOM     21  H   UNL     1      11.256  33.412  55.228  1.00  0.00     0.293 HD
ENDBRANCH  17  20
ENDBRANCH   1  12
BRANCH   2  22
ATOM     22  O   UNL     1      13.519  36.296  57.970  1.00  0.00    -0.502 OA
ATOM     23  H   UNL     1      12.601  36.717  58.042  1.00  0.00     0.293 HD
ENDBRANCH   2  22
BRANCH   6  24
ATOM     24  O   UNL     1      18.551  35.631  56.341  1.00  0.00    -0.507 OA
ATOM     25  H   UNL     1      18.511  36.294  57.101  1.00  0.00     0.293 HD
ENDBRANCH   6  24
BRANCH   8  26
ATOM     26  O   UNL     1      17.834  35.047  51.629  1.00  0.00    -0.508 OA
ATOM     27  H   UNL     1      17.424  35.453  50.796  1.00  0.00     0.293 HD
ENDBRANCH   8  26
TORSDOF 6
ENDMDL
MODEL 4
REMARK VINA RESULT:    -7.042      1.321      1.601
REMARK INTER + INTRA:          -8.891
REMARK INTER:                  -8.589
REMARK INTRA:                  -0.302
REMARK UNBOUND:                -0.408
REMARK SMILES O=c1c(O)c(-c2ccc(O)cc2O)oc2cc(O)cc(O)c12
REMARK SMILES IDX 5 1 3 2 2 3 1 4 22 5 20 6 19 7 17 8 16 9 15 10 14 11 6 12
REMARK SMILES IDX 8 13 7 14 9 15 11 16 12 17 10 18 13 20 4 22 21 24 18 26
REMARK H PARENT 10 19 13 21 4 23 21 25 18 27
REMARK Flexibility Score: inf
ROOT
ATOM      1  C   UNL     1      13.263  35.583  55.203  1.00  0.00     0.184 A 
ATOM      2  C   UNL     1      14.276  36.333  55.820  1.00  0.00     0.208 A 
ATOM      3  C   UNL     1      15.555  36.354  55.241  1.00  0.00     0.238 A 
ATOM      4  O   UNL     1      16.474  36.984  55.827  1.00  0.00    -0.285 OA
ATOM      5  C   UNL     1      15.797  35.638  54.043  1.00  0.00     0.111 A 
ATOM      6  C   UNL     1      17.042  35.620  53.347  1.00  0.00     0.134 A 
ATOM      7  C   UNL     1      17.205  34.773  52.244  1.00  0.00     0.093 A 
ATOM      8  C   UNL     1      16.147  33.992  51.773  1.00  0.00     0.123 A 
ATOM      9  C   UNL     1      14.910  34.046  52.410  1.00  0.00     0.094 A 
ATOM     10  C   UNL     1      14.727  34.854  53.534  1.00  0.00     0.146 A 
ATOM     11  O   UNL     1      13.535  34.868  54.118  1.00  0.00    -0.451 OA
ENDROOT
BRANCH   1  12
ATOM     12  C   UNL     1      11.891  35.533  55.752  1.00  0.00     0.063 A 
ATOM     13  C   UNL     1      10.413  34.975  57.600  1.00  0.00     0.047 A 
ATOM     14  C   UNL     1      11.697  35.041  57.053  1.00  0.00     0.020 A 
ATOM     15  C   UNL     1       9.307  35.384  56.850  1.00  0.00     0.119 A 
ATOM     16  C   UNL     1       9.487  35.854  55.543  1.00  0.00     0.093 A 
ATOM     17  C   UNL     1      10.773  35.919  54.984  1.00  0.00     0.130 A 
BRANCH  15  18
ATOM     18  O   UNL     1       8.033  35.317  57.412  1.00  0.00    -0.508 OA
ATOM     19  H   UNL     1       7.476  36.150  57.563  1.00  0.00     0.293 HD
ENDBRANCH  15  18
BRANCH  17  20
ATOM     20  O   UNL     1      10.935  36.342  53.665  1.00  0.00    -0.507 OA
ATOM     21  H   UNL     1      11.850  36.407  53.235  1.00  0.00     0.293 HD
ENDBRANCH  17  20
ENDBRANCH   1  12
BRANCH   2  22
ATOM     22  O   UNL     1      14.014  37.016  57.011  1.00  0.00    -0.502 OA
ATOM     23  H   UNL     1      14.748  37.288  57.653  1.00  0.00     0.293 HD
ENDBRANCH   2  22
BRANCH   6  24
ATOM     24  O   UNL     1      18.134  36.429  53.679  1.00  0.00    -0.507 OA
ATOM     25  H   UNL     1      18.663  36.979  53.018  1.00  0.00     0.293 HD
ENDBRANCH   6  24
BRANCH   8  26
ATOM     26  O   UNL     1      16.314  33.164  50.665  1.00  0.00    -0.508 OA
ATOM     27  H   UNL     1      16.771  32.262  50.740  1.00  0.00     0.293 HD
ENDBRANCH   8  26
TORSDOF 6
ENDMDL
MODEL 5
REMARK VINA RESULT:    -7.022      2.944      5.292
REMARK INTER + INTRA:          -8.867
REMARK INTER:                  -8.594
REMARK INTRA:                  -0.273
REMARK UNBOUND:                -0.408
REMARK SMILES O=c1c(O)c(-c2ccc(O)cc2O)oc2cc(O)cc(O)c12
REMARK SMILES IDX 5 1 3 2 2 3 1 4 22 5 20 6 19 7 17 8 16 9 15 10 14 11 6 12
REMARK SMILES IDX 8 13 7 14 9 15 11 16 12 17 10 18 13 20 4 22 21 24 18 26
REMARK H PARENT 10 19 13 21 4 23 21 25 18 27
REMARK Flexibility Score: inf
ROOT
ATOM      1  C   UNL     1      16.005  37.107  56.726  1.00  0.00     0.184 A 
ATOM      2  C   UNL     1      14.804  36.392  56.855  1.00  0.00     0.208 A 
ATOM      3  C   UNL     1      14.449  35.472  55.856  1.00  0.00     0.238 A 
ATOM      4  O   UNL     1      13.346  34.872  55.951  1.00  0.00    -0.285 OA
ATOM      5  C   UNL     1      15.308  35.269  54.748  1.00  0.00     0.111 A 
ATOM      6  C   UNL     1      15.069  34.335  53.697  1.00  0.00     0.134 A 
ATOM      7  C   UNL     1      15.920  34.311  52.586  1.00  0.00     0.093 A 
ATOM      8  C   UNL     1      17.040  35.143  52.519  1.00  0.00     0.123 A 
ATOM      9  C   UNL     1      17.316  36.018  53.567  1.00  0.00     0.094 A 
ATOM     10  C   UNL     1      16.465  36.091  54.673  1.00  0.00     0.146 A 
ATOM     11  O   UNL     1      16.758  36.946  55.645  1.00  0.00    -0.451 OA
ENDROOT
BRANCH   1  12
ATOM     12  C   UNL     1      16.446  38.077  57.750  1.00  0.00     0.063 A 
ATOM     13  C   UNL     1      18.025  38.676  59.499  1.00  0.00     0.047 A 
ATOM     14  C   UNL     1      17.584  37.783  58.519  1.00  0.00     0.020 A 
ATOM     15  C   UNL     1      17.328  39.864  59.734  1.00  0.00     0.119 A 
ATOM     16  C   UNL     1      16.178  40.155  58.988  1.00  0.00     0.093 A 
ATOM     17  C   UNL     1      15.725  39.262  58.005  1.00  0.00     0.130 A 
BRANCH  15  18
ATOM     18  O   UNL     1      17.783  40.746  60.712  1.00  0.00    -0.508 OA
ATOM     19  H   UNL     1      17.155  41.394  61.174  1.00  0.00     0.293 HD
ENDBRANCH  15  18
BRANCH  17  20
ATOM     20  O   UNL     1      14.552  39.539  57.304  1.00  0.00    -0.507 OA
ATOM     21  H   UNL     1      14.501  40.292  56.629  1.00  0.00     0.293 HD
ENDBRANCH  17  20
ENDBRANCH   1  12
BRANCH   2  22
ATOM     22  O   UNL     1      13.967  36.624  57.950  1.00  0.00    -0.502 OA
ATOM     23  H   UNL     1      13.189  37.271  57.911  1.00  0.00     0.293 HD
ENDBRANCH   2  22
BRANCH   6  24
ATOM     24  O   UNL     1      14.032  33.396  53.709  1.00  0.00    -0.507 OA
ATOM     25  H   UNL     1      13.953  32.635  54.367  1.00  0.00     0.293 HD
ENDBRANCH   6  24
BRANCH   8  26
ATOM     26  O   UNL     1      17.891  35.102  51.417  1.00  0.00    -0.508 OA
ATOM     27  H   UNL     1      17.533  35.132  50.469  1.00  0.00     0.293 HD
ENDBRANCH   8  26
TORSDOF 6
ENDMDL
MODEL 6
REMARK VINA RESULT:    -6.943      3.369      6.447
REMARK INTER + INTRA:          -8.772
REMARK INTER:                  -8.485
REMARK INTRA:                  -0.287
REMARK UNBOUND:                -0.408
REMARK SMILES O=c1c(O)c(-c2ccc(O)cc2O)oc2cc(O)cc(O)c12
REMARK SMILES IDX 5 1 3 2 2 3 1 4 22 5 20 6 19 7 17 8 16 9 15 10 14 11 6 12
REMARK SMILES IDX 8 13 7 14 9 15 11 16 12 17 10 18 13 20 4 22 21 24 18 26
REMARK H PARENT 10 19 13 21 4 23 21 25 18 27
REMARK Flexibility Score: inf
ROOT
ATOM      1  C   UNL     1      16.077  35.865  56.297  1.00  0.00     0.184 A 
ATOM      2  C   UNL     1      16.518  37.180  56.509  1.00  0.00     0.208 A 
ATOM      3  C   UNL     1      16.525  37.694  57.815  1.00  0.00     0.238 A 
ATOM      4  O   UNL     1      16.871  38.891  57.991  1.00  0.00    -0.285 OA
ATOM      5  C   UNL     1      16.103  36.879  58.894  1.00  0.00     0.111 A 
ATOM      6  C   UNL     1      16.105  37.282  60.263  1.00  0.00     0.134 A 
ATOM      7  C   UNL     1      15.544  36.441  61.231  1.00  0.00     0.093 A 
ATOM      8  C   UNL     1      15.042  35.183  60.889  1.00  0.00     0.123 A 
ATOM      9  C   UNL     1      15.089  34.756  59.565  1.00  0.00     0.094 A 
ATOM     10  C   UNL     1      15.608  35.587  58.570  1.00  0.00     0.146 A 
ATOM     11  O   UNL     1      15.625  35.146  57.318  1.00  0.00    -0.451 OA
ENDROOT
BRANCH   1  12
ATOM     12  C   UNL     1      16.062  35.257  54.950  1.00  0.00     0.063 A 
ATOM     13  C   UNL     1      17.271  34.667  52.925  1.00  0.00     0.047 A 
ATOM     14  C   UNL     1      17.251  35.229  54.204  1.00  0.00     0.020 A 
ATOM     15  C   UNL     1      16.102  34.139  52.370  1.00  0.00     0.119 A 
ATOM     16  C   UNL     1      14.905  34.183  53.097  1.00  0.00     0.093 A 
ATOM     17  C   UNL     1      14.875  34.751  54.380  1.00  0.00     0.130 A 
BRANCH  15  18
ATOM     18  O   UNL     1      16.139  33.578  51.095  1.00  0.00    -0.508 OA
ATOM     19  H   UNL     1      15.383  33.718  50.433  1.00  0.00     0.293 HD
ENDBRANCH  15  18
BRANCH  17  20
ATOM     20  O   UNL     1      13.668  34.834  55.073  1.00  0.00    -0.507 OA
ATOM     21  H   UNL     1      13.431  35.643  55.634  1.00  0.00     0.293 HD
ENDBRANCH  17  20
ENDBRANCH   1  12
BRANCH   2  22
ATOM     22  O   UNL     1      16.912  37.968  55.423  1.00  0.00    -0.502 OA
ATOM     23  H   UNL     1      17.078  38.963  55.507  1.00  0.00     0.293 HD
ENDBRANCH   2  22
BRANCH   6  24
ATOM     24  O   UNL     1      16.665  38.478  60.724  1.00  0.00    -0.507 OA
ATOM     25  H   UNL     1      17.603  38.571  61.085  1.00  0.00     0.293 HD
ENDBRANCH   6  24
BRANCH   8  26
ATOM     26  O   UNL     1      14.500  34.346  61.862  1.00  0.00    -0.508 OA
ATOM     27  H   UNL     1      13.507  34.341  62.065  1.00  0.00     0.293 HD
ENDBRANCH   8  26
TORSDOF 6
ENDMDL
MODEL 7
REMARK VINA RESULT:    -6.878      4.308      5.661
REMARK INTER + INTRA:          -8.693
REMARK INTER:                  -8.411
REMARK INTRA:                  -0.282
REMARK UNBOUND:                -0.408
REMARK SMILES O=c1c(O)c(-c2ccc(O)cc2O)oc2cc(O)cc(O)c12
REMARK SMILES IDX 5 1 3 2 2 3 1 4 22 5 20 6 19 7 17 8 16 9 15 10 14 11 6 12
REMARK SMILES IDX 8 13 7 14 9 15 11 16 12 17 10 18 13 20 4 22 21 24 18 26
REMARK H PARENT 10 19 13 21 4 23 21 25 18 27
REMARK Flexibility Score: inf
ROOT
ATOM      1  C   UNL     1      15.181  35.168  59.316  1.00  0.00     0.184 A 
ATOM      2  C   UNL     1      16.531  35.287  58.950  1.00  0.00     0.208 A 
ATOM      3  C   UNL     1      16.853  35.520  57.603  1.00  0.00     0.238 A 
ATOM      4  O   UNL     1      18.066  35.573  57.272  1.00  0.00    -0.285 OA
ATOM      5  C   UNL     1      15.818  35.647  56.644  1.00  0.00     0.111 A 
ATOM      6  C   UNL     1      16.026  35.922  55.260  1.00  0.00     0.134 A 
ATOM      7  C   UNL     1      14.937  35.896  54.379  1.00  0.00     0.093 A 
ATOM      8  C   UNL     1      13.640  35.670  54.844  1.00  0.00     0.123 A 
ATOM      9  C   UNL     1      13.418  35.458  56.203  1.00  0.00     0.094 A 
ATOM     10  C   UNL     1      14.488  35.441  57.101  1.00  0.00     0.146 A 
ATOM     11  O   UNL     1      14.235  35.225  58.386  1.00  0.00    -0.451 OA
ENDROOT
BRANCH   1  12
ATOM     12  C   UNL     1      14.774  34.940  60.718  1.00  0.00     0.063 A 
ATOM     13  C   UNL     1      14.854  35.644  63.044  1.00  0.00     0.047 A 
ATOM     14  C   UNL     1      15.216  35.833  61.708  1.00  0.00     0.020 A 
ATOM     15  C   UNL     1      14.058  34.555  63.410  1.00  0.00     0.119 A 
ATOM     16  C   UNL     1      13.631  33.645  62.434  1.00  0.00     0.093 A 
ATOM     17  C   UNL     1      13.995  33.825  61.090  1.00  0.00     0.130 A 
BRANCH  15  18
ATOM     18  O   UNL     1      13.702  34.382  64.746  1.00  0.00    -0.508 OA
ATOM     19  H   UNL     1      12.927  34.892  65.157  1.00  0.00     0.293 HD
ENDBRANCH  15  18
BRANCH  17  20
ATOM     20  O   UNL     1      13.605  32.886  60.135  1.00  0.00    -0.507 OA
ATOM     21  H   UNL     1      14.202  32.109  59.879  1.00  0.00     0.293 HD
ENDBRANCH  17  20
ENDBRANCH   1  12
BRANCH   2  22
ATOM     22  O   UNL     1      17.532  35.141  59.914  1.00  0.00    -0.502 OA
ATOM     23  H   UNL     1      17.851  34.234  60.232  1.00  0.00     0.293 HD
ENDBRANCH   2  22
BRANCH   6  24
ATOM     24  O   UNL     1      17.267  36.252  54.707  1.00  0.00    -0.507 OA
ATOM     25  H   UNL     1      17.404  36.901  53.946  1.00  0.00     0.293 HD
ENDBRANCH   6  24
BRANCH   8  26
ATOM     26  O   UNL     1      12.561  35.662  53.963  1.00  0.00    -0.508 OA
ATOM     27  H   UNL     1      11.629  35.924  54.263  1.00  0.00     0.293 HD
ENDBRANCH   8  26
TORSDOF 6
ENDMDL
MODEL 8
REMARK VINA RESULT:    -6.860      3.642      6.766
REMARK INTER + INTRA:          -8.672
REMARK INTER:                  -8.472
REMARK INTRA:                  -0.201
REMARK UNBOUND:                -0.408
REMARK SMILES O=c1c(O)c(-c2ccc(O)cc2O)oc2cc(O)cc(O)c12
REMARK SMILES IDX 5 1 3 2 2 3 1 4 22 5 20 6 19 7 17 8 16 9 15 10 14 11 6 12
REMARK SMILES IDX 8 13 7 14 9 15 11 16 12 17 10 18 13 20 4 22 21 24 18 26
REMARK H PARENT 10 19 13 21 4 23 21 25 18 27
REMARK Flexibility Score: inf
ROOT
ATOM      1  C   UNL     1      15.688  35.653  57.456  1.00  0.00     0.184 A 
ATOM      2  C   UNL     1      16.289  36.614  58.283  1.00  0.00     0.208 A 
ATOM      3  C   UNL     1      15.981  36.621  59.653  1.00  0.00     0.238 A 
ATOM      4  O   UNL     1      16.481  37.519  60.380  1.00  0.00    -0.285 OA
ATOM      5  C   UNL     1      15.088  35.656  60.178  1.00  0.00     0.111 A 
ATOM      6  C   UNL     1      14.734  35.544  61.556  1.00  0.00     0.134 A 
ATOM      7  C   UNL     1      13.742  34.635  61.943  1.00  0.00     0.093 A 
ATOM      8  C   UNL     1      13.138  33.788  61.011  1.00  0.00     0.123 A 
ATOM      9  C   UNL     1      13.518  33.848  59.672  1.00  0.00     0.094 A 
ATOM     10  C   UNL     1      14.479  34.770  59.249  1.00  0.00     0.146 A 
ATOM     11  O   UNL     1      14.804  34.802  57.963  1.00  0.00    -0.451 OA
ENDROOT
BRANCH   1  12
ATOM     12  C   UNL     1      15.983  35.580  56.009  1.00  0.00     0.063 A 
ATOM     13  C   UNL     1      17.636  35.511  54.228  1.00  0.00     0.047 A 
ATOM     14  C   UNL     1      17.322  35.575  55.587  1.00  0.00     0.020 A 
ATOM     15  C   UNL     1      16.617  35.468  53.272  1.00  0.00     0.119 A 
ATOM     16  C   UNL     1      15.277  35.496  53.681  1.00  0.00     0.093 A 
ATOM     17  C   UNL     1      14.954  35.565  55.045  1.00  0.00     0.130 A 
BRANCH  15  18
ATOM     18  O   UNL     1      16.946  35.400  51.919  1.00  0.00    -0.508 OA
ATOM     19  H   UNL     1      16.820  34.547  51.386  1.00  0.00     0.293 HD
ENDBRANCH  15  18
BRANCH  17  20
ATOM     20  O   UNL     1      13.618  35.642  55.437  1.00  0.00    -0.507 OA
ATOM     21  H   UNL     1      13.354  35.767  56.407  1.00  0.00     0.293 HD
ENDBRANCH  17  20
ENDBRANCH   1  12
BRANCH   2  22
ATOM     22  O   UNL     1      17.152  37.567  57.735  1.00  0.00    -0.502 OA
ATOM     23  H   UNL     1      17.055  37.906  56.786  1.00  0.00     0.293 HD
ENDBRANCH   2  22
BRANCH   6  24
ATOM     24  O   UNL     1      15.342  36.277  62.580  1.00  0.00    -0.507 OA
ATOM     25  H   UNL     1      15.247  37.273  62.708  1.00  0.00     0.293 HD
ENDBRANCH   6  24
BRANCH   8  26
ATOM     26  O   UNL     1      12.163  32.875  61.408  1.00  0.00    -0.508 OA
ATOM     27  H   UNL     1      12.300  31.876  61.309  1.00  0.00     0.293 HD
ENDBRANCH   8  26
TORSDOF 6
ENDMDL
MODEL 9
REMARK VINA RESULT:    -6.860      2.562      6.827
REMARK INTER + INTRA:          -8.672
REMARK INTER:                  -8.322
REMARK INTRA:                  -0.351
REMARK UNBOUND:                -0.408
REMARK SMILES O=c1c(O)c(-c2ccc(O)cc2O)oc2cc(O)cc(O)c12
REMARK SMILES IDX 5 1 3 2 2 3 1 4 22 5 20 6 19 7 17 8 16 9 15 10 14 11 6 12
REMARK SMILES IDX 8 13 7 14 9 15 11 16 12 17 10 18 13 20 4 22 21 24 18 26
REMARK H PARENT 10 19 13 21 4 23 21 25 18 27
REMARK Flexibility Score: inf
ROOT
ATOM      1  C   UNL     1      13.622  35.512  55.653  1.00  0.00     0.184 A 
ATOM      2  C   UNL     1      12.326  35.968  55.366  1.00  0.00     0.208 A 
ATOM      3  C   UNL     1      11.386  36.044  56.406  1.00  0.00     0.238 A 
ATOM      4  O   UNL     1      10.211  36.402  56.132  1.00  0.00    -0.285 OA
ATOM      5  C   UNL     1      11.760  35.677  57.722  1.00  0.00     0.111 A 
ATOM      6  C   UNL     1      10.902  35.752  58.859  1.00  0.00     0.134 A 
ATOM      7  C   UNL     1      11.337  35.241  60.088  1.00  0.00     0.093 A 
ATOM      8  C   UNL     1      12.624  34.718  60.235  1.00  0.00     0.123 A 
ATOM      9  C   UNL     1      13.491  34.695  59.145  1.00  0.00     0.094 A 
ATOM     10  C   UNL     1      13.073  35.163  57.898  1.00  0.00     0.146 A 
ATOM     11  O   UNL     1      13.927  35.113  56.882  1.00  0.00    -0.451 OA
ENDROOT
BRANCH   1  12
ATOM     12  C   UNL     1      14.665  35.425  54.608  1.00  0.00     0.063 A 
ATOM     13  C   UNL     1      15.448  34.424  52.536  1.00  0.00     0.047 A 
ATOM     14  C   UNL     1      14.481  34.535  53.538  1.00  0.00     0.020 A 
ATOM     15  C   UNL     1      16.616  35.188  52.598  1.00  0.00     0.119 A 
ATOM     16  C   UNL     1      16.820  36.062  53.674  1.00  0.00     0.093 A 
ATOM     17  C   UNL     1      15.855  36.176  54.687  1.00  0.00     0.130 A 
BRANCH  15  18
ATOM     18  O   UNL     1      17.570  35.070  51.589  1.00  0.00    -0.508 OA
ATOM     19  H   UNL     1      18.018  35.885  51.186  1.00  0.00     0.293 HD
ENDBRANCH  15  18
BRANCH  17  20
ATOM     20  O   UNL     1      16.091  37.012  55.778  1.00  0.00    -0.507 OA
ATOM     21  H   UNL     1      16.594  36.690  56.597  1.00  0.00     0.293 HD
ENDBRANCH  17  20
ENDBRANCH   1  12
BRANCH   2  22
ATOM     22  O   UNL     1      11.979  36.306  54.055  1.00  0.00    -0.502 OA
ATOM     23  H   UNL     1      12.510  35.989  53.254  1.00  0.00     0.293 HD
ENDBRANCH   2  22
BRANCH   6  24
ATOM     24  O   UNL     1       9.633  36.339  58.842  1.00  0.00    -0.507 OA
ATOM     25  H   UNL     1       8.950  36.254  59.580  1.00  0.00     0.293 HD
ENDBRANCH   6  24
BRANCH   8  26
ATOM     26  O   UNL     1      13.054  34.227  61.466  1.00  0.00    -0.508 OA
ATOM     27  H   UNL     1      12.850  34.712  62.332  1.00  0.00     0.293 HD
ENDBRANCH   8  26
TORSDOF 6
ENDMDL
