MODEL 1
REMARK VINA RESULT:    -6.593      0.000      0.000
REMARK INTER + INTRA:          -8.004
REMARK INTER:                  -7.749
REMARK INTRA:                  -0.255
REMARK UNBOUND:                -0.255
REMARK SMILES O=c1c(O)c(-c2ccc(O)cc2)oc2cc(O)cc(O)c12
REMARK SMILES IDX 5 1 3 2 2 3 1 4 21 5 19 6 18 7 16 8 15 9 14 10 13 11 6 12
REMARK SMILES IDX 7 13 8 14 9 15 12 16 11 17 10 18 4 20 20 22 17 24
REMARK H PARENT 10 19 4 21 20 23 17 25
REMARK Flexibility Score: inf
ROOT
ATOM      1  C   UNL     1      20.558  49.668  45.921  1.00  0.00     0.180 A 
ATOM      2  C   UNL     1      19.562  50.497  45.374  1.00  0.00     0.208 A 
ATOM      3  C   UNL     1      18.754  49.999  44.340  1.00  0.00     0.238 A 
ATOM      4  O   UNL     1      17.916  50.771  43.806  1.00  0.00    -0.285 OA
ATOM      5  C   UNL     1      18.912  48.662  43.902  1.00  0.00     0.111 A 
ATOM      6  C   UNL     1      18.118  48.038  42.892  1.00  0.00     0.134 A 
ATOM      7  C   UNL     1      18.436  46.743  42.467  1.00  0.00     0.093 A 
ATOM      8  C   UNL     1      19.475  46.024  43.056  1.00  0.00     0.123 A 
ATOM      9  C   UNL     1      20.222  46.604  44.082  1.00  0.00     0.094 A 
ATOM     10  C   UNL     1      19.955  47.908  44.502  1.00  0.00     0.146 A 
ATOM     11  O   UNL     1      20.705  48.430  45.467  1.00  0.00    -0.452 OA
ENDROOT
BRANCH   1  12
ATOM     12  C   UNL     1      21.459  50.126  47.002  1.00  0.00     0.021 A 
ATOM     13  C   UNL     1      22.789  50.504  46.739  1.00  0.00     0.016 A 
ATOM     14  C   UNL     1      23.627  50.911  47.781  1.00  0.00     0.047 A 
ATOM     15  C   UNL     1      23.156  50.930  49.098  1.00  0.00     0.115 A 
ATOM     16  C   UNL     1      20.999  50.128  48.330  1.00  0.00     0.016 A 
ATOM     17  C   UNL     1      21.840  50.535  49.370  1.00  0.00     0.047 A 
BRANCH  15  18
ATOM     18  O   UNL     1      24.003  51.338  50.125  1.00  0.00    -0.508 OA
ATOM     19  H   UNL     1      23.737  51.244  51.099  1.00  0.00     0.293 HD
ENDBRANCH  15  18
ENDBRANCH   1  12
BRANCH   2  20
ATOM     20  O   UNL     1      19.371  51.789  45.873  1.00  0.00    -0.502 OA
ATOM     21  H   UNL     1      20.003  52.552  45.662  1.00  0.00     0.293 HD
ENDBRANCH   2  20
BRANCH   6  22
ATOM     22  O   UNL     1      17.001  48.631  42.297  1.00  0.00    -0.507 OA
ATOM     23  H   UNL     1      16.971  49.571  41.933  1.00  0.00     0.293 HD
ENDBRANCH   6  22
BRANCH   8  24
ATOM     24  O   UNL     1      19.751  44.731  42.619  1.00  0.00    -0.508 OA
ATOM     25  H   UNL     1      20.456  44.548  41.914  1.00  0.00     0.293 HD
ENDBRANCH   8  24
TORSDOF 5
ENDMDL
MODEL 2
REMARK VINA RESULT:    -6.499      1.967      4.073
REMARK INTER + INTRA:          -7.894
REMARK INTER:                  -7.735
REMARK INTRA:                  -0.159
REMARK UNBOUND:                -0.255
REMARK SMILES O=c1c(O)c(-c2ccc(O)cc2)oc2cc(O)cc(O)c12
REMARK SMILES IDX 5 1 3 2 2 3 1 4 21 5 19 6 18 7 16 8 15 9 14 10 13 11 6 12
REMARK SMILES IDX 7 13 8 14 9 15 12 16 11 17 10 18 4 20 20 22 17 24
REMARK H PARENT 10 19 4 21 20 23 17 25
REMARK Flexibility Score: inf
ROOT
ATOM      1  C   UNL     1      19.830  48.283  43.749  1.00  0.00     0.180 A 
ATOM      2  C   UNL     1      20.017  46.990  43.230  1.00  0.00     0.208 A 
ATOM      3  C   UNL     1      19.037  46.448  42.383  1.00  0.00     0.238 A 
ATOM      4  O   UNL     1      19.176  45.262  41.983  1.00  0.00    -0.285 OA
ATOM      5  C   UNL     1      17.911  47.224  42.019  1.00  0.00     0.111 A 
ATOM      6  C   UNL     1      16.878  46.792  41.132  1.00  0.00     0.134 A 
ATOM      7  C   UNL     1      15.757  47.606  40.930  1.00  0.00     0.093 A 
ATOM      8  C   UNL     1      15.659  48.861  41.530  1.00  0.00     0.123 A 
ATOM      9  C   UNL     1      16.688  49.316  42.355  1.00  0.00     0.094 A 
ATOM     10  C   UNL     1      17.801  48.512  42.607  1.00  0.00     0.146 A 
ATOM     11  O   UNL     1      18.747  48.974  43.417  1.00  0.00    -0.452 OA
ENDROOT
BRANCH   1  12
ATOM     12  C   UNL     1      20.811  48.917  44.660  1.00  0.00     0.021 A 
ATOM     13  C   UNL     1      20.490  49.200  46.000  1.00  0.00     0.016 A 
ATOM     14  C   UNL     1      21.425  49.821  46.834  1.00  0.00     0.047 A 
ATOM     15  C   UNL     1      22.682  50.181  46.338  1.00  0.00     0.115 A 
ATOM     16  C   UNL     1      22.068  49.299  44.162  1.00  0.00     0.016 A 
ATOM     17  C   UNL     1      23.001  49.920  44.999  1.00  0.00     0.047 A 
BRANCH  15  18
ATOM     18  O   UNL     1      23.603  50.797  47.181  1.00  0.00    -0.508 OA
ATOM     19  H   UNL     1      23.755  50.471  48.129  1.00  0.00     0.293 HD
ENDBRANCH  15  18
ENDBRANCH   1  12
BRANCH   2  20
ATOM     20  O   UNL     1      21.174  46.268  43.539  1.00  0.00    -0.502 OA
ATOM     21  H   UNL     1      21.844  46.585  44.230  1.00  0.00     0.293 HD
ENDBRANCH   2  20
BRANCH   6  22
ATOM     22  O   UNL     1      16.915  45.595  40.411  1.00  0.00    -0.507 OA
ATOM     23  H   UNL     1      16.142  44.954  40.315  1.00  0.00     0.293 HD
ENDBRANCH   6  22
BRANCH   8  24
ATOM     24  O   UNL     1      14.537  49.651  41.292  1.00  0.00    -0.508 OA
ATOM     25  H   UNL     1      14.278  49.935  40.354  1.00  0.00     0.293 HD
ENDBRANCH   8  24
TORSDOF 5
ENDMDL
MODEL 3
REMARK VINA RESULT:    -6.356      1.384      1.817
REMARK INTER + INTRA:          -7.726
REMARK INTER:                  -7.617
REMARK INTRA:                  -0.109
REMARK UNBOUND:                -0.255
REMARK SMILES O=c1c(O)c(-c2ccc(O)cc2)oc2cc(O)cc(O)c12
REMARK SMILES IDX 5 1 3 2 2 3 1 4 21 5 19 6 18 7 16 8 15 9 14 10 13 11 6 12
REMARK SMILES IDX 7 13 8 14 9 15 12 16 11 17 10 18 4 20 20 22 17 24
REMARK H PARENT 10 19 4 21 20 23 17 25
REMARK Flexibility Score: inf
ROOT
ATOM      1  C   UNL     1      19.981  49.176  44.315  1.00  0.00     0.180 A 
ATOM      2  C   UNL     1      18.918  49.998  43.898  1.00  0.00     0.208 A 
ATOM      3  C   UNL     1      17.964  49.477  43.009  1.00  0.00     0.238 A 
ATOM      4  O   UNL     1      17.059  50.241  42.583  1.00  0.00    -0.285 OA
ATOM      5  C   UNL     1      18.051  48.128  42.590  1.00  0.00     0.111 A 
ATOM      6  C   UNL     1      17.115  47.483  41.726  1.00  0.00     0.134 A 
ATOM      7  C   UNL     1      17.362  46.174  41.294  1.00  0.00     0.093 A 
ATOM      8  C   UNL     1      18.475  45.464  41.743  1.00  0.00     0.123 A 
ATOM      9  C   UNL     1      19.367  46.066  42.631  1.00  0.00     0.094 A 
ATOM     10  C   UNL     1      19.169  47.383  43.050  1.00  0.00     0.146 A 
ATOM     11  O   UNL     1      20.055  47.925  43.878  1.00  0.00    -0.452 OA
ENDROOT
BRANCH   1  12
ATOM     12  C   UNL     1      21.033  49.657  45.239  1.00  0.00     0.021 A 
ATOM     13  C   UNL     1      22.384  49.710  44.847  1.00  0.00     0.016 A 
ATOM     14  C   UNL     1      23.363  50.146  45.747  1.00  0.00     0.047 A 
ATOM     15  C   UNL     1      23.009  50.516  47.047  1.00  0.00     0.115 A 
ATOM     16  C   UNL     1      20.688  50.012  46.553  1.00  0.00     0.016 A 
ATOM     17  C   UNL     1      21.669  50.446  47.450  1.00  0.00     0.047 A 
BRANCH  15  18
ATOM     18  O   UNL     1      23.995  50.949  47.931  1.00  0.00    -0.508 OA
ATOM     19  H   UNL     1      23.802  51.077  48.918  1.00  0.00     0.293 HD
ENDBRANCH  15  18
ENDBRANCH   1  12
BRANCH   2  20
ATOM     20  O   UNL     1      18.806  51.304  44.384  1.00  0.00    -0.502 OA
ATOM     21  H   UNL     1      18.838  51.520  45.372  1.00  0.00     0.293 HD
ENDBRANCH   2  20
BRANCH   6  22
ATOM     22  O   UNL     1      15.924  48.068  41.286  1.00  0.00    -0.507 OA
ATOM     23  H   UNL     1      15.200  47.588  40.772  1.00  0.00     0.293 HD
ENDBRANCH   6  22
BRANCH   8  24
ATOM     24  O   UNL     1      18.680  44.158  41.307  1.00  0.00    -0.508 OA
ATOM     25  H   UNL     1      19.605  43.746  41.281  1.00  0.00     0.293 HD
ENDBRANCH   8  24
TORSDOF 5
ENDMDL
MODEL 4
REMARK VINA RESULT:    -6.183      2.295      3.069
REMARK INTER + INTRA:          -7.523
REMARK INTER:                  -7.377
REMARK INTRA:                  -0.146
REMARK UNBOUND:                -0.255
REMARK SMILES O=c1c(O)c(-c2ccc(O)cc2)oc2cc(O)cc(O)c12
REMARK SMILES IDX 5 1 3 2 2 3 1 4 21 5 19 6 18 7 16 8 15 9 14 10 13 11 6 12
REMARK SMILES IDX 7 13 8 14 9 15 12 16 11 17 10 18 4 20 20 22 17 24
REMARK H PARENT 10 19 4 21 20 23 17 25
REMARK Flexibility Score: inf
ROOT
ATOM      1  C   UNL     1      20.993  50.170  47.604  1.00  0.00     0.180 A 
ATOM      2  C   UNL     1      20.016  49.501  48.363  1.00  0.00     0.208 A 
ATOM      3  C   UNL     1      19.309  48.438  47.777  1.00  0.00     0.238 A 
ATOM      4  O   UNL     1      18.386  47.893  48.437  1.00  0.00    -0.285 OA
ATOM      5  C   UNL     1      19.624  48.020  46.462  1.00  0.00     0.111 A 
ATOM      6  C   UNL     1      19.003  46.927  45.785  1.00  0.00     0.134 A 
ATOM      7  C   UNL     1      19.321  46.673  44.446  1.00  0.00     0.093 A 
ATOM      8  C   UNL     1      20.283  47.430  43.777  1.00  0.00     0.123 A 
ATOM      9  C   UNL     1      20.936  48.466  44.445  1.00  0.00     0.094 A 
ATOM     10  C   UNL     1      20.613  48.769  45.770  1.00  0.00     0.146 A 
ATOM     11  O   UNL     1      21.243  49.777  46.361  1.00  0.00    -0.452 OA
ENDROOT
BRANCH   1  12
ATOM     12  C   UNL     1      21.769  51.308  48.146  1.00  0.00     0.021 A 
ATOM     13  C   UNL     1      21.144  52.515  48.510  1.00  0.00     0.016 A 
ATOM     14  C   UNL     1      21.903  53.584  48.997  1.00  0.00     0.047 A 
ATOM     15  C   UNL     1      23.291  53.468  49.112  1.00  0.00     0.115 A 
ATOM     16  C   UNL     1      23.167  51.205  48.244  1.00  0.00     0.016 A 
ATOM     17  C   UNL     1      23.922  52.276  48.732  1.00  0.00     0.047 A 
BRANCH  15  18
ATOM     18  O   UNL     1      24.033  54.541  49.599  1.00  0.00    -0.508 OA
ATOM     19  H   UNL     1      24.520  54.488  50.488  1.00  0.00     0.293 HD
ENDBRANCH  15  18
ENDBRANCH   1  12
BRANCH   2  20
ATOM     20  O   UNL     1      19.773  49.878  49.687  1.00  0.00    -0.502 OA
ATOM     21  H   UNL     1      18.845  49.874  50.091  1.00  0.00     0.293 HD
ENDBRANCH   2  20
BRANCH   6  22
ATOM     22  O   UNL     1      18.093  46.051  46.384  1.00  0.00    -0.507 OA
ATOM     23  H   UNL     1      17.849  46.052  47.363  1.00  0.00     0.293 HD
ENDBRANCH   6  22
BRANCH   8  24
ATOM     24  O   UNL     1      20.587  47.137  42.450  1.00  0.00    -0.508 OA
ATOM     25  H   UNL     1      19.866  46.890  41.782  1.00  0.00     0.293 HD
ENDBRANCH   8  24
TORSDOF 5
ENDMDL
MODEL 5
REMARK VINA RESULT:    -6.101      1.836      6.675
REMARK INTER + INTRA:          -7.427
REMARK INTER:                  -7.264
REMARK INTRA:                  -0.162
REMARK UNBOUND:                -0.255
REMARK SMILES O=c1c(O)c(-c2ccc(O)cc2)oc2cc(O)cc(O)c12
REMARK SMILES IDX 5 1 3 2 2 3 1 4 21 5 19 6 18 7 16 8 15 9 14 10 13 11 6 12
REMARK SMILES IDX 7 13 8 14 9 15 12 16 11 17 10 18 4 20 20 22 17 24
REMARK H PARENT 10 19 4 21 20 23 17 25
REMARK Flexibility Score: inf
ROOT
ATOM      1  C   UNL     1      20.378  48.719  45.991  1.00  0.00     0.180 A 
ATOM      2  C   UNL     1      19.364  49.007  46.922  1.00  0.00     0.208 A 
ATOM      3  C   UNL     1      19.637  49.899  47.972  1.00  0.00     0.238 A 
ATOM      4  O   UNL     1      18.749  50.093  48.843  1.00  0.00    -0.285 OA
ATOM      5  C   UNL     1      20.899  50.535  48.048  1.00  0.00     0.111 A 
ATOM      6  C   UNL     1      21.270  51.490  49.043  1.00  0.00     0.134 A 
ATOM      7  C   UNL     1      22.583  51.973  49.081  1.00  0.00     0.093 A 
ATOM      8  C   UNL     1      23.522  51.587  48.125  1.00  0.00     0.123 A 
ATOM      9  C   UNL     1      23.155  50.697  47.115  1.00  0.00     0.094 A 
ATOM     10  C   UNL     1      21.863  50.167  47.073  1.00  0.00     0.146 A 
ATOM     11  O   UNL     1      21.563  49.306  46.107  1.00  0.00    -0.452 OA
ENDROOT
BRANCH   1  12
ATOM     12  C   UNL     1      20.172  47.779  44.866  1.00  0.00     0.021 A 
ATOM     13  C   UNL     1      19.285  48.076  43.815  1.00  0.00     0.016 A 
ATOM     14  C   UNL     1      19.090  47.161  42.775  1.00  0.00     0.047 A 
ATOM     15  C   UNL     1      19.763  45.936  42.780  1.00  0.00     0.115 A 
ATOM     16  C   UNL     1      20.830  46.538  44.875  1.00  0.00     0.016 A 
ATOM     17  C   UNL     1      20.633  45.626  43.834  1.00  0.00     0.047 A 
BRANCH  15  18
ATOM     18  O   UNL     1      19.560  45.036  41.737  1.00  0.00    -0.508 OA
ATOM     19  H   UNL     1      20.000  45.165  40.833  1.00  0.00     0.293 HD
ENDBRANCH  15  18
ENDBRANCH   1  12
BRANCH   2  20
ATOM     20  O   UNL     1      18.099  48.428  46.786  1.00  0.00    -0.502 OA
ATOM     21  H   UNL     1      17.248  48.918  47.031  1.00  0.00     0.293 HD
ENDBRANCH   2  20
BRANCH   6  22
ATOM     22  O   UNL     1      20.388  52.011  49.994  1.00  0.00    -0.507 OA
ATOM     23  H   UNL     1      20.377  52.970  50.307  1.00  0.00     0.293 HD
ENDBRANCH   6  22
BRANCH   8  24
ATOM     24  O   UNL     1      24.814  52.102  48.183  1.00  0.00    -0.508 OA
ATOM     25  H   UNL     1      25.092  52.901  47.625  1.00  0.00     0.293 HD
ENDBRANCH   8  24
TORSDOF 5
ENDMDL
MODEL 6
REMARK VINA RESULT:    -6.101      4.250      7.081
REMARK INTER + INTRA:          -7.426
REMARK INTER:                  -7.196
REMARK INTRA:                  -0.230
REMARK UNBOUND:                -0.255
REMARK SMILES O=c1c(O)c(-c2ccc(O)cc2)oc2cc(O)cc(O)c12
REMARK SMILES IDX 5 1 3 2 2 3 1 4 21 5 19 6 18 7 16 8 15 9 14 10 13 11 6 12
REMARK SMILES IDX 7 13 8 14 9 15 12 16 11 17 10 18 4 20 20 22 17 24
REMARK H PARENT 10 19 4 21 20 23 17 25
REMARK Flexibility Score: inf
ROOT
ATOM      1  C   UNL     1      18.053  45.835  40.927  1.00  0.00     0.180 A 
ATOM      2  C   UNL     1      16.780  45.241  40.993  1.00  0.00     0.208 A 
ATOM      3  C   UNL     1      16.178  44.788  39.808  1.00  0.00     0.238 A 
ATOM      4  O   UNL     1      15.009  44.326  39.865  1.00  0.00    -0.285 OA
ATOM      5  C   UNL     1      16.877  44.884  38.580  1.00  0.00     0.111 A 
ATOM      6  C   UNL     1      16.381  44.417  37.325  1.00  0.00     0.134 A 
ATOM      7  C   UNL     1      17.116  44.663  36.158  1.00  0.00     0.093 A 
ATOM      8  C   UNL     1      18.356  45.300  36.207  1.00  0.00     0.123 A 
ATOM      9  C   UNL     1      18.875  45.711  37.435  1.00  0.00     0.094 A 
ATOM     10  C   UNL     1      18.148  45.515  38.612  1.00  0.00     0.146 A 
ATOM     11  O   UNL     1      18.669  45.942  39.757  1.00  0.00    -0.452 OA
ENDROOT
BRANCH   1  12
ATOM     12  C   UNL     1      18.746  46.350  42.130  1.00  0.00     0.021 A 
ATOM     13  C   UNL     1      18.334  47.537  42.763  1.00  0.00     0.016 A 
ATOM     14  C   UNL     1      19.020  48.014  43.884  1.00  0.00     0.047 A 
ATOM     15  C   UNL     1      20.132  47.325  44.376  1.00  0.00     0.115 A 
ATOM     16  C   UNL     1      19.877  45.673  42.618  1.00  0.00     0.016 A 
ATOM     17  C   UNL     1      20.561  46.153  43.738  1.00  0.00     0.047 A 
BRANCH  15  18
ATOM     18  O   UNL     1      20.804  47.813  45.494  1.00  0.00    -0.508 OA
ATOM     19  H   UNL     1      21.564  48.479  45.406  1.00  0.00     0.293 HD
ENDBRANCH  15  18
ENDBRANCH   1  12
BRANCH   2  20
ATOM     20  O   UNL     1      16.140  45.085  42.226  1.00  0.00    -0.502 OA
ATOM     21  H   UNL     1      15.598  45.826  42.654  1.00  0.00     0.293 HD
ENDBRANCH   2  20
BRANCH   6  22
ATOM     22  O   UNL     1      15.196  43.692  37.172  1.00  0.00    -0.507 OA
ATOM     23  H   UNL     1      14.555  43.790  36.399  1.00  0.00     0.293 HD
ENDBRANCH   6  22
BRANCH   8  24
ATOM     24  O   UNL     1      19.067  45.511  35.029  1.00  0.00    -0.508 OA
ATOM     25  H   UNL     1      19.899  46.089  35.008  1.00  0.00     0.293 HD
ENDBRANCH   8  24
TORSDOF 5
ENDMDL
MODEL 7
REMARK VINA RESULT:    -6.063      3.849      8.489
REMARK INTER + INTRA:          -7.381
REMARK INTER:                  -7.149
REMARK INTRA:                  -0.232
REMARK UNBOUND:                -0.255
REMARK SMILES O=c1c(O)c(-c2ccc(O)cc2)oc2cc(O)cc(O)c12
REMARK SMILES IDX 5 1 3 2 2 3 1 4 21 5 19 6 18 7 16 8 15 9 14 10 13 11 6 12
REMARK SMILES IDX 7 13 8 14 9 15 12 16 11 17 10 18 4 20 20 22 17 24
REMARK H PARENT 10 19 4 21 20 23 17 25
REMARK Flexibility Score: inf
ROOT
ATOM      1  C   UNL     1      18.056  46.141  40.648  1.00  0.00     0.180 A 
ATOM      2  C   UNL     1      17.260  47.089  41.315  1.00  0.00     0.208 A 
ATOM      3  C   UNL     1      17.588  47.447  42.633  1.00  0.00     0.238 A 
ATOM      4  O   UNL     1      16.828  48.239  43.249  1.00  0.00    -0.285 OA
ATOM      5  C   UNL     1      18.737  46.896  43.249  1.00  0.00     0.111 A 
ATOM      6  C   UNL     1      19.189  47.220  44.564  1.00  0.00     0.134 A 
ATOM      7  C   UNL     1      20.280  46.531  45.109  1.00  0.00     0.093 A 
ATOM      8  C   UNL     1      20.975  45.578  44.366  1.00  0.00     0.123 A 
ATOM      9  C   UNL     1      20.576  45.293  43.060  1.00  0.00     0.094 A 
ATOM     10  C   UNL     1      19.468  45.934  42.502  1.00  0.00     0.146 A 
ATOM     11  O   UNL     1      19.109  45.617  41.263  1.00  0.00    -0.452 OA
ENDROOT
BRANCH   1  12
ATOM     12  C   UNL     1      17.767  45.703  39.264  1.00  0.00     0.021 A 
ATOM     13  C   UNL     1      16.690  44.844  38.977  1.00  0.00     0.016 A 
ATOM     14  C   UNL     1      16.451  44.425  37.664  1.00  0.00     0.047 A 
ATOM     15  C   UNL     1      17.291  44.843  36.627  1.00  0.00     0.115 A 
ATOM     16  C   UNL     1      18.618  46.103  38.221  1.00  0.00     0.016 A 
ATOM     17  C   UNL     1      18.377  45.682  36.909  1.00  0.00     0.047 A 
BRANCH  15  18
ATOM     18  O   UNL     1      17.040  44.418  35.326  1.00  0.00    -0.508 OA
ATOM     19  H   UNL     1      16.243  44.762  34.801  1.00  0.00     0.293 HD
ENDBRANCH  15  18
ENDBRANCH   1  12
BRANCH   2  20
ATOM     20  O   UNL     1      16.174  47.680  40.663  1.00  0.00    -0.502 OA
ATOM     21  H   UNL     1      15.983  47.529  39.680  1.00  0.00     0.293 HD
ENDBRANCH   2  20
BRANCH   6  22
ATOM     22  O   UNL     1      18.624  48.218  45.362  1.00  0.00    -0.507 OA
ATOM     23  H   UNL     1      18.646  49.206  45.156  1.00  0.00     0.293 HD
ENDBRANCH   6  22
BRANCH   8  24
ATOM     24  O   UNL     1      22.067  44.926  44.933  1.00  0.00    -0.508 OA
ATOM     25  H   UNL     1      22.449  45.212  45.827  1.00  0.00     0.293 HD
ENDBRANCH   8  24
TORSDOF 5
ENDMDL
MODEL 8
REMARK VINA RESULT:    -5.948      3.019      6.424
REMARK INTER + INTRA:          -7.246
REMARK INTER:                  -6.980
REMARK INTRA:                  -0.266
REMARK UNBOUND:                -0.255
REMARK SMILES O=c1c(O)c(-c2ccc(O)cc2)oc2cc(O)cc(O)c12
REMARK SMILES IDX 5 1 3 2 2 3 1 4 21 5 19 6 18 7 16 8 15 9 14 10 13 11 6 12
REMARK SMILES IDX 7 13 8 14 9 15 12 16 11 17 10 18 4 20 20 22 17 24
REMARK H PARENT 10 19 4 21 20 23 17 25
REMARK Flexibility Score: inf
ROOT
ATOM      1  C   UNL     1      17.016  48.706  44.739  1.00  0.00     0.180 A 
ATOM      2  C   UNL     1      17.711  49.753  45.369  1.00  0.00     0.208 A 
ATOM      3  C   UNL     1      19.107  49.665  45.495  1.00  0.00     0.238 A 
ATOM      4  O   UNL     1      19.713  50.570  46.126  1.00  0.00    -0.285 OA
ATOM      5  C   UNL     1      19.797  48.560  44.941  1.00  0.00     0.111 A 
ATOM      6  C   UNL     1      21.215  48.390  44.970  1.00  0.00     0.134 A 
ATOM      7  C   UNL     1      21.778  47.203  44.484  1.00  0.00     0.093 A 
ATOM      8  C   UNL     1      20.984  46.210  43.912  1.00  0.00     0.123 A 
ATOM      9  C   UNL     1      19.603  46.390  43.828  1.00  0.00     0.094 A 
ATOM     10  C   UNL     1      19.007  47.545  44.339  1.00  0.00     0.146 A 
ATOM     11  O   UNL     1      17.687  47.666  44.259  1.00  0.00    -0.452 OA
ENDROOT
BRANCH   1  12
ATOM     12  C   UNL     1      15.544  48.718  44.581  1.00  0.00     0.021 A 
ATOM     13  C   UNL     1      14.708  47.975  45.435  1.00  0.00     0.016 A 
ATOM     14  C   UNL     1      13.322  47.985  45.251  1.00  0.00     0.047 A 
ATOM     15  C   UNL     1      12.755  48.722  44.206  1.00  0.00     0.115 A 
ATOM     16  C   UNL     1      14.969  49.440  43.521  1.00  0.00     0.016 A 
ATOM     17  C   UNL     1      13.583  49.448  43.340  1.00  0.00     0.047 A 
BRANCH  15  18
ATOM     18  O   UNL     1      11.373  48.722  44.036  1.00  0.00    -0.508 OA
ATOM     19  H   UNL     1      10.743  48.801  44.827  1.00  0.00     0.293 HD
ENDBRANCH  15  18
ENDBRANCH   1  12
BRANCH   2  20
ATOM     20  O   UNL     1      17.019  50.872  45.841  1.00  0.00    -0.502 OA
ATOM     21  H   UNL     1      16.855  51.034  46.827  1.00  0.00     0.293 HD
ENDBRANCH   2  20
BRANCH   6  22
ATOM     22  O   UNL     1      22.110  49.356  45.439  1.00  0.00    -0.507 OA
ATOM     23  H   UNL     1      21.897  50.335  45.550  1.00  0.00     0.293 HD
ENDBRANCH   6  22
BRANCH   8  24
ATOM     24  O   UNL     1      21.580  45.051  43.422  1.00  0.00    -0.508 OA
ATOM     25  H   UNL     1      21.130  44.481  42.716  1.00  0.00     0.293 HD
ENDBRANCH   8  24
TORSDOF 5
ENDMDL
MODEL 9
REMARK VINA RESULT:    -5.935      3.357      4.796
REMARK INTER + INTRA:          -7.231
REMARK INTER:                  -7.065
REMARK INTRA:                  -0.166
REMARK UNBOUND:                -0.255
REMARK SMILES O=c1c(O)c(-c2ccc(O)cc2)oc2cc(O)cc(O)c12
REMARK SMILES IDX 5 1 3 2 2 3 1 4 21 5 19 6 18 7 16 8 15 9 14 10 13 11 6 12
REMARK SMILES IDX 7 13 8 14 9 15 12 16 11 17 10 18 4 20 20 22 17 24
REMARK H PARENT 10 19 4 21 20 23 17 25
REMARK Flexibility Score: inf
ROOT
ATOM      1  C   UNL     1      17.726  49.218  44.240  1.00  0.00     0.180 A 
ATOM      2  C   UNL     1      17.145  49.654  43.035  1.00  0.00     0.208 A 
ATOM      3  C   UNL     1      15.754  49.545  42.871  1.00  0.00     0.238 A 
ATOM      4  O   UNL     1      15.251  49.867  41.764  1.00  0.00    -0.285 OA
ATOM      5  C   UNL     1      14.955  49.053  43.932  1.00  0.00     0.111 A 
ATOM      6  C   UNL     1      13.532  48.941  43.892  1.00  0.00     0.134 A 
ATOM      7  C   UNL     1      12.857  48.341  44.962  1.00  0.00     0.093 A 
ATOM      8  C   UNL     1      13.543  47.907  46.096  1.00  0.00     0.123 A 
ATOM      9  C   UNL     1      14.928  48.063  46.168  1.00  0.00     0.094 A 
ATOM     10  C   UNL     1      15.634  48.622  45.102  1.00  0.00     0.146 A 
ATOM     11  O   UNL     1      16.954  48.731  45.203  1.00  0.00    -0.452 OA
ENDROOT
BRANCH   1  12
ATOM     12  C   UNL     1      19.185  49.288  44.482  1.00  0.00     0.021 A 
ATOM     13  C   UNL     1      20.090  48.515  43.731  1.00  0.00     0.016 A 
ATOM     14  C   UNL     1      21.462  48.581  43.995  1.00  0.00     0.047 A 
ATOM     15  C   UNL     1      21.944  49.403  45.018  1.00  0.00     0.115 A 
ATOM     16  C   UNL     1      19.674  50.096  45.521  1.00  0.00     0.016 A 
ATOM     17  C   UNL     1      21.046  50.159  45.783  1.00  0.00     0.047 A 
BRANCH  15  18
ATOM     18  O   UNL     1      23.313  49.458  45.268  1.00  0.00    -0.508 OA
ATOM     19  H   UNL     1      23.682  49.919  46.093  1.00  0.00     0.293 HD
ENDBRANCH  15  18
ENDBRANCH   1  12
BRANCH   2  20
ATOM     20  O   UNL     1      17.942  50.208  42.030  1.00  0.00    -0.502 OA
ATOM     21  H   UNL     1      18.942  50.329  42.134  1.00  0.00     0.293 HD
ENDBRANCH   2  20
BRANCH   6  22
ATOM     22  O   UNL     1      12.737  49.421  42.847  1.00  0.00    -0.507 OA
ATOM     23  H   UNL     1      12.228  48.842  42.196  1.00  0.00     0.293 HD
ENDBRANCH   6  22
BRANCH   8  24
ATOM     24  O   UNL     1      12.836  47.331  47.149  1.00  0.00    -0.508 OA
ATOM     25  H   UNL     1      11.834  47.193  47.102  1.00  0.00     0.293 HD
ENDBRANCH   8  24
TORSDOF 5
ENDMDL
