MODEL 1
REMARK VINA RESULT:     3.688      0.000      0.000
REMARK INTER + INTRA:           7.037
REMARK INTER:                   8.001
REMARK INTRA:                  -0.964
REMARK UNBOUND:                -0.964
REMARK SMILES CCCCCCCCCCCCCCCCCCCCCC(=O)[O-]
REMARK SMILES IDX 12 1 11 2 10 3 9 4 8 5 7 6 6 7 5 8 4 9 3 10 2 11 1 12 13 13
REMARK SMILES IDX 14 14 15 15 16 16 17 17 18 18 19 19 20 20 21 21 22 22 23 23
REMARK SMILES IDX 24 24
REMARK H PARENT
REMARK Flexibility Score: inf
ROOT
ATOM      1  C   UNL     1     -26.488  -2.747 -28.197  1.00  0.00     0.000 C 
ENDROOT
BRANCH   1   2
ATOM      2  C   UNL     1     -27.930  -2.752 -28.747  1.00  0.00     0.000 C 
BRANCH   2   3
ATOM      3  C   UNL     1     -29.010  -2.479 -27.679  1.00  0.00     0.000 C 
BRANCH   3   4
ATOM      4  C   UNL     1     -30.384  -3.069 -28.049  1.00  0.00    -0.000 C 
BRANCH   4   5
ATOM      5  C   UNL     1     -31.492  -2.587 -27.092  1.00  0.00    -0.000 C 
BRANCH   5   6
ATOM      6  C   UNL     1     -31.794  -1.088 -27.259  1.00  0.00    -0.000 C 
BRANCH   6   7
ATOM      7  C   UNL     1     -31.340  -0.279 -26.030  1.00  0.00    -0.000 C 
BRANCH   7   8
ATOM      8  C   UNL     1     -31.833   1.179 -26.056  1.00  0.00    -0.000 C 
BRANCH   8   9
ATOM      9  C   UNL     1     -31.036   2.150 -25.166  1.00  0.00    -0.000 C 
BRANCH   9  10
ATOM     10  C   UNL     1     -31.123   3.631 -25.583  1.00  0.00    -0.000 C 
BRANCH  10  11
ATOM     11  C   UNL     1     -30.139   4.018 -26.710  1.00  0.00    -0.003 C 
ATOM     12  C   UNL     1     -30.856   4.443 -27.990  1.00  0.00     0.004 C 
ENDBRANCH  10  11
ENDBRANCH   9  10
ENDBRANCH   8   9
ENDBRANCH   7   8
ENDBRANCH   6   7
ENDBRANCH   5   6
ENDBRANCH   4   5
ENDBRANCH   3   4
ENDBRANCH   2   3
ENDBRANCH   1   2
BRANCH   1  13
ATOM     13  C   UNL     1     -26.351  -3.192 -26.724  1.00  0.00     0.000 C 
BRANCH  13  14
ATOM     14  C   UNL     1     -24.939  -3.634 -26.299  1.00  0.00     0.000 C 
BRANCH  14  15
ATOM     15  C   UNL     1     -23.832  -3.003 -27.159  1.00  0.00     0.000 C 
BRANCH  15  16
ATOM     16  C   UNL     1     -23.529  -1.569 -26.706  1.00  0.00     0.000 C 
BRANCH  16  17
ATOM     17  C   UNL     1     -23.453  -0.582 -27.882  1.00  0.00     0.000 C 
BRANCH  17  18
ATOM     18  C   UNL     1     -22.348   0.475 -27.702  1.00  0.00     0.000 C 
BRANCH  18  19
ATOM     19  C   UNL     1     -22.422   1.155 -26.319  1.00  0.00     0.000 C 
BRANCH  19  20
ATOM     20  C   UNL     1     -21.941   2.618 -26.318  1.00  0.00     0.006 C 
BRANCH  20  21
ATOM     21  C   UNL     1     -20.676   2.867 -27.163  1.00  0.00     0.053 C 
BRANCH  21  22
ATOM     22  C   UNL     1     -20.533   4.301 -27.587  1.00  0.00     0.041 C 
ATOM     23  O   UNL     1     -19.417   4.880 -27.500  1.00  0.00    -0.550 OA
ATOM     24  O   UNL     1     -21.634   5.001 -28.060  1.00  0.00    -0.550 OA
ENDBRANCH  21  22
ENDBRANCH  20  21
ENDBRANCH  19  20
ENDBRANCH  18  19
ENDBRANCH  17  18
ENDBRANCH  16  17
ENDBRANCH  15  16
ENDBRANCH  14  15
ENDBRANCH  13  14
ENDBRANCH   1  13
TORSDOF 20
ENDMDL
MODEL 2
REMARK VINA RESULT:     4.870      2.881      8.432
REMARK INTER + INTRA:           9.599
REMARK INTER:                  10.506
REMARK INTRA:                  -0.906
REMARK UNBOUND:                -0.964
REMARK SMILES CCCCCCCCCCCCCCCCCCCCCC(=O)[O-]
REMARK SMILES IDX 12 1 11 2 10 3 9 4 8 5 7 6 6 7 5 8 4 9 3 10 2 11 1 12 13 13
REMARK SMILES IDX 14 14 15 15 16 16 17 17 18 18 19 19 20 20 21 21 22 22 23 23
REMARK SMILES IDX 24 24
REMARK H PARENT
REMARK Flexibility Score: inf
ROOT
ATOM      1  C   UNL     1     -27.944  -2.481 -27.908  1.00  0.00     0.000 C 
ENDROOT
BRANCH   1   2
ATOM      2  C   UNL     1     -26.441  -2.465 -28.257  1.00  0.00     0.000 C 
BRANCH   2   3
ATOM      3  C   UNL     1     -25.532  -3.028 -27.144  1.00  0.00     0.000 C 
BRANCH   3   4
ATOM      4  C   UNL     1     -24.061  -2.595 -27.292  1.00  0.00    -0.000 C 
BRANCH   4   5
ATOM      5  C   UNL     1     -23.842  -1.138 -26.838  1.00  0.00    -0.000 C 
BRANCH   5   6
ATOM      6  C   UNL     1     -23.296  -0.251 -27.969  1.00  0.00    -0.000 C 
BRANCH   6   7
ATOM      7  C   UNL     1     -21.885   0.275 -27.646  1.00  0.00    -0.000 C 
BRANCH   7   8
ATOM      8  C   UNL     1     -21.823   1.046 -26.315  1.00  0.00    -0.000 C 
BRANCH   8   9
ATOM      9  C   UNL     1     -22.108   2.555 -26.426  1.00  0.00    -0.000 C 
BRANCH   9  10
ATOM     10  C   UNL     1     -21.663   3.203 -27.751  1.00  0.00    -0.000 C 
BRANCH  10  11
ATOM     11  C   UNL     1     -21.044   4.608 -27.578  1.00  0.00    -0.003 C 
ATOM     12  C   UNL     1     -19.519   4.568 -27.500  1.00  0.00     0.004 C 
ENDBRANCH  10  11
ENDBRANCH   9  10
ENDBRANCH   8   9
ENDBRANCH   7   8
ENDBRANCH   6   7
ENDBRANCH   5   6
ENDBRANCH   4   5
ENDBRANCH   3   4
ENDBRANCH   2   3
ENDBRANCH   1   2
BRANCH   1  13
ATOM     13  C   UNL     1     -28.895  -2.516 -29.124  1.00  0.00     0.000 C 
BRANCH  13  14
ATOM     14  C   UNL     1     -30.281  -3.134 -28.858  1.00  0.00     0.000 C 
BRANCH  14  15
ATOM     15  C   UNL     1     -31.214  -2.192 -28.080  1.00  0.00     0.000 C 
BRANCH  15  16
ATOM     16  C   UNL     1     -30.925  -2.245 -26.574  1.00  0.00     0.000 C 
BRANCH  16  17
ATOM     17  C   UNL     1     -31.682  -1.161 -25.789  1.00  0.00     0.000 C 
BRANCH  17  18
ATOM     18  C   UNL     1     -31.638   0.214 -26.479  1.00  0.00     0.000 C 
BRANCH  18  19
ATOM     19  C   UNL     1     -31.200   1.331 -25.508  1.00  0.00     0.000 C 
BRANCH  19  20
ATOM     20  C   UNL     1     -31.936   2.667 -25.724  1.00  0.00     0.006 C 
BRANCH  20  21
ATOM     21  C   UNL     1     -32.075   3.079 -27.203  1.00  0.00     0.053 C 
BRANCH  21  22
ATOM     22  C   UNL     1     -30.890   3.852 -27.706  1.00  0.00     0.041 C 
ATOM     23  O   UNL     1     -29.935   4.125 -26.930  1.00  0.00    -0.550 OA
ATOM     24  O   UNL     1     -30.849   4.286 -29.023  1.00  0.00    -0.550 OA
ENDBRANCH  21  22
ENDBRANCH  20  21
ENDBRANCH  19  20
ENDBRANCH  18  19
ENDBRANCH  17  18
ENDBRANCH  16  17
ENDBRANCH  15  16
ENDBRANCH  14  15
ENDBRANCH  13  14
ENDBRANCH   1  13
TORSDOF 20
ENDMDL
MODEL 3
REMARK VINA RESULT:     4.894      0.968      2.341
REMARK INTER + INTRA:           9.653
REMARK INTER:                  10.103
REMARK INTRA:                  -0.450
REMARK UNBOUND:                -0.964
REMARK SMILES CCCCCCCCCCCCCCCCCCCCCC(=O)[O-]
REMARK SMILES IDX 12 1 11 2 10 3 9 4 8 5 7 6 6 7 5 8 4 9 3 10 2 11 1 12 13 13
REMARK SMILES IDX 14 14 15 15 16 16 17 17 18 18 19 19 20 20 21 21 22 22 23 23
REMARK SMILES IDX 24 24
REMARK H PARENT
REMARK Flexibility Score: inf
ROOT
ATOM      1  C   UNL     1     -29.228  -2.556 -28.014  1.00  0.00     0.000 C 
ENDROOT
BRANCH   1   2
ATOM      2  C   UNL     1     -30.471  -2.672 -28.922  1.00  0.00     0.000 C 
BRANCH   2   3
ATOM      3  C   UNL     1     -31.812  -2.582 -28.164  1.00  0.00     0.000 C 
BRANCH   3   4
ATOM      4  C   UNL     1     -31.963  -1.275 -27.362  1.00  0.00    -0.000 C 
BRANCH   4   5
ATOM      5  C   UNL     1     -31.119  -1.290 -26.073  1.00  0.00    -0.000 C 
BRANCH   5   6
ATOM      6  C   UNL     1     -31.064   0.090 -25.396  1.00  0.00    -0.000 C 
BRANCH   6   7
ATOM      7  C   UNL     1     -31.851   1.144 -26.195  1.00  0.00    -0.000 C 
BRANCH   7   8
ATOM      8  C   UNL     1     -31.787   2.547 -25.562  1.00  0.00    -0.000 C 
BRANCH   8   9
ATOM      9  C   UNL     1     -30.471   3.308 -25.804  1.00  0.00    -0.000 C 
BRANCH   9  10
ATOM     10  C   UNL     1     -30.461   4.203 -27.059  1.00  0.00    -0.000 C 
BRANCH  10  11
ATOM     11  C   UNL     1     -31.869   4.487 -27.629  1.00  0.00    -0.003 C 
ATOM     12  C   UNL     1     -32.043   3.950 -29.049  1.00  0.00     0.004 C 
ENDBRANCH  10  11
ENDBRANCH   9  10
ENDBRANCH   8   9
ENDBRANCH   7   8
ENDBRANCH   6   7
ENDBRANCH   5   6
ENDBRANCH   4   5
ENDBRANCH   3   4
ENDBRANCH   2   3
ENDBRANCH   1   2
BRANCH   1  13
ATOM     13  C   UNL     1     -27.916  -3.084 -28.635  1.00  0.00     0.000 C 
BRANCH  13  14
ATOM     14  C   UNL     1     -26.623  -2.501 -28.035  1.00  0.00     0.000 C 
BRANCH  14  15
ATOM     15  C   UNL     1     -26.278  -3.103 -26.664  1.00  0.00     0.000 C 
BRANCH  15  16
ATOM     16  C   UNL     1     -25.029  -3.990 -26.746  1.00  0.00     0.000 C 
BRANCH  16  17
ATOM     17  C   UNL     1     -23.744  -3.179 -26.982  1.00  0.00     0.000 C 
BRANCH  17  18
ATOM     18  C   UNL     1     -23.868  -1.717 -26.518  1.00  0.00     0.000 C 
BRANCH  18  19
ATOM     19  C   UNL     1     -23.532  -0.723 -27.650  1.00  0.00     0.000 C 
BRANCH  19  20
ATOM     20  C   UNL     1     -22.254   0.097 -27.399  1.00  0.00     0.006 C 
BRANCH  20  21
ATOM     21  C   UNL     1     -22.494   1.431 -26.664  1.00  0.00     0.053 C 
BRANCH  21  22
ATOM     22  C   UNL     1     -21.431   2.453 -26.950  1.00  0.00     0.041 C 
ATOM     23  O   UNL     1     -20.253   2.276 -26.537  1.00  0.00    -0.550 OA
ATOM     24  O   UNL     1     -21.745   3.606 -27.655  1.00  0.00    -0.550 OA
ENDBRANCH  21  22
ENDBRANCH  20  21
ENDBRANCH  19  20
ENDBRANCH  18  19
ENDBRANCH  17  18
ENDBRANCH  16  17
ENDBRANCH  15  16
ENDBRANCH  14  15
ENDBRANCH  13  14
ENDBRANCH   1  13
TORSDOF 20
ENDMDL
MODEL 4
REMARK VINA RESULT:     4.964      3.138      8.731
REMARK INTER + INTRA:           9.804
REMARK INTER:                  10.242
REMARK INTRA:                  -0.438
REMARK UNBOUND:                -0.964
REMARK SMILES CCCCCCCCCCCCCCCCCCCCCC(=O)[O-]
REMARK SMILES IDX 12 1 11 2 10 3 9 4 8 5 7 6 6 7 5 8 4 9 3 10 2 11 1 12 13 13
REMARK SMILES IDX 14 14 15 15 16 16 17 17 18 18 19 19 20 20 21 21 22 22 23 23
REMARK SMILES IDX 24 24
REMARK H PARENT
REMARK Flexibility Score: inf
ROOT
ATOM      1  C   UNL     1     -26.154  -3.416 -26.766  1.00  0.00     0.000 C 
ENDROOT
BRANCH   1   2
ATOM      2  C   UNL     1     -24.612  -3.486 -26.765  1.00  0.00     0.000 C 
BRANCH   2   3
ATOM      3  C   UNL     1     -23.927  -2.214 -26.221  1.00  0.00     0.000 C 
BRANCH   3   4
ATOM      4  C   UNL     1     -22.929  -1.596 -27.219  1.00  0.00    -0.000 C 
BRANCH   4   5
ATOM      5  C   UNL     1     -23.470  -0.292 -27.839  1.00  0.00    -0.000 C 
BRANCH   5   6
ATOM      6  C   UNL     1     -22.462   0.865 -27.734  1.00  0.00    -0.000 C 
BRANCH   6   7
ATOM      7  C   UNL     1     -22.384   1.420 -26.300  1.00  0.00    -0.000 C 
BRANCH   7   8
ATOM      8  C   UNL     1     -21.494   2.671 -26.189  1.00  0.00    -0.000 C 
BRANCH   8   9
ATOM      9  C   UNL     1     -20.298   2.705 -27.157  1.00  0.00    -0.000 C 
BRANCH   9  10
ATOM     10  C   UNL     1     -19.621   4.081 -27.304  1.00  0.00    -0.000 C 
BRANCH  10  11
ATOM     11  C   UNL     1     -20.483   5.120 -28.056  1.00  0.00    -0.003 C 
ATOM     12  C   UNL     1     -21.978   4.824 -27.951  1.00  0.00     0.004 C 
ENDBRANCH  10  11
ENDBRANCH   9  10
ENDBRANCH   8   9
ENDBRANCH   7   8
ENDBRANCH   6   7
ENDBRANCH   5   6
ENDBRANCH   4   5
ENDBRANCH   3   4
ENDBRANCH   2   3
ENDBRANCH   1   2
BRANCH   1  13
ATOM     13  C   UNL     1     -26.775  -2.754 -28.015  1.00  0.00     0.000 C 
BRANCH  13  14
ATOM     14  C   UNL     1     -28.201  -2.203 -27.828  1.00  0.00     0.000 C 
BRANCH  14  15
ATOM     15  C   UNL     1     -29.257  -3.003 -28.606  1.00  0.00     0.000 C 
BRANCH  15  16
ATOM     16  C   UNL     1     -30.650  -2.376 -28.455  1.00  0.00     0.000 C 
BRANCH  16  17
ATOM     17  C   UNL     1     -31.314  -2.730 -27.115  1.00  0.00     0.000 C 
BRANCH  17  18
ATOM     18  C   UNL     1     -31.463  -1.513 -26.184  1.00  0.00     0.000 C 
BRANCH  18  19
ATOM     19  C   UNL     1     -31.868  -0.242 -26.959  1.00  0.00     0.000 C 
BRANCH  19  20
ATOM     20  C   UNL     1     -31.742   1.055 -26.138  1.00  0.00     0.006 C 
BRANCH  20  21
ATOM     21  C   UNL     1     -32.110   2.334 -26.917  1.00  0.00     0.053 C 
BRANCH  21  22
ATOM     22  C   UNL     1     -31.454   3.564 -26.360  1.00  0.00     0.041 C 
ATOM     23  O   UNL     1     -30.882   4.382 -27.129  1.00  0.00    -0.550 OA
ATOM     24  O   UNL     1     -31.458   3.797 -24.992  1.00  0.00    -0.550 OA
ENDBRANCH  21  22
ENDBRANCH  20  21
ENDBRANCH  19  20
ENDBRANCH  18  19
ENDBRANCH  17  18
ENDBRANCH  16  17
ENDBRANCH  15  16
ENDBRANCH  14  15
ENDBRANCH  13  14
ENDBRANCH   1  13
TORSDOF 20
ENDMDL
MODEL 5
REMARK VINA RESULT:     6.120      1.736      3.964
REMARK INTER + INTRA:          12.313
REMARK INTER:                  12.836
REMARK INTRA:                  -0.524
REMARK UNBOUND:                -0.964
REMARK SMILES CCCCCCCCCCCCCCCCCCCCCC(=O)[O-]
REMARK SMILES IDX 12 1 11 2 10 3 9 4 8 5 7 6 6 7 5 8 4 9 3 10 2 11 1 12 13 13
REMARK SMILES IDX 14 14 15 15 16 16 17 17 18 18 19 19 20 20 21 21 22 22 23 23
REMARK SMILES IDX 24 24
REMARK H PARENT
REMARK Flexibility Score: inf
ROOT
ATOM      1  C   UNL     1     -31.180  -2.730 -28.776  1.00  0.00     0.000 C 
ENDROOT
BRANCH   1   2
ATOM      2  C   UNL     1     -31.512  -1.517 -27.881  1.00  0.00     0.000 C 
BRANCH   2   3
ATOM      3  C   UNL     1     -32.123  -0.323 -28.645  1.00  0.00     0.000 C 
BRANCH   3   4
ATOM      4  C   UNL     1     -32.117   0.982 -27.826  1.00  0.00    -0.000 C 
BRANCH   4   5
ATOM      5  C   UNL     1     -32.095   2.228 -28.732  1.00  0.00    -0.000 C 
BRANCH   5   6
ATOM      6  C   UNL     1     -31.921   3.529 -27.929  1.00  0.00    -0.000 C 
BRANCH   6   7
ATOM      7  C   UNL     1     -30.636   3.503 -27.081  1.00  0.00    -0.000 C 
BRANCH   7   8
ATOM      8  C   UNL     1     -30.914   3.607 -25.570  1.00  0.00    -0.000 C 
BRANCH   8   9
ATOM      9  C   UNL     1     -31.622   2.387 -24.955  1.00  0.00    -0.000 C 
BRANCH   9  10
ATOM     10  C   UNL     1     -30.927   1.036 -25.213  1.00  0.00    -0.000 C 
BRANCH  10  11
ATOM     11  C   UNL     1     -30.233   0.447 -23.964  1.00  0.00    -0.003 C 
ATOM     12  C   UNL     1     -30.932  -0.809 -23.446  1.00  0.00     0.004 C 
ENDBRANCH  10  11
ENDBRANCH   9  10
ENDBRANCH   8   9
ENDBRANCH   7   8
ENDBRANCH   6   7
ENDBRANCH   5   6
ENDBRANCH   4   5
ENDBRANCH   3   4
ENDBRANCH   2   3
ENDBRANCH   1   2
BRANCH   1  13
ATOM     13  C   UNL     1     -29.682  -3.096 -28.848  1.00  0.00     0.000 C 
BRANCH  13  14
ATOM     14  C   UNL     1     -28.783  -2.394 -27.813  1.00  0.00     0.000 C 
BRANCH  14  15
ATOM     15  C   UNL     1     -27.288  -2.494 -28.157  1.00  0.00     0.000 C 
BRANCH  15  16
ATOM     16  C   UNL     1     -26.464  -2.907 -26.930  1.00  0.00     0.000 C 
BRANCH  16  17
ATOM     17  C   UNL     1     -25.019  -3.290 -27.291  1.00  0.00     0.000 C 
BRANCH  17  18
ATOM     18  C   UNL     1     -23.985  -2.280 -26.760  1.00  0.00     0.000 C 
BRANCH  18  19
ATOM     19  C   UNL     1     -23.985  -0.973 -27.581  1.00  0.00     0.000 C 
BRANCH  19  20
ATOM     20  C   UNL     1     -22.576  -0.440 -27.900  1.00  0.00     0.006 C 
BRANCH  20  21
ATOM     21  C   UNL     1     -22.421   1.083 -27.715  1.00  0.00     0.053 C 
BRANCH  21  22
ATOM     22  C   UNL     1     -21.937   1.457 -26.344  1.00  0.00     0.041 C 
ATOM     23  O   UNL     1     -22.386   0.860 -25.328  1.00  0.00    -0.550 OA
ATOM     24  O   UNL     1     -21.007   2.475 -26.186  1.00  0.00    -0.550 OA
ENDBRANCH  21  22
ENDBRANCH  20  21
ENDBRANCH  19  20
ENDBRANCH  18  19
ENDBRANCH  17  18
ENDBRANCH  16  17
ENDBRANCH  15  16
ENDBRANCH  14  15
ENDBRANCH  13  14
ENDBRANCH   1  13
TORSDOF 20
ENDMDL
MODEL 6
REMARK VINA RESULT:     6.249      1.913      2.208
REMARK INTER + INTRA:          12.593
REMARK INTER:                  12.996
REMARK INTRA:                  -0.403
REMARK UNBOUND:                -0.964
REMARK SMILES CCCCCCCCCCCCCCCCCCCCCC(=O)[O-]
REMARK SMILES IDX 12 1 11 2 10 3 9 4 8 5 7 6 6 7 5 8 4 9 3 10 2 11 1 12 13 13
REMARK SMILES IDX 14 14 15 15 16 16 17 17 18 18 19 19 20 20 21 21 22 22 23 23
REMARK SMILES IDX 24 24
REMARK H PARENT
REMARK Flexibility Score: inf
ROOT
ATOM      1  C   UNL     1     -27.047  -3.042 -26.861  1.00  0.00     0.000 C 
ENDROOT
BRANCH   1   2
ATOM      2  C   UNL     1     -28.089  -2.914 -27.993  1.00  0.00     0.000 C 
BRANCH   2   3
ATOM      3  C   UNL     1     -29.285  -2.003 -27.644  1.00  0.00     0.000 C 
BRANCH   3   4
ATOM      4  C   UNL     1     -30.646  -2.703 -27.821  1.00  0.00    -0.000 C 
BRANCH   4   5
ATOM      5  C   UNL     1     -31.743  -2.055 -26.953  1.00  0.00    -0.000 C 
BRANCH   5   6
ATOM      6  C   UNL     1     -31.166  -1.056 -25.936  1.00  0.00    -0.000 C 
BRANCH   6   7
ATOM      7  C   UNL     1     -31.775   0.347 -26.113  1.00  0.00    -0.000 C 
BRANCH   7   8
ATOM      8  C   UNL     1     -31.050   1.424 -25.285  1.00  0.00    -0.000 C 
BRANCH   8   9
ATOM      9  C   UNL     1     -31.902   2.660 -24.942  1.00  0.00    -0.000 C 
BRANCH   9  10
ATOM     10  C   UNL     1     -31.812   3.812 -25.962  1.00  0.00    -0.000 C 
BRANCH  10  11
ATOM     11  C   UNL     1     -30.428   3.934 -26.640  1.00  0.00    -0.003 C 
ATOM     12  C   UNL     1     -30.535   4.170 -28.146  1.00  0.00     0.004 C 
ENDBRANCH  10  11
ENDBRANCH   9  10
ENDBRANCH   8   9
ENDBRANCH   7   8
ENDBRANCH   6   7
ENDBRANCH   5   6
ENDBRANCH   4   5
ENDBRANCH   3   4
ENDBRANCH   2   3
ENDBRANCH   1   2
BRANCH   1  13
ATOM     13  C   UNL     1     -25.699  -3.664 -27.285  1.00  0.00     0.000 C 
BRANCH  13  14
ATOM     14  C   UNL     1     -24.606  -3.668 -26.200  1.00  0.00     0.000 C 
BRANCH  14  15
ATOM     15  C   UNL     1     -23.618  -2.500 -26.345  1.00  0.00     0.000 C 
BRANCH  15  16
ATOM     16  C   UNL     1     -23.860  -1.728 -27.649  1.00  0.00     0.000 C 
BRANCH  16  17
ATOM     17  C   UNL     1     -23.610  -0.219 -27.497  1.00  0.00     0.000 C 
BRANCH  17  18
ATOM     18  C   UNL     1     -22.308   0.241 -28.178  1.00  0.00     0.000 C 
BRANCH  18  19
ATOM     19  C   UNL     1     -21.949   1.696 -27.810  1.00  0.00     0.000 C 
BRANCH  19  20
ATOM     20  C   UNL     1     -20.747   1.818 -26.855  1.00  0.00     0.006 C 
BRANCH  20  21
ATOM     21  C   UNL     1     -21.117   2.285 -25.433  1.00  0.00     0.053 C 
BRANCH  21  22
ATOM     22  C   UNL     1     -21.782   1.211 -24.621  1.00  0.00     0.041 C 
ATOM     23  O   UNL     1     -22.894   0.740 -24.982  1.00  0.00    -0.550 OA
ATOM     24  O   UNL     1     -21.183   0.743 -23.460  1.00  0.00    -0.550 OA
ENDBRANCH  21  22
ENDBRANCH  20  21
ENDBRANCH  19  20
ENDBRANCH  18  19
ENDBRANCH  17  18
ENDBRANCH  16  17
ENDBRANCH  15  16
ENDBRANCH  14  15
ENDBRANCH  13  14
ENDBRANCH   1  13
TORSDOF 20
ENDMDL
MODEL 7
REMARK VINA RESULT:     6.555      2.844      8.217
REMARK INTER + INTRA:          13.256
REMARK INTER:                  14.163
REMARK INTRA:                  -0.907
REMARK UNBOUND:                -0.964
REMARK SMILES CCCCCCCCCCCCCCCCCCCCCC(=O)[O-]
REMARK SMILES IDX 12 1 11 2 10 3 9 4 8 5 7 6 6 7 5 8 4 9 3 10 2 11 1 12 13 13
REMARK SMILES IDX 14 14 15 15 16 16 17 17 18 18 19 19 20 20 21 21 22 22 23 23
REMARK SMILES IDX 24 24
REMARK H PARENT
REMARK Flexibility Score: inf
ROOT
ATOM      1  C   UNL     1     -29.069  -2.324 -28.901  1.00  0.00     0.000 C 
ENDROOT
BRANCH   1   2
ATOM      2  C   UNL     1     -28.369  -3.201 -27.841  1.00  0.00     0.000 C 
BRANCH   2   3
ATOM      3  C   UNL     1     -26.863  -2.908 -27.680  1.00  0.00     0.000 C 
BRANCH   3   4
ATOM      4  C   UNL     1     -26.312  -3.324 -26.303  1.00  0.00    -0.000 C 
BRANCH   4   5
ATOM      5  C   UNL     1     -24.833  -3.749 -26.380  1.00  0.00    -0.000 C 
BRANCH   5   6
ATOM      6  C   UNL     1     -24.039  -2.914 -27.399  1.00  0.00    -0.000 C 
BRANCH   6   7
ATOM      7  C   UNL     1     -23.355  -1.707 -26.731  1.00  0.00    -0.000 C 
BRANCH   7   8
ATOM      8  C   UNL     1     -23.347  -0.452 -27.623  1.00  0.00    -0.000 C 
BRANCH   8   9
ATOM      9  C   UNL     1     -21.971   0.216 -27.791  1.00  0.00    -0.000 C 
BRANCH   9  10
ATOM     10  C   UNL     1     -21.961   1.742 -27.574  1.00  0.00    -0.000 C 
BRANCH  10  11
ATOM     11  C   UNL     1     -22.332   2.166 -26.135  1.00  0.00    -0.003 C 
ATOM     12  C   UNL     1     -21.359   1.612 -25.094  1.00  0.00     0.004 C 
ENDBRANCH  10  11
ENDBRANCH   9  10
ENDBRANCH   8   9
ENDBRANCH   7   8
ENDBRANCH   6   7
ENDBRANCH   5   6
ENDBRANCH   4   5
ENDBRANCH   3   4
ENDBRANCH   2   3
ENDBRANCH   1   2
BRANCH   1  13
ATOM     13  C   UNL     1     -30.612  -2.382 -28.878  1.00  0.00     0.000 C 
BRANCH  13  14
ATOM     14  C   UNL     1     -31.239  -2.688 -27.505  1.00  0.00     0.000 C 
BRANCH  14  15
ATOM     15  C   UNL     1     -30.891  -1.632 -26.443  1.00  0.00     0.000 C 
BRANCH  15  16
ATOM     16  C   UNL     1     -32.065  -0.672 -26.211  1.00  0.00     0.000 C 
BRANCH  16  17
ATOM     17  C   UNL     1     -31.823   0.716 -26.828  1.00  0.00     0.000 C 
BRANCH  17  18
ATOM     18  C   UNL     1     -30.999   1.639 -25.912  1.00  0.00     0.000 C 
BRANCH  18  19
ATOM     19  C   UNL     1     -31.901   2.518 -25.019  1.00  0.00     0.000 C 
BRANCH  19  20
ATOM     20  C   UNL     1     -31.830   4.020 -25.350  1.00  0.00     0.006 C 
BRANCH  20  21
ATOM     21  C   UNL     1     -32.124   4.356 -26.826  1.00  0.00     0.053 C 
BRANCH  21  22
ATOM     22  C   UNL     1     -30.875   4.543 -27.640  1.00  0.00     0.041 C 
ATOM     23  O   UNL     1     -30.953   4.816 -28.867  1.00  0.00    -0.550 OA
ATOM     24  O   UNL     1     -29.629   4.399 -27.046  1.00  0.00    -0.550 OA
ENDBRANCH  21  22
ENDBRANCH  20  21
ENDBRANCH  19  20
ENDBRANCH  18  19
ENDBRANCH  17  18
ENDBRANCH  16  17
ENDBRANCH  15  16
ENDBRANCH  14  15
ENDBRANCH  13  14
ENDBRANCH   1  13
TORSDOF 20
ENDMDL
