MODEL 1
REMARK VINA RESULT:    -2.827      0.000      0.000
REMARK INTER + INTRA:          -7.505
REMARK INTER:                  -5.140
REMARK INTRA:                  -2.365
REMARK UNBOUND:                -2.365
REMARK SMILES CCCCCCCCCCCCCCCC(=O)[O-]
REMARK SMILES IDX 9 1 10 2 11 3 12 4 13 5 14 6 15 7 16 8 17 9 18 10 8 11 7 12
REMARK SMILES IDX 6 13 5 14 4 15 3 16 2 17 1 18
REMARK H PARENT
REMARK Flexibility Score: inf
ROOT
ATOM      1  C   UNL     1      30.563  14.410  16.672  1.00  0.00     0.000 C 
ENDROOT
BRANCH   1   2
ATOM      2  C   UNL     1      30.261  13.374  17.767  1.00  0.00     0.000 C 
BRANCH   2   3
ATOM      3  C   UNL     1      31.108  13.592  19.033  1.00  0.00     0.000 C 
BRANCH   3   4
ATOM      4  C   UNL     1      30.419  13.076  20.311  1.00  0.00     0.000 C 
BRANCH   4   5
ATOM      5  C   UNL     1      28.898  12.872  20.196  1.00  0.00     0.000 C 
BRANCH   5   6
ATOM      6  C   UNL     1      28.278  12.253  21.458  1.00  0.00     0.006 C 
BRANCH   6   7
ATOM      7  C   UNL     1      27.700  10.866  21.161  1.00  0.00     0.053 C 
BRANCH   7   8
ATOM      8  C   UNL     1      28.519   9.805  21.826  1.00  0.00     0.041 C 
ATOM      9  O   UNL     1      27.974   8.744  22.229  1.00  0.00    -0.550 OA
ATOM     10  O   UNL     1      29.876  10.008  22.046  1.00  0.00    -0.550 OA
ENDBRANCH   7   8
ENDBRANCH   6   7
ENDBRANCH   5   6
ENDBRANCH   4   5
ENDBRANCH   3   4
ENDBRANCH   2   3
ENDBRANCH   1   2
BRANCH   1  11
ATOM     11  C   UNL     1      29.878  15.763  16.935  1.00  0.00     0.000 C 
BRANCH  11  12
ATOM     12  C   UNL     1      28.385  15.614  17.266  1.00  0.00    -0.000 C 
BRANCH  12  13
ATOM     13  C   UNL     1      28.014  16.225  18.625  1.00  0.00    -0.000 C 
BRANCH  13  14
ATOM     14  C   UNL     1      29.244  16.838  19.306  1.00  0.00    -0.000 C 
BRANCH  14  15
ATOM     15  C   UNL     1      29.233  16.559  20.816  1.00  0.00    -0.000 C 
BRANCH  15  16
ATOM     16  C   UNL     1      30.595  16.822  21.485  1.00  0.00    -0.000 C 
BRANCH  16  17
ATOM     17  C   UNL     1      31.778  16.961  20.509  1.00  0.00    -0.003 C 
ATOM     18  C   UNL     1      32.971  16.083  20.885  1.00  0.00     0.004 C 
ENDBRANCH  16  17
ENDBRANCH  15  16
ENDBRANCH  14  15
ENDBRANCH  13  14
ENDBRANCH  12  13
ENDBRANCH  11  12
ENDBRANCH   1  11
TORSDOF 14
ENDMDL
MODEL 2
REMARK VINA RESULT:    -2.776      1.964      3.971
REMARK INTER + INTRA:          -7.413
REMARK INTER:                  -6.323
REMARK INTRA:                  -1.090
REMARK UNBOUND:                -2.365
REMARK SMILES CCCCCCCCCCCCCCCC(=O)[O-]
REMARK SMILES IDX 9 1 10 2 11 3 12 4 13 5 14 6 15 7 16 8 17 9 18 10 8 11 7 12
REMARK SMILES IDX 6 13 5 14 4 15 3 16 2 17 1 18
REMARK H PARENT
REMARK Flexibility Score: inf
ROOT
ATOM      1  C   UNL     1      30.961  13.433  18.596  1.00  0.00     0.000 C 
ENDROOT
BRANCH   1   2
ATOM      2  C   UNL     1      31.039  13.820  20.082  1.00  0.00     0.000 C 
BRANCH   2   3
ATOM      3  C   UNL     1      30.139  12.941  20.968  1.00  0.00     0.000 C 
BRANCH   3   4
ATOM      4  C   UNL     1      28.831  13.644  21.376  1.00  0.00     0.000 C 
BRANCH   4   5
ATOM      5  C   UNL     1      27.547  13.021  20.799  1.00  0.00     0.000 C 
BRANCH   5   6
ATOM      6  C   UNL     1      27.631  11.494  20.657  1.00  0.00     0.006 C 
BRANCH   6   7
ATOM      7  C   UNL     1      27.624  10.814  22.029  1.00  0.00     0.053 C 
BRANCH   7   8
ATOM      8  C   UNL     1      28.413   9.544  21.989  1.00  0.00     0.041 C 
ATOM      9  O   UNL     1      27.824   8.432  22.039  1.00  0.00    -0.550 OA
ATOM     10  O   UNL     1      29.800   9.587  21.946  1.00  0.00    -0.550 OA
ENDBRANCH   7   8
ENDBRANCH   6   7
ENDBRANCH   5   6
ENDBRANCH   4   5
ENDBRANCH   3   4
ENDBRANCH   2   3
ENDBRANCH   1   2
BRANCH   1  11
ATOM     11  C   UNL     1      29.824  14.159  17.856  1.00  0.00     0.000 C 
BRANCH  11  12
ATOM     12  C   UNL     1      30.031  15.681  17.804  1.00  0.00    -0.000 C 
BRANCH  12  13
ATOM     13  C   UNL     1      31.445  16.073  17.350  1.00  0.00    -0.000 C 
BRANCH  13  14
ATOM     14  C   UNL     1      31.465  16.420  15.856  1.00  0.00    -0.000 C 
BRANCH  14  15
ATOM     15  C   UNL     1      30.166  17.124  15.436  1.00  0.00    -0.000 C 
BRANCH  15  16
ATOM     16  C   UNL     1      29.852  16.960  13.938  1.00  0.00    -0.000 C 
BRANCH  16  17
ATOM     17  C   UNL     1      31.088  16.892  13.022  1.00  0.00    -0.003 C 
ATOM     18  C   UNL     1      31.199  15.570  12.264  1.00  0.00     0.004 C 
ENDBRANCH  16  17
ENDBRANCH  15  16
ENDBRANCH  14  15
ENDBRANCH  13  14
ENDBRANCH  12  13
ENDBRANCH  11  12
ENDBRANCH   1  11
TORSDOF 14
ENDMDL
MODEL 3
REMARK VINA RESULT:    -2.616      3.142      5.986
REMARK INTER + INTRA:          -7.122
REMARK INTER:                  -4.920
REMARK INTRA:                  -2.203
REMARK UNBOUND:                -2.365
REMARK SMILES CCCCCCCCCCCCCCCC(=O)[O-]
REMARK SMILES IDX 9 1 10 2 11 3 12 4 13 5 14 6 15 7 16 8 17 9 18 10 8 11 7 12
REMARK SMILES IDX 6 13 5 14 4 15 3 16 2 17 1 18
REMARK H PARENT
REMARK Flexibility Score: inf
ROOT
ATOM      1  C   UNL     1      31.123  13.024  19.895  1.00  0.00     0.000 C 
ENDROOT
BRANCH   1   2
ATOM      2  C   UNL     1      32.243  13.383  20.884  1.00  0.00     0.000 C 
BRANCH   2   3
ATOM      3  C   UNL     1      31.809  14.452  21.903  1.00  0.00     0.000 C 
BRANCH   3   4
ATOM      4  C   UNL     1      32.374  15.849  21.584  1.00  0.00     0.000 C 
BRANCH   4   5
ATOM      5  C   UNL     1      31.317  16.949  21.376  1.00  0.00     0.000 C 
BRANCH   5   6
ATOM      6  C   UNL     1      30.840  17.056  19.919  1.00  0.00     0.006 C 
BRANCH   6   7
ATOM      7  C   UNL     1      31.942  16.624  18.948  1.00  0.00     0.053 C 
BRANCH   7   8
ATOM      8  C   UNL     1      31.356  16.257  17.621  1.00  0.00     0.041 C 
ATOM      9  O   UNL     1      30.220  15.718  17.558  1.00  0.00    -0.550 OA
ATOM     10  O   UNL     1      32.086  16.464  16.457  1.00  0.00    -0.550 OA
ENDBRANCH   7   8
ENDBRANCH   6   7
ENDBRANCH   5   6
ENDBRANCH   4   5
ENDBRANCH   3   4
ENDBRANCH   2   3
ENDBRANCH   1   2
BRANCH   1  11
ATOM     11  C   UNL     1      29.752  13.570  20.332  1.00  0.00     0.000 C 
BRANCH  11  12
ATOM     12  C   UNL     1      28.585  12.702  19.837  1.00  0.00    -0.000 C 
BRANCH  12  13
ATOM     13  C   UNL     1      27.397  12.691  20.811  1.00  0.00    -0.000 C 
BRANCH  13  14
ATOM     14  C   UNL     1      27.843  13.087  22.224  1.00  0.00    -0.000 C 
BRANCH  14  15
ATOM     15  C   UNL     1      27.978  11.850  23.125  1.00  0.00    -0.000 C 
BRANCH  15  16
ATOM     16  C   UNL     1      29.400  11.259  23.122  1.00  0.00    -0.000 C 
BRANCH  16  17
ATOM     17  C   UNL     1      29.583  10.019  22.229  1.00  0.00    -0.003 C 
ATOM     18  C   UNL     1      28.281   9.254  21.993  1.00  0.00     0.004 C 
ENDBRANCH  16  17
ENDBRANCH  15  16
ENDBRANCH  14  15
ENDBRANCH  13  14
ENDBRANCH  12  13
ENDBRANCH  11  12
ENDBRANCH   1  11
TORSDOF 14
ENDMDL
MODEL 4
REMARK VINA RESULT:    -2.593      2.602      5.337
REMARK INTER + INTRA:          -7.080
REMARK INTER:                  -5.007
REMARK INTRA:                  -2.073
REMARK UNBOUND:                -2.365
REMARK SMILES CCCCCCCCCCCCCCCC(=O)[O-]
REMARK SMILES IDX 9 1 10 2 11 3 12 4 13 5 14 6 15 7 16 8 17 9 18 10 8 11 7 12
REMARK SMILES IDX 6 13 5 14 4 15 3 16 2 17 1 18
REMARK H PARENT
REMARK Flexibility Score: inf
ROOT
ATOM      1  C   UNL     1      30.468  14.081  17.432  1.00  0.00     0.000 C 
ENDROOT
BRANCH   1   2
ATOM      2  C   UNL     1      30.523  15.362  16.582  1.00  0.00     0.000 C 
BRANCH   2   3
ATOM      3  C   UNL     1      31.623  16.331  17.050  1.00  0.00     0.000 C 
BRANCH   3   4
ATOM      4  C   UNL     1      31.293  17.009  18.393  1.00  0.00     0.000 C 
BRANCH   4   5
ATOM      5  C   UNL     1      32.124  16.521  19.593  1.00  0.00     0.000 C 
BRANCH   5   6
ATOM      6  C   UNL     1      31.409  16.714  20.939  1.00  0.00     0.006 C 
BRANCH   6   7
ATOM      7  C   UNL     1      29.888  16.727  20.754  1.00  0.00     0.053 C 
BRANCH   7   8
ATOM      8  C   UNL     1      29.202  16.393  22.041  1.00  0.00     0.041 C 
ATOM      9  O   UNL     1      27.961  16.568  22.161  1.00  0.00    -0.550 OA
ATOM     10  O   UNL     1      29.941  15.935  23.125  1.00  0.00    -0.550 OA
ENDBRANCH   7   8
ENDBRANCH   6   7
ENDBRANCH   5   6
ENDBRANCH   4   5
ENDBRANCH   3   4
ENDBRANCH   2   3
ENDBRANCH   1   2
BRANCH   1  11
ATOM     11  C   UNL     1      29.219  14.021  18.328  1.00  0.00     0.000 C 
BRANCH  11  12
ATOM     12  C   UNL     1      29.483  13.306  19.662  1.00  0.00    -0.000 C 
BRANCH  12  13
ATOM     13  C   UNL     1      30.972  12.999  19.887  1.00  0.00    -0.000 C 
BRANCH  13  14
ATOM     14  C   UNL     1      31.241  12.631  21.352  1.00  0.00    -0.000 C 
BRANCH  14  15
ATOM     15  C   UNL     1      29.937  12.611  22.163  1.00  0.00    -0.000 C 
BRANCH  15  16
ATOM     16  C   UNL     1      29.713  11.280  22.904  1.00  0.00    -0.000 C 
BRANCH  16  17
ATOM     17  C   UNL     1      29.528  10.054  21.991  1.00  0.00    -0.003 C 
ATOM     18  C   UNL     1      28.156   9.398  22.140  1.00  0.00     0.004 C 
ENDBRANCH  16  17
ENDBRANCH  15  16
ENDBRANCH  14  15
ENDBRANCH  13  14
ENDBRANCH  12  13
ENDBRANCH  11  12
ENDBRANCH   1  11
TORSDOF 14
ENDMDL
MODEL 5
REMARK VINA RESULT:    -2.575      3.705      6.647
REMARK INTER + INTRA:          -7.048
REMARK INTER:                  -5.564
REMARK INTRA:                  -1.484
REMARK UNBOUND:                -2.365
REMARK SMILES CCCCCCCCCCCCCCCC(=O)[O-]
REMARK SMILES IDX 9 1 10 2 11 3 12 4 13 5 14 6 15 7 16 8 17 9 18 10 8 11 7 12
REMARK SMILES IDX 6 13 5 14 4 15 3 16 2 17 1 18
REMARK H PARENT
REMARK Flexibility Score: inf
ROOT
ATOM      1  C   UNL     1      31.217  13.861  19.408  1.00  0.00     0.000 C 
ENDROOT
BRANCH   1   2
ATOM      2  C   UNL     1      30.417  15.174  19.377  1.00  0.00     0.000 C 
BRANCH   2   3
ATOM      3  C   UNL     1      28.912  14.940  19.159  1.00  0.00     0.000 C 
BRANCH   3   4
ATOM      4  C   UNL     1      28.288  15.940  18.168  1.00  0.00     0.000 C 
BRANCH   4   5
ATOM      5  C   UNL     1      28.557  15.640  16.682  1.00  0.00     0.000 C 
BRANCH   5   6
ATOM      6  C   UNL     1      29.356  16.750  15.980  1.00  0.00     0.006 C 
BRANCH   6   7
ATOM      7  C   UNL     1      30.839  16.383  15.888  1.00  0.00     0.053 C 
BRANCH   7   8
ATOM      8  C   UNL     1      31.122  15.666  14.605  1.00  0.00     0.041 C 
ATOM      9  O   UNL     1      31.568  14.489  14.623  1.00  0.00    -0.550 OA
ATOM     10  O   UNL     1      30.942  16.317  13.391  1.00  0.00    -0.550 OA
ENDBRANCH   7   8
ENDBRANCH   6   7
ENDBRANCH   5   6
ENDBRANCH   4   5
ENDBRANCH   3   4
ENDBRANCH   2   3
ENDBRANCH   1   2
BRANCH   1  11
ATOM     11  C   UNL     1      31.993  13.674  20.724  1.00  0.00     0.000 C 
BRANCH  11  12
ATOM     12  C   UNL     1      31.396  14.488  21.882  1.00  0.00    -0.000 C 
BRANCH  12  13
ATOM     13  C   UNL     1      30.896  13.604  23.034  1.00  0.00    -0.000 C 
BRANCH  13  14
ATOM     14  C   UNL     1      31.469  12.185  22.925  1.00  0.00    -0.000 C 
BRANCH  14  15
ATOM     15  C   UNL     1      30.368  11.131  23.113  1.00  0.00    -0.000 C 
BRANCH  15  16
ATOM     16  C   UNL     1      29.727  10.691  21.784  1.00  0.00    -0.000 C 
BRANCH  16  17
ATOM     17  C   UNL     1      28.191  10.790  21.742  1.00  0.00    -0.003 C 
ATOM     18  C   UNL     1      27.674  11.569  20.534  1.00  0.00     0.004 C 
ENDBRANCH  16  17
ENDBRANCH  15  16
ENDBRANCH  14  15
ENDBRANCH  13  14
ENDBRANCH  12  13
ENDBRANCH  11  12
ENDBRANCH   1  11
TORSDOF 14
ENDMDL
MODEL 6
REMARK VINA RESULT:    -2.368      2.165      5.233
REMARK INTER + INTRA:          -6.671
REMARK INTER:                  -5.057
REMARK INTRA:                  -1.613
REMARK UNBOUND:                -2.365
REMARK SMILES CCCCCCCCCCCCCCCC(=O)[O-]
REMARK SMILES IDX 9 1 10 2 11 3 12 4 13 5 14 6 15 7 16 8 17 9 18 10 8 11 7 12
REMARK SMILES IDX 6 13 5 14 4 15 3 16 2 17 1 18
REMARK H PARENT
REMARK Flexibility Score: inf
ROOT
ATOM      1  C   UNL     1      30.799  13.926  18.670  1.00  0.00     0.000 C 
ENDROOT
BRANCH   1   2
ATOM      2  C   UNL     1      30.678  14.959  17.537  1.00  0.00     0.000 C 
BRANCH   2   3
ATOM      3  C   UNL     1      31.353  16.297  17.887  1.00  0.00     0.000 C 
BRANCH   3   4
ATOM      4  C   UNL     1      31.301  16.618  19.392  1.00  0.00     0.000 C 
BRANCH   4   5
ATOM      5  C   UNL     1      32.655  16.985  20.029  1.00  0.00     0.000 C 
BRANCH   5   6
ATOM      6  C   UNL     1      33.043  16.056  21.189  1.00  0.00     0.006 C 
BRANCH   6   7
ATOM      7  C   UNL     1      31.799  15.507  21.893  1.00  0.00     0.053 C 
BRANCH   7   8
ATOM      8  C   UNL     1      31.957  14.046  22.173  1.00  0.00     0.041 C 
ATOM      9  O   UNL     1      31.074  13.427  22.823  1.00  0.00    -0.550 OA
ATOM     10  O   UNL     1      33.104  13.379  21.761  1.00  0.00    -0.550 OA
ENDBRANCH   7   8
ENDBRANCH   6   7
ENDBRANCH   5   6
ENDBRANCH   4   5
ENDBRANCH   3   4
ENDBRANCH   2   3
ENDBRANCH   1   2
BRANCH   1  11
ATOM     11  C   UNL     1      29.449  13.279  19.025  1.00  0.00     0.000 C 
BRANCH  11  12
ATOM     12  C   UNL     1      28.481  14.264  19.699  1.00  0.00    -0.000 C 
BRANCH  12  13
ATOM     13  C   UNL     1      28.064  13.815  21.108  1.00  0.00    -0.000 C 
BRANCH  13  14
ATOM     14  C   UNL     1      27.234  12.527  21.050  1.00  0.00    -0.000 C 
BRANCH  14  15
ATOM     15  C   UNL     1      27.084  11.905  22.447  1.00  0.00    -0.000 C 
BRANCH  15  16
ATOM     16  C   UNL     1      28.303  11.061  22.861  1.00  0.00    -0.000 C 
BRANCH  16  17
ATOM     17  C   UNL     1      28.610   9.871  21.934  1.00  0.00    -0.003 C 
ATOM     18  C   UNL     1      27.745   8.645  22.227  1.00  0.00     0.004 C 
ENDBRANCH  16  17
ENDBRANCH  15  16
ENDBRANCH  14  15
ENDBRANCH  13  14
ENDBRANCH  12  13
ENDBRANCH  11  12
ENDBRANCH   1  11
TORSDOF 14
ENDMDL
MODEL 7
REMARK VINA RESULT:    -1.892      4.172      6.931
REMARK INTER + INTRA:          -5.806
REMARK INTER:                  -4.839
REMARK INTRA:                  -0.967
REMARK UNBOUND:                -2.365
REMARK SMILES CCCCCCCCCCCCCCCC(=O)[O-]
REMARK SMILES IDX 9 1 10 2 11 3 12 4 13 5 14 6 15 7 16 8 17 9 18 10 8 11 7 12
REMARK SMILES IDX 6 13 5 14 4 15 3 16 2 17 1 18
REMARK H PARENT
REMARK Flexibility Score: inf
ROOT
ATOM      1  C   UNL     1      30.591  13.774  20.067  1.00  0.00     0.000 C 
ENDROOT
BRANCH   1   2
ATOM      2  C   UNL     1      30.910  14.997  19.190  1.00  0.00     0.000 C 
BRANCH   2   3
ATOM      3  C   UNL     1      29.641  15.682  18.653  1.00  0.00     0.000 C 
BRANCH   3   4
ATOM      4  C   UNL     1      29.510  15.583  17.122  1.00  0.00     0.000 C 
BRANCH   4   5
ATOM      5  C   UNL     1      30.444  14.560  16.450  1.00  0.00     0.000 C 
BRANCH   5   6
ATOM      6  C   UNL     1      31.521  15.216  15.573  1.00  0.00     0.006 C 
BRANCH   6   7
ATOM      7  C   UNL     1      31.427  14.720  14.127  1.00  0.00     0.053 C 
BRANCH   7   8
ATOM      8  C   UNL     1      31.060  15.844  13.211  1.00  0.00     0.041 C 
ATOM      9  O   UNL     1      31.024  15.660  11.966  1.00  0.00    -0.550 OA
ATOM     10  O   UNL     1      30.807  17.109  13.728  1.00  0.00    -0.550 OA
ENDBRANCH   7   8
ENDBRANCH   6   7
ENDBRANCH   5   6
ENDBRANCH   4   5
ENDBRANCH   3   4
ENDBRANCH   2   3
ENDBRANCH   1   2
BRANCH   1  11
ATOM     11  C   UNL     1      31.137  13.917  21.499  1.00  0.00     0.000 C 
BRANCH  11  12
ATOM     12  C   UNL     1      30.587  15.158  22.219  1.00  0.00    -0.000 C 
BRANCH  12  13
ATOM     13  C   UNL     1      29.224  14.905  22.882  1.00  0.00    -0.000 C 
BRANCH  13  14
ATOM     14  C   UNL     1      28.954  13.402  23.025  1.00  0.00    -0.000 C 
BRANCH  14  15
ATOM     15  C   UNL     1      27.768  12.970  22.150  1.00  0.00    -0.000 C 
BRANCH  15  16
ATOM     16  C   UNL     1      27.356  11.505  22.379  1.00  0.00    -0.000 C 
BRANCH  16  17
ATOM     17  C   UNL     1      28.450  10.614  22.995  1.00  0.00    -0.003 C 
ATOM     18  C   UNL     1      29.162   9.739  21.964  1.00  0.00     0.004 C 
ENDBRANCH  16  17
ENDBRANCH  15  16
ENDBRANCH  14  15
ENDBRANCH  13  14
ENDBRANCH  12  13
ENDBRANCH  11  12
ENDBRANCH   1  11
TORSDOF 14
ENDMDL
MODEL 8
REMARK VINA RESULT:    -1.363     16.990     18.931
REMARK INTER + INTRA:          -4.843
REMARK INTER:                  -5.833
REMARK INTRA:                   0.989
REMARK UNBOUND:                -2.365
REMARK SMILES CCCCCCCCCCCCCCCC(=O)[O-]
REMARK SMILES IDX 9 1 10 2 11 3 12 4 13 5 14 6 15 7 16 8 17 9 18 10 8 11 7 12
REMARK SMILES IDX 6 13 5 14 4 15 3 16 2 17 1 18
REMARK H PARENT
REMARK Flexibility Score: inf
ROOT
ATOM      1  C   UNL     1      27.232   4.738   5.161  1.00  0.00     0.000 C 
ENDROOT
BRANCH   1   2
ATOM      2  C   UNL     1      27.642   4.262   3.758  1.00  0.00     0.000 C 
BRANCH   2   3
ATOM      3  C   UNL     1      28.023   2.771   3.731  1.00  0.00     0.000 C 
BRANCH   3   4
ATOM      4  C   UNL     1      28.637   2.286   5.058  1.00  0.00     0.000 C 
BRANCH   4   5
ATOM      5  C   UNL     1      28.062   0.964   5.599  1.00  0.00     0.000 C 
BRANCH   5   6
ATOM      6  C   UNL     1      29.136  -0.112   5.821  1.00  0.00     0.006 C 
BRANCH   6   7
ATOM      7  C   UNL     1      28.798  -1.391   5.049  1.00  0.00     0.053 C 
BRANCH   7   8
ATOM      8  C   UNL     1      28.638  -1.095   3.591  1.00  0.00     0.041 C 
ATOM      9  O   UNL     1      29.441  -0.317   3.011  1.00  0.00    -0.550 OA
ATOM     10  O   UNL     1      27.573  -1.638   2.883  1.00  0.00    -0.550 OA
ENDBRANCH   7   8
ENDBRANCH   6   7
ENDBRANCH   5   6
ENDBRANCH   4   5
ENDBRANCH   3   4
ENDBRANCH   2   3
ENDBRANCH   1   2
BRANCH   1  11
ATOM     11  C   UNL     1      28.026   4.038   6.278  1.00  0.00     0.000 C 
BRANCH  11  12
ATOM     12  C   UNL     1      28.421   4.998   7.412  1.00  0.00    -0.000 C 
BRANCH  12  13
ATOM     13  C   UNL     1      29.837   5.567   7.242  1.00  0.00    -0.000 C 
BRANCH  13  14
ATOM     14  C   UNL     1      29.879   6.609   6.117  1.00  0.00    -0.000 C 
BRANCH  14  15
ATOM     15  C   UNL     1      30.637   6.071   4.895  1.00  0.00    -0.000 C 
BRANCH  15  16
ATOM     16  C   UNL     1      31.204   4.656   5.117  1.00  0.00    -0.000 C 
BRANCH  16  17
ATOM     17  C   UNL     1      31.990   4.081   3.925  1.00  0.00    -0.003 C 
ATOM     18  C   UNL     1      33.504   4.125   4.130  1.00  0.00     0.004 C 
ENDBRANCH  16  17
ENDBRANCH  15  16
ENDBRANCH  14  15
ENDBRANCH  13  14
ENDBRANCH  12  13
ENDBRANCH  11  12
ENDBRANCH   1  11
TORSDOF 14
ENDMDL
MODEL 9
REMARK VINA RESULT:    -0.846      2.427      5.134
REMARK INTER + INTRA:          -3.903
REMARK INTER:                  -2.901
REMARK INTRA:                  -1.002
REMARK UNBOUND:                -2.365
REMARK SMILES CCCCCCCCCCCCCCCC(=O)[O-]
REMARK SMILES IDX 9 1 10 2 11 3 12 4 13 5 14 6 15 7 16 8 17 9 18 10 8 11 7 12
REMARK SMILES IDX 6 13 5 14 4 15 3 16 2 17 1 18
REMARK H PARENT
REMARK Flexibility Score: inf
ROOT
ATOM      1  C   UNL     1      30.742  15.457  17.157  1.00  0.00     0.000 C 
ENDROOT
BRANCH   1   2
ATOM      2  C   UNL     1      31.514  16.732  16.781  1.00  0.00     0.000 C 
BRANCH   2   3
ATOM      3  C   UNL     1      32.555  17.124  17.844  1.00  0.00     0.000 C 
BRANCH   3   4
ATOM      4  C   UNL     1      32.183  16.635  19.256  1.00  0.00     0.000 C 
BRANCH   4   5
ATOM      5  C   UNL     1      33.186  17.010  20.362  1.00  0.00     0.000 C 
BRANCH   5   6
ATOM      6  C   UNL     1      33.289  15.945  21.465  1.00  0.00     0.006 C 
BRANCH   6   7
ATOM      7  C   UNL     1      32.529  16.382  22.721  1.00  0.00     0.053 C 
BRANCH   7   8
ATOM      8  C   UNL     1      31.126  15.864  22.691  1.00  0.00     0.041 C 
ATOM      9  O   UNL     1      30.902  14.661  22.398  1.00  0.00    -0.550 OA
ATOM     10  O   UNL     1      30.062  16.723  22.937  1.00  0.00    -0.550 OA
ENDBRANCH   7   8
ENDBRANCH   6   7
ENDBRANCH   5   6
ENDBRANCH   4   5
ENDBRANCH   3   4
ENDBRANCH   2   3
ENDBRANCH   1   2
BRANCH   1  11
ATOM     11  C   UNL     1      29.219  15.675  17.182  1.00  0.00     0.000 C 
BRANCH  11  12
ATOM     12  C   UNL     1      28.623  15.513  18.590  1.00  0.00    -0.000 C 
BRANCH  12  13
ATOM     13  C   UNL     1      28.015  14.121  18.821  1.00  0.00    -0.000 C 
BRANCH  13  14
ATOM     14  C   UNL     1      28.189  13.681  20.280  1.00  0.00    -0.000 C 
BRANCH  14  15
ATOM     15  C   UNL     1      27.183  12.580  20.647  1.00  0.00    -0.000 C 
BRANCH  15  16
ATOM     16  C   UNL     1      27.862  11.261  21.059  1.00  0.00    -0.000 C 
BRANCH  16  17
ATOM     17  C   UNL     1      29.318  11.405  21.537  1.00  0.00    -0.003 C 
ATOM     18  C   UNL     1      29.826  10.173  22.285  1.00  0.00     0.004 C 
ENDBRANCH  16  17
ENDBRANCH  15  16
ENDBRANCH  14  15
ENDBRANCH  13  14
ENDBRANCH  12  13
ENDBRANCH  11  12
ENDBRANCH   1  11
TORSDOF 14
ENDMDL
