MODEL 1
REMARK VINA RESULT:    -4.164      0.000      0.000
REMARK INTER + INTRA:         -12.118
REMARK INTER:                 -10.493
REMARK INTRA:                  -1.625
REMARK UNBOUND:                -1.625
REMARK SMILES CCCCCCCCCCCCCCCCCCCCCCCCCCCC(=O)[O-]
REMARK SMILES IDX 15 1 16 2 17 3 18 4 19 5 20 6 21 7 22 8 23 9 24 10 25 11
REMARK SMILES IDX 26 12 27 13 28 14 29 15 30 16 14 17 13 18 12 19 11 20 10 21
REMARK SMILES IDX 9 22 8 23 7 24 6 25 5 26 4 27 3 28 2 29 1 30
REMARK H PARENT
REMARK Flexibility Score: inf
ROOT
ATOM      1  C   UNL     1      46.848   4.476  14.446  1.00  0.00     0.000 C 
ENDROOT
BRANCH   1   2
ATOM      2  C   UNL     1      45.591   3.791  13.887  1.00  0.00     0.000 C 
BRANCH   2   3
ATOM      3  C   UNL     1      45.713   2.256  13.875  1.00  0.00     0.000 C 
BRANCH   3   4
ATOM      4  C   UNL     1      44.342   1.554  13.959  1.00  0.00     0.000 C 
BRANCH   4   5
ATOM      5  C   UNL     1      44.419   0.089  14.428  1.00  0.00     0.000 C 
BRANCH   5   6
ATOM      6  C   UNL     1      43.315  -0.830  13.877  1.00  0.00     0.000 C 
BRANCH   6   7
ATOM      7  C   UNL     1      43.708  -2.317  13.917  1.00  0.00     0.000 C 
BRANCH   7   8
ATOM      8  C   UNL     1      44.621  -2.652  15.106  1.00  0.00     0.000 C 
BRANCH   8   9
ATOM      9  C   UNL     1      46.024  -3.106  14.663  1.00  0.00     0.000 C 
BRANCH   9  10
ATOM     10  C   UNL     1      47.144  -2.245  15.283  1.00  0.00     0.000 C 
BRANCH  10  11
ATOM     11  C   UNL     1      47.317  -2.426  16.804  1.00  0.00     0.000 C 
BRANCH  11  12
ATOM     12  C   UNL     1      47.616  -3.875  17.237  1.00  0.00     0.006 C 
BRANCH  12  13
ATOM     13  C   UNL     1      49.046  -4.307  16.880  1.00  0.00     0.053 C 
BRANCH  13  14
ATOM     14  C   UNL     1      49.109  -5.777  16.607  1.00  0.00     0.041 C 
ATOM     15  O   UNL     1      48.191  -6.538  17.014  1.00  0.00    -0.550 OA
ATOM     16  O   UNL     1      50.172  -6.307  15.884  1.00  0.00    -0.550 OA
ENDBRANCH  13  14
ENDBRANCH  12  13
ENDBRANCH  11  12
ENDBRANCH  10  11
ENDBRANCH   9  10
ENDBRANCH   8   9
ENDBRANCH   7   8
ENDBRANCH   6   7
ENDBRANCH   5   6
ENDBRANCH   4   5
ENDBRANCH   3   4
ENDBRANCH   2   3
ENDBRANCH   1   2
BRANCH   1  17
ATOM     17  C   UNL     1      46.762   6.010  14.380  1.00  0.00     0.000 C 
BRANCH  17  18
ATOM     18  C   UNL     1      45.418   6.557  14.894  1.00  0.00     0.000 C 
BRANCH  18  19
ATOM     19  C   UNL     1      45.053   7.969  14.400  1.00  0.00     0.000 C 
BRANCH  19  20
ATOM     20  C   UNL     1      46.015   9.054  14.907  1.00  0.00     0.000 C 
BRANCH  20  21
ATOM     21  C   UNL     1      45.578   9.658  16.255  1.00  0.00     0.000 C 
BRANCH  21  22
ATOM     22  C   UNL     1      45.953   8.832  17.500  1.00  0.00    -0.000 C 
BRANCH  22  23
ATOM     23  C   UNL     1      44.741   8.479  18.378  1.00  0.00    -0.000 C 
BRANCH  23  24
ATOM     24  C   UNL     1      44.078   9.731  18.993  1.00  0.00    -0.000 C 
BRANCH  24  25
ATOM     25  C   UNL     1      44.869  10.346  20.163  1.00  0.00    -0.000 C 
BRANCH  25  26
ATOM     26  C   UNL     1      44.053  10.611  21.441  1.00  0.00    -0.000 C 
BRANCH  26  27
ATOM     27  C   UNL     1      44.083   9.431  22.427  1.00  0.00    -0.000 C 
BRANCH  27  28
ATOM     28  C   UNL     1      45.483   8.807  22.569  1.00  0.00    -0.000 C 
BRANCH  28  29
ATOM     29  C   UNL     1      45.826   8.301  23.983  1.00  0.00    -0.003 C 
ATOM     30  C   UNL     1      44.936   8.909  25.069  1.00  0.00     0.004 C 
ENDBRANCH  28  29
ENDBRANCH  27  28
ENDBRANCH  26  27
ENDBRANCH  25  26
ENDBRANCH  24  25
ENDBRANCH  23  24
ENDBRANCH  22  23
ENDBRANCH  21  22
ENDBRANCH  20  21
ENDBRANCH  19  20
ENDBRANCH  18  19
ENDBRANCH  17  18
ENDBRANCH   1  17
TORSDOF 26
ENDMDL
MODEL 2
REMARK VINA RESULT:    -4.045      5.074     12.266
REMARK INTER + INTRA:         -11.819
REMARK INTER:                 -10.364
REMARK INTRA:                  -1.456
REMARK UNBOUND:                -1.625
REMARK SMILES CCCCCCCCCCCCCCCCCCCCCCCCCCCC(=O)[O-]
REMARK SMILES IDX 15 1 16 2 17 3 18 4 19 5 20 6 21 7 22 8 23 9 24 10 25 11
REMARK SMILES IDX 26 12 27 13 28 14 29 15 30 16 14 17 13 18 12 19 11 20 10 21
REMARK SMILES IDX 9 22 8 23 7 24 6 25 5 26 4 27 3 28 2 29 1 30
REMARK H PARENT
REMARK Flexibility Score: inf
ROOT
ATOM      1  C   UNL     1      45.420   7.672  15.094  1.00  0.00     0.000 C 
ENDROOT
BRANCH   1   2
ATOM      2  C   UNL     1      45.618   8.706  13.974  1.00  0.00     0.000 C 
BRANCH   2   3
ATOM      3  C   UNL     1      46.470   9.906  14.425  1.00  0.00     0.000 C 
BRANCH   3   4
ATOM      4  C   UNL     1      45.626  11.017  15.083  1.00  0.00     0.000 C 
BRANCH   4   5
ATOM      5  C   UNL     1      45.672  11.006  16.623  1.00  0.00     0.000 C 
BRANCH   5   6
ATOM      6  C   UNL     1      44.442  10.387  17.307  1.00  0.00     0.000 C 
BRANCH   6   7
ATOM      7  C   UNL     1      44.503  10.488  18.841  1.00  0.00     0.000 C 
BRANCH   7   8
ATOM      8  C   UNL     1      45.370   9.386  19.468  1.00  0.00     0.000 C 
BRANCH   8   9
ATOM      9  C   UNL     1      44.667   8.678  20.641  1.00  0.00     0.000 C 
BRANCH   9  10
ATOM     10  C   UNL     1      45.574   8.556  21.882  1.00  0.00     0.000 C 
BRANCH  10  11
ATOM     11  C   UNL     1      45.392   9.686  22.915  1.00  0.00     0.000 C 
BRANCH  11  12
ATOM     12  C   UNL     1      43.922  10.058  23.193  1.00  0.00     0.006 C 
BRANCH  12  13
ATOM     13  C   UNL     1      43.406   9.452  24.508  1.00  0.00     0.053 C 
BRANCH  13  14
ATOM     14  C   UNL     1      44.359   9.719  25.630  1.00  0.00     0.041 C 
ATOM     15  O   UNL     1      44.820   8.765  26.312  1.00  0.00    -0.550 OA
ATOM     16  O   UNL     1      44.757  11.021  25.911  1.00  0.00    -0.550 OA
ENDBRANCH  13  14
ENDBRANCH  12  13
ENDBRANCH  11  12
ENDBRANCH  10  11
ENDBRANCH   9  10
ENDBRANCH   8   9
ENDBRANCH   7   8
ENDBRANCH   6   7
ENDBRANCH   5   6
ENDBRANCH   4   5
ENDBRANCH   3   4
ENDBRANCH   2   3
ENDBRANCH   1   2
BRANCH   1  17
ATOM     17  C   UNL     1      45.716   6.236  14.629  1.00  0.00     0.000 C 
BRANCH  17  18
ATOM     18  C   UNL     1      47.222   5.943  14.509  1.00  0.00     0.000 C 
BRANCH  18  19
ATOM     19  C   UNL     1      47.693   4.647  15.191  1.00  0.00     0.000 C 
BRANCH  19  20
ATOM     20  C   UNL     1      47.827   3.466  14.216  1.00  0.00     0.000 C 
BRANCH  20  21
ATOM     21  C   UNL     1      46.473   2.816  13.875  1.00  0.00     0.000 C 
BRANCH  21  22
ATOM     22  C   UNL     1      46.444   1.277  13.940  1.00  0.00    -0.000 C 
BRANCH  22  23
ATOM     23  C   UNL     1      45.020   0.698  13.918  1.00  0.00    -0.000 C 
BRANCH  23  24
ATOM     24  C   UNL     1      44.975  -0.767  14.405  1.00  0.00    -0.000 C 
BRANCH  24  25
ATOM     25  C   UNL     1      44.850  -0.914  15.934  1.00  0.00    -0.000 C 
BRANCH  25  26
ATOM     26  C   UNL     1      46.164  -1.221  16.675  1.00  0.00    -0.000 C 
BRANCH  26  27
ATOM     27  C   UNL     1      46.763  -2.585  16.294  1.00  0.00    -0.000 C 
BRANCH  27  28
ATOM     28  C   UNL     1      48.294  -2.628  16.450  1.00  0.00    -0.000 C 
BRANCH  28  29
ATOM     29  C   UNL     1      48.874  -4.020  16.766  1.00  0.00    -0.003 C 
ATOM     30  C   UNL     1      47.797  -5.059  17.082  1.00  0.00     0.004 C 
ENDBRANCH  28  29
ENDBRANCH  27  28
ENDBRANCH  26  27
ENDBRANCH  25  26
ENDBRANCH  24  25
ENDBRANCH  23  24
ENDBRANCH  22  23
ENDBRANCH  21  22
ENDBRANCH  20  21
ENDBRANCH  19  20
ENDBRANCH  18  19
ENDBRANCH  17  18
ENDBRANCH   1  17
TORSDOF 26
ENDMDL
MODEL 3
REMARK VINA RESULT:    -3.908      3.749     11.597
REMARK INTER + INTRA:         -11.472
REMARK INTER:                  -9.900
REMARK INTRA:                  -1.572
REMARK UNBOUND:                -1.625
REMARK SMILES CCCCCCCCCCCCCCCCCCCCCCCCCCCC(=O)[O-]
REMARK SMILES IDX 15 1 16 2 17 3 18 4 19 5 20 6 21 7 22 8 23 9 24 10 25 11
REMARK SMILES IDX 26 12 27 13 28 14 29 15 30 16 14 17 13 18 12 19 11 20 10 21
REMARK SMILES IDX 9 22 8 23 7 24 6 25 5 26 4 27 3 28 2 29 1 30
REMARK H PARENT
REMARK Flexibility Score: inf
ROOT
ATOM      1  C   UNL     1      44.872   7.086  15.687  1.00  0.00     0.000 C 
ENDROOT
BRANCH   1   2
ATOM      2  C   UNL     1      44.493   8.517  15.274  1.00  0.00     0.000 C 
BRANCH   2   3
ATOM      3  C   UNL     1      44.603   9.515  16.440  1.00  0.00     0.000 C 
BRANCH   3   4
ATOM      4  C   UNL     1      43.866   9.030  17.706  1.00  0.00     0.000 C 
BRANCH   4   5
ATOM      5  C   UNL     1      44.765   8.273  18.701  1.00  0.00     0.000 C 
BRANCH   5   6
ATOM      6  C   UNL     1      45.946   9.084  19.260  1.00  0.00     0.000 C 
BRANCH   6   7
ATOM      7  C   UNL     1      45.586  10.558  19.514  1.00  0.00     0.000 C 
BRANCH   7   8
ATOM      8  C   UNL     1      45.483  10.887  21.011  1.00  0.00     0.000 C 
BRANCH   8   9
ATOM      9  C   UNL     1      44.113  10.512  21.605  1.00  0.00     0.000 C 
BRANCH   9  10
ATOM     10  C   UNL     1      44.153   9.180  22.381  1.00  0.00     0.000 C 
BRANCH  10  11
ATOM     11  C   UNL     1      45.041   9.205  23.641  1.00  0.00     0.000 C 
BRANCH  11  12
ATOM     12  C   UNL     1      46.178   8.165  23.634  1.00  0.00     0.006 C 
BRANCH  12  13
ATOM     13  C   UNL     1      47.057   8.270  22.377  1.00  0.00     0.053 C 
BRANCH  13  14
ATOM     14  C   UNL     1      47.657   6.944  22.031  1.00  0.00     0.041 C 
ATOM     15  O   UNL     1      48.306   6.296  22.895  1.00  0.00    -0.550 OA
ATOM     16  O   UNL     1      47.483   6.411  20.758  1.00  0.00    -0.550 OA
ENDBRANCH  13  14
ENDBRANCH  12  13
ENDBRANCH  11  12
ENDBRANCH  10  11
ENDBRANCH   9  10
ENDBRANCH   8   9
ENDBRANCH   7   8
ENDBRANCH   6   7
ENDBRANCH   5   6
ENDBRANCH   4   5
ENDBRANCH   3   4
ENDBRANCH   2   3
ENDBRANCH   1   2
BRANCH   1  17
ATOM     17  C   UNL     1      44.510   6.047  14.611  1.00  0.00     0.000 C 
BRANCH  17  18
ATOM     18  C   UNL     1      45.743   5.493  13.875  1.00  0.00     0.000 C 
BRANCH  18  19
ATOM     19  C   UNL     1      46.823   4.873  14.780  1.00  0.00     0.000 C 
BRANCH  19  20
ATOM     20  C   UNL     1      47.146   3.414  14.420  1.00  0.00     0.000 C 
BRANCH  20  21
ATOM     21  C   UNL     1      45.927   2.648  13.875  1.00  0.00     0.000 C 
BRANCH  21  22
ATOM     22  C   UNL     1      46.034   1.112  13.929  1.00  0.00    -0.000 C 
BRANCH  22  23
ATOM     23  C   UNL     1      44.668   0.414  14.046  1.00  0.00    -0.000 C 
BRANCH  23  24
ATOM     24  C   UNL     1      44.765  -0.945  14.772  1.00  0.00    -0.000 C 
BRANCH  24  25
ATOM     25  C   UNL     1      45.533  -0.888  16.106  1.00  0.00    -0.000 C 
BRANCH  25  26
ATOM     26  C   UNL     1      46.897  -1.602  16.111  1.00  0.00    -0.000 C 
BRANCH  26  27
ATOM     27  C   UNL     1      46.932  -2.834  15.192  1.00  0.00    -0.000 C 
BRANCH  27  28
ATOM     28  C   UNL     1      47.102  -4.153  15.969  1.00  0.00    -0.000 C 
BRANCH  28  29
ATOM     29  C   UNL     1      48.227  -4.143  17.022  1.00  0.00    -0.003 C 
ATOM     30  C   UNL     1      49.087  -5.408  16.990  1.00  0.00     0.004 C 
ENDBRANCH  28  29
ENDBRANCH  27  28
ENDBRANCH  26  27
ENDBRANCH  25  26
ENDBRANCH  24  25
ENDBRANCH  23  24
ENDBRANCH  22  23
ENDBRANCH  21  22
ENDBRANCH  20  21
ENDBRANCH  19  20
ENDBRANCH  18  19
ENDBRANCH  17  18
ENDBRANCH   1  17
TORSDOF 26
ENDMDL
MODEL 4
REMARK VINA RESULT:    -3.903      4.707     11.840
REMARK INTER + INTRA:         -11.461
REMARK INTER:                  -9.692
REMARK INTRA:                  -1.769
REMARK UNBOUND:                -1.625
REMARK SMILES CCCCCCCCCCCCCCCCCCCCCCCCCCCC(=O)[O-]
REMARK SMILES IDX 15 1 16 2 17 3 18 4 19 5 20 6 21 7 22 8 23 9 24 10 25 11
REMARK SMILES IDX 26 12 27 13 28 14 29 15 30 16 14 17 13 18 12 19 11 20 10 21
REMARK SMILES IDX 9 22 8 23 7 24 6 25 5 26 4 27 3 28 2 29 1 30
REMARK H PARENT
REMARK Flexibility Score: inf
ROOT
ATOM      1  C   UNL     1      47.542   7.236  22.875  1.00  0.00     0.000 C 
ENDROOT
BRANCH   1   2
ATOM      2  C   UNL     1      48.195   8.583  23.222  1.00  0.00     0.000 C 
BRANCH   2   3
ATOM      3  C   UNL     1      47.267   9.778  22.936  1.00  0.00     0.000 C 
BRANCH   3   4
ATOM      4  C   UNL     1      46.058   9.829  23.893  1.00  0.00     0.000 C 
BRANCH   4   5
ATOM      5  C   UNL     1      45.035   8.701  23.666  1.00  0.00     0.000 C 
BRANCH   5   6
ATOM      6  C   UNL     1      43.893   9.042  22.693  1.00  0.00     0.000 C 
BRANCH   6   7
ATOM      7  C   UNL     1      44.362   9.900  21.506  1.00  0.00     0.000 C 
BRANCH   7   8
ATOM      8  C   UNL     1      43.427  11.087  21.234  1.00  0.00     0.000 C 
BRANCH   8   9
ATOM      9  C   UNL     1      42.741  10.996  19.858  1.00  0.00     0.000 C 
BRANCH   9  10
ATOM     10  C   UNL     1      43.742  11.124  18.692  1.00  0.00     0.000 C 
BRANCH  10  11
ATOM     11  C   UNL     1      43.381  10.283  17.451  1.00  0.00     0.000 C 
BRANCH  11  12
ATOM     12  C   UNL     1      44.245  10.586  16.210  1.00  0.00     0.006 C 
BRANCH  12  13
ATOM     13  C   UNL     1      45.610   9.882  16.264  1.00  0.00     0.053 C 
BRANCH  13  14
ATOM     14  C   UNL     1      46.209   9.772  14.898  1.00  0.00     0.041 C 
ATOM     15  O   UNL     1      47.089  10.591  14.522  1.00  0.00    -0.550 OA
ATOM     16  O   UNL     1      45.811   8.750  14.043  1.00  0.00    -0.550 OA
ENDBRANCH  13  14
ENDBRANCH  12  13
ENDBRANCH  11  12
ENDBRANCH  10  11
ENDBRANCH   9  10
ENDBRANCH   8   9
ENDBRANCH   7   8
ENDBRANCH   6   7
ENDBRANCH   5   6
ENDBRANCH   4   5
ENDBRANCH   3   4
ENDBRANCH   2   3
ENDBRANCH   1   2
BRANCH   1  17
ATOM     17  C   UNL     1      48.134   6.604  21.604  1.00  0.00     0.000 C 
BRANCH  17  18
ATOM     18  C   UNL     1      47.089   6.400  20.493  1.00  0.00     0.000 C 
BRANCH  18  19
ATOM     19  C   UNL     1      46.743   7.660  19.679  1.00  0.00     0.000 C 
BRANCH  19  20
ATOM     20  C   UNL     1      46.078   7.344  18.330  1.00  0.00     0.000 C 
BRANCH  20  21
ATOM     21  C   UNL     1      46.815   6.244  17.543  1.00  0.00     0.000 C 
BRANCH  21  22
ATOM     22  C   UNL     1      47.435   6.692  16.206  1.00  0.00    -0.000 C 
BRANCH  22  23
ATOM     23  C   UNL     1      47.790   5.517  15.281  1.00  0.00    -0.000 C 
BRANCH  23  24
ATOM     24  C   UNL     1      46.767   5.342  14.136  1.00  0.00    -0.000 C 
BRANCH  24  25
ATOM     25  C   UNL     1      46.113   3.948  14.089  1.00  0.00    -0.000 C 
BRANCH  25  26
ATOM     26  C   UNL     1      47.089   2.769  13.930  1.00  0.00    -0.000 C 
BRANCH  26  27
ATOM     27  C   UNL     1      46.397   1.399  14.027  1.00  0.00    -0.000 C 
BRANCH  27  28
ATOM     28  C   UNL     1      44.866   1.495  13.894  1.00  0.00    -0.000 C 
BRANCH  28  29
ATOM     29  C   UNL     1      44.118   0.156  14.044  1.00  0.00    -0.003 C 
ATOM     30  C   UNL     1      44.782  -0.792  15.045  1.00  0.00     0.004 C 
ENDBRANCH  28  29
ENDBRANCH  27  28
ENDBRANCH  26  27
ENDBRANCH  25  26
ENDBRANCH  24  25
ENDBRANCH  23  24
ENDBRANCH  22  23
ENDBRANCH  21  22
ENDBRANCH  20  21
ENDBRANCH  19  20
ENDBRANCH  18  19
ENDBRANCH  17  18
ENDBRANCH   1  17
TORSDOF 26
ENDMDL
MODEL 5
REMARK VINA RESULT:    -3.781      4.953     12.460
REMARK INTER + INTRA:         -11.153
REMARK INTER:                 -10.543
REMARK INTRA:                  -0.610
REMARK UNBOUND:                -1.625
REMARK SMILES CCCCCCCCCCCCCCCCCCCCCCCCCCCC(=O)[O-]
REMARK SMILES IDX 15 1 16 2 17 3 18 4 19 5 20 6 21 7 22 8 23 9 24 10 25 11
REMARK SMILES IDX 26 12 27 13 28 14 29 15 30 16 14 17 13 18 12 19 11 20 10 21
REMARK SMILES IDX 9 22 8 23 7 24 6 25 5 26 4 27 3 28 2 29 1 30
REMARK H PARENT
REMARK Flexibility Score: inf
ROOT
ATOM      1  C   UNL     1      47.331   5.218  15.048  1.00  0.00     0.000 C 
ENDROOT
BRANCH   1   2
ATOM      2  C   UNL     1      46.448   6.329  15.637  1.00  0.00     0.000 C 
BRANCH   2   3
ATOM      3  C   UNL     1      47.113   7.040  16.829  1.00  0.00     0.000 C 
BRANCH   3   4
ATOM      4  C   UNL     1      46.554   8.460  17.058  1.00  0.00     0.000 C 
BRANCH   4   5
ATOM      5  C   UNL     1      45.090   8.634  16.616  1.00  0.00     0.000 C 
BRANCH   5   6
ATOM      6  C   UNL     1      44.054   8.569  17.751  1.00  0.00     0.000 C 
BRANCH   6   7
ATOM      7  C   UNL     1      44.110   9.796  18.676  1.00  0.00     0.000 C 
BRANCH   7   8
ATOM      8  C   UNL     1      45.546  10.287  18.913  1.00  0.00     0.000 C 
BRANCH   8   9
ATOM      9  C   UNL     1      45.839  10.557  20.400  1.00  0.00     0.000 C 
BRANCH   9  10
ATOM     10  C   UNL     1      45.934   9.259  21.227  1.00  0.00     0.000 C 
BRANCH  10  11
ATOM     11  C   UNL     1      44.571   8.623  21.568  1.00  0.00     0.000 C 
BRANCH  11  12
ATOM     12  C   UNL     1      43.865   9.257  22.783  1.00  0.00     0.006 C 
BRANCH  12  13
ATOM     13  C   UNL     1      44.849   9.614  23.908  1.00  0.00     0.053 C 
BRANCH  13  14
ATOM     14  C   UNL     1      44.283   9.257  25.247  1.00  0.00     0.041 C 
ATOM     15  O   UNL     1      45.049   8.942  26.196  1.00  0.00    -0.550 OA
ATOM     16  O   UNL     1      42.909   9.290  25.454  1.00  0.00    -0.550 OA
ENDBRANCH  13  14
ENDBRANCH  12  13
ENDBRANCH  11  12
ENDBRANCH  10  11
ENDBRANCH   9  10
ENDBRANCH   8   9
ENDBRANCH   7   8
ENDBRANCH   6   7
ENDBRANCH   5   6
ENDBRANCH   4   5
ENDBRANCH   3   4
ENDBRANCH   2   3
ENDBRANCH   1   2
BRANCH   1  17
ATOM     17  C   UNL     1      46.622   4.432  13.931  1.00  0.00     0.000 C 
BRANCH  17  18
ATOM     18  C   UNL     1      45.098   4.645  13.924  1.00  0.00     0.000 C 
BRANCH  18  19
ATOM     19  C   UNL     1      44.260   3.394  14.244  1.00  0.00     0.000 C 
BRANCH  19  20
ATOM     20  C   UNL     1      44.969   2.082  13.875  1.00  0.00     0.000 C 
BRANCH  20  21
ATOM     21  C   UNL     1      44.057   0.849  14.017  1.00  0.00     0.000 C 
BRANCH  21  22
ATOM     22  C   UNL     1      44.763  -0.513  13.875  1.00  0.00    -0.000 C 
BRANCH  22  23
ATOM     23  C   UNL     1      44.259  -1.562  14.881  1.00  0.00    -0.000 C 
BRANCH  23  24
ATOM     24  C   UNL     1      45.161  -2.814  14.923  1.00  0.00    -0.000 C 
BRANCH  24  25
ATOM     25  C   UNL     1      46.651  -2.504  15.160  1.00  0.00    -0.000 C 
BRANCH  25  26
ATOM     26  C   UNL     1      47.125  -2.629  16.619  1.00  0.00    -0.000 C 
BRANCH  26  27
ATOM     27  C   UNL     1      48.642  -2.851  16.741  1.00  0.00    -0.000 C 
BRANCH  27  28
ATOM     28  C   UNL     1      48.997  -4.185  17.423  1.00  0.00    -0.000 C 
BRANCH  28  29
ATOM     29  C   UNL     1      48.609  -5.443  16.624  1.00  0.00    -0.003 C 
ATOM     30  C   UNL     1      49.771  -6.422  16.446  1.00  0.00     0.004 C 
ENDBRANCH  28  29
ENDBRANCH  27  28
ENDBRANCH  26  27
ENDBRANCH  25  26
ENDBRANCH  24  25
ENDBRANCH  23  24
ENDBRANCH  22  23
ENDBRANCH  21  22
ENDBRANCH  20  21
ENDBRANCH  19  20
ENDBRANCH  18  19
ENDBRANCH  17  18
ENDBRANCH   1  17
TORSDOF 26
ENDMDL
MODEL 6
REMARK VINA RESULT:    -3.759      5.823      9.090
REMARK INTER + INTRA:         -11.097
REMARK INTER:                  -9.188
REMARK INTRA:                  -1.909
REMARK UNBOUND:                -1.625
REMARK SMILES CCCCCCCCCCCCCCCCCCCCCCCCCCCC(=O)[O-]
REMARK SMILES IDX 15 1 16 2 17 3 18 4 19 5 20 6 21 7 22 8 23 9 24 10 25 11
REMARK SMILES IDX 26 12 27 13 28 14 29 15 30 16 14 17 13 18 12 19 11 20 10 21
REMARK SMILES IDX 9 22 8 23 7 24 6 25 5 26 4 27 3 28 2 29 1 30
REMARK H PARENT
REMARK Flexibility Score: inf
ROOT
ATOM      1  C   UNL     1      44.125   8.373  20.948  1.00  0.00     0.000 C 
ENDROOT
BRANCH   1   2
ATOM      2  C   UNL     1      44.502   9.726  21.573  1.00  0.00     0.000 C 
BRANCH   2   3
ATOM      3  C   UNL     1      43.897  10.917  20.808  1.00  0.00     0.000 C 
BRANCH   3   4
ATOM      4  C   UNL     1      43.919  10.710  19.279  1.00  0.00     0.000 C 
BRANCH   4   5
ATOM      5  C   UNL     1      42.606  11.105  18.577  1.00  0.00     0.000 C 
BRANCH   5   6
ATOM      6  C   UNL     1      42.669  11.124  17.041  1.00  0.00     0.000 C 
BRANCH   6   7
ATOM      7  C   UNL     1      43.698  10.129  16.477  1.00  0.00     0.000 C 
BRANCH   7   8
ATOM      8  C   UNL     1      45.112  10.724  16.406  1.00  0.00     0.000 C 
BRANCH   8   9
ATOM      9  C   UNL     1      46.153   9.714  15.889  1.00  0.00     0.000 C 
BRANCH   9  10
ATOM     10  C   UNL     1      46.074   9.519  14.361  1.00  0.00     0.000 C 
BRANCH  10  11
ATOM     11  C   UNL     1      45.372   8.217  13.923  1.00  0.00     0.000 C 
BRANCH  11  12
ATOM     12  C   UNL     1      45.705   6.994  14.799  1.00  0.00     0.006 C 
BRANCH  12  13
ATOM     13  C   UNL     1      46.843   6.146  14.209  1.00  0.00     0.053 C 
BRANCH  13  14
ATOM     14  C   UNL     1      47.379   5.189  15.226  1.00  0.00     0.041 C 
ATOM     15  O   UNL     1      47.738   4.031  14.881  1.00  0.00    -0.550 OA
ATOM     16  O   UNL     1      47.503   5.580  16.555  1.00  0.00    -0.550 OA
ENDBRANCH  13  14
ENDBRANCH  12  13
ENDBRANCH  11  12
ENDBRANCH  10  11
ENDBRANCH   9  10
ENDBRANCH   8   9
ENDBRANCH   7   8
ENDBRANCH   6   7
ENDBRANCH   5   6
ENDBRANCH   4   5
ENDBRANCH   3   4
ENDBRANCH   2   3
ENDBRANCH   1   2
BRANCH   1  17
ATOM     17  C   UNL     1      44.722   8.188  19.542  1.00  0.00     0.000 C 
BRANCH  17  18
ATOM     18  C   UNL     1      46.254   8.042  19.556  1.00  0.00     0.000 C 
BRANCH  18  19
ATOM     19  C   UNL     1      46.774   6.597  19.657  1.00  0.00     0.000 C 
BRANCH  19  20
ATOM     20  C   UNL     1      47.169   6.196  21.087  1.00  0.00     0.000 C 
BRANCH  20  21
ATOM     21  C   UNL     1      47.115   7.376  22.076  1.00  0.00     0.000 C 
BRANCH  21  22
ATOM     22  C   UNL     1      48.478   7.995  22.440  1.00  0.00    -0.000 C 
BRANCH  22  23
ATOM     23  C   UNL     1      48.381   9.066  23.539  1.00  0.00    -0.000 C 
BRANCH  23  24
ATOM     24  C   UNL     1      47.462  10.239  23.135  1.00  0.00    -0.000 C 
BRANCH  24  25
ATOM     25  C   UNL     1      46.444  10.639  24.219  1.00  0.00    -0.000 C 
BRANCH  25  26
ATOM     26  C   UNL     1      45.754   9.466  24.939  1.00  0.00    -0.000 C 
BRANCH  26  27
ATOM     27  C   UNL     1      44.495   9.893  25.712  1.00  0.00    -0.000 C 
BRANCH  27  28
ATOM     28  C   UNL     1      43.807  11.125  25.096  1.00  0.00    -0.000 C 
BRANCH  28  29
ATOM     29  C   UNL     1      42.423  10.851  24.476  1.00  0.00    -0.003 C 
ATOM     30  C   UNL     1      41.897   9.448  24.783  1.00  0.00     0.004 C 
ENDBRANCH  28  29
ENDBRANCH  27  28
ENDBRANCH  26  27
ENDBRANCH  25  26
ENDBRANCH  24  25
ENDBRANCH  23  24
ENDBRANCH  22  23
ENDBRANCH  21  22
ENDBRANCH  20  21
ENDBRANCH  19  20
ENDBRANCH  18  19
ENDBRANCH  17  18
ENDBRANCH   1  17
TORSDOF 26
ENDMDL
MODEL 7
REMARK VINA RESULT:    -3.746      1.356      2.199
REMARK INTER + INTRA:         -11.066
REMARK INTER:                  -9.914
REMARK INTRA:                  -1.152
REMARK UNBOUND:                -1.625
REMARK SMILES CCCCCCCCCCCCCCCCCCCCCCCCCCCC(=O)[O-]
REMARK SMILES IDX 15 1 16 2 17 3 18 4 19 5 20 6 21 7 22 8 23 9 24 10 25 11
REMARK SMILES IDX 26 12 27 13 28 14 29 15 30 16 14 17 13 18 12 19 11 20 10 21
REMARK SMILES IDX 9 22 8 23 7 24 6 25 5 26 4 27 3 28 2 29 1 30
REMARK H PARENT
REMARK Flexibility Score: inf
ROOT
ATOM      1  C   UNL     1      47.488   5.577  16.227  1.00  0.00     0.000 C 
ENDROOT
BRANCH   1   2
ATOM      2  C   UNL     1      47.982   4.883  14.948  1.00  0.00     0.000 C 
BRANCH   2   3
ATOM      3  C   UNL     1      46.830   4.285  14.120  1.00  0.00     0.000 C 
BRANCH   3   4
ATOM      4  C   UNL     1      47.002   2.772  13.875  1.00  0.00     0.000 C 
BRANCH   4   5
ATOM      5  C   UNL     1      45.678   1.985  13.876  1.00  0.00     0.000 C 
BRANCH   5   6
ATOM      6  C   UNL     1      45.828   0.457  13.965  1.00  0.00     0.000 C 
BRANCH   6   7
ATOM      7  C   UNL     1      44.552  -0.236  14.475  1.00  0.00     0.000 C 
BRANCH   7   8
ATOM      8  C   UNL     1      44.772  -1.727  14.769  1.00  0.00     0.000 C 
BRANCH   8   9
ATOM      9  C   UNL     1      46.263  -2.096  14.870  1.00  0.00     0.000 C 
BRANCH   9  10
ATOM     10  C   UNL     1      46.512  -3.285  15.820  1.00  0.00     0.000 C 
BRANCH  10  11
ATOM     11  C   UNL     1      47.738  -3.118  16.740  1.00  0.00     0.000 C 
BRANCH  11  12
ATOM     12  C   UNL     1      48.386  -4.447  17.177  1.00  0.00     0.006 C 
BRANCH  12  13
ATOM     13  C   UNL     1      49.143  -5.132  16.029  1.00  0.00     0.053 C 
BRANCH  13  14
ATOM     14  C   UNL     1      49.704  -6.448  16.468  1.00  0.00     0.041 C 
ATOM     15  O   UNL     1      50.951  -6.616  16.536  1.00  0.00    -0.550 OA
ATOM     16  O   UNL     1      48.850  -7.486  16.823  1.00  0.00    -0.550 OA
ENDBRANCH  13  14
ENDBRANCH  12  13
ENDBRANCH  11  12
ENDBRANCH  10  11
ENDBRANCH   9  10
ENDBRANCH   8   9
ENDBRANCH   7   8
ENDBRANCH   6   7
ENDBRANCH   5   6
ENDBRANCH   4   5
ENDBRANCH   3   4
ENDBRANCH   2   3
ENDBRANCH   1   2
BRANCH   1  17
ATOM     17  C   UNL     1      46.572   6.777  15.930  1.00  0.00     0.000 C 
BRANCH  17  18
ATOM     18  C   UNL     1      46.827   7.972  16.866  1.00  0.00     0.000 C 
BRANCH  18  19
ATOM     19  C   UNL     1      46.508   9.354  16.267  1.00  0.00     0.000 C 
BRANCH  19  20
ATOM     20  C   UNL     1      45.013   9.553  15.974  1.00  0.00     0.000 C 
BRANCH  20  21
ATOM     21  C   UNL     1      44.495  10.935  16.416  1.00  0.00     0.000 C 
BRANCH  21  22
ATOM     22  C   UNL     1      43.070  10.950  17.000  1.00  0.00    -0.000 C 
BRANCH  22  23
ATOM     23  C   UNL     1      43.045  11.125  18.528  1.00  0.00    -0.000 C 
BRANCH  23  24
ATOM     24  C   UNL     1      43.600   9.888  19.269  1.00  0.00    -0.000 C 
BRANCH  24  25
ATOM     25  C   UNL     1      44.040  10.173  20.717  1.00  0.00    -0.000 C 
BRANCH  25  26
ATOM     26  C   UNL     1      44.253   8.927  21.597  1.00  0.00    -0.000 C 
BRANCH  26  27
ATOM     27  C   UNL     1      45.735   8.548  21.752  1.00  0.00    -0.000 C 
BRANCH  27  28
ATOM     28  C   UNL     1      46.217   8.611  23.213  1.00  0.00    -0.000 C 
BRANCH  28  29
ATOM     29  C   UNL     1      47.674   9.079  23.394  1.00  0.00    -0.003 C 
ATOM     30  C   UNL     1      48.696   8.081  22.847  1.00  0.00     0.004 C 
ENDBRANCH  28  29
ENDBRANCH  27  28
ENDBRANCH  26  27
ENDBRANCH  25  26
ENDBRANCH  24  25
ENDBRANCH  23  24
ENDBRANCH  22  23
ENDBRANCH  21  22
ENDBRANCH  20  21
ENDBRANCH  19  20
ENDBRANCH  18  19
ENDBRANCH  17  18
ENDBRANCH   1  17
TORSDOF 26
ENDMDL
MODEL 8
REMARK VINA RESULT:    -3.671      5.006     12.808
REMARK INTER + INTRA:         -10.875
REMARK INTER:                  -9.545
REMARK INTRA:                  -1.330
REMARK UNBOUND:                -1.625
REMARK SMILES CCCCCCCCCCCCCCCCCCCCCCCCCCCC(=O)[O-]
REMARK SMILES IDX 15 1 16 2 17 3 18 4 19 5 20 6 21 7 22 8 23 9 24 10 25 11
REMARK SMILES IDX 26 12 27 13 28 14 29 15 30 16 14 17 13 18 12 19 11 20 10 21
REMARK SMILES IDX 9 22 8 23 7 24 6 25 5 26 4 27 3 28 2 29 1 30
REMARK H PARENT
REMARK Flexibility Score: inf
ROOT
ATOM      1  C   UNL     1      47.534   3.449  13.974  1.00  0.00     0.000 C 
ENDROOT
BRANCH   1   2
ATOM      2  C   UNL     1      46.605   4.637  14.272  1.00  0.00     0.000 C 
BRANCH   2   3
ATOM      3  C   UNL     1      47.092   5.481  15.463  1.00  0.00     0.000 C 
BRANCH   3   4
ATOM      4  C   UNL     1      46.496   6.903  15.464  1.00  0.00     0.000 C 
BRANCH   4   5
ATOM      5  C   UNL     1      44.968   6.940  15.652  1.00  0.00     0.000 C 
BRANCH   5   6
ATOM      6  C   UNL     1      44.466   7.920  16.726  1.00  0.00     0.000 C 
BRANCH   6   7
ATOM      7  C   UNL     1      45.612   8.542  17.543  1.00  0.00     0.000 C 
BRANCH   7   8
ATOM      8  C   UNL     1      45.412  10.046  17.783  1.00  0.00     0.000 C 
BRANCH   8   9
ATOM      9  C   UNL     1      45.374  10.404  19.280  1.00  0.00     0.000 C 
BRANCH   9  10
ATOM     10  C   UNL     1      44.858   9.241  20.151  1.00  0.00     0.000 C 
BRANCH  10  11
ATOM     11  C   UNL     1      45.941   8.569  21.019  1.00  0.00     0.000 C 
BRANCH  11  12
ATOM     12  C   UNL     1      46.034   9.124  22.455  1.00  0.00     0.006 C 
BRANCH  12  13
ATOM     13  C   UNL     1      44.928   8.569  23.367  1.00  0.00     0.053 C 
BRANCH  13  14
ATOM     14  C   UNL     1      43.867   9.597  23.607  1.00  0.00     0.041 C 
ATOM     15  O   UNL     1      42.998   9.415  24.500  1.00  0.00    -0.550 OA
ATOM     16  O   UNL     1      43.849  10.768  22.857  1.00  0.00    -0.550 OA
ENDBRANCH  13  14
ENDBRANCH  12  13
ENDBRANCH  11  12
ENDBRANCH  10  11
ENDBRANCH   9  10
ENDBRANCH   8   9
ENDBRANCH   7   8
ENDBRANCH   6   7
ENDBRANCH   5   6
ENDBRANCH   4   5
ENDBRANCH   3   4
ENDBRANCH   2   3
ENDBRANCH   1   2
BRANCH   1  17
ATOM     17  C   UNL     1      46.772   2.115  13.880  1.00  0.00     0.000 C 
BRANCH  17  18
ATOM     18  C   UNL     1      45.244   2.297  13.875  1.00  0.00     0.000 C 
BRANCH  18  19
ATOM     19  C   UNL     1      44.446   1.155  14.530  1.00  0.00     0.000 C 
BRANCH  19  20
ATOM     20  C   UNL     1      45.067  -0.231  14.288  1.00  0.00     0.000 C 
BRANCH  20  21
ATOM     21  C   UNL     1      44.277  -1.366  14.965  1.00  0.00     0.000 C 
BRANCH  21  22
ATOM     22  C   UNL     1      44.565  -2.781  14.429  1.00  0.00    -0.000 C 
BRANCH  22  23
ATOM     23  C   UNL     1      46.063  -3.130  14.422  1.00  0.00    -0.000 C 
BRANCH  23  24
ATOM     24  C   UNL     1      46.643  -3.255  15.848  1.00  0.00    -0.000 C 
BRANCH  24  25
ATOM     25  C   UNL     1      48.172  -3.084  15.918  1.00  0.00    -0.000 C 
BRANCH  25  26
ATOM     26  C   UNL     1      48.864  -3.824  17.077  1.00  0.00    -0.000 C 
BRANCH  26  27
ATOM     27  C   UNL     1      48.770  -5.354  16.954  1.00  0.00    -0.000 C 
BRANCH  27  28
ATOM     28  C   UNL     1      49.819  -5.941  15.991  1.00  0.00    -0.000 C 
BRANCH  28  29
ATOM     29  C   UNL     1      51.019  -6.620  16.678  1.00  0.00    -0.003 C 
ATOM     30  C   UNL     1      50.671  -7.979  17.286  1.00  0.00     0.004 C 
ENDBRANCH  28  29
ENDBRANCH  27  28
ENDBRANCH  26  27
ENDBRANCH  25  26
ENDBRANCH  24  25
ENDBRANCH  23  24
ENDBRANCH  22  23
ENDBRANCH  21  22
ENDBRANCH  20  21
ENDBRANCH  19  20
ENDBRANCH  18  19
ENDBRANCH  17  18
ENDBRANCH   1  17
TORSDOF 26
ENDMDL
