MODEL 1
REMARK VINA RESULT:    -3.341      0.000      0.000
REMARK INTER + INTRA:         -14.345
REMARK INTER:                  -8.418
REMARK INTRA:                  -5.927
REMARK UNBOUND:                -5.927
REMARK SMILES CCCCCCCCCCCCCCCCCCCCCCCCCCCC(=O)[O-]
REMARK SMILES IDX 15 1 16 2 17 3 18 4 19 5 20 6 21 7 22 8 23 9 24 10 25 11
REMARK SMILES IDX 26 12 27 13 28 14 29 15 30 16 14 17 13 18 12 19 11 20 10 21
REMARK SMILES IDX 9 22 8 23 7 24 6 25 5 26 4 27 3 28 2 29 1 30
REMARK H PARENT
REMARK Flexibility Score: inf
ROOT
ATOM      1  C   UNL     1      10.639 -11.690  17.810  1.00  0.00     0.000 C 
ENDROOT
BRANCH   1   2
ATOM      2  C   UNL     1      11.463 -12.803  18.474  1.00  0.00     0.000 C 
BRANCH   2   3
ATOM      3  C   UNL     1      12.748 -13.142  17.698  1.00  0.00     0.000 C 
BRANCH   3   4
ATOM      4  C   UNL     1      14.039 -13.123  18.540  1.00  0.00     0.000 C 
BRANCH   4   5
ATOM      5  C   UNL     1      13.825 -13.090  20.066  1.00  0.00     0.000 C 
BRANCH   5   6
ATOM      6  C   UNL     1      14.689 -14.080  20.869  1.00  0.00     0.000 C 
BRANCH   6   7
ATOM      7  C   UNL     1      14.405 -15.549  20.512  1.00  0.00     0.000 C 
BRANCH   7   8
ATOM      8  C   UNL     1      12.983 -15.978  20.913  1.00  0.00     0.000 C 
BRANCH   8   9
ATOM      9  C   UNL     1      12.083 -16.221  19.690  1.00  0.00     0.000 C 
BRANCH   9  10
ATOM     10  C   UNL     1      12.637 -17.303  18.751  1.00  0.00     0.000 C 
BRANCH  10  11
ATOM     11  C   UNL     1      13.087 -16.738  17.391  1.00  0.00     0.000 C 
BRANCH  11  12
ATOM     12  C   UNL     1      14.535 -17.115  17.042  1.00  0.00     0.006 C 
BRANCH  12  13
ATOM     13  C   UNL     1      15.444 -15.891  16.878  1.00  0.00     0.053 C 
BRANCH  13  14
ATOM     14  C   UNL     1      15.319 -15.324  15.499  1.00  0.00     0.041 C 
ATOM     15  O   UNL     1      15.247 -14.078  15.332  1.00  0.00    -0.550 OA
ATOM     16  O   UNL     1      15.316 -16.169  14.396  1.00  0.00    -0.550 OA
ENDBRANCH  13  14
ENDBRANCH  12  13
ENDBRANCH  11  12
ENDBRANCH  10  11
ENDBRANCH   9  10
ENDBRANCH   8   9
ENDBRANCH   7   8
ENDBRANCH   6   7
ENDBRANCH   5   6
ENDBRANCH   4   5
ENDBRANCH   3   4
ENDBRANCH   2   3
ENDBRANCH   1   2
BRANCH   1  17
ATOM     17  C   UNL     1      11.501 -10.885  16.825  1.00  0.00     0.000 C 
BRANCH  17  18
ATOM     18  C   UNL     1      11.902  -9.506  17.372  1.00  0.00     0.000 C 
BRANCH  18  19
ATOM     19  C   UNL     1      13.224  -9.543  18.158  1.00  0.00     0.000 C 
BRANCH  19  20
ATOM     20  C   UNL     1      13.135  -8.800  19.501  1.00  0.00     0.000 C 
BRANCH  20  21
ATOM     21  C   UNL     1      13.017  -9.755  20.702  1.00  0.00     0.000 C 
BRANCH  21  22
ATOM     22  C   UNL     1      11.558 -10.040  21.093  1.00  0.00    -0.000 C 
BRANCH  22  23
ATOM     23  C   UNL     1      10.629  -8.844  20.825  1.00  0.00    -0.000 C 
BRANCH  23  24
ATOM     24  C   UNL     1       9.301  -9.263  20.175  1.00  0.00    -0.000 C 
BRANCH  24  25
ATOM     25  C   UNL     1       8.400 -10.060  21.132  1.00  0.00    -0.000 C 
BRANCH  25  26
ATOM     26  C   UNL     1       8.223 -11.504  20.646  1.00  0.00    -0.000 C 
BRANCH  26  27
ATOM     27  C   UNL     1       8.573 -12.505  21.756  1.00  0.00    -0.000 C 
BRANCH  27  28
ATOM     28  C   UNL     1       9.787 -13.380  21.403  1.00  0.00    -0.000 C 
BRANCH  28  29
ATOM     29  C   UNL     1      10.720 -13.609  22.601  1.00  0.00    -0.003 C 
ATOM     30  C   UNL     1      10.502 -12.549  23.676  1.00  0.00     0.004 C 
ENDBRANCH  28  29
ENDBRANCH  27  28
ENDBRANCH  26  27
ENDBRANCH  25  26
ENDBRANCH  24  25
ENDBRANCH  23  24
ENDBRANCH  22  23
ENDBRANCH  21  22
ENDBRANCH  20  21
ENDBRANCH  19  20
ENDBRANCH  18  19
ENDBRANCH  17  18
ENDBRANCH   1  17
TORSDOF 26
ENDMDL
MODEL 2
REMARK VINA RESULT:    -3.324      1.984      4.585
REMARK INTER + INTRA:         -14.304
REMARK INTER:                  -8.272
REMARK INTRA:                  -6.032
REMARK UNBOUND:                -5.927
REMARK SMILES CCCCCCCCCCCCCCCCCCCCCCCCCCCC(=O)[O-]
REMARK SMILES IDX 15 1 16 2 17 3 18 4 19 5 20 6 21 7 22 8 23 9 24 10 25 11
REMARK SMILES IDX 26 12 27 13 28 14 29 15 30 16 14 17 13 18 12 19 11 20 10 21
REMARK SMILES IDX 9 22 8 23 7 24 6 25 5 26 4 27 3 28 2 29 1 30
REMARK H PARENT
REMARK Flexibility Score: inf
ROOT
ATOM      1  C   UNL     1      12.250 -14.235  22.538  1.00  0.00     0.000 C 
ENDROOT
BRANCH   1   2
ATOM      2  C   UNL     1      12.334 -12.979  23.419  1.00  0.00     0.000 C 
BRANCH   2   3
ATOM      3  C   UNL     1      13.045 -11.806  22.722  1.00  0.00     0.000 C 
BRANCH   3   4
ATOM      4  C   UNL     1      14.222 -12.209  21.812  1.00  0.00     0.000 C 
BRANCH   4   5
ATOM      5  C   UNL     1      14.428 -11.315  20.573  1.00  0.00     0.000 C 
BRANCH   5   6
ATOM      6  C   UNL     1      13.767  -9.926  20.651  1.00  0.00     0.000 C 
BRANCH   6   7
ATOM      7  C   UNL     1      13.531  -9.296  19.267  1.00  0.00     0.000 C 
BRANCH   7   8
ATOM      8  C   UNL     1      14.133 -10.144  18.134  1.00  0.00     0.000 C 
BRANCH   8   9
ATOM      9  C   UNL     1      13.139 -10.365  16.982  1.00  0.00     0.000 C 
BRANCH   9  10
ATOM     10  C   UNL     1      13.186 -11.796  16.425  1.00  0.00     0.000 C 
BRANCH  10  11
ATOM     11  C   UNL     1      14.280 -12.656  17.083  1.00  0.00     0.000 C 
BRANCH  11  12
ATOM     12  C   UNL     1      14.063 -14.162  16.864  1.00  0.00     0.006 C 
BRANCH  12  13
ATOM     13  C   UNL     1      14.735 -15.022  17.942  1.00  0.00     0.053 C 
BRANCH  13  14
ATOM     14  C   UNL     1      14.022 -16.328  18.093  1.00  0.00     0.041 C 
ATOM     15  O   UNL     1      14.393 -17.154  18.968  1.00  0.00    -0.550 OA
ATOM     16  O   UNL     1      12.924 -16.620  17.292  1.00  0.00    -0.550 OA
ENDBRANCH  13  14
ENDBRANCH  12  13
ENDBRANCH  11  12
ENDBRANCH  10  11
ENDBRANCH   9  10
ENDBRANCH   8   9
ENDBRANCH   7   8
ENDBRANCH   6   7
ENDBRANCH   5   6
ENDBRANCH   4   5
ENDBRANCH   3   4
ENDBRANCH   2   3
ENDBRANCH   1   2
BRANCH   1  17
ATOM     17  C   UNL     1      10.846 -14.386  21.933  1.00  0.00     0.000 C 
BRANCH  17  18
ATOM     18  C   UNL     1      10.876 -14.682  20.425  1.00  0.00     0.000 C 
BRANCH  18  19
ATOM     19  C   UNL     1      11.670 -13.631  19.631  1.00  0.00     0.000 C 
BRANCH  19  20
ATOM     20  C   UNL     1      10.762 -12.589  18.956  1.00  0.00     0.000 C 
BRANCH  20  21
ATOM     21  C   UNL     1      10.400 -11.422  19.892  1.00  0.00     0.000 C 
BRANCH  21  22
ATOM     22  C   UNL     1       9.094 -10.718  19.486  1.00  0.00    -0.000 C 
BRANCH  22  23
ATOM     23  C   UNL     1       7.999 -10.842  20.558  1.00  0.00    -0.000 C 
BRANCH  23  24
ATOM     24  C   UNL     1       8.223 -12.042  21.493  1.00  0.00    -0.000 C 
BRANCH  24  25
ATOM     25  C   UNL     1       8.238 -11.642  22.976  1.00  0.00    -0.000 C 
BRANCH  25  26
ATOM     26  C   UNL     1       9.475 -10.796  23.305  1.00  0.00    -0.000 C 
BRANCH  26  27
ATOM     27  C   UNL     1       9.074  -9.460  23.946  1.00  0.00    -0.000 C 
BRANCH  27  28
ATOM     28  C   UNL     1       9.580  -8.245  23.151  1.00  0.00    -0.000 C 
BRANCH  28  29
ATOM     29  C   UNL     1      10.750  -8.593  22.220  1.00  0.00    -0.003 C 
ATOM     30  C   UNL     1      10.730  -7.724  20.966  1.00  0.00     0.004 C 
ENDBRANCH  28  29
ENDBRANCH  27  28
ENDBRANCH  26  27
ENDBRANCH  25  26
ENDBRANCH  24  25
ENDBRANCH  23  24
ENDBRANCH  22  23
ENDBRANCH  21  22
ENDBRANCH  20  21
ENDBRANCH  19  20
ENDBRANCH  18  19
ENDBRANCH  17  18
ENDBRANCH   1  17
TORSDOF 26
ENDMDL
MODEL 3
REMARK VINA RESULT:    -3.314      1.633      3.103
REMARK INTER + INTRA:         -14.278
REMARK INTER:                  -8.098
REMARK INTRA:                  -6.180
REMARK UNBOUND:                -5.927
REMARK SMILES CCCCCCCCCCCCCCCCCCCCCCCCCCCC(=O)[O-]
REMARK SMILES IDX 15 1 16 2 17 3 18 4 19 5 20 6 21 7 22 8 23 9 24 10 25 11
REMARK SMILES IDX 26 12 27 13 28 14 29 15 30 16 14 17 13 18 12 19 11 20 10 21
REMARK SMILES IDX 9 22 8 23 7 24 6 25 5 26 4 27 3 28 2 29 1 30
REMARK H PARENT
REMARK Flexibility Score: inf
ROOT
ATOM      1  C   UNL     1      11.144 -12.076  18.058  1.00  0.00     0.000 C 
ENDROOT
BRANCH   1   2
ATOM      2  C   UNL     1      10.373 -12.497  19.317  1.00  0.00     0.000 C 
BRANCH   2   3
ATOM      3  C   UNL     1      11.271 -13.162  20.375  1.00  0.00     0.000 C 
BRANCH   3   4
ATOM      4  C   UNL     1      10.515 -13.937  21.473  1.00  0.00     0.000 C 
BRANCH   4   5
ATOM      5  C   UNL     1      11.217 -13.981  22.845  1.00  0.00     0.000 C 
BRANCH   5   6
ATOM      6  C   UNL     1      11.730 -12.624  23.361  1.00  0.00     0.000 C 
BRANCH   6   7
ATOM      7  C   UNL     1      13.178 -12.688  23.877  1.00  0.00     0.000 C 
BRANCH   7   8
ATOM      8  C   UNL     1      13.891 -13.980  23.443  1.00  0.00     0.000 C 
BRANCH   8   9
ATOM      9  C   UNL     1      14.930 -13.728  22.337  1.00  0.00     0.000 C 
BRANCH   9  10
ATOM     10  C   UNL     1      14.574 -14.430  21.018  1.00  0.00     0.000 C 
BRANCH  10  11
ATOM     11  C   UNL     1      13.906 -15.801  21.234  1.00  0.00     0.000 C 
BRANCH  11  12
ATOM     12  C   UNL     1      13.803 -16.621  19.939  1.00  0.00     0.006 C 
BRANCH  12  13
ATOM     13  C   UNL     1      12.531 -16.312  19.140  1.00  0.00     0.053 C 
BRANCH  13  14
ATOM     14  C   UNL     1      12.877 -15.730  17.805  1.00  0.00     0.041 C 
ATOM     15  O   UNL     1      13.503 -14.639  17.734  1.00  0.00    -0.550 OA
ATOM     16  O   UNL     1      12.539 -16.408  16.641  1.00  0.00    -0.550 OA
ENDBRANCH  13  14
ENDBRANCH  12  13
ENDBRANCH  11  12
ENDBRANCH  10  11
ENDBRANCH   9  10
ENDBRANCH   8   9
ENDBRANCH   7   8
ENDBRANCH   6   7
ENDBRANCH   5   6
ENDBRANCH   4   5
ENDBRANCH   3   4
ENDBRANCH   2   3
ENDBRANCH   1   2
BRANCH   1  17
ATOM     17  C   UNL     1      10.944 -10.581  17.766  1.00  0.00     0.000 C 
BRANCH  17  18
ATOM     18  C   UNL     1      12.139  -9.952  17.032  1.00  0.00     0.000 C 
BRANCH  18  19
ATOM     19  C   UNL     1      13.470 -10.645  17.365  1.00  0.00     0.000 C 
BRANCH  19  20
ATOM     20  C   UNL     1      14.200  -9.988  18.548  1.00  0.00     0.000 C 
BRANCH  20  21
ATOM     21  C   UNL     1      14.271 -10.903  19.784  1.00  0.00     0.000 C 
BRANCH  21  22
ATOM     22  C   UNL     1      13.551 -10.309  21.005  1.00  0.00    -0.000 C 
BRANCH  22  23
ATOM     23  C   UNL     1      13.223  -8.816  20.829  1.00  0.00    -0.000 C 
BRANCH  23  24
ATOM     24  C   UNL     1      11.870  -8.433  21.449  1.00  0.00    -0.000 C 
BRANCH  24  25
ATOM     25  C   UNL     1      10.894  -9.618  21.519  1.00  0.00    -0.000 C 
BRANCH  25  26
ATOM     26  C   UNL     1       9.547  -9.259  20.879  1.00  0.00    -0.000 C 
BRANCH  26  27
ATOM     27  C   UNL     1       8.378  -9.742  21.750  1.00  0.00    -0.000 C 
BRANCH  27  28
ATOM     28  C   UNL     1       7.804 -11.088  21.278  1.00  0.00    -0.000 C 
BRANCH  28  29
ATOM     29  C   UNL     1       7.424 -12.011  22.443  1.00  0.00    -0.003 C 
ATOM     30  C   UNL     1       8.314 -11.758  23.656  1.00  0.00     0.004 C 
ENDBRANCH  28  29
ENDBRANCH  27  28
ENDBRANCH  26  27
ENDBRANCH  25  26
ENDBRANCH  24  25
ENDBRANCH  23  24
ENDBRANCH  22  23
ENDBRANCH  21  22
ENDBRANCH  20  21
ENDBRANCH  19  20
ENDBRANCH  18  19
ENDBRANCH  17  18
ENDBRANCH   1  17
TORSDOF 26
ENDMDL
MODEL 4
REMARK VINA RESULT:    -3.276      2.002      4.912
REMARK INTER + INTRA:         -14.182
REMARK INTER:                  -8.127
REMARK INTRA:                  -6.055
REMARK UNBOUND:                -5.927
REMARK SMILES CCCCCCCCCCCCCCCCCCCCCCCCCCCC(=O)[O-]
REMARK SMILES IDX 15 1 16 2 17 3 18 4 19 5 20 6 21 7 22 8 23 9 24 10 25 11
REMARK SMILES IDX 26 12 27 13 28 14 29 15 30 16 14 17 13 18 12 19 11 20 10 21
REMARK SMILES IDX 9 22 8 23 7 24 6 25 5 26 4 27 3 28 2 29 1 30
REMARK H PARENT
REMARK Flexibility Score: inf
ROOT
ATOM      1  C   UNL     1      10.927 -13.334  19.664  1.00  0.00     0.000 C 
ENDROOT
BRANCH   1   2
ATOM      2  C   UNL     1      10.562 -14.120  20.932  1.00  0.00     0.000 C 
BRANCH   2   3
ATOM      3  C   UNL     1      11.796 -14.650  21.684  1.00  0.00     0.000 C 
BRANCH   3   4
ATOM      4  C   UNL     1      12.157 -13.875  22.967  1.00  0.00     0.000 C 
BRANCH   4   5
ATOM      5  C   UNL     1      13.035 -12.626  22.752  1.00  0.00     0.000 C 
BRANCH   5   6
ATOM      6  C   UNL     1      14.242 -12.829  21.818  1.00  0.00     0.000 C 
BRANCH   6   7
ATOM      7  C   UNL     1      14.247 -11.856  20.626  1.00  0.00     0.000 C 
BRANCH   7   8
ATOM      8  C   UNL     1      13.864 -10.426  21.043  1.00  0.00     0.000 C 
BRANCH   8   9
ATOM      9  C   UNL     1      13.592  -9.519  19.832  1.00  0.00     0.000 C 
BRANCH   9  10
ATOM     10  C   UNL     1      14.031 -10.157  18.504  1.00  0.00     0.000 C 
BRANCH  10  11
ATOM     11  C   UNL     1      12.913 -10.157  17.445  1.00  0.00     0.000 C 
BRANCH  11  12
ATOM     12  C   UNL     1      12.862 -11.463  16.638  1.00  0.00     0.006 C 
BRANCH  12  13
ATOM     13  C   UNL     1      13.972 -12.447  17.028  1.00  0.00     0.053 C 
BRANCH  13  14
ATOM     14  C   UNL     1      13.612 -13.838  16.615  1.00  0.00     0.041 C 
ATOM     15  O   UNL     1      12.403 -14.183  16.540  1.00  0.00    -0.550 OA
ATOM     16  O   UNL     1      14.610 -14.745  16.277  1.00  0.00    -0.550 OA
ENDBRANCH  13  14
ENDBRANCH  12  13
ENDBRANCH  11  12
ENDBRANCH  10  11
ENDBRANCH   9  10
ENDBRANCH   8   9
ENDBRANCH   7   8
ENDBRANCH   6   7
ENDBRANCH   5   6
ENDBRANCH   4   5
ENDBRANCH   3   4
ENDBRANCH   2   3
ENDBRANCH   1   2
BRANCH   1  17
ATOM     17  C   UNL     1      10.591 -11.844  19.828  1.00  0.00     0.000 C 
BRANCH  17  18
ATOM     18  C   UNL     1       9.417 -11.396  18.942  1.00  0.00     0.000 C 
BRANCH  18  19
ATOM     19  C   UNL     1       8.228 -10.865  19.760  1.00  0.00     0.000 C 
BRANCH  19  20
ATOM     20  C   UNL     1       7.888 -11.763  20.962  1.00  0.00     0.000 C 
BRANCH  20  21
ATOM     21  C   UNL     1       7.909 -11.000  22.298  1.00  0.00     0.000 C 
BRANCH  21  22
ATOM     22  C   UNL     1       8.825 -11.658  23.343  1.00  0.00    -0.000 C 
BRANCH  22  23
ATOM     23  C   UNL     1       9.865 -10.680  23.915  1.00  0.00    -0.000 C 
BRANCH  23  24
ATOM     24  C   UNL     1      10.646  -9.941  22.816  1.00  0.00    -0.000 C 
BRANCH  24  25
ATOM     25  C   UNL     1      10.523  -8.413  22.929  1.00  0.00    -0.000 C 
BRANCH  25  26
ATOM     26  C   UNL     1      10.953  -7.730  21.624  1.00  0.00    -0.000 C 
BRANCH  26  27
ATOM     27  C   UNL     1       9.803  -7.718  20.606  1.00  0.00    -0.000 C 
BRANCH  27  28
ATOM     28  C   UNL     1      10.297  -7.809  19.152  1.00  0.00    -0.000 C 
BRANCH  28  29
ATOM     29  C   UNL     1      11.369  -6.760  18.825  1.00  0.00    -0.003 C 
ATOM     30  C   UNL     1      10.768  -5.581  18.066  1.00  0.00     0.004 C 
ENDBRANCH  28  29
ENDBRANCH  27  28
ENDBRANCH  26  27
ENDBRANCH  25  26
ENDBRANCH  24  25
ENDBRANCH  23  24
ENDBRANCH  22  23
ENDBRANCH  21  22
ENDBRANCH  20  21
ENDBRANCH  19  20
ENDBRANCH  18  19
ENDBRANCH  17  18
ENDBRANCH   1  17
TORSDOF 26
ENDMDL
MODEL 5
REMARK VINA RESULT:    -3.271      1.579      3.195
REMARK INTER + INTRA:         -14.169
REMARK INTER:                  -8.739
REMARK INTRA:                  -5.430
REMARK UNBOUND:                -5.927
REMARK SMILES CCCCCCCCCCCCCCCCCCCCCCCCCCCC(=O)[O-]
REMARK SMILES IDX 15 1 16 2 17 3 18 4 19 5 20 6 21 7 22 8 23 9 24 10 25 11
REMARK SMILES IDX 26 12 27 13 28 14 29 15 30 16 14 17 13 18 12 19 11 20 10 21
REMARK SMILES IDX 9 22 8 23 7 24 6 25 5 26 4 27 3 28 2 29 1 30
REMARK H PARENT
REMARK Flexibility Score: inf
ROOT
ATOM      1  C   UNL     1      10.776 -10.928  17.727  1.00  0.00     0.000 C 
ENDROOT
BRANCH   1   2
ATOM      2  C   UNL     1      11.304 -12.319  18.108  1.00  0.00     0.000 C 
BRANCH   2   3
ATOM      3  C   UNL     1      10.893 -12.748  19.528  1.00  0.00     0.000 C 
BRANCH   3   4
ATOM      4  C   UNL     1      11.103 -14.242  19.840  1.00  0.00     0.000 C 
BRANCH   4   5
ATOM      5  C   UNL     1      10.497 -14.725  21.173  1.00  0.00     0.000 C 
BRANCH   5   6
ATOM      6  C   UNL     1      10.868 -13.878  22.405  1.00  0.00     0.000 C 
BRANCH   6   7
ATOM      7  C   UNL     1      12.094 -14.424  23.159  1.00  0.00     0.000 C 
BRANCH   7   8
ATOM      8  C   UNL     1      13.058 -13.304  23.584  1.00  0.00     0.000 C 
BRANCH   8   9
ATOM      9  C   UNL     1      14.392 -13.365  22.822  1.00  0.00     0.000 C 
BRANCH   9  10
ATOM     10  C   UNL     1      14.360 -14.357  21.649  1.00  0.00     0.000 C 
BRANCH  10  11
ATOM     11  C   UNL     1      14.660 -13.689  20.295  1.00  0.00     0.000 C 
BRANCH  11  12
ATOM     12  C   UNL     1      14.948 -14.709  19.182  1.00  0.00     0.006 C 
BRANCH  12  13
ATOM     13  C   UNL     1      14.399 -14.271  17.818  1.00  0.00     0.053 C 
BRANCH  13  14
ATOM     14  C   UNL     1      14.881 -15.186  16.738  1.00  0.00     0.041 C 
ATOM     15  O   UNL     1      14.417 -15.088  15.571  1.00  0.00    -0.550 OA
ATOM     16  O   UNL     1      15.869 -16.125  17.010  1.00  0.00    -0.550 OA
ENDBRANCH  13  14
ENDBRANCH  12  13
ENDBRANCH  11  12
ENDBRANCH  10  11
ENDBRANCH   9  10
ENDBRANCH   8   9
ENDBRANCH   7   8
ENDBRANCH   6   7
ENDBRANCH   5   6
ENDBRANCH   4   5
ENDBRANCH   3   4
ENDBRANCH   2   3
ENDBRANCH   1   2
BRANCH   1  17
ATOM     17  C   UNL     1      11.927  -9.999  17.315  1.00  0.00     0.000 C 
BRANCH  17  18
ATOM     18  C   UNL     1      13.253 -10.749  17.106  1.00  0.00     0.000 C 
BRANCH  18  19
ATOM     19  C   UNL     1      14.367 -10.253  18.042  1.00  0.00     0.000 C 
BRANCH  19  20
ATOM     20  C   UNL     1      13.829  -9.405  19.207  1.00  0.00     0.000 C 
BRANCH  20  21
ATOM     21  C   UNL     1      13.911 -10.135  20.560  1.00  0.00     0.000 C 
BRANCH  21  22
ATOM     22  C   UNL     1      12.527 -10.449  21.151  1.00  0.00    -0.000 C 
BRANCH  22  23
ATOM     23  C   UNL     1      12.356  -9.901  22.578  1.00  0.00    -0.000 C 
BRANCH  23  24
ATOM     24  C   UNL     1      10.975 -10.223  23.171  1.00  0.00    -0.000 C 
BRANCH  24  25
ATOM     25  C   UNL     1       9.831  -9.976  22.175  1.00  0.00    -0.000 C 
BRANCH  25  26
ATOM     26  C   UNL     1       8.567 -10.742  22.588  1.00  0.00    -0.000 C 
BRANCH  26  27
ATOM     27  C   UNL     1       8.061 -11.627  21.440  1.00  0.00    -0.000 C 
BRANCH  27  28
ATOM     28  C   UNL     1       7.811 -10.834  20.146  1.00  0.00    -0.000 C 
BRANCH  28  29
ATOM     29  C   UNL     1       6.742  -9.745  20.316  1.00  0.00    -0.003 C 
ATOM     30  C   UNL     1       6.081  -9.412  18.982  1.00  0.00     0.004 C 
ENDBRANCH  28  29
ENDBRANCH  27  28
ENDBRANCH  26  27
ENDBRANCH  25  26
ENDBRANCH  24  25
ENDBRANCH  23  24
ENDBRANCH  22  23
ENDBRANCH  21  22
ENDBRANCH  20  21
ENDBRANCH  19  20
ENDBRANCH  18  19
ENDBRANCH  17  18
ENDBRANCH   1  17
TORSDOF 26
ENDMDL
MODEL 6
REMARK VINA RESULT:    -3.265      3.529      6.821
REMARK INTER + INTRA:         -14.154
REMARK INTER:                  -7.816
REMARK INTRA:                  -6.338
REMARK UNBOUND:                -5.927
REMARK SMILES CCCCCCCCCCCCCCCCCCCCCCCCCCCC(=O)[O-]
REMARK SMILES IDX 15 1 16 2 17 3 18 4 19 5 20 6 21 7 22 8 23 9 24 10 25 11
REMARK SMILES IDX 26 12 27 13 28 14 29 15 30 16 14 17 13 18 12 19 11 20 10 21
REMARK SMILES IDX 9 22 8 23 7 24 6 25 5 26 4 27 3 28 2 29 1 30
REMARK H PARENT
REMARK Flexibility Score: inf
ROOT
ATOM      1  C   UNL     1      11.108 -12.871  19.261  1.00  0.00     0.000 C 
ENDROOT
BRANCH   1   2
ATOM      2  C   UNL     1      12.036 -14.035  18.883  1.00  0.00     0.000 C 
BRANCH   2   3
ATOM      3  C   UNL     1      12.691 -13.854  17.502  1.00  0.00     0.000 C 
BRANCH   3   4
ATOM      4  C   UNL     1      14.019 -13.073  17.511  1.00  0.00     0.000 C 
BRANCH   4   5
ATOM      5  C   UNL     1      13.907 -11.585  17.123  1.00  0.00     0.000 C 
BRANCH   5   6
ATOM      6  C   UNL     1      12.770 -11.250  16.140  1.00  0.00     0.000 C 
BRANCH   6   7
ATOM      7  C   UNL     1      11.785 -10.206  16.695  1.00  0.00     0.000 C 
BRANCH   7   8
ATOM      8  C   UNL     1      12.320  -9.523  17.965  1.00  0.00     0.000 C 
BRANCH   8   9
ATOM      9  C   UNL     1      11.228  -8.733  18.704  1.00  0.00     0.000 C 
BRANCH   9  10
ATOM     10  C   UNL     1      11.601  -7.257  18.911  1.00  0.00     0.000 C 
BRANCH  10  11
ATOM     11  C   UNL     1      11.559  -6.833  20.391  1.00  0.00     0.000 C 
BRANCH  11  12
ATOM     12  C   UNL     1      12.910  -7.020  21.100  1.00  0.00     0.006 C 
BRANCH  12  13
ATOM     13  C   UNL     1      14.103  -6.902  20.143  1.00  0.00     0.053 C 
BRANCH  13  14
ATOM     14  C   UNL     1      14.670  -5.518  20.178  1.00  0.00     0.041 C 
ATOM     15  O   UNL     1      14.330  -4.673  19.308  1.00  0.00    -0.550 OA
ATOM     16  O   UNL     1      15.547  -5.149  21.191  1.00  0.00    -0.550 OA
ENDBRANCH  13  14
ENDBRANCH  12  13
ENDBRANCH  11  12
ENDBRANCH  10  11
ENDBRANCH   9  10
ENDBRANCH   8   9
ENDBRANCH   7   8
ENDBRANCH   6   7
ENDBRANCH   5   6
ENDBRANCH   4   5
ENDBRANCH   3   4
ENDBRANCH   2   3
ENDBRANCH   1   2
BRANCH   1  17
ATOM     17  C   UNL     1      10.321 -13.192  20.541  1.00  0.00     0.000 C 
BRANCH  17  18
ATOM     18  C   UNL     1      10.929 -14.356  21.339  1.00  0.00     0.000 C 
BRANCH  18  19
ATOM     19  C   UNL     1      11.269 -13.966  22.787  1.00  0.00     0.000 C 
BRANCH  19  20
ATOM     20  C   UNL     1      12.752 -14.193  23.129  1.00  0.00     0.000 C 
BRANCH  20  21
ATOM     21  C   UNL     1      13.510 -14.941  22.018  1.00  0.00     0.000 C 
BRANCH  21  22
ATOM     22  C   UNL     1      14.657 -14.111  21.419  1.00  0.00    -0.000 C 
BRANCH  22  23
ATOM     23  C   UNL     1      14.655 -12.655  21.916  1.00  0.00    -0.000 C 
BRANCH  23  24
ATOM     24  C   UNL     1      14.251 -11.659  20.818  1.00  0.00    -0.000 C 
BRANCH  24  25
ATOM     25  C   UNL     1      13.301 -10.565  21.332  1.00  0.00    -0.000 C 
BRANCH  25  26
ATOM     26  C   UNL     1      13.181 -10.615  22.861  1.00  0.00    -0.000 C 
BRANCH  26  27
ATOM     27  C   UNL     1      11.751 -10.285  23.311  1.00  0.00    -0.000 C 
BRANCH  27  28
ATOM     28  C   UNL     1      10.814  -9.977  22.132  1.00  0.00    -0.000 C 
BRANCH  28  29
ATOM     29  C   UNL     1       9.341 -10.259  22.457  1.00  0.00    -0.003 C 
ATOM     30  C   UNL     1       9.207 -11.047  23.757  1.00  0.00     0.004 C 
ENDBRANCH  28  29
ENDBRANCH  27  28
ENDBRANCH  26  27
ENDBRANCH  25  26
ENDBRANCH  24  25
ENDBRANCH  23  24
ENDBRANCH  22  23
ENDBRANCH  21  22
ENDBRANCH  20  21
ENDBRANCH  19  20
ENDBRANCH  18  19
ENDBRANCH  17  18
ENDBRANCH   1  17
TORSDOF 26
ENDMDL
MODEL 7
REMARK VINA RESULT:    -3.264      2.413      5.280
REMARK INTER + INTRA:         -14.152
REMARK INTER:                  -8.191
REMARK INTRA:                  -5.961
REMARK UNBOUND:                -5.927
REMARK SMILES CCCCCCCCCCCCCCCCCCCCCCCCCCCC(=O)[O-]
REMARK SMILES IDX 15 1 16 2 17 3 18 4 19 5 20 6 21 7 22 8 23 9 24 10 25 11
REMARK SMILES IDX 26 12 27 13 28 14 29 15 30 16 14 17 13 18 12 19 11 20 10 21
REMARK SMILES IDX 9 22 8 23 7 24 6 25 5 26 4 27 3 28 2 29 1 30
REMARK H PARENT
REMARK Flexibility Score: inf
ROOT
ATOM      1  C   UNL     1      10.419 -12.528  22.395  1.00  0.00     0.000 C 
ENDROOT
BRANCH   1   2
ATOM      2  C   UNL     1      10.367 -13.968  21.864  1.00  0.00     0.000 C 
BRANCH   2   3
ATOM      3  C   UNL     1      11.069 -14.131  20.504  1.00  0.00     0.000 C 
BRANCH   3   4
ATOM      4  C   UNL     1      12.030 -12.985  20.130  1.00  0.00     0.000 C 
BRANCH   4   5
ATOM      5  C   UNL     1      13.458 -13.425  19.750  1.00  0.00     0.000 C 
BRANCH   5   6
ATOM      6  C   UNL     1      14.586 -12.732  20.535  1.00  0.00     0.000 C 
BRANCH   6   7
ATOM      7  C   UNL     1      14.064 -11.861  21.691  1.00  0.00     0.000 C 
BRANCH   7   8
ATOM      8  C   UNL     1      14.717 -12.228  23.034  1.00  0.00     0.000 C 
BRANCH   8   9
ATOM      9  C   UNL     1      14.976 -13.739  23.161  1.00  0.00     0.000 C 
BRANCH   9  10
ATOM     10  C   UNL     1      13.729 -14.519  23.607  1.00  0.00     0.000 C 
BRANCH  10  11
ATOM     11  C   UNL     1      13.468 -15.768  22.745  1.00  0.00     0.000 C 
BRANCH  11  12
ATOM     12  C   UNL     1      14.757 -16.361  22.155  1.00  0.00     0.006 C 
BRANCH  12  13
ATOM     13  C   UNL     1      14.651 -16.631  20.649  1.00  0.00     0.053 C 
BRANCH  13  14
ATOM     14  C   UNL     1      13.556 -17.610  20.367  1.00  0.00     0.041 C 
ATOM     15  O   UNL     1      13.618 -18.780  20.828  1.00  0.00    -0.550 OA
ATOM     16  O   UNL     1      12.448 -17.221  19.623  1.00  0.00    -0.550 OA
ENDBRANCH  13  14
ENDBRANCH  12  13
ENDBRANCH  11  12
ENDBRANCH  10  11
ENDBRANCH   9  10
ENDBRANCH   8   9
ENDBRANCH   7   8
ENDBRANCH   6   7
ENDBRANCH   5   6
ENDBRANCH   4   5
ENDBRANCH   3   4
ENDBRANCH   2   3
ENDBRANCH   1   2
BRANCH   1  17
ATOM     17  C   UNL     1       9.107 -12.157  23.102  1.00  0.00     0.000 C 
BRANCH  17  18
ATOM     18  C   UNL     1       7.909 -12.092  22.141  1.00  0.00     0.000 C 
BRANCH  18  19
ATOM     19  C   UNL     1       7.875 -10.788  21.327  1.00  0.00     0.000 C 
BRANCH  19  20
ATOM     20  C   UNL     1       7.874 -11.037  19.809  1.00  0.00     0.000 C 
BRANCH  20  21
ATOM     21  C   UNL     1       9.291 -11.048  19.208  1.00  0.00     0.000 C 
BRANCH  21  22
ATOM     22  C   UNL     1       9.952  -9.660  19.219  1.00  0.00    -0.000 C 
BRANCH  22  23
ATOM     23  C   UNL     1      11.035  -9.530  20.303  1.00  0.00    -0.000 C 
BRANCH  23  24
ATOM     24  C   UNL     1      12.441  -9.343  19.712  1.00  0.00    -0.000 C 
BRANCH  24  25
ATOM     25  C   UNL     1      12.447  -9.377  18.175  1.00  0.00    -0.000 C 
BRANCH  25  26
ATOM     26  C   UNL     1      13.569 -10.281  17.649  1.00  0.00    -0.000 C 
BRANCH  26  27
ATOM     27  C   UNL     1      13.093 -11.101  16.442  1.00  0.00    -0.000 C 
BRANCH  27  28
ATOM     28  C   UNL     1      11.708 -11.732  16.661  1.00  0.00    -0.000 C 
BRANCH  28  29
ATOM     29  C   UNL     1      10.753 -11.487  15.485  1.00  0.00    -0.003 C 
ATOM     30  C   UNL     1      11.338 -10.475  14.505  1.00  0.00     0.004 C 
ENDBRANCH  28  29
ENDBRANCH  27  28
ENDBRANCH  26  27
ENDBRANCH  25  26
ENDBRANCH  24  25
ENDBRANCH  23  24
ENDBRANCH  22  23
ENDBRANCH  21  22
ENDBRANCH  20  21
ENDBRANCH  19  20
ENDBRANCH  18  19
ENDBRANCH  17  18
ENDBRANCH   1  17
TORSDOF 26
ENDMDL
MODEL 8
REMARK VINA RESULT:    -3.235      2.633      6.950
REMARK INTER + INTRA:         -14.079
REMARK INTER:                  -8.673
REMARK INTRA:                  -5.406
REMARK UNBOUND:                -5.927
REMARK SMILES CCCCCCCCCCCCCCCCCCCCCCCCCCCC(=O)[O-]
REMARK SMILES IDX 15 1 16 2 17 3 18 4 19 5 20 6 21 7 22 8 23 9 24 10 25 11
REMARK SMILES IDX 26 12 27 13 28 14 29 15 30 16 14 17 13 18 12 19 11 20 10 21
REMARK SMILES IDX 9 22 8 23 7 24 6 25 5 26 4 27 3 28 2 29 1 30
REMARK H PARENT
REMARK Flexibility Score: inf
ROOT
ATOM      1  C   UNL     1      10.921 -14.731  20.177  1.00  0.00     0.000 C 
ENDROOT
BRANCH   1   2
ATOM      2  C   UNL     1      10.867 -14.345  21.662  1.00  0.00     0.000 C 
BRANCH   2   3
ATOM      3  C   UNL     1      12.210 -14.556  22.384  1.00  0.00     0.000 C 
BRANCH   3   4
ATOM      4  C   UNL     1      12.637 -13.400  23.309  1.00  0.00     0.000 C 
BRANCH   4   5
ATOM      5  C   UNL     1      13.896 -12.631  22.859  1.00  0.00     0.000 C 
BRANCH   5   6
ATOM      6  C   UNL     1      13.625 -11.286  22.159  1.00  0.00     0.000 C 
BRANCH   6   7
ATOM      7  C   UNL     1      12.125 -10.975  22.021  1.00  0.00     0.000 C 
BRANCH   7   8
ATOM      8  C   UNL     1      11.674  -9.859  22.979  1.00  0.00     0.000 C 
BRANCH   8   9
ATOM      9  C   UNL     1      10.208 -10.022  23.413  1.00  0.00     0.000 C 
BRANCH   9  10
ATOM     10  C   UNL     1       9.792 -11.495  23.555  1.00  0.00     0.000 C 
BRANCH  10  11
ATOM     11  C   UNL     1       8.275 -11.704  23.395  1.00  0.00     0.000 C 
BRANCH  11  12
ATOM     12  C   UNL     1       7.881 -12.111  21.967  1.00  0.00     0.006 C 
BRANCH  12  13
ATOM     13  C   UNL     1       7.670 -10.905  21.043  1.00  0.00     0.053 C 
BRANCH  13  14
ATOM     14  C   UNL     1       8.297 -11.149  19.707  1.00  0.00     0.041 C 
ATOM     15  O   UNL     1       7.608 -11.051  18.657  1.00  0.00    -0.550 OA
ATOM     16  O   UNL     1       9.651 -11.450  19.617  1.00  0.00    -0.550 OA
ENDBRANCH  13  14
ENDBRANCH  12  13
ENDBRANCH  11  12
ENDBRANCH  10  11
ENDBRANCH   9  10
ENDBRANCH   8   9
ENDBRANCH   7   8
ENDBRANCH   6   7
ENDBRANCH   5   6
ENDBRANCH   4   5
ENDBRANCH   3   4
ENDBRANCH   2   3
ENDBRANCH   1   2
BRANCH   1  17
ATOM     17  C   UNL     1      11.001 -16.256  20.009  1.00  0.00     0.000 C 
BRANCH  17  18
ATOM     18  C   UNL     1      12.131 -16.693  19.063  1.00  0.00     0.000 C 
BRANCH  18  19
ATOM     19  C   UNL     1      13.148 -17.622  19.746  1.00  0.00     0.000 C 
BRANCH  19  20
ATOM     20  C   UNL     1      14.312 -16.853  20.392  1.00  0.00     0.000 C 
BRANCH  20  21
ATOM     21  C   UNL     1      14.968 -15.848  19.428  1.00  0.00     0.000 C 
BRANCH  21  22
ATOM     22  C   UNL     1      14.970 -14.412  19.976  1.00  0.00    -0.000 C 
BRANCH  22  23
ATOM     23  C   UNL     1      14.097 -13.460  19.141  1.00  0.00    -0.000 C 
BRANCH  23  24
ATOM     24  C   UNL     1      14.253 -13.692  17.629  1.00  0.00    -0.000 C 
BRANCH  24  25
ATOM     25  C   UNL     1      12.902 -13.802  16.905  1.00  0.00    -0.000 C 
BRANCH  25  26
ATOM     26  C   UNL     1      12.003 -12.604  17.233  1.00  0.00    -0.000 C 
BRANCH  26  27
ATOM     27  C   UNL     1      12.557 -11.314  16.610  1.00  0.00    -0.000 C 
BRANCH  27  28
ATOM     28  C   UNL     1      12.089 -10.050  17.350  1.00  0.00    -0.000 C 
BRANCH  28  29
ATOM     29  C   UNL     1      13.002  -9.682  18.529  1.00  0.00    -0.003 C 
ATOM     30  C   UNL     1      14.467  -9.942  18.189  1.00  0.00     0.004 C 
ENDBRANCH  28  29
ENDBRANCH  27  28
ENDBRANCH  26  27
ENDBRANCH  25  26
ENDBRANCH  24  25
ENDBRANCH  23  24
ENDBRANCH  22  23
ENDBRANCH  21  22
ENDBRANCH  20  21
ENDBRANCH  19  20
ENDBRANCH  18  19
ENDBRANCH  17  18
ENDBRANCH   1  17
TORSDOF 26
ENDMDL
MODEL 9
REMARK VINA RESULT:    -3.208      1.675      2.723
REMARK INTER + INTRA:         -14.010
REMARK INTER:                  -8.499
REMARK INTRA:                  -5.511
REMARK UNBOUND:                -5.927
REMARK SMILES CCCCCCCCCCCCCCCCCCCCCCCCCCCC(=O)[O-]
REMARK SMILES IDX 15 1 16 2 17 3 18 4 19 5 20 6 21 7 22 8 23 9 24 10 25 11
REMARK SMILES IDX 26 12 27 13 28 14 29 15 30 16 14 17 13 18 12 19 11 20 10 21
REMARK SMILES IDX 9 22 8 23 7 24 6 25 5 26 4 27 3 28 2 29 1 30
REMARK H PARENT
REMARK Flexibility Score: inf
ROOT
ATOM      1  C   UNL     1      14.062 -12.225  17.427  1.00  0.00     0.000 C 
ENDROOT
BRANCH   1   2
ATOM      2  C   UNL     1      13.592 -12.893  18.728  1.00  0.00     0.000 C 
BRANCH   2   3
ATOM      3  C   UNL     1      14.617 -13.891  19.293  1.00  0.00     0.000 C 
BRANCH   3   4
ATOM      4  C   UNL     1      14.759 -13.876  20.828  1.00  0.00     0.000 C 
BRANCH   4   5
ATOM      5  C   UNL     1      14.588 -12.493  21.488  1.00  0.00     0.000 C 
BRANCH   5   6
ATOM      6  C   UNL     1      13.594 -12.448  22.663  1.00  0.00     0.000 C 
BRANCH   6   7
ATOM      7  C   UNL     1      12.127 -12.556  22.211  1.00  0.00     0.000 C 
BRANCH   7   8
ATOM      8  C   UNL     1      11.498 -13.903  22.602  1.00  0.00     0.000 C 
BRANCH   8   9
ATOM      9  C   UNL     1      10.470 -14.388  21.566  1.00  0.00     0.000 C 
BRANCH   9  10
ATOM     10  C   UNL     1      11.115 -14.770  20.225  1.00  0.00     0.000 C 
BRANCH  10  11
ATOM     11  C   UNL     1      11.218 -16.293  20.026  1.00  0.00     0.000 C 
BRANCH  11  12
ATOM     12  C   UNL     1      12.471 -16.704  19.236  1.00  0.00     0.006 C 
BRANCH  12  13
ATOM     13  C   UNL     1      12.182 -16.944  17.749  1.00  0.00     0.053 C 
BRANCH  13  14
ATOM     14  C   UNL     1      13.122 -16.152  16.896  1.00  0.00     0.041 C 
ATOM     15  O   UNL     1      12.683 -15.231  16.159  1.00  0.00    -0.550 OA
ATOM     16  O   UNL     1      14.487 -16.407  16.943  1.00  0.00    -0.550 OA
ENDBRANCH  13  14
ENDBRANCH  12  13
ENDBRANCH  11  12
ENDBRANCH  10  11
ENDBRANCH   9  10
ENDBRANCH   8   9
ENDBRANCH   7   8
ENDBRANCH   6   7
ENDBRANCH   5   6
ENDBRANCH   4   5
ENDBRANCH   3   4
ENDBRANCH   2   3
ENDBRANCH   1   2
BRANCH   1  17
ATOM     17  C   UNL     1      13.663 -10.742  17.398  1.00  0.00     0.000 C 
BRANCH  17  18
ATOM     18  C   UNL     1      14.539  -9.871  18.313  1.00  0.00     0.000 C 
BRANCH  18  19
ATOM     19  C   UNL     1      13.832  -9.497  19.626  1.00  0.00     0.000 C 
BRANCH  19  20
ATOM     20  C   UNL     1      13.525  -7.993  19.726  1.00  0.00     0.000 C 
BRANCH  20  21
ATOM     21  C   UNL     1      12.026  -7.705  19.921  1.00  0.00     0.000 C 
BRANCH  21  22
ATOM     22  C   UNL     1      11.154  -8.311  18.809  1.00  0.00    -0.000 C 
BRANCH  22  23
ATOM     23  C   UNL     1      10.067  -9.251  19.357  1.00  0.00    -0.000 C 
BRANCH  23  24
ATOM     24  C   UNL     1      10.449 -10.734  19.225  1.00  0.00    -0.000 C 
BRANCH  24  25
ATOM     25  C   UNL     1       9.265 -11.677  19.490  1.00  0.00    -0.000 C 
BRANCH  25  26
ATOM     26  C   UNL     1       8.140 -10.949  20.236  1.00  0.00    -0.000 C 
BRANCH  26  27
ATOM     27  C   UNL     1       7.786 -11.675  21.542  1.00  0.00    -0.000 C 
BRANCH  27  28
ATOM     28  C   UNL     1       8.748 -11.332  22.691  1.00  0.00    -0.000 C 
BRANCH  28  29
ATOM     29  C   UNL     1       8.910  -9.820  22.896  1.00  0.00    -0.003 C 
ATOM     30  C   UNL     1      10.382  -9.439  23.031  1.00  0.00     0.004 C 
ENDBRANCH  28  29
ENDBRANCH  27  28
ENDBRANCH  26  27
ENDBRANCH  25  26
ENDBRANCH  24  25
ENDBRANCH  23  24
ENDBRANCH  22  23
ENDBRANCH  21  22
ENDBRANCH  20  21
ENDBRANCH  19  20
ENDBRANCH  18  19
ENDBRANCH  17  18
ENDBRANCH   1  17
TORSDOF 26
ENDMDL
