MODEL 1
REMARK VINA RESULT:    -5.066      0.000      0.000
REMARK INTER + INTRA:         -13.582
REMARK INTER:                 -10.990
REMARK INTRA:                  -2.592
REMARK UNBOUND:                -2.592
REMARK SMILES CCCCCCCCCCCCCCCCCCCCCC(=O)[O-]
REMARK SMILES IDX 12 1 11 2 10 3 9 4 8 5 7 6 6 7 5 8 4 9 3 10 2 11 1 12 13 13
REMARK SMILES IDX 14 14 15 15 16 16 17 17 18 18 19 19 20 20 21 21 22 22 23 23
REMARK SMILES IDX 24 24
REMARK H PARENT
REMARK Flexibility Score: inf
ROOT
ATOM      1  C   UNL     1      25.208 -11.791  27.860  1.00  0.00     0.000 C 
ENDROOT
BRANCH   1   2
ATOM      2  C   UNL     1      23.670 -11.796  27.787  1.00  0.00     0.000 C 
BRANCH   2   3
ATOM      3  C   UNL     1      22.963 -10.886  28.812  1.00  0.00     0.000 C 
BRANCH   3   4
ATOM      4  C   UNL     1      22.656  -9.459  28.319  1.00  0.00    -0.000 C 
BRANCH   4   5
ATOM      5  C   UNL     1      21.989  -9.378  26.931  1.00  0.00    -0.000 C 
BRANCH   5   6
ATOM      6  C   UNL     1      20.475  -9.100  26.953  1.00  0.00    -0.000 C 
BRANCH   6   7
ATOM      7  C   UNL     1      20.021  -8.050  27.986  1.00  0.00    -0.000 C 
BRANCH   7   8
ATOM      8  C   UNL     1      18.971  -8.578  28.988  1.00  0.00    -0.000 C 
BRANCH   8   9
ATOM      9  C   UNL     1      19.543  -8.746  30.404  1.00  0.00    -0.000 C 
BRANCH   9  10
ATOM     10  C   UNL     1      19.051 -10.048  31.046  1.00  0.00    -0.000 C 
BRANCH  10  11
ATOM     11  C   UNL     1      19.492 -11.266  30.226  1.00  0.00    -0.003 C 
ATOM     12  C   UNL     1      20.289 -12.247  31.080  1.00  0.00     0.004 C 
ENDBRANCH  10  11
ENDBRANCH   9  10
ENDBRANCH   8   9
ENDBRANCH   7   8
ENDBRANCH   6   7
ENDBRANCH   5   6
ENDBRANCH   4   5
ENDBRANCH   3   4
ENDBRANCH   2   3
ENDBRANCH   1   2
BRANCH   1  13
ATOM     13  C   UNL     1      25.748 -10.947  29.027  1.00  0.00     0.000 C 
BRANCH  13  14
ATOM     14  C   UNL     1      27.235 -11.220  29.310  1.00  0.00     0.000 C 
BRANCH  14  15
ATOM     15  C   UNL     1      27.794 -12.385  28.476  1.00  0.00     0.000 C 
BRANCH  15  16
ATOM     16  C   UNL     1      28.964 -11.964  27.568  1.00  0.00     0.000 C 
BRANCH  16  17
ATOM     17  C   UNL     1      28.618 -10.905  26.506  1.00  0.00     0.000 C 
BRANCH  17  18
ATOM     18  C   UNL     1      27.850 -11.487  25.306  1.00  0.00     0.000 C 
BRANCH  18  19
ATOM     19  C   UNL     1      28.461 -12.801  24.783  1.00  0.00     0.000 C 
BRANCH  19  20
ATOM     20  C   UNL     1      27.444 -13.849  24.297  1.00  0.00     0.006 C 
BRANCH  20  21
ATOM     21  C   UNL     1      26.042 -13.644  24.887  1.00  0.00     0.053 C 
BRANCH  21  22
ATOM     22  C   UNL     1      25.472 -14.949  25.346  1.00  0.00     0.041 C 
ATOM     23  O   UNL     1      26.095 -16.023  25.131  1.00  0.00    -0.550 OA
ATOM     24  O   UNL     1      24.279 -14.976  26.055  1.00  0.00    -0.550 OA
ENDBRANCH  21  22
ENDBRANCH  20  21
ENDBRANCH  19  20
ENDBRANCH  18  19
ENDBRANCH  17  18
ENDBRANCH  16  17
ENDBRANCH  15  16
ENDBRANCH  14  15
ENDBRANCH  13  14
ENDBRANCH   1  13
TORSDOF 20
ENDMDL
MODEL 2
REMARK VINA RESULT:    -5.057      2.576      8.074
REMARK INTER + INTRA:         -13.562
REMARK INTER:                 -11.264
REMARK INTRA:                  -2.298
REMARK UNBOUND:                -2.592
REMARK SMILES CCCCCCCCCCCCCCCCCCCCCC(=O)[O-]
REMARK SMILES IDX 12 1 11 2 10 3 9 4 8 5 7 6 6 7 5 8 4 9 3 10 2 11 1 12 13 13
REMARK SMILES IDX 14 14 15 15 16 16 17 17 18 18 19 19 20 20 21 21 22 22 23 23
REMARK SMILES IDX 24 24
REMARK H PARENT
REMARK Flexibility Score: inf
ROOT
ATOM      1  C   UNL     1      24.612 -11.639  27.994  1.00  0.00     0.000 C 
ENDROOT
BRANCH   1   2
ATOM      2  C   UNL     1      25.421 -10.878  29.059  1.00  0.00     0.000 C 
BRANCH   2   3
ATOM      3  C   UNL     1      26.944 -10.840  28.822  1.00  0.00     0.000 C 
BRANCH   3   4
ATOM      4  C   UNL     1      27.585 -12.194  28.458  1.00  0.00    -0.000 C 
BRANCH   4   5
ATOM      5  C   UNL     1      28.496 -12.171  27.214  1.00  0.00    -0.000 C 
BRANCH   5   6
ATOM      6  C   UNL     1      27.931 -11.394  26.010  1.00  0.00    -0.000 C 
BRANCH   6   7
ATOM      7  C   UNL     1      26.874 -12.154  25.184  1.00  0.00    -0.000 C 
BRANCH   7   8
ATOM      8  C   UNL     1      27.364 -13.521  24.657  1.00  0.00    -0.000 C 
BRANCH   8   9
ATOM      9  C   UNL     1      26.204 -14.445  24.253  1.00  0.00    -0.000 C 
BRANCH   9  10
ATOM     10  C   UNL     1      25.757 -15.315  25.433  1.00  0.00    -0.000 C 
BRANCH  10  11
ATOM     11  C   UNL     1      24.472 -14.768  26.064  1.00  0.00    -0.003 C 
ATOM     12  C   UNL     1      23.329 -15.771  25.949  1.00  0.00     0.004 C 
ENDBRANCH  10  11
ENDBRANCH   9  10
ENDBRANCH   8   9
ENDBRANCH   7   8
ENDBRANCH   6   7
ENDBRANCH   5   6
ENDBRANCH   4   5
ENDBRANCH   3   4
ENDBRANCH   2   3
ENDBRANCH   1   2
BRANCH   1  13
ATOM     13  C   UNL     1      23.110 -11.310  28.036  1.00  0.00     0.000 C 
BRANCH  13  14
ATOM     14  C   UNL     1      22.843  -9.800  28.156  1.00  0.00     0.000 C 
BRANCH  14  15
ATOM     15  C   UNL     1      22.003  -9.251  26.990  1.00  0.00     0.000 C 
BRANCH  15  16
ATOM     16  C   UNL     1      20.489  -9.321  27.257  1.00  0.00     0.000 C 
BRANCH  16  17
ATOM     17  C   UNL     1      19.970  -8.347  28.331  1.00  0.00     0.000 C 
BRANCH  17  18
ATOM     18  C   UNL     1      19.301  -9.065  29.517  1.00  0.00     0.000 C 
BRANCH  18  19
ATOM     19  C   UNL     1      20.075  -8.890  30.838  1.00  0.00     0.000 C 
BRANCH  19  20
ATOM     20  C   UNL     1      21.130  -9.973  31.128  1.00  0.00     0.006 C 
BRANCH  20  21
ATOM     21  C   UNL     1      20.610 -11.396  30.892  1.00  0.00     0.053 C 
BRANCH  21  22
ATOM     22  C   UNL     1      20.344 -12.078  32.197  1.00  0.00     0.041 C 
ATOM     23  O   UNL     1      19.921 -11.417  33.182  1.00  0.00    -0.550 OA
ATOM     24  O   UNL     1      20.515 -13.452  32.311  1.00  0.00    -0.550 OA
ENDBRANCH  21  22
ENDBRANCH  20  21
ENDBRANCH  19  20
ENDBRANCH  18  19
ENDBRANCH  17  18
ENDBRANCH  16  17
ENDBRANCH  15  16
ENDBRANCH  14  15
ENDBRANCH  13  14
ENDBRANCH   1  13
TORSDOF 20
ENDMDL
MODEL 3
REMARK VINA RESULT:    -4.950      2.551      7.969
REMARK INTER + INTRA:         -13.329
REMARK INTER:                 -10.796
REMARK INTRA:                  -2.533
REMARK UNBOUND:                -2.592
REMARK SMILES CCCCCCCCCCCCCCCCCCCCCC(=O)[O-]
REMARK SMILES IDX 12 1 11 2 10 3 9 4 8 5 7 6 6 7 5 8 4 9 3 10 2 11 1 12 13 13
REMARK SMILES IDX 14 14 15 15 16 16 17 17 18 18 19 19 20 20 21 21 22 22 23 23
REMARK SMILES IDX 24 24
REMARK H PARENT
REMARK Flexibility Score: inf
ROOT
ATOM      1  C   UNL     1      23.119 -10.523  29.123  1.00  0.00     0.000 C 
ENDROOT
BRANCH   1   2
ATOM      2  C   UNL     1      23.951  -9.263  29.423  1.00  0.00     0.000 C 
BRANCH   2   3
ATOM      3  C   UNL     1      25.196  -9.495  30.303  1.00  0.00     0.000 C 
BRANCH   3   4
ATOM      4  C   UNL     1      26.489  -9.827  29.534  1.00  0.00    -0.000 C 
BRANCH   4   5
ATOM      5  C   UNL     1      26.737 -11.331  29.296  1.00  0.00    -0.000 C 
BRANCH   5   6
ATOM      6  C   UNL     1      27.002 -11.721  27.829  1.00  0.00    -0.000 C 
BRANCH   6   7
ATOM      7  C   UNL     1      25.843 -12.464  27.135  1.00  0.00    -0.000 C 
BRANCH   7   8
ATOM      8  C   UNL     1      25.787 -12.238  25.608  1.00  0.00    -0.000 C 
BRANCH   8   9
ATOM      9  C   UNL     1      26.236 -13.475  24.814  1.00  0.00    -0.000 C 
BRANCH   9  10
ATOM     10  C   UNL     1      26.134 -14.744  25.667  1.00  0.00    -0.000 C 
BRANCH  10  11
ATOM     11  C   UNL     1      25.007 -15.654  25.166  1.00  0.00    -0.003 C 
ATOM     12  C   UNL     1      23.752 -15.501  26.021  1.00  0.00     0.004 C 
ENDBRANCH  10  11
ENDBRANCH   9  10
ENDBRANCH   8   9
ENDBRANCH   7   8
ENDBRANCH   6   7
ENDBRANCH   5   6
ENDBRANCH   4   5
ENDBRANCH   3   4
ENDBRANCH   2   3
ENDBRANCH   1   2
BRANCH   1  13
ATOM     13  C   UNL     1      22.765 -10.664  27.633  1.00  0.00     0.000 C 
BRANCH  13  14
ATOM     14  C   UNL     1      22.261  -9.346  27.022  1.00  0.00     0.000 C 
BRANCH  14  15
ATOM     15  C   UNL     1      20.744  -9.352  26.765  1.00  0.00     0.000 C 
BRANCH  15  16
ATOM     16  C   UNL     1      20.001  -8.246  27.538  1.00  0.00     0.000 C 
BRANCH  16  17
ATOM     17  C   UNL     1      20.241  -8.238  29.058  1.00  0.00     0.000 C 
BRANCH  17  18
ATOM     18  C   UNL     1      19.199  -9.062  29.834  1.00  0.00     0.000 C 
BRANCH  18  19
ATOM     19  C   UNL     1      19.441  -9.057  31.355  1.00  0.00     0.000 C 
BRANCH  19  20
ATOM     20  C   UNL     1      20.695  -9.818  31.823  1.00  0.00     0.006 C 
BRANCH  20  21
ATOM     21  C   UNL     1      20.368 -11.019  32.720  1.00  0.00     0.053 C 
BRANCH  21  22
ATOM     22  C   UNL     1      20.565 -12.298  31.970  1.00  0.00     0.041 C 
ATOM     23  O   UNL     1      20.735 -13.379  32.596  1.00  0.00    -0.550 OA
ATOM     24  O   UNL     1      20.510 -12.308  30.583  1.00  0.00    -0.550 OA
ENDBRANCH  21  22
ENDBRANCH  20  21
ENDBRANCH  19  20
ENDBRANCH  18  19
ENDBRANCH  17  18
ENDBRANCH  16  17
ENDBRANCH  15  16
ENDBRANCH  14  15
ENDBRANCH  13  14
ENDBRANCH   1  13
TORSDOF 20
ENDMDL
MODEL 4
REMARK VINA RESULT:    -4.862      5.584      9.629
REMARK INTER + INTRA:         -13.139
REMARK INTER:                 -10.805
REMARK INTRA:                  -2.333
REMARK UNBOUND:                -2.592
REMARK SMILES CCCCCCCCCCCCCCCCCCCCCC(=O)[O-]
REMARK SMILES IDX 12 1 11 2 10 3 9 4 8 5 7 6 6 7 5 8 4 9 3 10 2 11 1 12 13 13
REMARK SMILES IDX 14 14 15 15 16 16 17 17 18 18 19 19 20 20 21 21 22 22 23 23
REMARK SMILES IDX 24 24
REMARK H PARENT
REMARK Flexibility Score: inf
ROOT
ATOM      1  C   UNL     1      27.547 -18.608  21.796  1.00  0.00     0.000 C 
ENDROOT
BRANCH   1   2
ATOM      2  C   UNL     1      27.651 -17.652  22.998  1.00  0.00     0.000 C 
BRANCH   2   3
ATOM      3  C   UNL     1      27.483 -16.156  22.662  1.00  0.00     0.000 C 
BRANCH   3   4
ATOM      4  C   UNL     1      26.326 -15.447  23.392  1.00  0.00    -0.000 C 
BRANCH   4   5
ATOM      5  C   UNL     1      26.187 -15.796  24.888  1.00  0.00    -0.000 C 
BRANCH   5   6
ATOM      6  C   UNL     1      24.837 -15.411  25.522  1.00  0.00    -0.000 C 
BRANCH   6   7
ATOM      7  C   UNL     1      24.681 -13.915  25.859  1.00  0.00    -0.000 C 
BRANCH   7   8
ATOM      8  C   UNL     1      25.990 -13.244  26.327  1.00  0.00    -0.000 C 
BRANCH   8   9
ATOM      9  C   UNL     1      26.501 -12.193  25.329  1.00  0.00    -0.000 C 
BRANCH   9  10
ATOM     10  C   UNL     1      27.987 -12.404  25.019  1.00  0.00    -0.000 C 
BRANCH  10  11
ATOM     11  C   UNL     1      28.838 -11.276  25.614  1.00  0.00    -0.003 C 
ATOM     12  C   UNL     1      29.896 -11.826  26.566  1.00  0.00     0.004 C 
ENDBRANCH  10  11
ENDBRANCH   9  10
ENDBRANCH   8   9
ENDBRANCH   7   8
ENDBRANCH   6   7
ENDBRANCH   5   6
ENDBRANCH   4   5
ENDBRANCH   3   4
ENDBRANCH   2   3
ENDBRANCH   1   2
BRANCH   1  13
ATOM     13  C   UNL     1      26.917 -17.946  20.559  1.00  0.00     0.000 C 
BRANCH  13  14
ATOM     14  C   UNL     1      27.906 -17.832  19.387  1.00  0.00     0.000 C 
BRANCH  14  15
ATOM     15  C   UNL     1      27.806 -19.014  18.408  1.00  0.00     0.000 C 
BRANCH  15  16
ATOM     16  C   UNL     1      29.040 -19.934  18.450  1.00  0.00     0.000 C 
BRANCH  16  17
ATOM     17  C   UNL     1      28.901 -21.173  19.353  1.00  0.00     0.000 C 
BRANCH  17  18
ATOM     18  C   UNL     1      30.105 -21.370  20.290  1.00  0.00     0.000 C 
BRANCH  18  19
ATOM     19  C   UNL     1      30.847 -20.057  20.599  1.00  0.00     0.000 C 
BRANCH  19  20
ATOM     20  C   UNL     1      31.703 -20.072  21.878  1.00  0.00     0.006 C 
BRANCH  20  21
ATOM     21  C   UNL     1      30.973 -19.490  23.096  1.00  0.00     0.053 C 
BRANCH  21  22
ATOM     22  C   UNL     1      30.372 -20.587  23.916  1.00  0.00     0.041 C 
ATOM     23  O   UNL     1      30.858 -21.748  23.876  1.00  0.00    -0.550 OA
ATOM     24  O   UNL     1      29.305 -20.316  24.764  1.00  0.00    -0.550 OA
ENDBRANCH  21  22
ENDBRANCH  20  21
ENDBRANCH  19  20
ENDBRANCH  18  19
ENDBRANCH  17  18
ENDBRANCH  16  17
ENDBRANCH  15  16
ENDBRANCH  14  15
ENDBRANCH  13  14
ENDBRANCH   1  13
TORSDOF 20
ENDMDL
MODEL 5
REMARK VINA RESULT:    -4.853      2.012      3.164
REMARK INTER + INTRA:         -13.120
REMARK INTER:                 -10.097
REMARK INTRA:                  -3.023
REMARK UNBOUND:                -2.592
REMARK SMILES CCCCCCCCCCCCCCCCCCCCCC(=O)[O-]
REMARK SMILES IDX 12 1 11 2 10 3 9 4 8 5 7 6 6 7 5 8 4 9 3 10 2 11 1 12 13 13
REMARK SMILES IDX 14 14 15 15 16 16 17 17 18 18 19 19 20 20 21 21 22 22 23 23
REMARK SMILES IDX 24 24
REMARK H PARENT
REMARK Flexibility Score: inf
ROOT
ATOM      1  C   UNL     1      22.664 -10.668  27.801  1.00  0.00     0.000 C 
ENDROOT
BRANCH   1   2
ATOM      2  C   UNL     1      22.146  -9.275  27.400  1.00  0.00     0.000 C 
BRANCH   2   3
ATOM      3  C   UNL     1      20.764  -9.262  26.716  1.00  0.00     0.000 C 
BRANCH   3   4
ATOM      4  C   UNL     1      19.729  -8.311  27.347  1.00  0.00    -0.000 C 
BRANCH   4   5
ATOM      5  C   UNL     1      19.960  -7.995  28.839  1.00  0.00    -0.000 C 
BRANCH   5   6
ATOM      6  C   UNL     1      19.358  -9.018  29.821  1.00  0.00    -0.000 C 
BRANCH   6   7
ATOM      7  C   UNL     1      20.094  -9.136  31.170  1.00  0.00    -0.000 C 
BRANCH   7   8
ATOM      8  C   UNL     1      21.238  -8.114  31.344  1.00  0.00    -0.000 C 
BRANCH   8   9
ATOM      9  C   UNL     1      22.279  -8.567  32.380  1.00  0.00    -0.000 C 
BRANCH   9  10
ATOM     10  C   UNL     1      22.281 -10.092  32.529  1.00  0.00    -0.000 C 
BRANCH  10  11
ATOM     11  C   UNL     1      22.291 -10.501  34.006  1.00  0.00    -0.003 C 
ATOM     12  C   UNL     1      22.708  -9.336  34.898  1.00  0.00     0.004 C 
ENDBRANCH  10  11
ENDBRANCH   9  10
ENDBRANCH   8   9
ENDBRANCH   7   8
ENDBRANCH   6   7
ENDBRANCH   5   6
ENDBRANCH   4   5
ENDBRANCH   3   4
ENDBRANCH   2   3
ENDBRANCH   1   2
BRANCH   1  13
ATOM     13  C   UNL     1      23.516 -10.643  29.081  1.00  0.00     0.000 C 
BRANCH  13  14
ATOM     14  C   UNL     1      24.195  -9.282  29.308  1.00  0.00     0.000 C 
BRANCH  14  15
ATOM     15  C   UNL     1      25.615  -9.415  29.883  1.00  0.00     0.000 C 
BRANCH  15  16
ATOM     16  C   UNL     1      26.191 -10.835  29.735  1.00  0.00     0.000 C 
BRANCH  16  17
ATOM     17  C   UNL     1      27.199 -11.015  28.586  1.00  0.00     0.000 C 
BRANCH  17  18
ATOM     18  C   UNL     1      26.987 -12.323  27.802  1.00  0.00     0.000 C 
BRANCH  18  19
ATOM     19  C   UNL     1      26.750 -12.091  26.298  1.00  0.00     0.000 C 
BRANCH  19  20
ATOM     20  C   UNL     1      25.339 -12.443  25.794  1.00  0.00     0.006 C 
BRANCH  20  21
ATOM     21  C   UNL     1      24.702 -13.610  26.561  1.00  0.00     0.053 C 
BRANCH  21  22
ATOM     22  C   UNL     1      24.604 -14.818  25.685  1.00  0.00     0.041 C 
ATOM     23  O   UNL     1      25.417 -14.981  24.736  1.00  0.00    -0.550 OA
ATOM     24  O   UNL     1      23.648 -15.791  25.946  1.00  0.00    -0.550 OA
ENDBRANCH  21  22
ENDBRANCH  20  21
ENDBRANCH  19  20
ENDBRANCH  18  19
ENDBRANCH  17  18
ENDBRANCH  16  17
ENDBRANCH  15  16
ENDBRANCH  14  15
ENDBRANCH  13  14
ENDBRANCH   1  13
TORSDOF 20
ENDMDL
MODEL 6
REMARK VINA RESULT:    -4.834      2.755      8.155
REMARK INTER + INTRA:         -13.078
REMARK INTER:                 -11.012
REMARK INTRA:                  -2.066
REMARK UNBOUND:                -2.592
REMARK SMILES CCCCCCCCCCCCCCCCCCCCCC(=O)[O-]
REMARK SMILES IDX 12 1 11 2 10 3 9 4 8 5 7 6 6 7 5 8 4 9 3 10 2 11 1 12 13 13
REMARK SMILES IDX 14 14 15 15 16 16 17 17 18 18 19 19 20 20 21 21 22 22 23 23
REMARK SMILES IDX 24 24
REMARK H PARENT
REMARK Flexibility Score: inf
ROOT
ATOM      1  C   UNL     1      25.343 -11.000  28.485  1.00  0.00     0.000 C 
ENDROOT
BRANCH   1   2
ATOM      2  C   UNL     1      26.520 -11.934  28.822  1.00  0.00     0.000 C 
BRANCH   2   3
ATOM      3  C   UNL     1      27.890 -11.239  28.958  1.00  0.00     0.000 C 
BRANCH   3   4
ATOM      4  C   UNL     1      28.964 -11.705  27.956  1.00  0.00    -0.000 C 
BRANCH   4   5
ATOM      5  C   UNL     1      29.081 -10.846  26.680  1.00  0.00    -0.000 C 
BRANCH   5   6
ATOM      6  C   UNL     1      28.230 -11.330  25.491  1.00  0.00    -0.000 C 
BRANCH   6   7
ATOM      7  C   UNL     1      28.625 -12.710  24.929  1.00  0.00    -0.000 C 
BRANCH   7   8
ATOM      8  C   UNL     1      27.432 -13.517  24.371  1.00  0.00    -0.000 C 
BRANCH   8   9
ATOM      9  C   UNL     1      26.118 -13.206  25.104  1.00  0.00    -0.000 C 
BRANCH   9  10
ATOM     10  C   UNL     1      25.704 -14.370  26.012  1.00  0.00    -0.000 C 
BRANCH  10  11
ATOM     11  C   UNL     1      24.706 -15.293  25.303  1.00  0.00    -0.003 C 
ATOM     12  C   UNL     1      23.519 -15.618  26.204  1.00  0.00     0.004 C 
ENDBRANCH  10  11
ENDBRANCH   9  10
ENDBRANCH   8   9
ENDBRANCH   7   8
ENDBRANCH   6   7
ENDBRANCH   5   6
ENDBRANCH   4   5
ENDBRANCH   3   4
ENDBRANCH   2   3
ENDBRANCH   1   2
BRANCH   1  13
ATOM     13  C   UNL     1      24.158 -11.741  27.843  1.00  0.00     0.000 C 
BRANCH  13  14
ATOM     14  C   UNL     1      22.802 -11.257  28.383  1.00  0.00     0.000 C 
BRANCH  14  15
ATOM     15  C   UNL     1      22.595  -9.743  28.198  1.00  0.00     0.000 C 
BRANCH  15  16
ATOM     16  C   UNL     1      21.986  -9.385  26.830  1.00  0.00     0.000 C 
BRANCH  16  17
ATOM     17  C   UNL     1      20.472  -9.106  26.841  1.00  0.00     0.000 C 
BRANCH  17  18
ATOM     18  C   UNL     1      20.062  -8.067  27.900  1.00  0.00     0.000 C 
BRANCH  18  19
ATOM     19  C   UNL     1      19.091  -8.634  28.952  1.00  0.00     0.000 C 
BRANCH  19  20
ATOM     20  C   UNL     1      19.733  -9.022  30.296  1.00  0.00     0.006 C 
BRANCH  20  21
ATOM     21  C   UNL     1      18.958 -10.119  31.037  1.00  0.00     0.053 C 
BRANCH  21  22
ATOM     22  C   UNL     1      19.863 -10.858  31.971  1.00  0.00     0.041 C 
ATOM     23  O   UNL     1      20.748 -10.238  32.619  1.00  0.00    -0.550 OA
ATOM     24  O   UNL     1      19.699 -12.223  32.165  1.00  0.00    -0.550 OA
ENDBRANCH  21  22
ENDBRANCH  20  21
ENDBRANCH  19  20
ENDBRANCH  18  19
ENDBRANCH  17  18
ENDBRANCH  16  17
ENDBRANCH  15  16
ENDBRANCH  14  15
ENDBRANCH  13  14
ENDBRANCH   1  13
TORSDOF 20
ENDMDL
MODEL 7
REMARK VINA RESULT:    -4.811      2.695      7.602
REMARK INTER + INTRA:         -13.029
REMARK INTER:                 -10.354
REMARK INTRA:                  -2.675
REMARK UNBOUND:                -2.592
REMARK SMILES CCCCCCCCCCCCCCCCCCCCCC(=O)[O-]
REMARK SMILES IDX 12 1 11 2 10 3 9 4 8 5 7 6 6 7 5 8 4 9 3 10 2 11 1 12 13 13
REMARK SMILES IDX 14 14 15 15 16 16 17 17 18 18 19 19 20 20 21 21 22 22 23 23
REMARK SMILES IDX 24 24
REMARK H PARENT
REMARK Flexibility Score: inf
ROOT
ATOM      1  C   UNL     1      28.161 -11.609  28.843  1.00  0.00     0.000 C 
ENDROOT
BRANCH   1   2
ATOM      2  C   UNL     1      29.495 -11.917  28.139  1.00  0.00     0.000 C 
BRANCH   2   3
ATOM      3  C   UNL     1      29.738 -11.143  26.828  1.00  0.00     0.000 C 
BRANCH   3   4
ATOM      4  C   UNL     1      29.507 -11.951  25.536  1.00  0.00    -0.000 C 
BRANCH   4   5
ATOM      5  C   UNL     1      28.161 -12.702  25.470  1.00  0.00    -0.000 C 
BRANCH   5   6
ATOM      6  C   UNL     1      26.953 -11.835  25.068  1.00  0.00    -0.000 C 
BRANCH   6   7
ATOM      7  C   UNL     1      25.627 -12.207  25.759  1.00  0.00    -0.000 C 
BRANCH   7   8
ATOM      8  C   UNL     1      25.661 -13.577  26.472  1.00  0.00    -0.000 C 
BRANCH   8   9
ATOM      9  C   UNL     1      24.464 -14.465  26.097  1.00  0.00    -0.000 C 
BRANCH   9  10
ATOM     10  C   UNL     1      24.929 -15.759  25.420  1.00  0.00    -0.000 C 
BRANCH  10  11
ATOM     11  C   UNL     1      26.355 -15.615  24.878  1.00  0.00    -0.003 C 
ATOM     12  C   UNL     1      26.358 -15.492  23.358  1.00  0.00     0.004 C 
ENDBRANCH  10  11
ENDBRANCH   9  10
ENDBRANCH   8   9
ENDBRANCH   7   8
ENDBRANCH   6   7
ENDBRANCH   5   6
ENDBRANCH   4   5
ENDBRANCH   3   4
ENDBRANCH   2   3
ENDBRANCH   1   2
BRANCH   1  13
ATOM     13  C   UNL     1      27.863 -10.103  28.925  1.00  0.00     0.000 C 
BRANCH  13  14
ATOM     14  C   UNL     1      26.456  -9.812  29.474  1.00  0.00     0.000 C 
BRANCH  14  15
ATOM     15  C   UNL     1      25.439 -10.908  29.113  1.00  0.00     0.000 C 
BRANCH  15  16
ATOM     16  C   UNL     1      23.984 -10.405  29.131  1.00  0.00     0.000 C 
BRANCH  16  17
ATOM     17  C   UNL     1      23.089 -10.954  28.006  1.00  0.00     0.000 C 
BRANCH  17  18
ATOM     18  C   UNL     1      22.157  -9.886  27.406  1.00  0.00     0.000 C 
BRANCH  18  19
ATOM     19  C   UNL     1      22.310  -8.509  28.080  1.00  0.00     0.000 C 
BRANCH  19  20
ATOM     20  C   UNL     1      21.206  -8.147  29.089  1.00  0.00     0.006 C 
BRANCH  20  21
ATOM     21  C   UNL     1      19.859  -8.806  28.768  1.00  0.00     0.053 C 
BRANCH  21  22
ATOM     22  C   UNL     1      19.443  -9.713  29.882  1.00  0.00     0.041 C 
ATOM     23  O   UNL     1      18.679  -9.292  30.790  1.00  0.00    -0.550 OA
ATOM     24  O   UNL     1      19.856 -11.039  29.891  1.00  0.00    -0.550 OA
ENDBRANCH  21  22
ENDBRANCH  20  21
ENDBRANCH  19  20
ENDBRANCH  18  19
ENDBRANCH  17  18
ENDBRANCH  16  17
ENDBRANCH  15  16
ENDBRANCH  14  15
ENDBRANCH  13  14
ENDBRANCH   1  13
TORSDOF 20
ENDMDL
MODEL 8
REMARK VINA RESULT:    -4.807      2.623      8.464
REMARK INTER + INTRA:         -13.019
REMARK INTER:                 -10.490
REMARK INTRA:                  -2.529
REMARK UNBOUND:                -2.592
REMARK SMILES CCCCCCCCCCCCCCCCCCCCCC(=O)[O-]
REMARK SMILES IDX 12 1 11 2 10 3 9 4 8 5 7 6 6 7 5 8 4 9 3 10 2 11 1 12 13 13
REMARK SMILES IDX 14 14 15 15 16 16 17 17 18 18 19 19 20 20 21 21 22 22 23 23
REMARK SMILES IDX 24 24
REMARK H PARENT
REMARK Flexibility Score: inf
ROOT
ATOM      1  C   UNL     1      23.309 -11.222  28.271  1.00  0.00     0.000 C 
ENDROOT
BRANCH   1   2
ATOM      2  C   UNL     1      24.679 -11.742  27.798  1.00  0.00     0.000 C 
BRANCH   2   3
ATOM      3  C   UNL     1      24.628 -12.993  26.898  1.00  0.00     0.000 C 
BRANCH   3   4
ATOM      4  C   UNL     1      25.342 -12.851  25.539  1.00  0.00    -0.000 C 
BRANCH   4   5
ATOM      5  C   UNL     1      26.109 -14.106  25.072  1.00  0.00    -0.000 C 
BRANCH   5   6
ATOM      6  C   UNL     1      27.373 -13.821  24.240  1.00  0.00    -0.000 C 
BRANCH   6   7
ATOM      7  C   UNL     1      27.930 -12.390  24.371  1.00  0.00    -0.000 C 
BRANCH   7   8
ATOM      8  C   UNL     1      29.445 -12.338  24.665  1.00  0.00    -0.000 C 
BRANCH   8   9
ATOM      9  C   UNL     1      29.757 -11.711  26.033  1.00  0.00    -0.000 C 
BRANCH   9  10
ATOM     10  C   UNL     1      28.471 -11.293  26.754  1.00  0.00    -0.000 C 
BRANCH  10  11
ATOM     11  C   UNL     1      28.382 -11.941  28.140  1.00  0.00    -0.003 C 
ATOM     12  C   UNL     1      27.939 -10.932  29.194  1.00  0.00     0.004 C 
ENDBRANCH  10  11
ENDBRANCH   9  10
ENDBRANCH   8   9
ENDBRANCH   7   8
ENDBRANCH   6   7
ENDBRANCH   5   6
ENDBRANCH   4   5
ENDBRANCH   3   4
ENDBRANCH   2   3
ENDBRANCH   1   2
BRANCH   1  13
ATOM     13  C   UNL     1      23.404  -9.876  29.010  1.00  0.00     0.000 C 
BRANCH  13  14
ATOM     14  C   UNL     1      22.642  -8.754  28.286  1.00  0.00     0.000 C 
BRANCH  14  15
ATOM     15  C   UNL     1      21.995  -9.226  26.972  1.00  0.00     0.000 C 
BRANCH  15  16
ATOM     16  C   UNL     1      20.465  -9.056  26.963  1.00  0.00     0.000 C 
BRANCH  16  17
ATOM     17  C   UNL     1      19.916  -8.034  27.975  1.00  0.00     0.000 C 
BRANCH  17  18
ATOM     18  C   UNL     1      18.946  -8.661  28.992  1.00  0.00     0.000 C 
BRANCH  18  19
ATOM     19  C   UNL     1      19.622  -9.008  30.332  1.00  0.00     0.000 C 
BRANCH  19  20
ATOM     20  C   UNL     1      19.994 -10.490  30.514  1.00  0.00     0.006 C 
BRANCH  20  21
ATOM     21  C   UNL     1      21.039 -10.715  31.614  1.00  0.00     0.053 C 
BRANCH  21  22
ATOM     22  C   UNL     1      20.548 -11.725  32.603  1.00  0.00     0.041 C 
ATOM     23  O   UNL     1      20.150 -11.357  33.740  1.00  0.00    -0.550 OA
ATOM     24  O   UNL     1      20.483 -13.067  32.252  1.00  0.00    -0.550 OA
ENDBRANCH  21  22
ENDBRANCH  20  21
ENDBRANCH  19  20
ENDBRANCH  18  19
ENDBRANCH  17  18
ENDBRANCH  16  17
ENDBRANCH  15  16
ENDBRANCH  14  15
ENDBRANCH  13  14
ENDBRANCH   1  13
TORSDOF 20
ENDMDL
MODEL 9
REMARK VINA RESULT:    -4.790      2.474      8.624
REMARK INTER + INTRA:         -12.982
REMARK INTER:                 -11.021
REMARK INTRA:                  -1.961
REMARK UNBOUND:                -2.592
REMARK SMILES CCCCCCCCCCCCCCCCCCCCCC(=O)[O-]
REMARK SMILES IDX 12 1 11 2 10 3 9 4 8 5 7 6 6 7 5 8 4 9 3 10 2 11 1 12 13 13
REMARK SMILES IDX 14 14 15 15 16 16 17 17 18 18 19 19 20 20 21 21 22 22 23 23
REMARK SMILES IDX 24 24
REMARK H PARENT
REMARK Flexibility Score: inf
ROOT
ATOM      1  C   UNL     1      25.392 -13.026  26.687  1.00  0.00     0.000 C 
ENDROOT
BRANCH   1   2
ATOM      2  C   UNL     1      24.260 -14.051  26.496  1.00  0.00     0.000 C 
BRANCH   2   3
ATOM      3  C   UNL     1      24.577 -15.202  25.519  1.00  0.00     0.000 C 
BRANCH   3   4
ATOM      4  C   UNL     1      26.070 -15.562  25.391  1.00  0.00    -0.000 C 
BRANCH   4   5
ATOM      5  C   UNL     1      26.508 -16.036  23.991  1.00  0.00    -0.000 C 
BRANCH   5   6
ATOM      6  C   UNL     1      27.282 -14.993  23.164  1.00  0.00    -0.000 C 
BRANCH   6   7
ATOM      7  C   UNL     1      27.768 -13.764  23.959  1.00  0.00    -0.000 C 
BRANCH   7   8
ATOM      8  C   UNL     1      29.134 -13.220  23.486  1.00  0.00    -0.000 C 
BRANCH   8   9
ATOM      9  C   UNL     1      29.728 -12.193  24.463  1.00  0.00    -0.000 C 
BRANCH   9  10
ATOM     10  C   UNL     1      28.805 -11.982  25.669  1.00  0.00    -0.000 C 
BRANCH  10  11
ATOM     11  C   UNL     1      29.455 -11.055  26.702  1.00  0.00    -0.003 C 
ATOM     12  C   UNL     1      28.423 -10.522  27.691  1.00  0.00     0.004 C 
ENDBRANCH  10  11
ENDBRANCH   9  10
ENDBRANCH   8   9
ENDBRANCH   7   8
ENDBRANCH   6   7
ENDBRANCH   5   6
ENDBRANCH   4   5
ENDBRANCH   3   4
ENDBRANCH   2   3
ENDBRANCH   1   2
BRANCH   1  13
ATOM     13  C   UNL     1      25.068 -11.971  27.758  1.00  0.00     0.000 C 
BRANCH  13  14
ATOM     14  C   UNL     1      23.556 -11.802  27.977  1.00  0.00     0.000 C 
BRANCH  14  15
ATOM     15  C   UNL     1      23.157 -10.345  28.273  1.00  0.00     0.000 C 
BRANCH  15  16
ATOM     16  C   UNL     1      22.202  -9.759  27.218  1.00  0.00     0.000 C 
BRANCH  16  17
ATOM     17  C   UNL     1      21.503  -8.449  27.625  1.00  0.00     0.000 C 
BRANCH  17  18
ATOM     18  C   UNL     1      19.971  -8.526  27.506  1.00  0.00     0.000 C 
BRANCH  18  19
ATOM     19  C   UNL     1      19.260  -8.483  28.872  1.00  0.00     0.000 C 
BRANCH  19  20
ATOM     20  C   UNL     1      20.179  -8.653  30.095  1.00  0.00     0.006 C 
BRANCH  20  21
ATOM     21  C   UNL     1      19.614  -9.626  31.139  1.00  0.00     0.053 C 
BRANCH  21  22
ATOM     22  C   UNL     1      19.471 -10.995  30.554  1.00  0.00     0.041 C 
ATOM     23  O   UNL     1      20.448 -11.543  29.978  1.00  0.00    -0.550 OA
ATOM     24  O   UNL     1      18.274 -11.687  30.687  1.00  0.00    -0.550 OA
ENDBRANCH  21  22
ENDBRANCH  20  21
ENDBRANCH  19  20
ENDBRANCH  18  19
ENDBRANCH  17  18
ENDBRANCH  16  17
ENDBRANCH  15  16
ENDBRANCH  14  15
ENDBRANCH  13  14
ENDBRANCH   1  13
TORSDOF 20
ENDMDL
