MODEL 1
REMARK VINA RESULT:    15.663      0.000      0.000
REMARK INTER + INTRA:          19.252
REMARK INTER:                  18.868
REMARK INTRA:                   0.384
REMARK UNBOUND:                 0.384
REMARK SMILES O=c1c(O)c(-c2ccc(O)cc2O)oc2cc(O)cc(O)c12
REMARK SMILES IDX 5 1 3 2 2 3 1 4 22 5 20 6 19 7 17 8 16 9 15 10 14 11 6 12
REMARK SMILES IDX 8 13 7 14 9 15 11 16 12 17 10 18 13 20 4 22 21 24 18 26
REMARK H PARENT 10 19 13 21 4 23 21 25 18 27
REMARK Flexibility Score: inf
ROOT
ATOM      1  C   UNL     1      13.644   7.532 128.574  1.00  0.00     0.184 A 
ATOM      2  C   UNL     1      13.243   6.568 129.511  1.00  0.00     0.208 A 
ATOM      3  C   UNL     1      13.713   6.662 130.830  1.00  0.00     0.238 A 
ATOM      4  O   UNL     1      13.409   5.753 131.645  1.00  0.00    -0.285 OA
ATOM      5  C   UNL     1      14.537   7.751 131.207  1.00  0.00     0.111 A 
ATOM      6  C   UNL     1      15.037   7.972 132.526  1.00  0.00     0.134 A 
ATOM      7  C   UNL     1      15.929   9.026 132.759  1.00  0.00     0.093 A 
ATOM      8  C   UNL     1      16.290   9.904 131.738  1.00  0.00     0.123 A 
ATOM      9  C   UNL     1      15.765   9.730 130.458  1.00  0.00     0.094 A 
ATOM     10  C   UNL     1      14.902   8.666 130.185  1.00  0.00     0.146 A 
ATOM     11  O   UNL     1      14.441   8.525 128.947  1.00  0.00    -0.451 OA
ENDROOT
BRANCH   1  12
ATOM     12  C   UNL     1      13.190   7.486 127.168  1.00  0.00     0.063 A 
ATOM     13  C   UNL     1      12.256   6.201 125.328  1.00  0.00     0.047 A 
ATOM     14  C   UNL     1      12.699   6.277 126.652  1.00  0.00     0.020 A 
ATOM     15  C   UNL     1      12.285   7.337 124.510  1.00  0.00     0.119 A 
ATOM     16  C   UNL     1      12.751   8.550 125.024  1.00  0.00     0.093 A 
ATOM     17  C   UNL     1      13.193   8.638 126.353  1.00  0.00     0.130 A 
BRANCH  15  18
ATOM     18  O   UNL     1      11.850   7.271 123.188  1.00  0.00    -0.508 OA
ATOM     19  H   UNL     1      10.980   6.817 122.940  1.00  0.00     0.293 HD
ENDBRANCH  15  18
BRANCH  17  20
ATOM     20  O   UNL     1      13.608   9.866 126.868  1.00  0.00    -0.507 OA
ATOM     21  H   UNL     1      14.528  10.242 126.669  1.00  0.00     0.293 HD
ENDBRANCH  17  20
ENDBRANCH   1  12
BRANCH   2  22
ATOM     22  O   UNL     1      12.371   5.543 129.130  1.00  0.00    -0.502 OA
ATOM     23  H   UNL     1      11.658   5.178 129.749  1.00  0.00     0.293 HD
ENDBRANCH   2  22
BRANCH   6  24
ATOM     24  O   UNL     1      14.672   7.209 133.641  1.00  0.00    -0.507 OA
ATOM     25  H   UNL     1      14.659   6.201 133.671  1.00  0.00     0.293 HD
ENDBRANCH   6  24
BRANCH   8  26
ATOM     26  O   UNL     1      17.167  10.952 132.011  1.00  0.00    -0.508 OA
ATOM     27  H   UNL     1      17.545  11.097 132.940  1.00  0.00     0.293 HD
ENDBRANCH   8  26
TORSDOF 6
ENDMDL
MODEL 2
REMARK VINA RESULT:    15.769      3.102      4.868
REMARK INTER + INTRA:          19.379
REMARK INTER:                  19.676
REMARK INTRA:                  -0.297
REMARK UNBOUND:                 0.384
REMARK SMILES O=c1c(O)c(-c2ccc(O)cc2O)oc2cc(O)cc(O)c12
REMARK SMILES IDX 5 1 3 2 2 3 1 4 22 5 20 6 19 7 17 8 16 9 15 10 14 11 6 12
REMARK SMILES IDX 8 13 7 14 9 15 11 16 12 17 10 18 13 20 4 22 21 24 18 26
REMARK H PARENT 10 19 13 21 4 23 21 25 18 27
REMARK Flexibility Score: inf
ROOT
ATOM      1  C   UNL     1      15.178   6.857 131.513  1.00  0.00     0.184 A 
ATOM      2  C   UNL     1      14.934   8.184 131.900  1.00  0.00     0.208 A 
ATOM      3  C   UNL     1      16.020   9.006 132.235  1.00  0.00     0.238 A 
ATOM      4  O   UNL     1      15.788  10.171 132.652  1.00  0.00    -0.285 OA
ATOM      5  C   UNL     1      17.341   8.508 132.126  1.00  0.00     0.111 A 
ATOM      6  C   UNL     1      18.521   9.265 132.398  1.00  0.00     0.134 A 
ATOM      7  C   UNL     1      19.770   8.635 132.359  1.00  0.00     0.093 A 
ATOM      8  C   UNL     1      19.892   7.294 131.996  1.00  0.00     0.123 A 
ATOM      9  C   UNL     1      18.751   6.559 131.676  1.00  0.00     0.094 A 
ATOM     10  C   UNL     1      17.486   7.148 131.743  1.00  0.00     0.146 A 
ATOM     11  O   UNL     1      16.425   6.405 131.450  1.00  0.00    -0.451 OA
ENDROOT
BRANCH   1  12
ATOM     12  C   UNL     1      14.079   5.937 131.155  1.00  0.00     0.063 A 
ATOM     13  C   UNL     1      12.749   3.977 131.703  1.00  0.00     0.047 A 
ATOM     14  C   UNL     1      13.786   4.863 132.010  1.00  0.00     0.020 A 
ATOM     15  C   UNL     1      11.983   4.164 130.546  1.00  0.00     0.119 A 
ATOM     16  C   UNL     1      12.253   5.244 129.702  1.00  0.00     0.093 A 
ATOM     17  C   UNL     1      13.289   6.142 130.004  1.00  0.00     0.130 A 
BRANCH  15  18
ATOM     18  O   UNL     1      10.950   3.284 130.229  1.00  0.00    -0.508 OA
ATOM     19  H   UNL     1      10.950   2.327 130.559  1.00  0.00     0.293 HD
ENDBRANCH  15  18
BRANCH  17  20
ATOM     20  O   UNL     1      13.516   7.243 129.179  1.00  0.00    -0.507 OA
ATOM     21  H   UNL     1      12.773   7.890 128.940  1.00  0.00     0.293 HD
ENDBRANCH  17  20
ENDBRANCH   1  12
BRANCH   2  22
ATOM     22  O   UNL     1      13.625   8.673 131.929  1.00  0.00    -0.502 OA
ATOM     23  H   UNL     1      12.817   8.063 131.938  1.00  0.00     0.293 HD
ENDBRANCH   2  22
BRANCH   6  24
ATOM     24  O   UNL     1      18.524  10.634 132.684  1.00  0.00    -0.507 OA
ATOM     25  H   UNL     1      17.700  11.194 132.840  1.00  0.00     0.293 HD
ENDBRANCH   6  24
BRANCH   8  26
ATOM     26  O   UNL     1      21.153   6.706 131.951  1.00  0.00    -0.508 OA
ATOM     27  H   UNL     1      21.273   5.731 131.701  1.00  0.00     0.293 HD
ENDBRANCH   8  26
TORSDOF 6
ENDMDL
MODEL 3
REMARK VINA RESULT:    16.456      5.117     10.085
REMARK INTER + INTRA:          20.207
REMARK INTER:                  19.940
REMARK INTRA:                   0.267
REMARK UNBOUND:                 0.384
REMARK SMILES O=c1c(O)c(-c2ccc(O)cc2O)oc2cc(O)cc(O)c12
REMARK SMILES IDX 5 1 3 2 2 3 1 4 22 5 20 6 19 7 17 8 16 9 15 10 14 11 6 12
REMARK SMILES IDX 8 13 7 14 9 15 11 16 12 17 10 18 13 20 4 22 21 24 18 26
REMARK H PARENT 10 19 13 21 4 23 21 25 18 27
REMARK Flexibility Score: inf
ROOT
ATOM      1  C   UNL     1      19.247   7.905 135.183  1.00  0.00     0.184 A 
ATOM      2  C   UNL     1      20.005   7.602 134.042  1.00  0.00     0.208 A 
ATOM      3  C   UNL     1      19.457   7.850 132.774  1.00  0.00     0.238 A 
ATOM      4  O   UNL     1      20.113   7.507 131.756  1.00  0.00    -0.285 OA
ATOM      5  C   UNL     1      18.178   8.449 132.665  1.00  0.00     0.111 A 
ATOM      6  C   UNL     1      17.542   8.785 131.432  1.00  0.00     0.134 A 
ATOM      7  C   UNL     1      16.232   9.277 131.443  1.00  0.00     0.093 A 
ATOM      8  C   UNL     1      15.556   9.505 132.641  1.00  0.00     0.123 A 
ATOM      9  C   UNL     1      16.188   9.231 133.854  1.00  0.00     0.094 A 
ATOM     10  C   UNL     1      17.482   8.703 133.876  1.00  0.00     0.146 A 
ATOM     11  O   UNL     1      18.038   8.438 135.052  1.00  0.00    -0.451 OA
ENDROOT
BRANCH   1  12
ATOM     12  C   UNL     1      19.763   7.663 136.546  1.00  0.00     0.063 A 
ATOM     13  C   UNL     1      21.255   6.424 138.012  1.00  0.00     0.047 A 
ATOM     14  C   UNL     1      20.742   6.675 136.737  1.00  0.00     0.020 A 
ATOM     15  C   UNL     1      20.806   7.168 139.110  1.00  0.00     0.119 A 
ATOM     16  C   UNL     1      19.849   8.169 138.925  1.00  0.00     0.093 A 
ATOM     17  C   UNL     1      19.331   8.432 137.647  1.00  0.00     0.130 A 
BRANCH  15  18
ATOM     18  O   UNL     1      21.308   6.924 140.387  1.00  0.00    -0.508 OA
ATOM     19  H   UNL     1      21.920   6.138 140.573  1.00  0.00     0.293 HD
ENDBRANCH  15  18
BRANCH  17  20
ATOM     20  O   UNL     1      18.413   9.466 137.469  1.00  0.00    -0.507 OA
ATOM     21  H   UNL     1      18.686  10.356 137.068  1.00  0.00     0.293 HD
ENDBRANCH  17  20
ENDBRANCH   1  12
BRANCH   2  22
ATOM     22  O   UNL     1      21.294   7.079 134.179  1.00  0.00    -0.502 OA
ATOM     23  H   UNL     1      21.703   6.455 133.494  1.00  0.00     0.293 HD
ENDBRANCH   2  22
BRANCH   6  24
ATOM     24  O   UNL     1      18.156   8.682 130.179  1.00  0.00    -0.507 OA
ATOM     25  H   UNL     1      19.118   8.912 129.987  1.00  0.00     0.293 HD
ENDBRANCH   6  24
BRANCH   8  26
ATOM     26  O   UNL     1      14.259  10.012 132.614  1.00  0.00    -0.508 OA
ATOM     27  H   UNL     1      13.555   9.697 133.272  1.00  0.00     0.293 HD
ENDBRANCH   8  26
TORSDOF 6
ENDMDL
MODEL 4
REMARK VINA RESULT:    17.114      3.928      7.712
REMARK INTER + INTRA:          21.000
REMARK INTER:                  21.360
REMARK INTRA:                  -0.360
REMARK UNBOUND:                 0.384
REMARK SMILES O=c1c(O)c(-c2ccc(O)cc2O)oc2cc(O)cc(O)c12
REMARK SMILES IDX 5 1 3 2 2 3 1 4 22 5 20 6 19 7 17 8 16 9 15 10 14 11 6 12
REMARK SMILES IDX 8 13 7 14 9 15 11 16 12 17 10 18 13 20 4 22 21 24 18 26
REMARK H PARENT 10 19 13 21 4 23 21 25 18 27
REMARK Flexibility Score: inf
ROOT
ATOM      1  C   UNL     1      18.121   7.491 131.977  1.00  0.00     0.184 A 
ATOM      2  C   UNL     1      17.689   8.825 131.936  1.00  0.00     0.208 A 
ATOM      3  C   UNL     1      16.324   9.094 131.753  1.00  0.00     0.238 A 
ATOM      4  O   UNL     1      15.954  10.292 131.644  1.00  0.00    -0.285 OA
ATOM      5  C   UNL     1      15.401   8.023 131.667  1.00  0.00     0.111 A 
ATOM      6  C   UNL     1      13.989   8.177 131.525  1.00  0.00     0.134 A 
ATOM      7  C   UNL     1      13.185   7.045 131.344  1.00  0.00     0.093 A 
ATOM      8  C   UNL     1      13.730   5.762 131.364  1.00  0.00     0.123 A 
ATOM      9  C   UNL     1      15.102   5.597 131.557  1.00  0.00     0.094 A 
ATOM     10  C   UNL     1      15.936   6.708 131.702  1.00  0.00     0.146 A 
ATOM     11  O   UNL     1      17.239   6.506 131.863  1.00  0.00    -0.451 OA
ENDROOT
BRANCH   1  12
ATOM     12  C   UNL     1      19.545   7.140 132.160  1.00  0.00     0.063 A 
ATOM     13  C   UNL     1      21.526   7.165 133.570  1.00  0.00     0.047 A 
ATOM     14  C   UNL     1      20.181   7.487 133.362  1.00  0.00     0.020 A 
ATOM     15  C   UNL     1      22.245   6.478 132.584  1.00  0.00     0.119 A 
ATOM     16  C   UNL     1      21.612   6.107 131.395  1.00  0.00     0.093 A 
ATOM     17  C   UNL     1      20.261   6.422 131.179  1.00  0.00     0.130 A 
BRANCH  15  18
ATOM     18  O   UNL     1      23.586   6.155 132.779  1.00  0.00    -0.508 OA
ATOM     19  H   UNL     1      23.982   6.078 133.708  1.00  0.00     0.293 HD
ENDBRANCH  15  18
BRANCH  17  20
ATOM     20  O   UNL     1      19.628   6.003 130.009  1.00  0.00    -0.507 OA
ATOM     21  H   UNL     1      18.863   5.339 130.026  1.00  0.00     0.293 HD
ENDBRANCH  17  20
ENDBRANCH   1  12
BRANCH   2  22
ATOM     22  O   UNL     1      18.611   9.863 132.096  1.00  0.00    -0.502 OA
ATOM     23  H   UNL     1      18.451  10.793 131.729  1.00  0.00     0.293 HD
ENDBRANCH   2  22
BRANCH   6  24
ATOM     24  O   UNL     1      13.325   9.407 131.579  1.00  0.00    -0.507 OA
ATOM     25  H   UNL     1      12.758   9.791 130.840  1.00  0.00     0.293 HD
ENDBRANCH   6  24
BRANCH   8  26
ATOM     26  O   UNL     1      12.898   4.658 131.198  1.00  0.00    -0.508 OA
ATOM     27  H   UNL     1      11.916   4.765 130.970  1.00  0.00     0.293 HD
ENDBRANCH   8  26
TORSDOF 6
ENDMDL
MODEL 5
REMARK VINA RESULT:    17.764      1.538      7.420
REMARK INTER + INTRA:          21.782
REMARK INTER:                  21.191
REMARK INTRA:                   0.592
REMARK UNBOUND:                 0.384
REMARK SMILES O=c1c(O)c(-c2ccc(O)cc2O)oc2cc(O)cc(O)c12
REMARK SMILES IDX 5 1 3 2 2 3 1 4 22 5 20 6 19 7 17 8 16 9 15 10 14 11 6 12
REMARK SMILES IDX 8 13 7 14 9 15 11 16 12 17 10 18 13 20 4 22 21 24 18 26
REMARK H PARENT 10 19 13 21 4 23 21 25 18 27
REMARK Flexibility Score: inf
ROOT
ATOM      1  C   UNL     1      13.327   7.595 127.485  1.00  0.00     0.184 A 
ATOM      2  C   UNL     1      13.634   8.726 126.713  1.00  0.00     0.208 A 
ATOM      3  C   UNL     1      13.280   8.741 125.355  1.00  0.00     0.238 A 
ATOM      4  O   UNL     1      13.625   9.727 124.653  1.00  0.00    -0.285 OA
ATOM      5  C   UNL     1      12.573   7.646 124.800  1.00  0.00     0.111 A 
ATOM      6  C   UNL     1      12.125   7.571 123.446  1.00  0.00     0.134 A 
ATOM      7  C   UNL     1      11.528   6.394 122.981  1.00  0.00     0.093 A 
ATOM      8  C   UNL     1      11.305   5.312 123.832  1.00  0.00     0.123 A 
ATOM      9  C   UNL     1      11.691   5.395 125.170  1.00  0.00     0.094 A 
ATOM     10  C   UNL     1      12.323   6.542 125.656  1.00  0.00     0.146 A 
ATOM     11  O   UNL     1      12.692   6.570 126.931  1.00  0.00    -0.451 OA
ENDROOT
BRANCH   1  12
ATOM     12  C   UNL     1      13.679   7.513 128.917  1.00  0.00     0.063 A 
ATOM     13  C   UNL     1      14.781   8.502 130.846  1.00  0.00     0.047 A 
ATOM     14  C   UNL     1      14.436   8.546 129.492  1.00  0.00     0.020 A 
ATOM     15  C   UNL     1      14.360   7.431 131.644  1.00  0.00     0.119 A 
ATOM     16  C   UNL     1      13.586   6.411 131.086  1.00  0.00     0.093 A 
ATOM     17  C   UNL     1      13.230   6.449 129.728  1.00  0.00     0.130 A 
BRANCH  15  18
ATOM     18  O   UNL     1      14.701   7.376 132.994  1.00  0.00    -0.508 OA
ATOM     19  H   UNL     1      14.004   7.214 133.710  1.00  0.00     0.293 HD
ENDBRANCH  15  18
BRANCH  17  20
ATOM     20  O   UNL     1      12.417   5.450 129.195  1.00  0.00    -0.507 OA
ATOM     21  H   UNL     1      12.488   4.486 129.501  1.00  0.00     0.293 HD
ENDBRANCH  17  20
ENDBRANCH   1  12
BRANCH   2  22
ATOM     22  O   UNL     1      14.268   9.823 127.303  1.00  0.00    -0.502 OA
ATOM     23  H   UNL     1      15.270   9.863 127.439  1.00  0.00     0.293 HD
ENDBRANCH   2  22
BRANCH   6  24
ATOM     24  O   UNL     1      12.216   8.626 122.531  1.00  0.00    -0.507 OA
ATOM     25  H   UNL     1      11.843   8.611 121.595  1.00  0.00     0.293 HD
ENDBRANCH   6  24
BRANCH   8  26
ATOM     26  O   UNL     1      10.693   4.163 123.338  1.00  0.00    -0.508 OA
ATOM     27  H   UNL     1      10.650   3.310 123.884  1.00  0.00     0.293 HD
ENDBRANCH   8  26
TORSDOF 6
ENDMDL
