MODEL 1
REMARK VINA RESULT:    -7.593      0.000      0.000
REMARK INTER + INTRA:          -9.476
REMARK INTER:                  -9.147
REMARK INTRA:                  -0.330
REMARK UNBOUND:                -0.330
REMARK SMILES O=c1c(O)c(-c2ccc(O)c(O)c2)oc2cc(O)cc(O)c12
REMARK SMILES IDX 5 1 3 2 2 3 1 4 22 5 20 6 19 7 17 8 16 9 15 10 14 11 6 12
REMARK SMILES IDX 7 13 8 14 9 15 13 16 11 17 10 18 12 20 4 22 21 24 18 26
REMARK H PARENT 10 19 12 21 4 23 21 25 18 27
REMARK Flexibility Score: inf
ROOT
ATOM      1  C   UNL     1      10.641  38.888  22.629  1.00  0.00     0.180 A 
ATOM      2  C   UNL     1      11.800  38.389  22.009  1.00  0.00     0.208 A 
ATOM      3  C   UNL     1      12.145  38.861  20.732  1.00  0.00     0.238 A 
ATOM      4  O   UNL     1      13.213  38.451  20.205  1.00  0.00    -0.285 OA
ATOM      5  C   UNL     1      11.320  39.813  20.085  1.00  0.00     0.111 A 
ATOM      6  C   UNL     1      11.552  40.328  18.775  1.00  0.00     0.134 A 
ATOM      7  C   UNL     1      10.743  41.362  18.287  1.00  0.00     0.093 A 
ATOM      8  C   UNL     1       9.672  41.852  19.034  1.00  0.00     0.123 A 
ATOM      9  C   UNL     1       9.399  41.313  20.292  1.00  0.00     0.094 A 
ATOM     10  C   UNL     1      10.211  40.306  20.820  1.00  0.00     0.146 A 
ATOM     11  O   UNL     1       9.924  39.828  22.025  1.00  0.00    -0.452 OA
ENDROOT
BRANCH   1  12
ATOM     12  C   UNL     1      10.199  38.421  23.964  1.00  0.00     0.025 A 
ATOM     13  C   UNL     1       9.409  37.267  24.110  1.00  0.00     0.016 A 
ATOM     14  C   UNL     1       8.982  36.859  25.377  1.00  0.00     0.051 A 
ATOM     15  C   UNL     1       9.328  37.604  26.512  1.00  0.00     0.157 A 
ATOM     16  C   UNL     1      10.524  39.175  25.103  1.00  0.00     0.062 A 
ATOM     17  C   UNL     1      10.097  38.766  26.375  1.00  0.00     0.158 A 
BRANCH  15  18
ATOM     18  O   UNL     1       8.905  37.199  27.778  1.00  0.00    -0.504 OA
ATOM     19  H   UNL     1       9.203  36.317  28.178  1.00  0.00     0.293 HD
ENDBRANCH  15  18
BRANCH  17  20
ATOM     20  O   UNL     1      10.433  39.508  27.505  1.00  0.00    -0.504 OA
ATOM     21  H   UNL     1      11.106  39.168  28.182  1.00  0.00     0.293 HD
ENDBRANCH  17  20
ENDBRANCH   1  12
BRANCH   2  22
ATOM     22  O   UNL     1      12.612  37.467  22.674  1.00  0.00    -0.502 OA
ATOM     23  H   UNL     1      12.959  37.625  23.613  1.00  0.00     0.293 HD
ENDBRANCH   2  22
BRANCH   6  24
ATOM     24  O   UNL     1      12.538  39.847  17.910  1.00  0.00    -0.507 OA
ATOM     25  H   UNL     1      13.140  39.061  18.105  1.00  0.00     0.293 HD
ENDBRANCH   6  24
BRANCH   8  26
ATOM     26  O   UNL     1       8.878  42.871  18.511  1.00  0.00    -0.508 OA
ATOM     27  H   UNL     1       8.173  43.335  19.072  1.00  0.00     0.293 HD
ENDBRANCH   8  26
TORSDOF 6
ENDMDL
MODEL 2
REMARK VINA RESULT:    -7.143      5.673      7.997
REMARK INTER + INTRA:          -8.934
REMARK INTER:                  -8.621
REMARK INTRA:                  -0.313
REMARK UNBOUND:                -0.330
REMARK SMILES O=c1c(O)c(-c2ccc(O)c(O)c2)oc2cc(O)cc(O)c12
REMARK SMILES IDX 5 1 3 2 2 3 1 4 22 5 20 6 19 7 17 8 16 9 15 10 14 11 6 12
REMARK SMILES IDX 7 13 8 14 9 15 13 16 11 17 10 18 12 20 4 22 21 24 18 26
REMARK H PARENT 10 19 12 21 4 23 21 25 18 27
REMARK Flexibility Score: inf
ROOT
ATOM      1  C   UNL     1      12.435  44.190  21.182  1.00  0.00     0.180 A 
ATOM      2  C   UNL     1      12.076  45.538  21.348  1.00  0.00     0.208 A 
ATOM      3  C   UNL     1      13.015  46.431  21.890  1.00  0.00     0.238 A 
ATOM      4  O   UNL     1      12.707  47.648  21.986  1.00  0.00    -0.285 OA
ATOM      5  C   UNL     1      14.295  45.961  22.274  1.00  0.00     0.111 A 
ATOM      6  C   UNL     1      15.308  46.768  22.872  1.00  0.00     0.134 A 
ATOM      7  C   UNL     1      16.582  46.228  23.091  1.00  0.00     0.093 A 
ATOM      8  C   UNL     1      16.857  44.893  22.795  1.00  0.00     0.123 A 
ATOM      9  C   UNL     1      15.856  44.078  22.267  1.00  0.00     0.094 A 
ATOM     10  C   UNL     1      14.586  44.599  22.004  1.00  0.00     0.146 A 
ATOM     11  O   UNL     1      13.664  43.793  21.491  1.00  0.00    -0.452 OA
ENDROOT
BRANCH   1  12
ATOM     12  C   UNL     1      11.492  43.184  20.641  1.00  0.00     0.025 A 
ATOM     13  C   UNL     1      10.507  42.593  21.452  1.00  0.00     0.016 A 
ATOM     14  C   UNL     1       9.644  41.628  20.925  1.00  0.00     0.051 A 
ATOM     15  C   UNL     1       9.761  41.232  19.587  1.00  0.00     0.157 A 
ATOM     16  C   UNL     1      11.618  42.767  19.305  1.00  0.00     0.062 A 
ATOM     17  C   UNL     1      10.751  41.799  18.776  1.00  0.00     0.158 A 
BRANCH  15  18
ATOM     18  O   UNL     1       8.900  40.271  19.057  1.00  0.00    -0.504 OA
ATOM     19  H   UNL     1       9.222  39.585  18.384  1.00  0.00     0.293 HD
ENDBRANCH  15  18
BRANCH  17  20
ATOM     20  O   UNL     1      10.869  41.398  17.447  1.00  0.00    -0.504 OA
ATOM     21  H   UNL     1      10.059  41.328  16.841  1.00  0.00     0.293 HD
ENDBRANCH  17  20
ENDBRANCH   1  12
BRANCH   2  22
ATOM     22  O   UNL     1      10.817  45.986  20.942  1.00  0.00    -0.502 OA
ATOM     23  H   UNL     1      10.305  45.556  20.181  1.00  0.00     0.293 HD
ENDBRANCH   2  22
BRANCH   6  24
ATOM     24  O   UNL     1      15.111  48.087  23.289  1.00  0.00    -0.507 OA
ATOM     25  H   UNL     1      15.157  48.894  22.685  1.00  0.00     0.293 HD
ENDBRANCH   6  24
BRANCH   8  26
ATOM     26  O   UNL     1      18.131  44.384  23.040  1.00  0.00    -0.508 OA
ATOM     27  H   UNL     1      18.411  44.078  23.964  1.00  0.00     0.293 HD
ENDBRANCH   8  26
TORSDOF 6
ENDMDL
MODEL 3
REMARK VINA RESULT:    -7.024      1.868      2.320
REMARK INTER + INTRA:          -8.790
REMARK INTER:                  -8.674
REMARK INTRA:                  -0.117
REMARK UNBOUND:                -0.330
REMARK SMILES O=c1c(O)c(-c2ccc(O)c(O)c2)oc2cc(O)cc(O)c12
REMARK SMILES IDX 5 1 3 2 2 3 1 4 22 5 20 6 19 7 17 8 16 9 15 10 14 11 6 12
REMARK SMILES IDX 7 13 8 14 9 15 13 16 11 17 10 18 12 20 4 22 21 24 18 26
REMARK H PARENT 10 19 12 21 4 23 21 25 18 27
REMARK Flexibility Score: inf
ROOT
ATOM      1  C   UNL     1      11.276  39.409  22.273  1.00  0.00     0.180 A 
ATOM      2  C   UNL     1      11.601  38.827  21.035  1.00  0.00     0.208 A 
ATOM      3  C   UNL     1      11.264  39.507  19.853  1.00  0.00     0.238 A 
ATOM      4  O   UNL     1      11.606  39.006  18.750  1.00  0.00    -0.285 OA
ATOM      5  C   UNL     1      10.592  40.751  19.924  1.00  0.00     0.111 A 
ATOM      6  C   UNL     1      10.166  41.507  18.790  1.00  0.00     0.134 A 
ATOM      7  C   UNL     1       9.627  42.786  18.976  1.00  0.00     0.093 A 
ATOM      8  C   UNL     1       9.438  43.308  20.256  1.00  0.00     0.123 A 
ATOM      9  C   UNL     1       9.795  42.553  21.373  1.00  0.00     0.094 A 
ATOM     10  C   UNL     1      10.369  41.289  21.218  1.00  0.00     0.146 A 
ATOM     11  O   UNL     1      10.705  40.607  22.306  1.00  0.00    -0.452 OA
ENDROOT
BRANCH   1  12
ATOM     12  C   UNL     1      11.577  38.742  23.560  1.00  0.00     0.025 A 
ATOM     13  C   UNL     1      10.555  38.406  24.467  1.00  0.00     0.016 A 
ATOM     14  C   UNL     1      10.865  37.799  25.687  1.00  0.00     0.051 A 
ATOM     15  C   UNL     1      12.198  37.532  26.024  1.00  0.00     0.157 A 
ATOM     16  C   UNL     1      12.913  38.490  23.914  1.00  0.00     0.062 A 
ATOM     17  C   UNL     1      13.224  37.881  25.138  1.00  0.00     0.158 A 
BRANCH  15  18
ATOM     18  O   UNL     1      12.510  36.925  27.240  1.00  0.00    -0.504 OA
ATOM     19  H   UNL     1      12.628  35.921  27.316  1.00  0.00     0.293 HD
ENDBRANCH  15  18
BRANCH  17  20
ATOM     20  O   UNL     1      14.549  37.619  25.480  1.00  0.00    -0.504 OA
ATOM     21  H   UNL     1      14.805  37.301  26.408  1.00  0.00     0.293 HD
ENDBRANCH  17  20
ENDBRANCH   1  12
BRANCH   2  22
ATOM     22  O   UNL     1      12.283  37.609  20.989  1.00  0.00    -0.502 OA
ATOM     23  H   UNL     1      11.843  36.748  20.686  1.00  0.00     0.293 HD
ENDBRANCH   2  22
BRANCH   6  24
ATOM     24  O   UNL     1      10.226  41.041  17.474  1.00  0.00    -0.507 OA
ATOM     25  H   UNL     1      11.009  40.545  17.075  1.00  0.00     0.293 HD
ENDBRANCH   6  24
BRANCH   8  26
ATOM     26  O   UNL     1       8.885  44.579  20.404  1.00  0.00    -0.508 OA
ATOM     27  H   UNL     1       8.172  44.769  21.099  1.00  0.00     0.293 HD
ENDBRANCH   8  26
TORSDOF 6
ENDMDL
MODEL 4
REMARK VINA RESULT:    -6.940      4.913      7.173
REMARK INTER + INTRA:          -8.690
REMARK INTER:                  -9.117
REMARK INTRA:                   0.427
REMARK UNBOUND:                -0.330
REMARK SMILES O=c1c(O)c(-c2ccc(O)c(O)c2)oc2cc(O)cc(O)c12
REMARK SMILES IDX 5 1 3 2 2 3 1 4 22 5 20 6 19 7 17 8 16 9 15 10 14 11 6 12
REMARK SMILES IDX 7 13 8 14 9 15 13 16 11 17 10 18 12 20 4 22 21 24 18 26
REMARK H PARENT 10 19 12 21 4 23 21 25 18 27
REMARK Flexibility Score: inf
ROOT
ATOM      1  C   UNL     1      13.026  43.392  21.132  1.00  0.00     0.180 A 
ATOM      2  C   UNL     1      11.851  43.747  20.447  1.00  0.00     0.208 A 
ATOM      3  C   UNL     1      11.062  42.734  19.878  1.00  0.00     0.238 A 
ATOM      4  O   UNL     1       9.983  43.053  19.314  1.00  0.00    -0.285 OA
ATOM      5  C   UNL     1      11.467  41.381  19.987  1.00  0.00     0.111 A 
ATOM      6  C   UNL     1      10.767  40.277  19.414  1.00  0.00     0.134 A 
ATOM      7  C   UNL     1      11.187  38.972  19.695  1.00  0.00     0.093 A 
ATOM      8  C   UNL     1      12.319  38.732  20.473  1.00  0.00     0.123 A 
ATOM      9  C   UNL     1      13.047  39.805  20.988  1.00  0.00     0.094 A 
ATOM     10  C   UNL     1      12.631  41.118  20.755  1.00  0.00     0.146 A 
ATOM     11  O   UNL     1      13.344  42.111  21.273  1.00  0.00    -0.452 OA
ENDROOT
BRANCH   1  12
ATOM     12  C   UNL     1      13.922  44.405  21.737  1.00  0.00     0.025 A 
ATOM     13  C   UNL     1      13.498  45.732  21.934  1.00  0.00     0.016 A 
ATOM     14  C   UNL     1      14.369  46.676  22.484  1.00  0.00     0.051 A 
ATOM     15  C   UNL     1      15.676  46.313  22.832  1.00  0.00     0.157 A 
ATOM     16  C   UNL     1      15.241  44.053  22.068  1.00  0.00     0.062 A 
ATOM     17  C   UNL     1      16.114  45.001  22.621  1.00  0.00     0.158 A 
BRANCH  15  18
ATOM     18  O   UNL     1      16.547  47.253  23.383  1.00  0.00    -0.504 OA
ATOM     19  H   UNL     1      16.655  47.350  24.386  1.00  0.00     0.293 HD
ENDBRANCH  15  18
BRANCH  17  20
ATOM     20  O   UNL     1      17.417  44.645  22.962  1.00  0.00    -0.504 OA
ATOM     21  H   UNL     1      17.910  43.905  22.474  1.00  0.00     0.293 HD
ENDBRANCH  17  20
ENDBRANCH   1  12
BRANCH   2  22
ATOM     22  O   UNL     1      11.459  45.085  20.371  1.00  0.00    -0.502 OA
ATOM     23  H   UNL     1      10.566  45.412  20.721  1.00  0.00     0.293 HD
ENDBRANCH   2  22
BRANCH   6  24
ATOM     24  O   UNL     1       9.678  40.409  18.548  1.00  0.00    -0.507 OA
ATOM     25  H   UNL     1       9.318  39.671  17.961  1.00  0.00     0.293 HD
ENDBRANCH   6  24
BRANCH   8  26
ATOM     26  O   UNL     1      12.718  37.420  20.720  1.00  0.00    -0.508 OA
ATOM     27  H   UNL     1      12.252  36.633  20.285  1.00  0.00     0.293 HD
ENDBRANCH   8  26
TORSDOF 6
ENDMDL
MODEL 5
REMARK VINA RESULT:    -6.870      2.278      7.020
REMARK INTER + INTRA:          -8.605
REMARK INTER:                  -8.346
REMARK INTRA:                  -0.260
REMARK UNBOUND:                -0.330
REMARK SMILES O=c1c(O)c(-c2ccc(O)c(O)c2)oc2cc(O)cc(O)c12
REMARK SMILES IDX 5 1 3 2 2 3 1 4 22 5 20 6 19 7 17 8 16 9 15 10 14 11 6 12
REMARK SMILES IDX 7 13 8 14 9 15 13 16 11 17 10 18 12 20 4 22 21 24 18 26
REMARK H PARENT 10 19 12 21 4 23 21 25 18 27
REMARK Flexibility Score: inf
ROOT
ATOM      1  C   UNL     1      11.247  39.138  22.422  1.00  0.00     0.180 A 
ATOM      2  C   UNL     1      10.190  38.621  23.192  1.00  0.00     0.208 A 
ATOM      3  C   UNL     1      10.470  38.084  24.459  1.00  0.00     0.238 A 
ATOM      4  O   UNL     1       9.513  37.673  25.166  1.00  0.00    -0.285 OA
ATOM      5  C   UNL     1      11.805  38.055  24.933  1.00  0.00     0.111 A 
ATOM      6  C   UNL     1      12.208  37.497  26.183  1.00  0.00     0.134 A 
ATOM      7  C   UNL     1      13.535  37.640  26.607  1.00  0.00     0.093 A 
ATOM      8  C   UNL     1      14.486  38.262  25.798  1.00  0.00     0.123 A 
ATOM      9  C   UNL     1      14.115  38.757  24.548  1.00  0.00     0.094 A 
ATOM     10  C   UNL     1      12.791  38.662  24.113  1.00  0.00     0.146 A 
ATOM     11  O   UNL     1      12.477  39.156  22.922  1.00  0.00    -0.452 OA
ENDROOT
BRANCH   1  12
ATOM     12  C   UNL     1      11.034  39.698  21.068  1.00  0.00     0.025 A 
ATOM     13  C   UNL     1      11.429  38.996  19.915  1.00  0.00     0.016 A 
ATOM     14  C   UNL     1      11.241  39.556  18.648  1.00  0.00     0.051 A 
ATOM     15  C   UNL     1      10.669  40.828  18.516  1.00  0.00     0.157 A 
ATOM     16  C   UNL     1      10.480  40.982  20.930  1.00  0.00     0.062 A 
ATOM     17  C   UNL     1      10.291  41.544  19.658  1.00  0.00     0.158 A 
BRANCH  15  18
ATOM     18  O   UNL     1      10.478  41.388  17.254  1.00  0.00    -0.504 OA
ATOM     19  H   UNL     1      10.712  40.881  16.408  1.00  0.00     0.293 HD
ENDBRANCH  15  18
BRANCH  17  20
ATOM     20  O   UNL     1       9.728  42.811  19.523  1.00  0.00    -0.504 OA
ATOM     21  H   UNL     1       8.769  42.997  19.796  1.00  0.00     0.293 HD
ENDBRANCH  17  20
ENDBRANCH   1  12
BRANCH   2  22
ATOM     22  O   UNL     1       8.879  38.680  22.715  1.00  0.00    -0.502 OA
ATOM     23  H   UNL     1       8.614  39.243  21.915  1.00  0.00     0.293 HD
ENDBRANCH   2  22
BRANCH   6  24
ATOM     24  O   UNL     1      11.358  36.776  27.027  1.00  0.00    -0.507 OA
ATOM     25  H   UNL     1      11.226  36.967  28.008  1.00  0.00     0.293 HD
ENDBRANCH   6  24
BRANCH   8  26
ATOM     26  O   UNL     1      15.801  38.374  26.245  1.00  0.00    -0.508 OA
ATOM     27  H   UNL     1      16.098  37.970  27.125  1.00  0.00     0.293 HD
ENDBRANCH   8  26
TORSDOF 6
ENDMDL
MODEL 6
REMARK VINA RESULT:    -6.431      2.214      7.479
REMARK INTER + INTRA:          -8.076
REMARK INTER:                  -8.081
REMARK INTRA:                   0.005
REMARK UNBOUND:                -0.330
REMARK SMILES O=c1c(O)c(-c2ccc(O)c(O)c2)oc2cc(O)cc(O)c12
REMARK SMILES IDX 5 1 3 2 2 3 1 4 22 5 20 6 19 7 17 8 16 9 15 10 14 11 6 12
REMARK SMILES IDX 7 13 8 14 9 15 13 16 11 17 10 18 12 20 4 22 21 24 18 26
REMARK H PARENT 10 19 12 21 4 23 21 25 18 27
REMARK Flexibility Score: inf
ROOT
ATOM      1  C   UNL     1      11.641  38.855  23.018  1.00  0.00     0.180 A 
ATOM      2  C   UNL     1      10.314  38.761  23.471  1.00  0.00     0.208 A 
ATOM      3  C   UNL     1      10.060  38.156  24.712  1.00  0.00     0.238 A 
ATOM      4  O   UNL     1       8.875  38.124  25.137  1.00  0.00    -0.285 OA
ATOM      5  C   UNL     1      11.133  37.638  25.477  1.00  0.00     0.111 A 
ATOM      6  C   UNL     1      10.987  36.968  26.728  1.00  0.00     0.134 A 
ATOM      7  C   UNL     1      12.127  36.613  27.459  1.00  0.00     0.093 A 
ATOM      8  C   UNL     1      13.406  36.843  26.953  1.00  0.00     0.123 A 
ATOM      9  C   UNL     1      13.560  37.443  25.703  1.00  0.00     0.094 A 
ATOM     10  C   UNL     1      12.442  37.841  24.967  1.00  0.00     0.146 A 
ATOM     11  O   UNL     1      12.631  38.419  23.787  1.00  0.00    -0.452 OA
ENDROOT
BRANCH   1  12
ATOM     12  C   UNL     1      11.987  39.457  21.709  1.00  0.00     0.025 A 
ATOM     13  C   UNL     1      12.931  40.494  21.608  1.00  0.00     0.016 A 
ATOM     14  C   UNL     1      13.223  41.064  20.365  1.00  0.00     0.051 A 
ATOM     15  C   UNL     1      12.567  40.617  19.212  1.00  0.00     0.157 A 
ATOM     16  C   UNL     1      11.317  39.027  20.551  1.00  0.00     0.062 A 
ATOM     17  C   UNL     1      11.610  39.599  19.305  1.00  0.00     0.158 A 
BRANCH  15  18
ATOM     18  O   UNL     1      12.858  41.182  17.970  1.00  0.00    -0.504 OA
ATOM     19  H   UNL     1      12.265  41.022  17.164  1.00  0.00     0.293 HD
ENDBRANCH  15  18
BRANCH  17  20
ATOM     20  O   UNL     1      10.955  39.161  18.156  1.00  0.00    -0.504 OA
ATOM     21  H   UNL     1      10.775  38.177  17.991  1.00  0.00     0.293 HD
ENDBRANCH  17  20
ENDBRANCH   1  12
BRANCH   2  22
ATOM     22  O   UNL     1       9.273  39.299  22.711  1.00  0.00    -0.502 OA
ATOM     23  H   UNL     1       9.432  39.804  21.847  1.00  0.00     0.293 HD
ENDBRANCH   2  22
BRANCH   6  24
ATOM     24  O   UNL     1       9.755  36.608  27.282  1.00  0.00    -0.507 OA
ATOM     25  H   UNL     1       9.509  36.714  28.254  1.00  0.00     0.293 HD
ENDBRANCH   6  24
BRANCH   8  26
ATOM     26  O   UNL     1      14.520  36.463  27.701  1.00  0.00    -0.508 OA
ATOM     27  H   UNL     1      14.882  35.518  27.668  1.00  0.00     0.293 HD
ENDBRANCH   8  26
TORSDOF 6
ENDMDL
MODEL 7
REMARK VINA RESULT:    -6.335      1.648      6.758
REMARK INTER + INTRA:          -7.961
REMARK INTER:                  -7.915
REMARK INTRA:                  -0.046
REMARK UNBOUND:                -0.330
REMARK SMILES O=c1c(O)c(-c2ccc(O)c(O)c2)oc2cc(O)cc(O)c12
REMARK SMILES IDX 5 1 3 2 2 3 1 4 22 5 20 6 19 7 17 8 16 9 15 10 14 11 6 12
REMARK SMILES IDX 7 13 8 14 9 15 13 16 11 17 10 18 12 20 4 22 21 24 18 26
REMARK H PARENT 10 19 12 21 4 23 21 25 18 27
REMARK Flexibility Score: inf
ROOT
ATOM      1  C   UNL     1      10.972  39.447  22.694  1.00  0.00     0.180 A 
ATOM      2  C   UNL     1      12.320  39.060  22.788  1.00  0.00     0.208 A 
ATOM      3  C   UNL     1      12.757  38.390  23.942  1.00  0.00     0.238 A 
ATOM      4  O   UNL     1      13.952  37.998  23.996  1.00  0.00    -0.285 OA
ATOM      5  C   UNL     1      11.846  38.130  24.994  1.00  0.00     0.111 A 
ATOM      6  C   UNL     1      12.190  37.495  26.225  1.00  0.00     0.134 A 
ATOM      7  C   UNL     1      11.181  37.172  27.140  1.00  0.00     0.093 A 
ATOM      8  C   UNL     1       9.852  37.519  26.899  1.00  0.00     0.123 A 
ATOM      9  C   UNL     1       9.513  38.194  25.726  1.00  0.00     0.094 A 
ATOM     10  C   UNL     1      10.492  38.498  24.777  1.00  0.00     0.146 A 
ATOM     11  O   UNL     1      10.127  39.131  23.669  1.00  0.00    -0.452 OA
ENDROOT
BRANCH   1  12
ATOM     12  C   UNL     1      10.441  40.178  21.520  1.00  0.00     0.025 A 
ATOM     13  C   UNL     1       9.768  41.405  21.665  1.00  0.00     0.016 A 
ATOM     14  C   UNL     1       9.255  42.065  20.545  1.00  0.00     0.051 A 
ATOM     15  C   UNL     1       9.394  41.503  19.270  1.00  0.00     0.157 A 
ATOM     16  C   UNL     1      10.559  39.610  20.241  1.00  0.00     0.062 A 
ATOM     17  C   UNL     1      10.043  40.273  19.117  1.00  0.00     0.158 A 
BRANCH  15  18
ATOM     18  O   UNL     1       8.884  42.160  18.150  1.00  0.00    -0.504 OA
ATOM     19  H   UNL     1       8.101  41.785  17.627  1.00  0.00     0.293 HD
ENDBRANCH  15  18
BRANCH  17  20
ATOM     20  O   UNL     1      10.174  39.715  17.847  1.00  0.00    -0.504 OA
ATOM     21  H   UNL     1      10.237  40.294  17.017  1.00  0.00     0.293 HD
ENDBRANCH  17  20
ENDBRANCH   1  12
BRANCH   2  22
ATOM     22  O   UNL     1      13.197  39.307  21.729  1.00  0.00    -0.502 OA
ATOM     23  H   UNL     1      12.949  39.893  20.941  1.00  0.00     0.293 HD
ENDBRANCH   2  22
BRANCH   6  24
ATOM     24  O   UNL     1      13.499  37.187  26.605  1.00  0.00    -0.507 OA
ATOM     25  H   UNL     1      14.262  37.032  25.964  1.00  0.00     0.293 HD
ENDBRANCH   6  24
BRANCH   8  26
ATOM     26  O   UNL     1       8.875  37.195  27.839  1.00  0.00    -0.508 OA
ATOM     27  H   UNL     1       7.903  37.442  27.700  1.00  0.00     0.293 HD
ENDBRANCH   8  26
TORSDOF 6
ENDMDL
MODEL 8
REMARK VINA RESULT:    -6.285      7.608     11.703
REMARK INTER + INTRA:          -7.901
REMARK INTER:                  -7.606
REMARK INTRA:                  -0.295
REMARK UNBOUND:                -0.330
REMARK SMILES O=c1c(O)c(-c2ccc(O)c(O)c2)oc2cc(O)cc(O)c12
REMARK SMILES IDX 5 1 3 2 2 3 1 4 22 5 20 6 19 7 17 8 16 9 15 10 14 11 6 12
REMARK SMILES IDX 7 13 8 14 9 15 13 16 11 17 10 18 12 20 4 22 21 24 18 26
REMARK H PARENT 10 19 12 21 4 23 21 25 18 27
REMARK Flexibility Score: inf
ROOT
ATOM      1  C   UNL     1      13.007  32.815  28.551  1.00  0.00     0.180 A 
ATOM      2  C   UNL     1      12.853  31.688  27.726  1.00  0.00     0.208 A 
ATOM      3  C   UNL     1      13.217  30.425  28.221  1.00  0.00     0.238 A 
ATOM      4  O   UNL     1      13.025  29.414  27.497  1.00  0.00    -0.285 OA
ATOM      5  C   UNL     1      13.745  30.308  29.530  1.00  0.00     0.111 A 
ATOM      6  C   UNL     1      14.185  29.085  30.119  1.00  0.00     0.134 A 
ATOM      7  C   UNL     1      14.569  29.065  31.465  1.00  0.00     0.093 A 
ATOM      8  C   UNL     1      14.591  30.235  32.224  1.00  0.00     0.123 A 
ATOM      9  C   UNL     1      14.221  31.447  31.641  1.00  0.00     0.094 A 
ATOM     10  C   UNL     1      13.799  31.492  30.310  1.00  0.00     0.146 A 
ATOM     11  O   UNL     1      13.444  32.663  29.796  1.00  0.00    -0.452 OA
ENDROOT
BRANCH   1  12
ATOM     12  C   UNL     1      12.669  34.181  28.091  1.00  0.00     0.025 A 
ATOM     13  C   UNL     1      11.340  34.643  28.084  1.00  0.00     0.016 A 
ATOM     14  C   UNL     1      11.041  35.928  27.622  1.00  0.00     0.051 A 
ATOM     15  C   UNL     1      12.062  36.763  27.150  1.00  0.00     0.157 A 
ATOM     16  C   UNL     1      13.684  35.017  27.597  1.00  0.00     0.062 A 
ATOM     17  C   UNL     1      13.385  36.306  27.134  1.00  0.00     0.158 A 
BRANCH  15  18
ATOM     18  O   UNL     1      11.767  38.046  26.690  1.00  0.00    -0.504 OA
ATOM     19  H   UNL     1      12.443  38.799  26.752  1.00  0.00     0.293 HD
ENDBRANCH  15  18
BRANCH  17  20
ATOM     20  O   UNL     1      14.396  37.138  26.657  1.00  0.00    -0.504 OA
ATOM     21  H   UNL     1      14.226  38.116  26.452  1.00  0.00     0.293 HD
ENDBRANCH  17  20
ENDBRANCH   1  12
BRANCH   2  22
ATOM     22  O   UNL     1      12.309  31.823  26.446  1.00  0.00    -0.502 OA
ATOM     23  H   UNL     1      12.867  31.744  25.605  1.00  0.00     0.293 HD
ENDBRANCH   2  22
BRANCH   6  24
ATOM     24  O   UNL     1      14.288  27.876  29.424  1.00  0.00    -0.507 OA
ATOM     25  H   UNL     1      13.659  27.096  29.532  1.00  0.00     0.293 HD
ENDBRANCH   6  24
BRANCH   8  26
ATOM     26  O   UNL     1      14.993  30.182  33.558  1.00  0.00    -0.508 OA
ATOM     27  H   UNL     1      15.485  30.952  33.994  1.00  0.00     0.293 HD
ENDBRANCH   8  26
TORSDOF 6
ENDMDL
MODEL 9
REMARK VINA RESULT:    -6.147      9.559     12.402
REMARK INTER + INTRA:          -7.734
REMARK INTER:                  -7.980
REMARK INTRA:                   0.245
REMARK UNBOUND:                -0.330
REMARK SMILES O=c1c(O)c(-c2ccc(O)c(O)c2)oc2cc(O)cc(O)c12
REMARK SMILES IDX 5 1 3 2 2 3 1 4 22 5 20 6 19 7 17 8 16 9 15 10 14 11 6 12
REMARK SMILES IDX 7 13 8 14 9 15 13 16 11 17 10 18 12 20 4 22 21 24 18 26
REMARK H PARENT 10 19 12 21 4 23 21 25 18 27
REMARK Flexibility Score: inf
ROOT
ATOM      1  C   UNL     1      14.317  30.681  30.835  1.00  0.00     0.180 A 
ATOM      2  C   UNL     1      14.257  29.820  29.726  1.00  0.00     0.208 A 
ATOM      3  C   UNL     1      13.600  30.252  28.562  1.00  0.00     0.238 A 
ATOM      4  O   UNL     1      13.596  29.498  27.555  1.00  0.00    -0.285 OA
ATOM      5  C   UNL     1      12.997  31.533  28.528  1.00  0.00     0.111 A 
ATOM      6  C   UNL     1      12.270  32.057  27.417  1.00  0.00     0.134 A 
ATOM      7  C   UNL     1      11.830  33.386  27.445  1.00  0.00     0.093 A 
ATOM      8  C   UNL     1      12.031  34.187  28.569  1.00  0.00     0.123 A 
ATOM      9  C   UNL     1      12.687  33.666  29.684  1.00  0.00     0.094 A 
ATOM     10  C   UNL     1      13.171  32.356  29.672  1.00  0.00     0.146 A 
ATOM     11  O   UNL     1      13.800  31.901  30.749  1.00  0.00    -0.452 OA
ENDROOT
BRANCH   1  12
ATOM     12  C   UNL     1      14.971  30.288  32.104  1.00  0.00     0.025 A 
ATOM     13  C   UNL     1      15.010  28.945  32.521  1.00  0.00     0.016 A 
ATOM     14  C   UNL     1      15.612  28.600  33.735  1.00  0.00     0.051 A 
ATOM     15  C   UNL     1      16.168  29.591  34.553  1.00  0.00     0.157 A 
ATOM     16  C   UNL     1      15.513  31.279  32.940  1.00  0.00     0.062 A 
ATOM     17  C   UNL     1      16.116  30.932  34.157  1.00  0.00     0.158 A 
BRANCH  15  18
ATOM     18  O   UNL     1      16.770  29.249  35.764  1.00  0.00    -0.504 OA
ATOM     19  H   UNL     1      17.300  29.926  36.301  1.00  0.00     0.293 HD
ENDBRANCH  15  18
BRANCH  17  20
ATOM     20  O   UNL     1      16.666  31.916  34.977  1.00  0.00    -0.504 OA
ATOM     21  H   UNL     1      16.268  32.847  35.028  1.00  0.00     0.293 HD
ENDBRANCH  17  20
ENDBRANCH   1  12
BRANCH   2  22
ATOM     22  O   UNL     1      14.877  28.569  29.773  1.00  0.00    -0.502 OA
ATOM     23  H   UNL     1      14.497  27.754  29.306  1.00  0.00     0.293 HD
ENDBRANCH   2  22
BRANCH   6  24
ATOM     24  O   UNL     1      11.935  31.313  26.283  1.00  0.00    -0.507 OA
ATOM     25  H   UNL     1      10.995  31.054  26.023  1.00  0.00     0.293 HD
ENDBRANCH   6  24
BRANCH   8  26
ATOM     26  O   UNL     1      11.566  35.501  28.568  1.00  0.00    -0.508 OA
ATOM     27  H   UNL     1      11.224  35.942  27.723  1.00  0.00     0.293 HD
ENDBRANCH   8  26
TORSDOF 6
ENDMDL
