MODEL 1
REMARK VINA RESULT:    -5.206      0.000      0.000
REMARK INTER + INTRA:          -6.250
REMARK INTER:                  -6.119
REMARK INTRA:                  -0.131
REMARK UNBOUND:                -0.131
REMARK SMILES O=C([O-])C=Cc1ccc(O)c(O)c1
REMARK SMILES IDX 6 1 13 2 7 3 11 4 8 5 9 6 5 7 4 8 2 9 1 10 3 11 12 12 10 14
REMARK H PARENT 12 13 10 15
REMARK Flexibility Score: inf
ROOT
ATOM      1  C   UNL     1      25.549  48.001  33.483  1.00  0.00    -0.022 A 
ATOM      2  C   UNL     1      26.640  48.882  33.570  1.00  0.00     0.058 A 
ATOM      3  C   UNL     1      24.686  47.877  34.589  1.00  0.00     0.012 A 
ATOM      4  C   UNL     1      26.854  49.646  34.726  1.00  0.00     0.157 A 
ATOM      5  C   UNL     1      24.899  48.639  35.742  1.00  0.00     0.051 A 
ATOM      6  C   UNL     1      25.981  49.525  35.812  1.00  0.00     0.157 A 
ENDROOT
BRANCH   1   7
ATOM      7  C   UNL     1      25.374  47.208  32.240  1.00  0.00     0.010 C 
ATOM      8  C   UNL     1      26.316  46.401  31.733  1.00  0.00     0.025 C 
BRANCH   8   9
ATOM      9  C   UNL     1      26.094  45.624  30.504  1.00  0.00     0.064 C 
ATOM     10  O   UNL     1      25.011  45.753  29.875  1.00  0.00    -0.545 OA
ATOM     11  O   UNL     1      27.061  44.748  30.023  1.00  0.00    -0.545 OA
ENDBRANCH   8   9
ENDBRANCH   1   7
BRANCH   4  12
ATOM     12  O   UNL     1      27.933  50.525  34.801  1.00  0.00    -0.504 OA
ATOM     13  H   UNL     1      28.595  50.619  34.040  1.00  0.00     0.293 HD
ENDBRANCH   4  12
BRANCH   6  14
ATOM     14  O   UNL     1      26.195  50.286  36.960  1.00  0.00    -0.504 OA
ATOM     15  H   UNL     1      26.168  51.299  36.939  1.00  0.00     0.293 HD
ENDBRANCH   6  14
TORSDOF 4
ENDMDL
MODEL 2
REMARK VINA RESULT:    -4.947     11.784     13.742
REMARK INTER + INTRA:          -5.946
REMARK INTER:                  -5.819
REMARK INTRA:                  -0.127
REMARK UNBOUND:                -0.131
REMARK SMILES O=C([O-])C=Cc1ccc(O)c(O)c1
REMARK SMILES IDX 6 1 13 2 7 3 11 4 8 5 9 6 5 7 4 8 2 9 1 10 3 11 12 12 10 14
REMARK H PARENT 12 13 10 15
REMARK Flexibility Score: inf
ROOT
ATOM      1  C   UNL     1      20.907  47.688  44.415  1.00  0.00    -0.022 A 
ATOM      2  C   UNL     1      19.847  47.961  43.534  1.00  0.00     0.058 A 
ATOM      3  C   UNL     1      21.407  46.373  44.488  1.00  0.00     0.012 A 
ATOM      4  C   UNL     1      19.311  46.953  42.722  1.00  0.00     0.157 A 
ATOM      5  C   UNL     1      20.874  45.367  43.678  1.00  0.00     0.051 A 
ATOM      6  C   UNL     1      19.828  45.654  42.792  1.00  0.00     0.157 A 
ENDROOT
BRANCH   1   7
ATOM      7  C   UNL     1      21.430  48.790  45.261  1.00  0.00     0.010 C 
ATOM      8  C   UNL     1      20.774  49.296  46.315  1.00  0.00     0.025 C 
BRANCH   8   9
ATOM      9  C   UNL     1      21.336  50.381  47.132  1.00  0.00     0.064 C 
ATOM     10  O   UNL     1      20.564  51.211  47.680  1.00  0.00    -0.545 OA
ATOM     11  O   UNL     1      22.709  50.509  47.311  1.00  0.00    -0.545 OA
ENDBRANCH   8   9
ENDBRANCH   1   7
BRANCH   4  12
ATOM     12  O   UNL     1      18.267  47.233  41.843  1.00  0.00    -0.504 OA
ATOM     13  H   UNL     1      17.311  47.323  42.167  1.00  0.00     0.293 HD
ENDBRANCH   4  12
BRANCH   6  14
ATOM     14  O   UNL     1      19.294  44.652  41.983  1.00  0.00    -0.504 OA
ATOM     15  H   UNL     1      18.337  44.339  42.087  1.00  0.00     0.293 HD
ENDBRANCH   6  14
TORSDOF 4
ENDMDL
MODEL 3
REMARK VINA RESULT:    -4.941     11.868     13.884
REMARK INTER + INTRA:          -5.938
REMARK INTER:                  -5.812
REMARK INTRA:                  -0.127
REMARK UNBOUND:                -0.131
REMARK SMILES O=C([O-])C=Cc1ccc(O)c(O)c1
REMARK SMILES IDX 6 1 13 2 7 3 11 4 8 5 9 6 5 7 4 8 2 9 1 10 3 11 12 12 10 14
REMARK H PARENT 12 13 10 15
REMARK Flexibility Score: inf
ROOT
ATOM      1  C   UNL     1      20.817  47.919  44.516  1.00  0.00    -0.022 A 
ATOM      2  C   UNL     1      21.527  46.707  44.509  1.00  0.00     0.058 A 
ATOM      3  C   UNL     1      19.669  48.038  43.709  1.00  0.00     0.012 A 
ATOM      4  C   UNL     1      21.090  45.624  43.734  1.00  0.00     0.157 A 
ATOM      5  C   UNL     1      19.232  46.959  42.936  1.00  0.00     0.051 A 
ATOM      6  C   UNL     1      19.939  45.750  42.948  1.00  0.00     0.157 A 
ENDROOT
BRANCH   1   7
ATOM      7  C   UNL     1      21.330  49.038  45.347  1.00  0.00     0.010 C 
ATOM      8  C   UNL     1      20.807  49.386  46.531  1.00  0.00     0.025 C 
BRANCH   8   9
ATOM      9  C   UNL     1      21.355  50.495  47.326  1.00  0.00     0.064 C 
ATOM     10  O   UNL     1      22.597  50.565  47.522  1.00  0.00    -0.545 OA
ATOM     11  O   UNL     1      20.525  51.471  47.866  1.00  0.00    -0.545 OA
ENDBRANCH   8   9
ENDBRANCH   1   7
BRANCH   4  12
ATOM     12  O   UNL     1      21.794  44.421  43.739  1.00  0.00    -0.504 OA
ATOM     13  H   UNL     1      22.634  44.301  44.292  1.00  0.00     0.293 HD
ENDBRANCH   4  12
BRANCH   6  14
ATOM     14  O   UNL     1      19.505  44.672  42.178  1.00  0.00    -0.504 OA
ATOM     15  H   UNL     1      20.066  43.835  42.073  1.00  0.00     0.293 HD
ENDBRANCH   6  14
TORSDOF 4
ENDMDL
MODEL 4
REMARK VINA RESULT:    -4.930      1.044      1.989
REMARK INTER + INTRA:          -5.925
REMARK INTER:                  -5.790
REMARK INTRA:                  -0.135
REMARK UNBOUND:                -0.131
REMARK SMILES O=C([O-])C=Cc1ccc(O)c(O)c1
REMARK SMILES IDX 6 1 13 2 7 3 11 4 8 5 9 6 5 7 4 8 2 9 1 10 3 11 12 12 10 14
REMARK H PARENT 12 13 10 15
REMARK Flexibility Score: inf
ROOT
ATOM      1  C   UNL     1      25.540  48.178  34.019  1.00  0.00    -0.022 A 
ATOM      2  C   UNL     1      24.864  47.899  35.218  1.00  0.00     0.058 A 
ATOM      3  C   UNL     1      26.426  49.272  33.978  1.00  0.00     0.012 A 
ATOM      4  C   UNL     1      25.085  48.675  36.364  1.00  0.00     0.157 A 
ATOM      5  C   UNL     1      26.647  50.047  35.119  1.00  0.00     0.051 A 
ATOM      6  C   UNL     1      25.980  49.750  36.315  1.00  0.00     0.157 A 
ENDROOT
BRANCH   1   7
ATOM      7  C   UNL     1      25.261  47.331  32.832  1.00  0.00     0.010 C 
ATOM      8  C   UNL     1      26.214  46.723  32.111  1.00  0.00     0.025 C 
BRANCH   8   9
ATOM      9  C   UNL     1      25.890  45.882  30.948  1.00  0.00     0.064 C 
ATOM     10  O   UNL     1      24.754  45.973  30.414  1.00  0.00    -0.545 OA
ATOM     11  O   UNL     1      26.818  44.987  30.428  1.00  0.00    -0.545 OA
ENDBRANCH   8   9
ENDBRANCH   1   7
BRANCH   4  12
ATOM     12  O   UNL     1      24.420  48.386  37.554  1.00  0.00    -0.504 OA
ATOM     13  H   UNL     1      24.454  47.462  37.969  1.00  0.00     0.293 HD
ENDBRANCH   4  12
BRANCH   6  14
ATOM     14  O   UNL     1      26.199  50.521  37.455  1.00  0.00    -0.504 OA
ATOM     15  H   UNL     1      26.138  51.532  37.432  1.00  0.00     0.293 HD
ENDBRANCH   6  14
TORSDOF 4
ENDMDL
MODEL 5
REMARK VINA RESULT:    -4.915     11.844     13.568
REMARK INTER + INTRA:          -5.908
REMARK INTER:                  -5.781
REMARK INTRA:                  -0.127
REMARK UNBOUND:                -0.131
REMARK SMILES O=C([O-])C=Cc1ccc(O)c(O)c1
REMARK SMILES IDX 6 1 13 2 7 3 11 4 8 5 9 6 5 7 4 8 2 9 1 10 3 11 12 12 10 14
REMARK H PARENT 12 13 10 15
REMARK Flexibility Score: inf
ROOT
ATOM      1  C   UNL     1      19.638  48.044  43.741  1.00  0.00    -0.022 A 
ATOM      2  C   UNL     1      19.199  46.938  42.993  1.00  0.00     0.058 A 
ATOM      3  C   UNL     1      20.833  47.932  44.479  1.00  0.00     0.012 A 
ATOM      4  C   UNL     1      19.946  45.753  42.958  1.00  0.00     0.157 A 
ATOM      5  C   UNL     1      21.579  46.751  44.444  1.00  0.00     0.051 A 
ATOM      6  C   UNL     1      21.139  45.660  43.683  1.00  0.00     0.157 A 
ENDROOT
BRANCH   1   7
ATOM      7  C   UNL     1      18.804  49.271  43.752  1.00  0.00     0.010 C 
ATOM      8  C   UNL     1      17.790  49.475  44.605  1.00  0.00     0.025 C 
BRANCH   8   9
ATOM      9  C   UNL     1      16.997  50.713  44.587  1.00  0.00     0.064 C 
ATOM     10  O   UNL     1      15.740  50.645  44.543  1.00  0.00    -0.545 OA
ATOM     11  O   UNL     1      17.611  51.960  44.616  1.00  0.00    -0.545 OA
ENDBRANCH   8   9
ENDBRANCH   1   7
BRANCH   4  12
ATOM     12  O   UNL     1      19.509  44.664  42.206  1.00  0.00    -0.504 OA
ATOM     13  H   UNL     1      18.654  44.170  42.435  1.00  0.00     0.293 HD
ENDBRANCH   4  12
BRANCH   6  14
ATOM     14  O   UNL     1      21.882  44.481  43.647  1.00  0.00    -0.504 OA
ATOM     15  H   UNL     1      22.855  44.475  43.366  1.00  0.00     0.293 HD
ENDBRANCH   6  14
TORSDOF 4
ENDMDL
MODEL 6
REMARK VINA RESULT:    -4.725     11.541     13.997
REMARK INTER + INTRA:          -5.685
REMARK INTER:                  -5.553
REMARK INTRA:                  -0.131
REMARK UNBOUND:                -0.131
REMARK SMILES O=C([O-])C=Cc1ccc(O)c(O)c1
REMARK SMILES IDX 6 1 13 2 7 3 11 4 8 5 9 6 5 7 4 8 2 9 1 10 3 11 12 12 10 14
REMARK H PARENT 12 13 10 15
REMARK Flexibility Score: inf
ROOT
ATOM      1  C   UNL     1      17.346  49.735  43.546  1.00  0.00    -0.022 A 
ATOM      2  C   UNL     1      16.570  49.703  42.375  1.00  0.00     0.058 A 
ATOM      3  C   UNL     1      16.692  49.772  44.793  1.00  0.00     0.012 A 
ATOM      4  C   UNL     1      15.170  49.682  42.443  1.00  0.00     0.157 A 
ATOM      5  C   UNL     1      15.296  49.750  44.862  1.00  0.00     0.051 A 
ATOM      6  C   UNL     1      14.532  49.703  43.689  1.00  0.00     0.157 A 
ENDROOT
BRANCH   1   7
ATOM      7  C   UNL     1      18.824  49.766  43.417  1.00  0.00     0.010 C 
ATOM      8  C   UNL     1      19.628  48.772  43.820  1.00  0.00     0.025 C 
BRANCH   8   9
ATOM      9  C   UNL     1      21.089  48.842  43.662  1.00  0.00     0.064 C 
ATOM     10  O   UNL     1      21.719  49.820  44.142  1.00  0.00    -0.545 OA
ATOM     11  O   UNL     1      21.788  47.846  42.989  1.00  0.00    -0.545 OA
ENDBRANCH   8   9
ENDBRANCH   1   7
BRANCH   4  12
ATOM     12  O   UNL     1      14.406  49.640  41.278  1.00  0.00    -0.504 OA
ATOM     13  H   UNL     1      13.395  49.698  41.305  1.00  0.00     0.293 HD
ENDBRANCH   4  12
BRANCH   6  14
ATOM     14  O   UNL     1      13.140  49.681  43.755  1.00  0.00    -0.504 OA
ATOM     15  H   UNL     1      12.653  49.540  44.631  1.00  0.00     0.293 HD
ENDBRANCH   6  14
TORSDOF 4
ENDMDL
MODEL 7
REMARK VINA RESULT:    -4.660     12.594     15.781
REMARK INTER + INTRA:          -5.608
REMARK INTER:                  -5.465
REMARK INTRA:                  -0.143
REMARK UNBOUND:                -0.131
REMARK SMILES O=C([O-])C=Cc1ccc(O)c(O)c1
REMARK SMILES IDX 6 1 13 2 7 3 11 4 8 5 9 6 5 7 4 8 2 9 1 10 3 11 12 12 10 14
REMARK H PARENT 12 13 10 15
REMARK Flexibility Score: inf
ROOT
ATOM      1  C   UNL     1      16.410  49.929  44.420  1.00  0.00    -0.022 A 
ATOM      2  C   UNL     1      15.458  49.616  43.435  1.00  0.00     0.058 A 
ATOM      3  C   UNL     1      17.685  50.372  44.015  1.00  0.00     0.012 A 
ATOM      4  C   UNL     1      15.757  49.767  42.075  1.00  0.00     0.157 A 
ATOM      5  C   UNL     1      17.984  50.522  42.658  1.00  0.00     0.051 A 
ATOM      6  C   UNL     1      17.021  50.223  41.685  1.00  0.00     0.157 A 
ENDROOT
BRANCH   1   7
ATOM      7  C   UNL     1      16.045  49.742  45.846  1.00  0.00     0.010 C 
ATOM      8  C   UNL     1      16.938  49.718  46.846  1.00  0.00     0.025 C 
BRANCH   8   9
ATOM      9  C   UNL     1      16.529  49.541  48.248  1.00  0.00     0.064 C 
ATOM     10  O   UNL     1      15.317  49.337  48.521  1.00  0.00    -0.545 OA
ATOM     11  O   UNL     1      17.459  49.597  49.280  1.00  0.00    -0.545 OA
ENDBRANCH   8   9
ENDBRANCH   1   7
BRANCH   4  12
ATOM     12  O   UNL     1      14.803  49.465  41.104  1.00  0.00    -0.504 OA
ATOM     13  H   UNL     1      13.859  49.828  41.157  1.00  0.00     0.293 HD
ENDBRANCH   4  12
BRANCH   6  14
ATOM     14  O   UNL     1      17.317  50.372  40.331  1.00  0.00    -0.504 OA
ATOM     15  H   UNL     1      17.965  49.754  39.858  1.00  0.00     0.293 HD
ENDBRANCH   6  14
TORSDOF 4
ENDMDL
MODEL 8
REMARK VINA RESULT:    -4.636     12.617     14.520
REMARK INTER + INTRA:          -5.580
REMARK INTER:                  -5.453
REMARK INTRA:                  -0.127
REMARK UNBOUND:                -0.131
REMARK SMILES O=C([O-])C=Cc1ccc(O)c(O)c1
REMARK SMILES IDX 6 1 13 2 7 3 11 4 8 5 9 6 5 7 4 8 2 9 1 10 3 11 12 12 10 14
REMARK H PARENT 12 13 10 15
REMARK Flexibility Score: inf
ROOT
ATOM      1  C   UNL     1      17.427  50.306  44.165  1.00  0.00    -0.022 A 
ATOM      2  C   UNL     1      17.802  50.351  42.812  1.00  0.00     0.058 A 
ATOM      3  C   UNL     1      16.091  49.994  44.488  1.00  0.00     0.012 A 
ATOM      4  C   UNL     1      16.876  50.065  41.800  1.00  0.00     0.157 A 
ATOM      5  C   UNL     1      15.167  49.708  43.480  1.00  0.00     0.051 A 
ATOM      6  C   UNL     1      15.556  49.741  42.135  1.00  0.00     0.157 A 
ENDROOT
BRANCH   1   7
ATOM      7  C   UNL     1      18.445  50.627  45.196  1.00  0.00     0.010 C 
ATOM      8  C   UNL     1      19.602  49.964  45.332  1.00  0.00     0.025 C 
BRANCH   8   9
ATOM      9  C   UNL     1      20.587  50.325  46.362  1.00  0.00     0.064 C 
ATOM     10  O   UNL     1      21.726  49.789  46.347  1.00  0.00    -0.545 OA
ATOM     11  O   UNL     1      20.283  51.249  47.355  1.00  0.00    -0.545 OA
ENDBRANCH   8   9
ENDBRANCH   1   7
BRANCH   4  12
ATOM     12  O   UNL     1      17.258  50.101  40.460  1.00  0.00    -0.504 OA
ATOM     13  H   UNL     1      17.215  49.275  39.874  1.00  0.00     0.293 HD
ENDBRANCH   4  12
BRANCH   6  14
ATOM     14  O   UNL     1      14.636  49.456  41.127  1.00  0.00    -0.504 OA
ATOM     15  H   UNL     1      14.346  50.161  40.459  1.00  0.00     0.293 HD
ENDBRANCH   6  14
TORSDOF 4
ENDMDL
MODEL 9
REMARK VINA RESULT:    -4.513     12.013     14.134
REMARK INTER + INTRA:          -5.435
REMARK INTER:                  -5.309
REMARK INTRA:                  -0.127
REMARK UNBOUND:                -0.131
REMARK SMILES O=C([O-])C=Cc1ccc(O)c(O)c1
REMARK SMILES IDX 6 1 13 2 7 3 11 4 8 5 9 6 5 7 4 8 2 9 1 10 3 11 12 12 10 14
REMARK H PARENT 12 13 10 15
REMARK Flexibility Score: inf
ROOT
ATOM      1  C   UNL     1      19.776  47.964  46.348  1.00  0.00    -0.022 A 
ATOM      2  C   UNL     1      19.720  49.296  45.904  1.00  0.00     0.058 A 
ATOM      3  C   UNL     1      19.746  47.709  47.733  1.00  0.00     0.012 A 
ATOM      4  C   UNL     1      19.611  50.353  46.817  1.00  0.00     0.157 A 
ATOM      5  C   UNL     1      19.637  48.762  48.645  1.00  0.00     0.051 A 
ATOM      6  C   UNL     1      19.567  50.085  48.190  1.00  0.00     0.157 A 
ENDROOT
BRANCH   1   7
ATOM      7  C   UNL     1      19.902  46.883  45.339  1.00  0.00     0.010 C 
ATOM      8  C   UNL     1      21.059  46.540  44.756  1.00  0.00     0.025 C 
BRANCH   8   9
ATOM      9  C   UNL     1      21.139  45.453  43.768  1.00  0.00     0.064 C 
ATOM     10  O   UNL     1      22.088  44.627  43.829  1.00  0.00    -0.545 OA
ATOM     11  O   UNL     1      20.184  45.321  42.767  1.00  0.00    -0.545 OA
ENDBRANCH   8   9
ENDBRANCH   1   7
BRANCH   4  12
ATOM     12  O   UNL     1      19.546  51.671  46.369  1.00  0.00    -0.504 OA
ATOM     13  H   UNL     1      19.261  51.896  45.423  1.00  0.00     0.293 HD
ENDBRANCH   4  12
BRANCH   6  14
ATOM     14  O   UNL     1      19.457  51.138  49.098  1.00  0.00    -0.504 OA
ATOM     15  H   UNL     1      18.626  51.715  49.143  1.00  0.00     0.293 HD
ENDBRANCH   6  14
TORSDOF 4
ENDMDL
