MODEL 1
REMARK VINA RESULT:    -4.985      0.000      0.000
REMARK INTER + INTRA:         -13.793
REMARK INTER:                 -11.396
REMARK INTRA:                  -2.396
REMARK UNBOUND:                -2.396
REMARK SMILES CCCCCCCCCCCCCCCCCCCCCCCC(=O)[O-]
REMARK SMILES IDX 13 1 14 2 15 3 16 4 17 5 18 6 19 7 20 8 21 9 22 10 23 11
REMARK SMILES IDX 24 12 25 13 26 14 12 15 11 16 10 17 9 18 8 19 7 20 6 21 5 22
REMARK SMILES IDX 4 23 3 24 2 25 1 26
REMARK H PARENT
REMARK Flexibility Score: inf
ROOT
ATOM      1  C   UNL     1       3.526  79.724  65.908  1.00  0.00     0.000 C 
ENDROOT
BRANCH   1   2
ATOM      2  C   UNL     1       3.932  79.635  67.388  1.00  0.00     0.000 C 
BRANCH   2   3
ATOM      3  C   UNL     1       4.095  78.175  67.825  1.00  0.00     0.000 C 
BRANCH   3   4
ATOM      4  C   UNL     1       5.383  77.980  68.635  1.00  0.00     0.000 C 
BRANCH   4   5
ATOM      5  C   UNL     1       6.641  78.478  67.899  1.00  0.00     0.000 C 
BRANCH   5   6
ATOM      6  C   UNL     1       7.170  77.495  66.834  1.00  0.00     0.000 C 
BRANCH   6   7
ATOM      7  C   UNL     1       6.951  78.007  65.399  1.00  0.00     0.000 C 
BRANCH   7   8
ATOM      8  C   UNL     1       5.878  77.200  64.649  1.00  0.00     0.000 C 
BRANCH   8   9
ATOM      9  C   UNL     1       5.387  77.919  63.380  1.00  0.00     0.000 C 
BRANCH   9  10
ATOM     10  C   UNL     1       5.970  79.337  63.246  1.00  0.00     0.006 C 
BRANCH  10  11
ATOM     11  C   UNL     1       6.463  79.670  61.826  1.00  0.00     0.053 C 
BRANCH  11  12
ATOM     12  C   UNL     1       7.946  79.480  61.695  1.00  0.00     0.041 C 
ATOM     13  O   UNL     1       8.519  78.532  62.294  1.00  0.00    -0.550 OA
ATOM     14  O   UNL     1       8.690  80.336  60.891  1.00  0.00    -0.550 OA
ENDBRANCH  11  12
ENDBRANCH  10  11
ENDBRANCH   9  10
ENDBRANCH   8   9
ENDBRANCH   7   8
ENDBRANCH   6   7
ENDBRANCH   5   6
ENDBRANCH   4   5
ENDBRANCH   3   4
ENDBRANCH   2   3
ENDBRANCH   1   2
BRANCH   1  15
ATOM     15  C   UNL     1       3.352  81.171  65.411  1.00  0.00     0.000 C 
BRANCH  15  16
ATOM     16  C   UNL     1       2.859  81.315  63.960  1.00  0.00     0.000 C 
BRANCH  16  17
ATOM     17  C   UNL     1       2.980  82.751  63.420  1.00  0.00     0.000 C 
BRANCH  17  18
ATOM     18  C   UNL     1       3.435  83.757  64.496  1.00  0.00    -0.000 C 
BRANCH  18  19
ATOM     19  C   UNL     1       4.503  84.765  64.033  1.00  0.00    -0.000 C 
BRANCH  19  20
ATOM     20  C   UNL     1       3.913  85.909  63.188  1.00  0.00    -0.000 C 
BRANCH  20  21
ATOM     21  C   UNL     1       4.673  86.114  61.868  1.00  0.00    -0.000 C 
BRANCH  21  22
ATOM     22  C   UNL     1       4.235  87.395  61.134  1.00  0.00    -0.000 C 
BRANCH  22  23
ATOM     23  C   UNL     1       3.361  88.310  62.009  1.00  0.00    -0.000 C 
BRANCH  23  24
ATOM     24  C   UNL     1       3.053  89.689  61.394  1.00  0.00    -0.000 C 
BRANCH  24  25
ATOM     25  C   UNL     1       4.270  90.358  60.721  1.00  0.00    -0.003 C 
ATOM     26  C   UNL     1       4.056  90.598  59.225  1.00  0.00     0.004 C 
ENDBRANCH  24  25
ENDBRANCH  23  24
ENDBRANCH  22  23
ENDBRANCH  21  22
ENDBRANCH  20  21
ENDBRANCH  19  20
ENDBRANCH  18  19
ENDBRANCH  17  18
ENDBRANCH  16  17
ENDBRANCH  15  16
ENDBRANCH   1  15
TORSDOF 22
ENDMDL
MODEL 2
REMARK VINA RESULT:    -4.862      1.707      2.501
REMARK INTER + INTRA:         -13.512
REMARK INTER:                 -11.065
REMARK INTRA:                  -2.448
REMARK UNBOUND:                -2.396
REMARK SMILES CCCCCCCCCCCCCCCCCCCCCCCC(=O)[O-]
REMARK SMILES IDX 13 1 14 2 15 3 16 4 17 5 18 6 19 7 20 8 21 9 22 10 23 11
REMARK SMILES IDX 24 12 25 13 26 14 12 15 11 16 10 17 9 18 8 19 7 20 6 21 5 22
REMARK SMILES IDX 4 23 3 24 2 25 1 26
REMARK H PARENT
REMARK Flexibility Score: inf
ROOT
ATOM      1  C   UNL     1       2.821  80.995  65.744  1.00  0.00     0.000 C 
ENDROOT
BRANCH   1   2
ATOM      2  C   UNL     1       3.905  80.234  66.524  1.00  0.00     0.000 C 
BRANCH   2   3
ATOM      3  C   UNL     1       3.341  78.941  67.126  1.00  0.00     0.000 C 
BRANCH   3   4
ATOM      4  C   UNL     1       4.160  78.495  68.343  1.00  0.00     0.000 C 
BRANCH   4   5
ATOM      5  C   UNL     1       4.436  76.980  68.363  1.00  0.00     0.000 C 
BRANCH   5   6
ATOM      6  C   UNL     1       5.796  76.585  67.751  1.00  0.00     0.000 C 
BRANCH   6   7
ATOM      7  C   UNL     1       6.758  77.780  67.634  1.00  0.00     0.000 C 
BRANCH   7   8
ATOM      8  C   UNL     1       7.373  77.899  66.229  1.00  0.00     0.000 C 
BRANCH   8   9
ATOM      9  C   UNL     1       6.396  77.460  65.124  1.00  0.00     0.000 C 
BRANCH   9  10
ATOM     10  C   UNL     1       6.215  78.538  64.039  1.00  0.00     0.006 C 
BRANCH  10  11
ATOM     11  C   UNL     1       4.938  78.359  63.198  1.00  0.00     0.053 C 
BRANCH  11  12
ATOM     12  C   UNL     1       4.853  79.372  62.095  1.00  0.00     0.041 C 
ATOM     13  O   UNL     1       3.733  79.690  61.612  1.00  0.00    -0.550 OA
ATOM     14  O   UNL     1       6.006  79.982  61.619  1.00  0.00    -0.550 OA
ENDBRANCH  11  12
ENDBRANCH  10  11
ENDBRANCH   9  10
ENDBRANCH   8   9
ENDBRANCH   7   8
ENDBRANCH   6   7
ENDBRANCH   5   6
ENDBRANCH   4   5
ENDBRANCH   3   4
ENDBRANCH   2   3
ENDBRANCH   1   2
BRANCH   1  15
ATOM     15  C   UNL     1       3.379  81.799  64.555  1.00  0.00     0.000 C 
BRANCH  15  16
ATOM     16  C   UNL     1       2.550  83.030  64.145  1.00  0.00     0.000 C 
BRANCH  16  17
ATOM     17  C   UNL     1       3.081  84.343  64.746  1.00  0.00     0.000 C 
BRANCH  17  18
ATOM     18  C   UNL     1       4.484  84.715  64.226  1.00  0.00    -0.000 C 
BRANCH  18  19
ATOM     19  C   UNL     1       4.526  85.217  62.771  1.00  0.00    -0.000 C 
BRANCH  19  20
ATOM     20  C   UNL     1       3.914  86.620  62.607  1.00  0.00    -0.000 C 
BRANCH  20  21
ATOM     21  C   UNL     1       4.337  87.294  61.293  1.00  0.00    -0.000 C 
BRANCH  21  22
ATOM     22  C   UNL     1       3.797  88.731  61.173  1.00  0.00    -0.000 C 
BRANCH  22  23
ATOM     23  C   UNL     1       2.824  89.095  62.308  1.00  0.00    -0.000 C 
BRANCH  23  24
ATOM     24  C   UNL     1       1.359  89.281  61.867  1.00  0.00    -0.000 C 
BRANCH  24  25
ATOM     25  C   UNL     1       0.629  87.957  61.553  1.00  0.00    -0.003 C 
ATOM     26  C   UNL     1       0.034  87.304  62.802  1.00  0.00     0.004 C 
ENDBRANCH  24  25
ENDBRANCH  23  24
ENDBRANCH  22  23
ENDBRANCH  21  22
ENDBRANCH  20  21
ENDBRANCH  19  20
ENDBRANCH  18  19
ENDBRANCH  17  18
ENDBRANCH  16  17
ENDBRANCH  15  16
ENDBRANCH   1  15
TORSDOF 22
ENDMDL
MODEL 3
REMARK VINA RESULT:    -4.796      2.530      4.208
REMARK INTER + INTRA:         -13.360
REMARK INTER:                 -10.743
REMARK INTRA:                  -2.617
REMARK UNBOUND:                -2.396
REMARK SMILES CCCCCCCCCCCCCCCCCCCCCCCC(=O)[O-]
REMARK SMILES IDX 13 1 14 2 15 3 16 4 17 5 18 6 19 7 20 8 21 9 22 10 23 11
REMARK SMILES IDX 24 12 25 13 26 14 12 15 11 16 10 17 9 18 8 19 7 20 6 21 5 22
REMARK SMILES IDX 4 23 3 24 2 25 1 26
REMARK H PARENT
REMARK Flexibility Score: inf
ROOT
ATOM      1  C   UNL     1       2.380  80.011  66.562  1.00  0.00     0.000 C 
ENDROOT
BRANCH   1   2
ATOM      2  C   UNL     1       3.458  80.435  65.551  1.00  0.00     0.000 C 
BRANCH   2   3
ATOM      3  C   UNL     1       3.055  80.043  64.125  1.00  0.00     0.000 C 
BRANCH   3   4
ATOM      4  C   UNL     1       4.210  80.271  63.142  1.00  0.00     0.000 C 
BRANCH   4   5
ATOM      5  C   UNL     1       5.477  79.473  63.502  1.00  0.00     0.000 C 
BRANCH   5   6
ATOM      6  C   UNL     1       5.243  77.953  63.624  1.00  0.00     0.000 C 
BRANCH   6   7
ATOM      7  C   UNL     1       6.386  77.239  64.366  1.00  0.00     0.000 C 
BRANCH   7   8
ATOM      8  C   UNL     1       7.197  78.199  65.252  1.00  0.00     0.000 C 
BRANCH   8   9
ATOM      9  C   UNL     1       7.433  77.634  66.664  1.00  0.00     0.000 C 
BRANCH   9  10
ATOM     10  C   UNL     1       6.597  78.362  67.734  1.00  0.00     0.006 C 
BRANCH  10  11
ATOM     11  C   UNL     1       5.171  77.803  67.888  1.00  0.00     0.053 C 
BRANCH  11  12
ATOM     12  C   UNL     1       5.172  76.309  68.028  1.00  0.00     0.041 C 
ATOM     13  O   UNL     1       4.438  75.603  67.288  1.00  0.00    -0.550 OA
ATOM     14  O   UNL     1       6.002  75.697  68.960  1.00  0.00    -0.550 OA
ENDBRANCH  11  12
ENDBRANCH  10  11
ENDBRANCH   9  10
ENDBRANCH   8   9
ENDBRANCH   7   8
ENDBRANCH   6   7
ENDBRANCH   5   6
ENDBRANCH   4   5
ENDBRANCH   3   4
ENDBRANCH   2   3
ENDBRANCH   1   2
BRANCH   1  15
ATOM     15  C   UNL     1       2.061  81.101  67.603  1.00  0.00     0.000 C 
BRANCH  15  16
ATOM     16  C   UNL     1       0.891  82.035  67.242  1.00  0.00     0.000 C 
BRANCH  16  17
ATOM     17  C   UNL     1       1.343  83.320  66.525  1.00  0.00     0.000 C 
BRANCH  17  18
ATOM     18  C   UNL     1       1.041  83.299  65.013  1.00  0.00    -0.000 C 
BRANCH  18  19
ATOM     19  C   UNL     1       2.019  84.109  64.143  1.00  0.00    -0.000 C 
BRANCH  19  20
ATOM     20  C   UNL     1       3.455  84.101  64.697  1.00  0.00    -0.000 C 
BRANCH  20  21
ATOM     21  C   UNL     1       4.376  85.077  63.949  1.00  0.00    -0.000 C 
BRANCH  21  22
ATOM     22  C   UNL     1       3.765  85.554  62.618  1.00  0.00    -0.000 C 
BRANCH  22  23
ATOM     23  C   UNL     1       3.927  87.068  62.399  1.00  0.00    -0.000 C 
BRANCH  23  24
ATOM     24  C   UNL     1       2.650  87.793  61.934  1.00  0.00    -0.000 C 
BRANCH  24  25
ATOM     25  C   UNL     1       2.809  89.323  61.812  1.00  0.00    -0.003 C 
ATOM     26  C   UNL     1       3.904  89.723  60.820  1.00  0.00     0.004 C 
ENDBRANCH  24  25
ENDBRANCH  23  24
ENDBRANCH  22  23
ENDBRANCH  21  22
ENDBRANCH  20  21
ENDBRANCH  19  20
ENDBRANCH  18  19
ENDBRANCH  17  18
ENDBRANCH  16  17
ENDBRANCH  15  16
ENDBRANCH   1  15
TORSDOF 22
ENDMDL
MODEL 4
REMARK VINA RESULT:    -4.786      3.345      9.365
REMARK INTER + INTRA:         -13.338
REMARK INTER:                 -11.220
REMARK INTRA:                  -2.119
REMARK UNBOUND:                -2.396
REMARK SMILES CCCCCCCCCCCCCCCCCCCCCCCC(=O)[O-]
REMARK SMILES IDX 13 1 14 2 15 3 16 4 17 5 18 6 19 7 20 8 21 9 22 10 23 11
REMARK SMILES IDX 24 12 25 13 26 14 12 15 11 16 10 17 9 18 8 19 7 20 6 21 5 22
REMARK SMILES IDX 4 23 3 24 2 25 1 26
REMARK H PARENT
REMARK Flexibility Score: inf
ROOT
ATOM      1  C   UNL     1       3.405  80.827  65.294  1.00  0.00     0.000 C 
ENDROOT
BRANCH   1   2
ATOM      2  C   UNL     1       2.250  81.751  65.710  1.00  0.00     0.000 C 
BRANCH   2   3
ATOM      3  C   UNL     1       2.508  83.191  65.249  1.00  0.00     0.000 C 
BRANCH   3   4
ATOM      4  C   UNL     1       3.786  83.280  64.406  1.00  0.00     0.000 C 
BRANCH   4   5
ATOM      5  C   UNL     1       4.341  84.713  64.299  1.00  0.00     0.000 C 
BRANCH   5   6
ATOM      6  C   UNL     1       3.703  85.546  63.168  1.00  0.00     0.000 C 
BRANCH   6   7
ATOM      7  C   UNL     1       4.676  85.804  62.005  1.00  0.00     0.000 C 
BRANCH   7   8
ATOM      8  C   UNL     1       4.418  87.155  61.317  1.00  0.00     0.000 C 
BRANCH   8   9
ATOM      9  C   UNL     1       3.525  88.080  62.162  1.00  0.00     0.000 C 
BRANCH   9  10
ATOM     10  C   UNL     1       2.744  89.089  61.300  1.00  0.00     0.006 C 
BRANCH  10  11
ATOM     11  C   UNL     1       3.510  90.399  61.037  1.00  0.00     0.053 C 
BRANCH  11  12
ATOM     12  C   UNL     1       4.218  90.371  59.714  1.00  0.00     0.041 C 
ATOM     13  O   UNL     1       3.557  90.330  58.643  1.00  0.00    -0.550 OA
ATOM     14  O   UNL     1       5.606  90.416  59.666  1.00  0.00    -0.550 OA
ENDBRANCH  11  12
ENDBRANCH  10  11
ENDBRANCH   9  10
ENDBRANCH   8   9
ENDBRANCH   7   8
ENDBRANCH   6   7
ENDBRANCH   5   6
ENDBRANCH   4   5
ENDBRANCH   3   4
ENDBRANCH   2   3
ENDBRANCH   1   2
BRANCH   1  15
ATOM     15  C   UNL     1       3.590  79.623  66.238  1.00  0.00     0.000 C 
BRANCH  15  16
ATOM     16  C   UNL     1       4.087  79.967  67.654  1.00  0.00     0.000 C 
BRANCH  16  17
ATOM     17  C   UNL     1       3.883  78.821  68.661  1.00  0.00     0.000 C 
BRANCH  17  18
ATOM     18  C   UNL     1       3.906  77.430  67.995  1.00  0.00    -0.000 C 
BRANCH  18  19
ATOM     19  C   UNL     1       5.103  76.543  68.385  1.00  0.00    -0.000 C 
BRANCH  19  20
ATOM     20  C   UNL     1       6.457  77.243  68.172  1.00  0.00    -0.000 C 
BRANCH  20  21
ATOM     21  C   UNL     1       7.107  76.865  66.832  1.00  0.00    -0.000 C 
BRANCH  21  22
ATOM     22  C   UNL     1       7.231  78.070  65.881  1.00  0.00    -0.000 C 
BRANCH  22  23
ATOM     23  C   UNL     1       6.453  77.872  64.568  1.00  0.00    -0.000 C 
BRANCH  23  24
ATOM     24  C   UNL     1       6.885  78.800  63.417  1.00  0.00    -0.000 C 
BRANCH  24  25
ATOM     25  C   UNL     1       5.715  79.556  62.752  1.00  0.00    -0.003 C 
ATOM     26  C   UNL     1       4.838  78.644  61.892  1.00  0.00     0.004 C 
ENDBRANCH  24  25
ENDBRANCH  23  24
ENDBRANCH  22  23
ENDBRANCH  21  22
ENDBRANCH  20  21
ENDBRANCH  19  20
ENDBRANCH  18  19
ENDBRANCH  17  18
ENDBRANCH  16  17
ENDBRANCH  15  16
ENDBRANCH   1  15
TORSDOF 22
ENDMDL
MODEL 5
REMARK VINA RESULT:    -4.773      3.446      8.285
REMARK INTER + INTRA:         -13.309
REMARK INTER:                 -10.639
REMARK INTRA:                  -2.669
REMARK UNBOUND:                -2.396
REMARK SMILES CCCCCCCCCCCCCCCCCCCCCCCC(=O)[O-]
REMARK SMILES IDX 13 1 14 2 15 3 16 4 17 5 18 6 19 7 20 8 21 9 22 10 23 11
REMARK SMILES IDX 24 12 25 13 26 14 12 15 11 16 10 17 9 18 8 19 7 20 6 21 5 22
REMARK SMILES IDX 4 23 3 24 2 25 1 26
REMARK H PARENT
REMARK Flexibility Score: inf
ROOT
ATOM      1  C   UNL     1       4.086  79.858  67.611  1.00  0.00     0.000 C 
ENDROOT
BRANCH   1   2
ATOM      2  C   UNL     1       3.073  79.826  66.455  1.00  0.00     0.000 C 
BRANCH   2   3
ATOM      3  C   UNL     1       3.641  80.517  65.210  1.00  0.00     0.000 C 
BRANCH   3   4
ATOM      4  C   UNL     1       2.531  80.841  64.202  1.00  0.00     0.000 C 
BRANCH   4   5
ATOM      5  C   UNL     1       2.624  82.271  63.639  1.00  0.00     0.000 C 
BRANCH   5   6
ATOM      6  C   UNL     1       3.913  83.017  64.042  1.00  0.00     0.000 C 
BRANCH   6   7
ATOM      7  C   UNL     1       3.678  84.523  64.260  1.00  0.00     0.000 C 
BRANCH   7   8
ATOM      8  C   UNL     1       2.405  85.023  63.557  1.00  0.00     0.000 C 
BRANCH   8   9
ATOM      9  C   UNL     1       2.718  85.815  62.275  1.00  0.00     0.000 C 
BRANCH   9  10
ATOM     10  C   UNL     1       3.785  86.902  62.503  1.00  0.00     0.006 C 
BRANCH  10  11
ATOM     11  C   UNL     1       3.896  87.909  61.344  1.00  0.00     0.053 C 
BRANCH  11  12
ATOM     12  C   UNL     1       3.179  89.191  61.652  1.00  0.00     0.041 C 
ATOM     13  O   UNL     1       2.029  89.166  62.166  1.00  0.00    -0.550 OA
ATOM     14  O   UNL     1       3.791  90.412  61.395  1.00  0.00    -0.550 OA
ENDBRANCH  11  12
ENDBRANCH  10  11
ENDBRANCH   9  10
ENDBRANCH   8   9
ENDBRANCH   7   8
ENDBRANCH   6   7
ENDBRANCH   5   6
ENDBRANCH   4   5
ENDBRANCH   3   4
ENDBRANCH   2   3
ENDBRANCH   1   2
BRANCH   1  15
ATOM     15  C   UNL     1       3.984  78.635  68.543  1.00  0.00     0.000 C 
BRANCH  15  16
ATOM     16  C   UNL     1       5.210  77.704  68.543  1.00  0.00     0.000 C 
BRANCH  16  17
ATOM     17  C   UNL     1       6.490  78.390  68.034  1.00  0.00     0.000 C 
BRANCH  17  18
ATOM     18  C   UNL     1       7.129  77.653  66.840  1.00  0.00    -0.000 C 
BRANCH  18  19
ATOM     19  C   UNL     1       6.139  76.880  65.949  1.00  0.00    -0.000 C 
BRANCH  19  20
ATOM     20  C   UNL     1       6.104  77.408  64.503  1.00  0.00    -0.000 C 
BRANCH  20  21
ATOM     21  C   UNL     1       7.380  78.177  64.129  1.00  0.00    -0.000 C 
BRANCH  21  22
ATOM     22  C   UNL     1       7.159  79.134  62.943  1.00  0.00    -0.000 C 
BRANCH  22  23
ATOM     23  C   UNL     1       5.674  79.469  62.721  1.00  0.00    -0.000 C 
BRANCH  23  24
ATOM     24  C   UNL     1       5.404  80.477  61.587  1.00  0.00    -0.000 C 
BRANCH  24  25
ATOM     25  C   UNL     1       4.368  79.990  60.552  1.00  0.00    -0.003 C 
ATOM     26  C   UNL     1       4.267  78.465  60.495  1.00  0.00     0.004 C 
ENDBRANCH  24  25
ENDBRANCH  23  24
ENDBRANCH  22  23
ENDBRANCH  21  22
ENDBRANCH  20  21
ENDBRANCH  19  20
ENDBRANCH  18  19
ENDBRANCH  17  18
ENDBRANCH  16  17
ENDBRANCH  15  16
ENDBRANCH   1  15
TORSDOF 22
ENDMDL
MODEL 6
REMARK VINA RESULT:    -4.755      2.451      4.202
REMARK INTER + INTRA:         -13.267
REMARK INTER:                 -11.318
REMARK INTRA:                  -1.949
REMARK UNBOUND:                -2.396
REMARK SMILES CCCCCCCCCCCCCCCCCCCCCCCC(=O)[O-]
REMARK SMILES IDX 13 1 14 2 15 3 16 4 17 5 18 6 19 7 20 8 21 9 22 10 23 11
REMARK SMILES IDX 24 12 25 13 26 14 12 15 11 16 10 17 9 18 8 19 7 20 6 21 5 22
REMARK SMILES IDX 4 23 3 24 2 25 1 26
REMARK H PARENT
REMARK Flexibility Score: inf
ROOT
ATOM      1  C   UNL     1       3.910  80.047  64.168  1.00  0.00     0.000 C 
ENDROOT
BRANCH   1   2
ATOM      2  C   UNL     1       3.679  79.790  62.670  1.00  0.00     0.000 C 
BRANCH   2   3
ATOM      3  C   UNL     1       4.815  78.947  62.078  1.00  0.00     0.000 C 
BRANCH   3   4
ATOM      4  C   UNL     1       6.163  79.668  62.208  1.00  0.00     0.000 C 
BRANCH   4   5
ATOM      5  C   UNL     1       7.291  78.753  62.719  1.00  0.00     0.000 C 
BRANCH   5   6
ATOM      6  C   UNL     1       7.210  78.447  64.228  1.00  0.00     0.000 C 
BRANCH   6   7
ATOM      7  C   UNL     1       6.402  77.171  64.528  1.00  0.00     0.000 C 
BRANCH   7   8
ATOM      8  C   UNL     1       6.156  76.977  66.034  1.00  0.00     0.000 C 
BRANCH   8   9
ATOM      9  C   UNL     1       7.152  77.773  66.897  1.00  0.00     0.000 C 
BRANCH   9  10
ATOM     10  C   UNL     1       6.466  78.485  68.077  1.00  0.00     0.006 C 
BRANCH  10  11
ATOM     11  C   UNL     1       5.072  77.922  68.412  1.00  0.00     0.053 C 
BRANCH  11  12
ATOM     12  C   UNL     1       3.996  78.947  68.206  1.00  0.00     0.041 C 
ATOM     13  O   UNL     1       3.035  78.709  67.427  1.00  0.00    -0.550 OA
ATOM     14  O   UNL     1       4.041  80.153  68.895  1.00  0.00    -0.550 OA
ENDBRANCH  11  12
ENDBRANCH  10  11
ENDBRANCH   9  10
ENDBRANCH   8   9
ENDBRANCH   7   8
ENDBRANCH   6   7
ENDBRANCH   5   6
ENDBRANCH   4   5
ENDBRANCH   3   4
ENDBRANCH   2   3
ENDBRANCH   1   2
BRANCH   1  15
ATOM     15  C   UNL     1       3.275  81.360  64.663  1.00  0.00     0.000 C 
BRANCH  15  16
ATOM     16  C   UNL     1       3.588  82.605  63.813  1.00  0.00     0.000 C 
BRANCH  16  17
ATOM     17  C   UNL     1       3.353  83.926  64.567  1.00  0.00     0.000 C 
BRANCH  17  18
ATOM     18  C   UNL     1       4.378  85.016  64.198  1.00  0.00    -0.000 C 
BRANCH  18  19
ATOM     19  C   UNL     1       4.916  84.941  62.757  1.00  0.00    -0.000 C 
BRANCH  19  20
ATOM     20  C   UNL     1       4.140  85.847  61.784  1.00  0.00    -0.000 C 
BRANCH  20  21
ATOM     21  C   UNL     1       3.754  87.193  62.419  1.00  0.00    -0.000 C 
BRANCH  21  22
ATOM     22  C   UNL     1       2.996  88.105  61.437  1.00  0.00    -0.000 C 
BRANCH  22  23
ATOM     23  C   UNL     1       3.282  89.598  61.673  1.00  0.00    -0.000 C 
BRANCH  23  24
ATOM     24  C   UNL     1       3.617  90.399  60.400  1.00  0.00    -0.000 C 
BRANCH  24  25
ATOM     25  C   UNL     1       4.254  89.552  59.278  1.00  0.00    -0.003 C 
ATOM     26  C   UNL     1       5.780  89.502  59.373  1.00  0.00     0.004 C 
ENDBRANCH  24  25
ENDBRANCH  23  24
ENDBRANCH  22  23
ENDBRANCH  21  22
ENDBRANCH  20  21
ENDBRANCH  19  20
ENDBRANCH  18  19
ENDBRANCH  17  18
ENDBRANCH  16  17
ENDBRANCH  15  16
ENDBRANCH   1  15
TORSDOF 22
ENDMDL
MODEL 7
REMARK VINA RESULT:    -4.734      1.751      4.022
REMARK INTER + INTRA:         -13.218
REMARK INTER:                 -10.849
REMARK INTRA:                  -2.369
REMARK UNBOUND:                -2.396
REMARK SMILES CCCCCCCCCCCCCCCCCCCCCCCC(=O)[O-]
REMARK SMILES IDX 13 1 14 2 15 3 16 4 17 5 18 6 19 7 20 8 21 9 22 10 23 11
REMARK SMILES IDX 24 12 25 13 26 14 12 15 11 16 10 17 9 18 8 19 7 20 6 21 5 22
REMARK SMILES IDX 4 23 3 24 2 25 1 26
REMARK H PARENT
REMARK Flexibility Score: inf
ROOT
ATOM      1  C   UNL     1       3.572  82.720  64.281  1.00  0.00     0.000 C 
ENDROOT
BRANCH   1   2
ATOM      2  C   UNL     1       2.495  81.775  63.724  1.00  0.00     0.000 C 
BRANCH   2   3
ATOM      3  C   UNL     1       2.769  80.326  64.144  1.00  0.00     0.000 C 
BRANCH   3   4
ATOM      4  C   UNL     1       3.798  80.265  65.280  1.00  0.00     0.000 C 
BRANCH   4   5
ATOM      5  C   UNL     1       3.224  79.682  66.585  1.00  0.00     0.000 C 
BRANCH   5   6
ATOM      6  C   UNL     1       4.145  79.868  67.808  1.00  0.00     0.000 C 
BRANCH   6   7
ATOM      7  C   UNL     1       4.120  78.654  68.754  1.00  0.00     0.000 C 
BRANCH   7   8
ATOM      8  C   UNL     1       5.322  77.720  68.536  1.00  0.00     0.000 C 
BRANCH   8   9
ATOM      9  C   UNL     1       6.482  78.420  67.806  1.00  0.00     0.000 C 
BRANCH   9  10
ATOM     10  C   UNL     1       7.173  77.498  66.784  1.00  0.00     0.006 C 
BRANCH  10  11
ATOM     11  C   UNL     1       6.211  76.905  65.738  1.00  0.00     0.053 C 
BRANCH  11  12
ATOM     12  C   UNL     1       6.281  77.648  64.437  1.00  0.00     0.041 C 
ATOM     13  O   UNL     1       5.324  77.586  63.620  1.00  0.00    -0.550 OA
ATOM     14  O   UNL     1       7.391  78.428  64.137  1.00  0.00    -0.550 OA
ENDBRANCH  11  12
ENDBRANCH  10  11
ENDBRANCH   9  10
ENDBRANCH   8   9
ENDBRANCH   7   8
ENDBRANCH   6   7
ENDBRANCH   5   6
ENDBRANCH   4   5
ENDBRANCH   3   4
ENDBRANCH   2   3
ENDBRANCH   1   2
BRANCH   1  15
ATOM     15  C   UNL     1       3.055  84.150  64.533  1.00  0.00     0.000 C 
BRANCH  15  16
ATOM     16  C   UNL     1       1.557  84.367  64.249  1.00  0.00     0.000 C 
BRANCH  16  17
ATOM     17  C   UNL     1       1.298  85.235  63.005  1.00  0.00     0.000 C 
BRANCH  17  18
ATOM     18  C   UNL     1       0.012  86.077  63.120  1.00  0.00    -0.000 C 
BRANCH  18  19
ATOM     19  C   UNL     1      -0.049  87.303  62.191  1.00  0.00    -0.000 C 
BRANCH  19  20
ATOM     20  C   UNL     1       0.755  88.499  62.730  1.00  0.00    -0.000 C 
BRANCH  20  21
ATOM     21  C   UNL     1       1.520  89.239  61.622  1.00  0.00    -0.000 C 
BRANCH  21  22
ATOM     22  C   UNL     1       3.033  89.303  61.898  1.00  0.00    -0.000 C 
BRANCH  22  23
ATOM     23  C   UNL     1       3.802  88.132  61.261  1.00  0.00    -0.000 C 
BRANCH  23  24
ATOM     24  C   UNL     1       4.160  86.991  62.232  1.00  0.00    -0.000 C 
BRANCH  24  25
ATOM     25  C   UNL     1       4.646  85.704  61.531  1.00  0.00    -0.003 C 
ATOM     26  C   UNL     1       5.745  85.974  60.502  1.00  0.00     0.004 C 
ENDBRANCH  24  25
ENDBRANCH  23  24
ENDBRANCH  22  23
ENDBRANCH  21  22
ENDBRANCH  20  21
ENDBRANCH  19  20
ENDBRANCH  18  19
ENDBRANCH  17  18
ENDBRANCH  16  17
ENDBRANCH  15  16
ENDBRANCH   1  15
TORSDOF 22
ENDMDL
MODEL 8
REMARK VINA RESULT:    -4.719      3.550      9.740
REMARK INTER + INTRA:         -13.184
REMARK INTER:                 -11.051
REMARK INTRA:                  -2.133
REMARK UNBOUND:                -2.396
REMARK SMILES CCCCCCCCCCCCCCCCCCCCCCCC(=O)[O-]
REMARK SMILES IDX 13 1 14 2 15 3 16 4 17 5 18 6 19 7 20 8 21 9 22 10 23 11
REMARK SMILES IDX 24 12 25 13 26 14 12 15 11 16 10 17 9 18 8 19 7 20 6 21 5 22
REMARK SMILES IDX 4 23 3 24 2 25 1 26
REMARK H PARENT
REMARK Flexibility Score: inf
ROOT
ATOM      1  C   UNL     1       5.200  78.544  63.299  1.00  0.00     0.000 C 
ENDROOT
BRANCH   1   2
ATOM      2  C   UNL     1       4.256  79.736  63.523  1.00  0.00     0.000 C 
BRANCH   2   3
ATOM      3  C   UNL     1       4.509  80.837  62.486  1.00  0.00     0.000 C 
BRANCH   3   4
ATOM      4  C   UNL     1       3.760  82.124  62.853  1.00  0.00     0.000 C 
BRANCH   4   5
ATOM      5  C   UNL     1       3.580  82.307  64.371  1.00  0.00     0.000 C 
BRANCH   5   6
ATOM      6  C   UNL     1       3.304  83.764  64.795  1.00  0.00     0.000 C 
BRANCH   6   7
ATOM      7  C   UNL     1       4.389  84.738  64.301  1.00  0.00     0.000 C 
BRANCH   7   8
ATOM      8  C   UNL     1       3.805  85.878  63.451  1.00  0.00     0.000 C 
BRANCH   8   9
ATOM      9  C   UNL     1       4.519  86.021  62.094  1.00  0.00     0.000 C 
BRANCH   9  10
ATOM     10  C   UNL     1       4.127  87.316  61.358  1.00  0.00     0.006 C 
BRANCH  10  11
ATOM     11  C   UNL     1       2.647  87.702  61.536  1.00  0.00     0.053 C 
BRANCH  11  12
ATOM     12  C   UNL     1       2.459  89.190  61.544  1.00  0.00     0.041 C 
ATOM     13  O   UNL     1       3.362  89.940  62.003  1.00  0.00    -0.550 OA
ATOM     14  O   UNL     1       1.298  89.750  61.024  1.00  0.00    -0.550 OA
ENDBRANCH  11  12
ENDBRANCH  10  11
ENDBRANCH   9  10
ENDBRANCH   8   9
ENDBRANCH   7   8
ENDBRANCH   6   7
ENDBRANCH   5   6
ENDBRANCH   4   5
ENDBRANCH   3   4
ENDBRANCH   2   3
ENDBRANCH   1   2
BRANCH   1  15
ATOM     15  C   UNL     1       5.699  77.909  64.611  1.00  0.00     0.000 C 
BRANCH  15  16
ATOM     16  C   UNL     1       7.206  78.063  64.886  1.00  0.00     0.000 C 
BRANCH  16  17
ATOM     17  C   UNL     1       7.583  77.785  66.352  1.00  0.00     0.000 C 
BRANCH  17  18
ATOM     18  C   UNL     1       6.619  76.798  67.041  1.00  0.00    -0.000 C 
BRANCH  18  19
ATOM     19  C   UNL     1       5.861  77.369  68.254  1.00  0.00    -0.000 C 
BRANCH  19  20
ATOM     20  C   UNL     1       5.732  78.902  68.207  1.00  0.00    -0.000 C 
BRANCH  20  21
ATOM     21  C   UNL     1       4.295  79.377  68.474  1.00  0.00    -0.000 C 
BRANCH  21  22
ATOM     22  C   UNL     1       3.302  78.850  67.422  1.00  0.00    -0.000 C 
BRANCH  22  23
ATOM     23  C   UNL     1       2.002  78.315  68.049  1.00  0.00    -0.000 C 
BRANCH  23  24
ATOM     24  C   UNL     1       2.190  77.113  68.994  1.00  0.00    -0.000 C 
BRANCH  24  25
ATOM     25  C   UNL     1       2.695  75.837  68.289  1.00  0.00    -0.003 C 
ATOM     26  C   UNL     1       1.584  74.808  68.069  1.00  0.00     0.004 C 
ENDBRANCH  24  25
ENDBRANCH  23  24
ENDBRANCH  22  23
ENDBRANCH  21  22
ENDBRANCH  20  21
ENDBRANCH  19  20
ENDBRANCH  18  19
ENDBRANCH  17  18
ENDBRANCH  16  17
ENDBRANCH  15  16
ENDBRANCH   1  15
TORSDOF 22
ENDMDL
MODEL 9
REMARK VINA RESULT:    -4.714      3.533      9.481
REMARK INTER + INTRA:         -13.174
REMARK INTER:                 -10.899
REMARK INTRA:                  -2.275
REMARK UNBOUND:                -2.396
REMARK SMILES CCCCCCCCCCCCCCCCCCCCCCCC(=O)[O-]
REMARK SMILES IDX 13 1 14 2 15 3 16 4 17 5 18 6 19 7 20 8 21 9 22 10 23 11
REMARK SMILES IDX 24 12 25 13 26 14 12 15 11 16 10 17 9 18 8 19 7 20 6 21 5 22
REMARK SMILES IDX 4 23 3 24 2 25 1 26
REMARK H PARENT
REMARK Flexibility Score: inf
ROOT
ATOM      1  C   UNL     1       3.872  79.928  64.819  1.00  0.00     0.000 C 
ENDROOT
BRANCH   1   2
ATOM      2  C   UNL     1       2.405  80.356  64.644  1.00  0.00     0.000 C 
BRANCH   2   3
ATOM      3  C   UNL     1       2.306  81.647  63.823  1.00  0.00     0.000 C 
BRANCH   3   4
ATOM      4  C   UNL     1       1.613  82.758  64.622  1.00  0.00     0.000 C 
BRANCH   4   5
ATOM      5  C   UNL     1       2.561  83.912  65.000  1.00  0.00     0.000 C 
BRANCH   5   6
ATOM      6  C   UNL     1       3.971  83.787  64.386  1.00  0.00     0.000 C 
BRANCH   6   7
ATOM      7  C   UNL     1       4.471  85.112  63.785  1.00  0.00     0.000 C 
BRANCH   7   8
ATOM      8  C   UNL     1       4.536  85.068  62.249  1.00  0.00     0.000 C 
BRANCH   8   9
ATOM      9  C   UNL     1       4.468  86.471  61.620  1.00  0.00     0.000 C 
BRANCH   9  10
ATOM     10  C   UNL     1       3.664  87.462  62.481  1.00  0.00     0.006 C 
BRANCH  10  11
ATOM     11  C   UNL     1       3.314  88.771  61.751  1.00  0.00     0.053 C 
BRANCH  11  12
ATOM     12  C   UNL     1       1.851  88.854  61.430  1.00  0.00     0.041 C 
ATOM     13  O   UNL     1       1.437  88.549  60.280  1.00  0.00    -0.550 OA
ATOM     14  O   UNL     1       0.943  89.244  62.407  1.00  0.00    -0.550 OA
ENDBRANCH  11  12
ENDBRANCH  10  11
ENDBRANCH   9  10
ENDBRANCH   8   9
ENDBRANCH   7   8
ENDBRANCH   6   7
ENDBRANCH   5   6
ENDBRANCH   4   5
ENDBRANCH   3   4
ENDBRANCH   2   3
ENDBRANCH   1   2
BRANCH   1  15
ATOM     15  C   UNL     1       4.440  79.192  63.590  1.00  0.00     0.000 C 
BRANCH  15  16
ATOM     16  C   UNL     1       5.852  78.605  63.769  1.00  0.00     0.000 C 
BRANCH  16  17
ATOM     17  C   UNL     1       5.956  77.632  64.957  1.00  0.00     0.000 C 
BRANCH  17  18
ATOM     18  C   UNL     1       7.101  77.990  65.925  1.00  0.00    -0.000 C 
BRANCH  18  19
ATOM     19  C   UNL     1       6.760  77.840  67.419  1.00  0.00    -0.000 C 
BRANCH  19  20
ATOM     20  C   UNL     1       6.970  76.406  67.936  1.00  0.00    -0.000 C 
BRANCH  20  21
ATOM     21  C   UNL     1       5.698  75.821  68.570  1.00  0.00    -0.000 C 
BRANCH  21  22
ATOM     22  C   UNL     1       4.428  76.198  67.787  1.00  0.00    -0.000 C 
BRANCH  22  23
ATOM     23  C   UNL     1       3.429  77.008  68.632  1.00  0.00    -0.000 C 
BRANCH  23  24
ATOM     24  C   UNL     1       3.025  78.367  68.027  1.00  0.00    -0.000 C 
BRANCH  24  25
ATOM     25  C   UNL     1       3.745  79.573  68.665  1.00  0.00    -0.003 C 
ATOM     26  C   UNL     1       2.782  80.701  69.042  1.00  0.00     0.004 C 
ENDBRANCH  24  25
ENDBRANCH  23  24
ENDBRANCH  22  23
ENDBRANCH  21  22
ENDBRANCH  20  21
ENDBRANCH  19  20
ENDBRANCH  18  19
ENDBRANCH  17  18
ENDBRANCH  16  17
ENDBRANCH  15  16
ENDBRANCH   1  15
TORSDOF 22
ENDMDL
