MODEL 1
REMARK VINA RESULT:    -3.724      0.000      0.000
REMARK INTER + INTRA:          -3.942
REMARK INTER:                  -3.942
REMARK INTRA:                   0.000
REMARK UNBOUND:                 0.000
REMARK SMILES O=c1ccc2cc(O)c(O)cc2o1
REMARK SMILES IDX 4 1 3 2 2 3 1 4 13 5 12 6 11 7 9 8 7 9 6 10 5 11 8 12 10 14
REMARK H PARENT 8 13 10 15
REMARK Flexibility Score: inf
ROOT
ATOM      1  C   UNL     1      -9.719  -3.556 -12.656  1.00  0.00     0.019 A 
ATOM      2  C   UNL     1      -9.733  -2.221 -13.055  1.00  0.00     0.094 A 
ATOM      3  C   UNL     1      -8.634  -1.712 -13.756  1.00  0.00     0.336 A 
ATOM      4  O   UNL     1      -8.626  -0.508 -14.125  1.00  0.00    -0.246 OA
ATOM      5  O   UNL     1      -7.594  -2.493 -14.038  1.00  0.00    -0.423 OA
ATOM      6  C   UNL     1      -7.541  -3.772 -13.676  1.00  0.00     0.142 A 
ATOM      7  C   UNL     1      -6.422  -4.544 -14.000  1.00  0.00     0.098 A 
ATOM      8  C   UNL     1      -6.358  -5.891 -13.624  1.00  0.00     0.161 A 
ATOM      9  C   UNL     1      -7.425  -6.474 -12.915  1.00  0.00     0.158 A 
ATOM     10  C   UNL     1      -8.551  -5.703 -12.588  1.00  0.00     0.062 A 
ATOM     11  C   UNL     1      -8.613  -4.354 -12.966  1.00  0.00     0.022 A 
ENDROOT
BRANCH   9  12
ATOM     12  O   UNL     1      -7.364  -7.814 -12.539  1.00  0.00    -0.504 OA
ATOM     13  H   UNL     1      -6.566  -8.191 -12.041  1.00  0.00     0.293 HD
ENDBRANCH   9  12
BRANCH   8  14
ATOM     14  O   UNL     1      -5.228  -6.635 -13.962  1.00  0.00    -0.504 OA
ATOM     15  H   UNL     1      -4.330  -6.480 -13.521  1.00  0.00     0.293 HD
ENDBRANCH   8  14
TORSDOF 2
ENDMDL
MODEL 2
REMARK VINA RESULT:    -3.722      1.495      4.607
REMARK INTER + INTRA:          -3.940
REMARK INTER:                  -3.940
REMARK INTRA:                   0.000
REMARK UNBOUND:                 0.000
REMARK SMILES O=c1ccc2cc(O)c(O)cc2o1
REMARK SMILES IDX 4 1 3 2 2 3 1 4 13 5 12 6 11 7 9 8 7 9 6 10 5 11 8 12 10 14
REMARK H PARENT 8 13 10 15
REMARK Flexibility Score: inf
ROOT
ATOM      1  C   UNL     1      -9.543  -6.642 -12.810  1.00  0.00     0.019 A 
ATOM      2  C   UNL     1      -9.448  -8.028 -12.697  1.00  0.00     0.094 A 
ATOM      3  C   UNL     1      -8.210  -8.642 -12.915  1.00  0.00     0.336 A 
ATOM      4  O   UNL     1      -8.103  -9.893 -12.818  1.00  0.00    -0.246 OA
ATOM      5  O   UNL     1      -7.141  -7.912 -13.222  1.00  0.00    -0.423 OA
ATOM      6  C   UNL     1      -7.188  -6.587 -13.339  1.00  0.00     0.142 A 
ATOM      7  C   UNL     1      -6.032  -5.873 -13.665  1.00  0.00     0.098 A 
ATOM      8  C   UNL     1      -6.072  -4.479 -13.789  1.00  0.00     0.161 A 
ATOM      9  C   UNL     1      -7.283  -3.791 -13.586  1.00  0.00     0.158 A 
ATOM     10  C   UNL     1      -8.446  -4.504 -13.259  1.00  0.00     0.062 A 
ATOM     11  C   UNL     1      -8.403  -5.900 -13.134  1.00  0.00     0.022 A 
ENDROOT
BRANCH   9  12
ATOM     12  O   UNL     1      -7.326  -2.404 -13.709  1.00  0.00    -0.504 OA
ATOM     13  H   UNL     1      -6.492  -1.861 -13.906  1.00  0.00     0.293 HD
ENDBRANCH   9  12
BRANCH   8  14
ATOM     14  O   UNL     1      -4.902  -3.795 -14.115  1.00  0.00    -0.504 OA
ATOM     15  H   UNL     1      -4.021  -4.273 -14.262  1.00  0.00     0.293 HD
ENDBRANCH   8  14
TORSDOF 2
ENDMDL
MODEL 3
REMARK VINA RESULT:    -3.612     13.987     14.221
REMARK INTER + INTRA:          -3.823
REMARK INTER:                  -3.823
REMARK INTRA:                   0.000
REMARK UNBOUND:                 0.000
REMARK SMILES O=c1ccc2cc(O)c(O)cc2o1
REMARK SMILES IDX 4 1 3 2 2 3 1 4 13 5 12 6 11 7 9 8 7 9 6 10 5 11 8 12 10 14
REMARK H PARENT 8 13 10 15
REMARK Flexibility Score: inf
ROOT
ATOM      1  C   UNL     1      -8.611   9.801 -11.111  1.00  0.00     0.019 A 
ATOM      2  C   UNL     1      -7.548  10.103 -11.961  1.00  0.00     0.094 A 
ATOM      3  C   UNL     1      -6.241   9.854 -11.527  1.00  0.00     0.336 A 
ATOM      4  O   UNL     1      -5.268  10.121 -12.280  1.00  0.00    -0.246 OA
ATOM      5  O   UNL     1      -6.019   9.335 -10.322  1.00  0.00    -0.423 OA
ATOM      6  C   UNL     1      -7.004   9.032  -9.481  1.00  0.00     0.142 A 
ATOM      7  C   UNL     1      -6.710   8.489  -8.227  1.00  0.00     0.098 A 
ATOM      8  C   UNL     1      -7.740   8.166  -7.336  1.00  0.00     0.161 A 
ATOM      9  C   UNL     1      -9.081   8.389  -7.701  1.00  0.00     0.158 A 
ATOM     10  C   UNL     1      -9.381   8.934  -8.959  1.00  0.00     0.062 A 
ATOM     11  C   UNL     1      -8.348   9.256  -9.850  1.00  0.00     0.022 A 
ENDROOT
BRANCH   9  12
ATOM     12  O   UNL     1     -10.108   8.069  -6.816  1.00  0.00    -0.504 OA
ATOM     13  H   UNL     1     -10.788   7.349  -7.029  1.00  0.00     0.293 HD
ENDBRANCH   9  12
BRANCH   8  14
ATOM     14  O   UNL     1      -7.414   7.625  -6.092  1.00  0.00    -0.504 OA
ATOM     15  H   UNL     1      -6.816   8.110  -5.434  1.00  0.00     0.293 HD
ENDBRANCH   8  14
TORSDOF 2
ENDMDL
MODEL 4
REMARK VINA RESULT:    -3.259     16.349     17.610
REMARK INTER + INTRA:          -3.449
REMARK INTER:                  -3.449
REMARK INTRA:                   0.000
REMARK UNBOUND:                 0.000
REMARK SMILES O=c1ccc2cc(O)c(O)cc2o1
REMARK SMILES IDX 4 1 3 2 2 3 1 4 13 5 12 6 11 7 9 8 7 9 6 10 5 11 8 12 10 14
REMARK H PARENT 8 13 10 15
REMARK Flexibility Score: inf
ROOT
ATOM      1  C   UNL     1     -10.058  -6.568   1.776  1.00  0.00     0.019 A 
ATOM      2  C   UNL     1      -9.535  -7.847   1.590  1.00  0.00     0.094 A 
ATOM      3  C   UNL     1      -8.572  -8.323   2.487  1.00  0.00     0.336 A 
ATOM      4  O   UNL     1      -8.088  -9.475   2.336  1.00  0.00    -0.246 OA
ATOM      5  O   UNL     1      -8.164  -7.565   3.501  1.00  0.00    -0.423 OA
ATOM      6  C   UNL     1      -8.637  -6.340   3.715  1.00  0.00     0.142 A 
ATOM      7  C   UNL     1      -8.170  -5.590   4.799  1.00  0.00     0.098 A 
ATOM      8  C   UNL     1      -8.663  -4.300   5.031  1.00  0.00     0.161 A 
ATOM      9  C   UNL     1      -9.633  -3.753   4.171  1.00  0.00     0.158 A 
ATOM     10  C   UNL     1     -10.105  -4.502   3.082  1.00  0.00     0.062 A 
ATOM     11  C   UNL     1      -9.611  -5.794   2.851  1.00  0.00     0.022 A 
ENDROOT
BRANCH   9  12
ATOM     12  O   UNL     1     -10.125  -2.470   4.400  1.00  0.00    -0.504 OA
ATOM     13  H   UNL     1     -11.023  -2.316   4.844  1.00  0.00     0.293 HD
ENDBRANCH   9  12
BRANCH   8  14
ATOM     14  O   UNL     1      -8.178  -3.577   6.120  1.00  0.00    -0.504 OA
ATOM     15  H   UNL     1      -7.243  -3.716   6.486  1.00  0.00     0.293 HD
ENDBRANCH   8  14
TORSDOF 2
ENDMDL
MODEL 5
REMARK VINA RESULT:    -3.217     14.101     14.476
REMARK INTER + INTRA:          -3.405
REMARK INTER:                  -3.405
REMARK INTRA:                   0.000
REMARK UNBOUND:                 0.000
REMARK SMILES O=c1ccc2cc(O)c(O)cc2o1
REMARK SMILES IDX 4 1 3 2 2 3 1 4 13 5 12 6 11 7 9 8 7 9 6 10 5 11 8 12 10 14
REMARK H PARENT 8 13 10 15
REMARK Flexibility Score: inf
ROOT
ATOM      1  C   UNL     1      -7.009   8.335  -7.502  1.00  0.00     0.019 A 
ATOM      2  C   UNL     1      -7.915   7.955  -6.513  1.00  0.00     0.094 A 
ATOM      3  C   UNL     1      -9.286   8.036  -6.781  1.00  0.00     0.336 A 
ATOM      4  O   UNL     1     -10.120   7.698  -5.901  1.00  0.00    -0.246 OA
ATOM      5  O   UNL     1      -9.716   8.468  -7.964  1.00  0.00    -0.423 OA
ATOM      6  C   UNL     1      -8.886   8.840  -8.936  1.00  0.00     0.142 A 
ATOM      7  C   UNL     1      -9.396   9.286 -10.158  1.00  0.00     0.098 A 
ATOM      8  C   UNL     1      -8.530   9.678 -11.186  1.00  0.00     0.161 A 
ATOM      9  C   UNL     1      -7.137   9.625 -10.989  1.00  0.00     0.158 A 
ATOM     10  C   UNL     1      -6.621   9.178  -9.763  1.00  0.00     0.062 A 
ATOM     11  C   UNL     1      -7.490   8.785  -8.736  1.00  0.00     0.022 A 
ENDROOT
BRANCH   9  12
ATOM     12  O   UNL     1      -6.273  10.015 -12.010  1.00  0.00    -0.504 OA
ATOM     13  H   UNL     1      -5.608   9.369 -12.420  1.00  0.00     0.293 HD
ENDBRANCH   9  12
BRANCH   8  14
ATOM     14  O   UNL     1      -9.069  10.118 -12.394  1.00  0.00    -0.504 OA
ATOM     15  H   UNL     1      -9.303   9.479 -13.144  1.00  0.00     0.293 HD
ENDBRANCH   8  14
TORSDOF 2
ENDMDL
MODEL 6
REMARK VINA RESULT:    -3.214     16.420     17.312
REMARK INTER + INTRA:          -3.402
REMARK INTER:                  -3.402
REMARK INTRA:                   0.000
REMARK UNBOUND:                 0.000
REMARK SMILES O=c1ccc2cc(O)c(O)cc2o1
REMARK SMILES IDX 4 1 3 2 2 3 1 4 13 5 12 6 11 7 9 8 7 9 6 10 5 11 8 12 10 14
REMARK H PARENT 8 13 10 15
REMARK Flexibility Score: inf
ROOT
ATOM      1  C   UNL     1     -10.123  -4.557   3.360  1.00  0.00     0.019 A 
ATOM      2  C   UNL     1      -9.647  -3.705   4.356  1.00  0.00     0.094 A 
ATOM      3  C   UNL     1      -8.642  -4.162   5.215  1.00  0.00     0.336 A 
ATOM      4  O   UNL     1      -8.199  -3.408   6.121  1.00  0.00    -0.246 OA
ATOM      5  O   UNL     1      -8.147  -5.390   5.080  1.00  0.00    -0.423 OA
ATOM      6  C   UNL     1      -8.572  -6.234   4.143  1.00  0.00     0.142 A 
ATOM      7  C   UNL     1      -8.015  -7.513   4.050  1.00  0.00     0.098 A 
ATOM      8  C   UNL     1      -8.456  -8.407   3.067  1.00  0.00     0.161 A 
ATOM      9  C   UNL     1      -9.465  -8.019   2.167  1.00  0.00     0.158 A 
ATOM     10  C   UNL     1     -10.028  -6.736   2.257  1.00  0.00     0.062 A 
ATOM     11  C   UNL     1      -9.584  -5.842   3.241  1.00  0.00     0.022 A 
ENDROOT
BRANCH   9  12
ATOM     12  O   UNL     1      -9.906  -8.907   1.188  1.00  0.00    -0.504 OA
ATOM     13  H   UNL     1     -10.887  -9.140   1.084  1.00  0.00     0.293 HD
ENDBRANCH   9  12
BRANCH   8  14
ATOM     14  O   UNL     1      -7.880  -9.675   3.000  1.00  0.00    -0.504 OA
ATOM     15  H   UNL     1      -7.627 -10.105   2.118  1.00  0.00     0.293 HD
ENDBRANCH   8  14
TORSDOF 2
ENDMDL
MODEL 7
REMARK VINA RESULT:    -3.075      3.747      5.657
REMARK INTER + INTRA:          -3.254
REMARK INTER:                  -3.254
REMARK INTRA:                   0.000
REMARK UNBOUND:                 0.000
REMARK SMILES O=c1ccc2cc(O)c(O)cc2o1
REMARK SMILES IDX 4 1 3 2 2 3 1 4 13 5 12 6 11 7 9 8 7 9 6 10 5 11 8 12 10 14
REMARK H PARENT 8 13 10 15
REMARK Flexibility Score: inf
ROOT
ATOM      1  C   UNL     1      -9.806  -7.858 -12.153  1.00  0.00     0.019 A 
ATOM      2  C   UNL     1      -9.047  -7.328 -13.194  1.00  0.00     0.094 A 
ATOM      3  C   UNL     1      -7.651  -7.382 -13.112  1.00  0.00     0.336 A 
ATOM      4  O   UNL     1      -6.948  -6.908 -14.042  1.00  0.00    -0.246 OA
ATOM      5  O   UNL     1      -7.060  -7.934 -12.055  1.00  0.00    -0.423 OA
ATOM      6  C   UNL     1      -7.747  -8.452 -11.040  1.00  0.00     0.142 A 
ATOM      7  C   UNL     1      -7.071  -9.019  -9.955  1.00  0.00     0.098 A 
ATOM      8  C   UNL     1      -7.786  -9.567  -8.884  1.00  0.00     0.161 A 
ATOM      9  C   UNL     1      -9.193  -9.548  -8.895  1.00  0.00     0.158 A 
ATOM     10  C   UNL     1      -9.876  -8.980  -9.982  1.00  0.00     0.062 A 
ATOM     11  C   UNL     1      -9.158  -8.433 -11.054  1.00  0.00     0.022 A 
ENDROOT
BRANCH   9  12
ATOM     12  O   UNL     1      -9.907 -10.092  -7.829  1.00  0.00    -0.504 OA
ATOM     13  H   UNL     1     -10.636 -10.782  -7.975  1.00  0.00     0.293 HD
ENDBRANCH   9  12
BRANCH   8  14
ATOM     14  O   UNL     1      -7.083 -10.125  -7.817  1.00  0.00    -0.504 OA
ATOM     15  H   UNL     1      -6.160  -9.802  -7.552  1.00  0.00     0.293 HD
ENDBRANCH   8  14
TORSDOF 2
ENDMDL
MODEL 8
REMARK VINA RESULT:    -1.449      1.451      2.701
REMARK INTER + INTRA:          -1.534
REMARK INTER:                  -1.534
REMARK INTRA:                   0.000
REMARK UNBOUND:                 0.000
REMARK SMILES O=c1ccc2cc(O)c(O)cc2o1
REMARK SMILES IDX 4 1 3 2 2 3 1 4 13 5 12 6 11 7 9 8 7 9 6 10 5 11 8 12 10 14
REMARK H PARENT 8 13 10 15
REMARK Flexibility Score: inf
ROOT
ATOM      1  C   UNL     1      -6.486  -4.321 -14.011  1.00  0.00     0.019 A 
ATOM      2  C   UNL     1      -6.913  -2.999 -14.125  1.00  0.00     0.094 A 
ATOM      3  C   UNL     1      -8.215  -2.672 -13.732  1.00  0.00     0.336 A 
ATOM      4  O   UNL     1      -8.621  -1.484 -13.827  1.00  0.00    -0.246 OA
ATOM      5  O   UNL     1      -9.031  -3.609 -13.256  1.00  0.00    -0.423 OA
ATOM      6  C   UNL     1      -8.663  -4.882 -13.130  1.00  0.00     0.142 A 
ATOM      7  C   UNL     1      -9.563  -5.823 -12.624  1.00  0.00     0.098 A 
ATOM      8  C   UNL     1      -9.184  -7.164 -12.488  1.00  0.00     0.161 A 
ATOM      9  C   UNL     1      -7.889  -7.569 -12.864  1.00  0.00     0.158 A 
ATOM     10  C   UNL     1      -6.982  -6.628 -13.373  1.00  0.00     0.062 A 
ATOM     11  C   UNL     1      -7.364  -5.286 -13.508  1.00  0.00     0.022 A 
ENDROOT
BRANCH   9  12
ATOM     12  O   UNL     1      -7.510  -8.903 -12.730  1.00  0.00    -0.504 OA
ATOM     13  H   UNL     1      -7.426  -9.344 -11.821  1.00  0.00     0.293 HD
ENDBRANCH   9  12
BRANCH   8  14
ATOM     14  O   UNL     1     -10.104  -8.079 -11.979  1.00  0.00    -0.504 OA
ATOM     15  H   UNL     1     -10.846  -7.802 -11.347  1.00  0.00     0.293 HD
ENDBRANCH   8  14
TORSDOF 2
ENDMDL
