MODEL 1
REMARK VINA RESULT:    -7.099      0.000      0.000
REMARK INTER + INTRA:          -8.713
REMARK INTER:                  -8.552
REMARK INTRA:                  -0.161
REMARK UNBOUND:                -0.161
REMARK SMILES O=c1c(O)c(-c2ccc(O)c(O)c2)oc2cc(O)cc(O)c12
REMARK SMILES IDX 5 1 3 2 2 3 1 4 22 5 20 6 19 7 17 8 16 9 15 10 14 11 6 12
REMARK SMILES IDX 7 13 8 14 9 15 13 16 11 17 10 18 12 20 4 22 21 24 18 26
REMARK H PARENT 10 19 12 21 4 23 21 25 18 27
REMARK Flexibility Score: inf
ROOT
ATOM      1  C   UNL     1      45.956   8.400  19.525  1.00  0.00     0.180 A 
ATOM      2  C   UNL     1      45.663   9.497  18.698  1.00  0.00     0.208 A 
ATOM      3  C   UNL     1      45.824   9.366  17.309  1.00  0.00     0.238 A 
ATOM      4  O   UNL     1      45.610  10.368  16.578  1.00  0.00    -0.285 OA
ATOM      5  C   UNL     1      46.261   8.134  16.764  1.00  0.00     0.111 A 
ATOM      6  C   UNL     1      46.419   7.876  15.370  1.00  0.00     0.134 A 
ATOM      7  C   UNL     1      46.983   6.664  14.951  1.00  0.00     0.093 A 
ATOM      8  C   UNL     1      47.332   5.675  15.875  1.00  0.00     0.123 A 
ATOM      9  C   UNL     1      47.124   5.894  17.234  1.00  0.00     0.094 A 
ATOM     10  C   UNL     1      46.598   7.108  17.685  1.00  0.00     0.146 A 
ATOM     11  O   UNL     1      46.427   7.280  18.990  1.00  0.00    -0.452 OA
ENDROOT
BRANCH   1  12
ATOM     12  C   UNL     1      45.787   8.454  20.995  1.00  0.00     0.025 A 
ATOM     13  C   UNL     1      46.892   8.384  21.862  1.00  0.00     0.016 A 
ATOM     14  C   UNL     1      46.711   8.461  23.245  1.00  0.00     0.051 A 
ATOM     15  C   UNL     1      45.427   8.623  23.782  1.00  0.00     0.157 A 
ATOM     16  C   UNL     1      44.504   8.637  21.538  1.00  0.00     0.062 A 
ATOM     17  C   UNL     1      44.319   8.714  22.923  1.00  0.00     0.158 A 
BRANCH  15  18
ATOM     18  O   UNL     1      45.250   8.697  25.163  1.00  0.00    -0.504 OA
ATOM     19  H   UNL     1      44.357   8.947  25.572  1.00  0.00     0.293 HD
ENDBRANCH  15  18
BRANCH  17  20
ATOM     20  O   UNL     1      43.029   8.882  23.426  1.00  0.00    -0.504 OA
ATOM     21  H   UNL     1      42.797   8.679  24.390  1.00  0.00     0.293 HD
ENDBRANCH  17  20
ENDBRANCH   1  12
BRANCH   2  22
ATOM     22  O   UNL     1      45.253  10.711  19.258  1.00  0.00    -0.502 OA
ATOM     23  H   UNL     1      44.398  10.801  19.793  1.00  0.00     0.293 HD
ENDBRANCH   2  22
BRANCH   6  24
ATOM     24  O   UNL     1      46.018   8.758  14.361  1.00  0.00    -0.507 OA
ATOM     25  H   UNL     1      45.186   9.328  14.394  1.00  0.00     0.293 HD
ENDBRANCH   6  24
BRANCH   8  26
ATOM     26  O   UNL     1      47.877   4.466  15.449  1.00  0.00    -0.508 OA
ATOM     27  H   UNL     1      47.828   4.175  14.480  1.00  0.00     0.293 HD
ENDBRANCH   8  26
TORSDOF 6
ENDMDL
MODEL 2
REMARK VINA RESULT:    -7.089      1.800      2.107
REMARK INTER + INTRA:          -8.701
REMARK INTER:                  -8.508
REMARK INTRA:                  -0.193
REMARK UNBOUND:                -0.161
REMARK SMILES O=c1c(O)c(-c2ccc(O)c(O)c2)oc2cc(O)cc(O)c12
REMARK SMILES IDX 5 1 3 2 2 3 1 4 22 5 20 6 19 7 17 8 16 9 15 10 14 11 6 12
REMARK SMILES IDX 7 13 8 14 9 15 13 16 11 17 10 18 12 20 4 22 21 24 18 26
REMARK H PARENT 10 19 12 21 4 23 21 25 18 27
REMARK Flexibility Score: inf
ROOT
ATOM      1  C   UNL     1      44.992   9.217  20.829  1.00  0.00     0.180 A 
ATOM      2  C   UNL     1      44.029   9.796  19.985  1.00  0.00     0.208 A 
ATOM      3  C   UNL     1      43.952   9.374  18.648  1.00  0.00     0.238 A 
ATOM      4  O   UNL     1      43.123   9.934  17.883  1.00  0.00    -0.285 OA
ATOM      5  C   UNL     1      44.829   8.367  18.176  1.00  0.00     0.111 A 
ATOM      6  C   UNL     1      44.813   7.834  16.852  1.00  0.00     0.134 A 
ATOM      7  C   UNL     1      45.811   6.935  16.457  1.00  0.00     0.093 A 
ATOM      8  C   UNL     1      46.786   6.500  17.359  1.00  0.00     0.123 A 
ATOM      9  C   UNL     1      46.773   6.968  18.670  1.00  0.00     0.094 A 
ATOM     10  C   UNL     1      45.812   7.894  19.084  1.00  0.00     0.146 A 
ATOM     11  O   UNL     1      45.843   8.324  20.340  1.00  0.00    -0.452 OA
ENDROOT
BRANCH   1  12
ATOM     12  C   UNL     1      45.117   9.593  22.255  1.00  0.00     0.025 A 
ATOM     13  C   UNL     1      46.228  10.312  22.729  1.00  0.00     0.016 A 
ATOM     14  C   UNL     1      46.314  10.675  24.074  1.00  0.00     0.051 A 
ATOM     15  C   UNL     1      45.285  10.340  24.965  1.00  0.00     0.157 A 
ATOM     16  C   UNL     1      44.079   9.275  23.148  1.00  0.00     0.062 A 
ATOM     17  C   UNL     1      44.162   9.638  24.497  1.00  0.00     0.158 A 
BRANCH  15  18
ATOM     18  O   UNL     1      45.375  10.702  26.308  1.00  0.00    -0.504 OA
ATOM     19  H   UNL     1      44.824  10.239  27.021  1.00  0.00     0.293 HD
ENDBRANCH  15  18
BRANCH  17  20
ATOM     20  O   UNL     1      43.117   9.294  25.356  1.00  0.00    -0.504 OA
ATOM     21  H   UNL     1      42.739   9.948  26.030  1.00  0.00     0.293 HD
ENDBRANCH  17  20
ENDBRANCH   1  12
BRANCH   2  22
ATOM     22  O   UNL     1      43.188  10.804  20.465  1.00  0.00    -0.502 OA
ATOM     23  H   UNL     1      42.348  11.091  19.976  1.00  0.00     0.293 HD
ENDBRANCH   2  22
BRANCH   6  24
ATOM     24  O   UNL     1      43.831   8.132  15.902  1.00  0.00    -0.507 OA
ATOM     25  H   UNL     1      43.136   7.480  15.570  1.00  0.00     0.293 HD
ENDBRANCH   6  24
BRANCH   8  26
ATOM     26  O   UNL     1      47.766   5.593  16.963  1.00  0.00    -0.508 OA
ATOM     27  H   UNL     1      47.661   5.030  16.127  1.00  0.00     0.293 HD
ENDBRANCH   8  26
TORSDOF 6
ENDMDL
MODEL 3
REMARK VINA RESULT:    -6.892      1.266      2.887
REMARK INTER + INTRA:          -8.464
REMARK INTER:                  -8.193
REMARK INTRA:                  -0.271
REMARK UNBOUND:                -0.161
REMARK SMILES O=c1c(O)c(-c2ccc(O)c(O)c2)oc2cc(O)cc(O)c12
REMARK SMILES IDX 5 1 3 2 2 3 1 4 22 5 20 6 19 7 17 8 16 9 15 10 14 11 6 12
REMARK SMILES IDX 7 13 8 14 9 15 13 16 11 17 10 18 12 20 4 22 21 24 18 26
REMARK H PARENT 10 19 12 21 4 23 21 25 18 27
REMARK Flexibility Score: inf
ROOT
ATOM      1  C   UNL     1      46.087   8.201  19.948  1.00  0.00     0.180 A 
ATOM      2  C   UNL     1      46.547   6.957  19.482  1.00  0.00     0.208 A 
ATOM      3  C   UNL     1      46.764   6.783  18.106  1.00  0.00     0.238 A 
ATOM      4  O   UNL     1      47.125   5.652  17.688  1.00  0.00    -0.285 OA
ATOM      5  C   UNL     1      46.534   7.860  17.214  1.00  0.00     0.111 A 
ATOM      6  C   UNL     1      46.760   7.808  15.807  1.00  0.00     0.134 A 
ATOM      7  C   UNL     1      46.374   8.890  15.005  1.00  0.00     0.093 A 
ATOM      8  C   UNL     1      45.832  10.047  15.570  1.00  0.00     0.123 A 
ATOM      9  C   UNL     1      45.664  10.130  16.949  1.00  0.00     0.094 A 
ATOM     10  C   UNL     1      46.005   9.053  17.772  1.00  0.00     0.146 A 
ATOM     11  O   UNL     1      45.818   9.170  19.081  1.00  0.00    -0.452 OA
ENDROOT
BRANCH   1  12
ATOM     12  C   UNL     1      45.859   8.467  21.386  1.00  0.00     0.025 A 
ATOM     13  C   UNL     1      46.932   8.646  22.277  1.00  0.00     0.016 A 
ATOM     14  C   UNL     1      46.692   8.920  23.625  1.00  0.00     0.051 A 
ATOM     15  C   UNL     1      45.379   9.035  24.102  1.00  0.00     0.157 A 
ATOM     16  C   UNL     1      44.545   8.602  21.865  1.00  0.00     0.062 A 
ATOM     17  C   UNL     1      44.301   8.877  23.215  1.00  0.00     0.158 A 
BRANCH  15  18
ATOM     18  O   UNL     1      45.144   9.306  25.449  1.00  0.00    -0.504 OA
ATOM     19  H   UNL     1      44.204   9.356  25.825  1.00  0.00     0.293 HD
ENDBRANCH  15  18
BRANCH  17  20
ATOM     20  O   UNL     1      42.983   8.991  23.656  1.00  0.00    -0.504 OA
ATOM     21  H   UNL     1      42.561   8.306  24.271  1.00  0.00     0.293 HD
ENDBRANCH  17  20
ENDBRANCH   1  12
BRANCH   2  22
ATOM     22  O   UNL     1      46.747   5.901  20.376  1.00  0.00    -0.502 OA
ATOM     23  H   UNL     1      46.286   5.005  20.271  1.00  0.00     0.293 HD
ENDBRANCH   2  22
BRANCH   6  24
ATOM     24  O   UNL     1      47.380   6.738  15.153  1.00  0.00    -0.507 OA
ATOM     25  H   UNL     1      47.999   6.076  15.595  1.00  0.00     0.293 HD
ENDBRANCH   6  24
BRANCH   8  26
ATOM     26  O   UNL     1      45.466  11.125  14.767  1.00  0.00    -0.508 OA
ATOM     27  H   UNL     1      46.138  11.597  14.174  1.00  0.00     0.293 HD
ENDBRANCH   8  26
TORSDOF 6
ENDMDL
MODEL 4
REMARK VINA RESULT:    -6.746      1.484      1.869
REMARK INTER + INTRA:          -8.288
REMARK INTER:                  -7.973
REMARK INTRA:                  -0.315
REMARK UNBOUND:                -0.161
REMARK SMILES O=c1c(O)c(-c2ccc(O)c(O)c2)oc2cc(O)cc(O)c12
REMARK SMILES IDX 5 1 3 2 2 3 1 4 22 5 20 6 19 7 17 8 16 9 15 10 14 11 6 12
REMARK SMILES IDX 7 13 8 14 9 15 13 16 11 17 10 18 12 20 4 22 21 24 18 26
REMARK H PARENT 10 19 12 21 4 23 21 25 18 27
REMARK Flexibility Score: inf
ROOT
ATOM      1  C   UNL     1      45.117   8.737  19.921  1.00  0.00     0.180 A 
ATOM      2  C   UNL     1      44.264   9.346  18.985  1.00  0.00     0.208 A 
ATOM      3  C   UNL     1      44.326   8.940  17.643  1.00  0.00     0.238 A 
ATOM      4  O   UNL     1      43.597   9.526  16.799  1.00  0.00    -0.285 OA
ATOM      5  C   UNL     1      45.228   7.919  17.255  1.00  0.00     0.111 A 
ATOM      6  C   UNL     1      45.345   7.402  15.931  1.00  0.00     0.134 A 
ATOM      7  C   UNL     1      46.363   6.486  15.635  1.00  0.00     0.093 A 
ATOM      8  C   UNL     1      47.224   6.020  16.632  1.00  0.00     0.123 A 
ATOM      9  C   UNL     1      47.078   6.474  17.940  1.00  0.00     0.094 A 
ATOM     10  C   UNL     1      46.096   7.416  18.259  1.00  0.00     0.146 A 
ATOM     11  O   UNL     1      45.998   7.831  19.516  1.00  0.00    -0.452 OA
ENDROOT
BRANCH   1  12
ATOM     12  C   UNL     1      45.093   9.094  21.358  1.00  0.00     0.025 A 
ATOM     13  C   UNL     1      44.126   8.562  22.229  1.00  0.00     0.016 A 
ATOM     14  C   UNL     1      44.137   8.894  23.585  1.00  0.00     0.051 A 
ATOM     15  C   UNL     1      45.122   9.751  24.096  1.00  0.00     0.157 A 
ATOM     16  C   UNL     1      46.089   9.937  21.879  1.00  0.00     0.062 A 
ATOM     17  C   UNL     1      46.104  10.272  23.237  1.00  0.00     0.158 A 
BRANCH  15  18
ATOM     18  O   UNL     1      45.128  10.082  25.450  1.00  0.00    -0.504 OA
ATOM     19  H   UNL     1      45.667   9.552  26.124  1.00  0.00     0.293 HD
ENDBRANCH  15  18
BRANCH  17  20
ATOM     20  O   UNL     1      47.101  11.122  23.714  1.00  0.00    -0.504 OA
ATOM     21  H   UNL     1      47.091  12.118  23.532  1.00  0.00     0.293 HD
ENDBRANCH  17  20
ENDBRANCH   1  12
BRANCH   2  22
ATOM     22  O   UNL     1      43.396  10.366  19.384  1.00  0.00    -0.502 OA
ATOM     23  H   UNL     1      42.974  10.392  20.305  1.00  0.00     0.293 HD
ENDBRANCH   2  22
BRANCH   6  24
ATOM     24  O   UNL     1      44.480   7.731  14.884  1.00  0.00    -0.507 OA
ATOM     25  H   UNL     1      44.771   7.929  13.938  1.00  0.00     0.293 HD
ENDBRANCH   6  24
BRANCH   8  26
ATOM     26  O   UNL     1      48.223   5.096  16.333  1.00  0.00    -0.508 OA
ATOM     27  H   UNL     1      48.762   4.644  17.062  1.00  0.00     0.293 HD
ENDBRANCH   8  26
TORSDOF 6
ENDMDL
MODEL 5
REMARK VINA RESULT:    -6.266      1.537      6.735
REMARK INTER + INTRA:          -7.709
REMARK INTER:                  -8.048
REMARK INTRA:                   0.338
REMARK UNBOUND:                -0.161
REMARK SMILES O=c1c(O)c(-c2ccc(O)c(O)c2)oc2cc(O)cc(O)c12
REMARK SMILES IDX 5 1 3 2 2 3 1 4 22 5 20 6 19 7 17 8 16 9 15 10 14 11 6 12
REMARK SMILES IDX 7 13 8 14 9 15 13 16 11 17 10 18 12 20 4 22 21 24 18 26
REMARK H PARENT 10 19 12 21 4 23 21 25 18 27
REMARK Flexibility Score: inf
ROOT
ATOM      1  C   UNL     1      45.433   8.026  18.148  1.00  0.00     0.180 A 
ATOM      2  C   UNL     1      44.315   8.860  17.970  1.00  0.00     0.208 A 
ATOM      3  C   UNL     1      43.801   9.554  19.076  1.00  0.00     0.238 A 
ATOM      4  O   UNL     1      42.768  10.258  18.922  1.00  0.00    -0.285 OA
ATOM      5  C   UNL     1      44.419   9.420  20.343  1.00  0.00     0.111 A 
ATOM      6  C   UNL     1      44.007  10.108  21.523  1.00  0.00     0.134 A 
ATOM      7  C   UNL     1      44.608   9.798  22.749  1.00  0.00     0.093 A 
ATOM      8  C   UNL     1      45.653   8.873  22.825  1.00  0.00     0.123 A 
ATOM      9  C   UNL     1      46.103   8.241  21.669  1.00  0.00     0.094 A 
ATOM     10  C   UNL     1      45.498   8.501  20.437  1.00  0.00     0.146 A 
ATOM     11  O   UNL     1      45.950   7.869  19.361  1.00  0.00    -0.452 OA
ENDROOT
BRANCH   1  12
ATOM     12  C   UNL     1      46.047   7.281  17.025  1.00  0.00     0.025 A 
ATOM     13  C   UNL     1      45.860   7.683  15.691  1.00  0.00     0.016 A 
ATOM     14  C   UNL     1      46.469   6.979  14.650  1.00  0.00     0.051 A 
ATOM     15  C   UNL     1      47.284   5.873  14.925  1.00  0.00     0.157 A 
ATOM     16  C   UNL     1      46.881   6.184  17.297  1.00  0.00     0.062 A 
ATOM     17  C   UNL     1      47.493   5.476  16.256  1.00  0.00     0.158 A 
BRANCH  15  18
ATOM     18  O   UNL     1      47.888   5.171  13.883  1.00  0.00    -0.504 OA
ATOM     19  H   UNL     1      48.891   5.193  13.738  1.00  0.00     0.293 HD
ENDBRANCH  15  18
BRANCH  17  20
ATOM     20  O   UNL     1      48.303   4.384  16.565  1.00  0.00    -0.504 OA
ATOM     21  H   UNL     1      48.808   3.871  15.852  1.00  0.00     0.293 HD
ENDBRANCH  17  20
ENDBRANCH   1  12
BRANCH   2  22
ATOM     22  O   UNL     1      43.707   8.962  16.716  1.00  0.00    -0.502 OA
ATOM     23  H   UNL     1      42.805   8.549  16.514  1.00  0.00     0.293 HD
ENDBRANCH   2  22
BRANCH   6  24
ATOM     24  O   UNL     1      43.037  11.115  21.542  1.00  0.00    -0.507 OA
ATOM     25  H   UNL     1      43.210  12.075  21.799  1.00  0.00     0.293 HD
ENDBRANCH   6  24
BRANCH   8  26
ATOM     26  O   UNL     1      46.257   8.582  24.046  1.00  0.00    -0.508 OA
ATOM     27  H   UNL     1      47.246   8.744  24.200  1.00  0.00     0.293 HD
ENDBRANCH   8  26
TORSDOF 6
ENDMDL
MODEL 6
REMARK VINA RESULT:    -6.046      2.074      3.768
REMARK INTER + INTRA:          -7.444
REMARK INTER:                  -7.127
REMARK INTRA:                  -0.317
REMARK UNBOUND:                -0.161
REMARK SMILES O=c1c(O)c(-c2ccc(O)c(O)c2)oc2cc(O)cc(O)c12
REMARK SMILES IDX 5 1 3 2 2 3 1 4 22 5 20 6 19 7 17 8 16 9 15 10 14 11 6 12
REMARK SMILES IDX 7 13 8 14 9 15 13 16 11 17 10 18 12 20 4 22 21 24 18 26
REMARK H PARENT 10 19 12 21 4 23 21 25 18 27
REMARK Flexibility Score: inf
ROOT
ATOM      1  C   UNL     1      45.645   8.930  21.764  1.00  0.00     0.180 A 
ATOM      2  C   UNL     1      46.440   7.818  21.437  1.00  0.00     0.208 A 
ATOM      3  C   UNL     1      46.442   7.348  20.114  1.00  0.00     0.238 A 
ATOM      4  O   UNL     1      47.114   6.320  19.838  1.00  0.00    -0.285 OA
ATOM      5  C   UNL     1      45.663   8.006  19.131  1.00  0.00     0.111 A 
ATOM      6  C   UNL     1      45.622   7.641  17.752  1.00  0.00     0.134 A 
ATOM      7  C   UNL     1      44.716   8.279  16.895  1.00  0.00     0.093 A 
ATOM      8  C   UNL     1      43.897   9.314  17.355  1.00  0.00     0.123 A 
ATOM      9  C   UNL     1      43.974   9.718  18.685  1.00  0.00     0.094 A 
ATOM     10  C   UNL     1      44.841   9.076  19.573  1.00  0.00     0.146 A 
ATOM     11  O   UNL     1      44.875   9.484  20.835  1.00  0.00    -0.452 OA
ENDROOT
BRANCH   1  12
ATOM     12  C   UNL     1      45.609   9.498  23.131  1.00  0.00     0.025 A 
ATOM     13  C   UNL     1      46.417  10.591  23.491  1.00  0.00     0.016 A 
ATOM     14  C   UNL     1      46.349  11.125  24.780  1.00  0.00     0.051 A 
ATOM     15  C   UNL     1      45.464  10.586  25.723  1.00  0.00     0.157 A 
ATOM     16  C   UNL     1      44.710   8.974  24.075  1.00  0.00     0.062 A 
ATOM     17  C   UNL     1      44.639   9.506  25.367  1.00  0.00     0.158 A 
BRANCH  15  18
ATOM     18  O   UNL     1      45.400  11.120  27.010  1.00  0.00    -0.504 OA
ATOM     19  H   UNL     1      46.235  11.265  27.566  1.00  0.00     0.293 HD
ENDBRANCH  15  18
BRANCH  17  20
ATOM     20  O   UNL     1      43.743   8.951  26.280  1.00  0.00    -0.504 OA
ATOM     21  H   UNL     1      44.017   8.715  27.226  1.00  0.00     0.293 HD
ENDBRANCH  17  20
ENDBRANCH   1  12
BRANCH   2  22
ATOM     22  O   UNL     1      47.184   7.170  22.427  1.00  0.00    -0.502 OA
ATOM     23  H   UNL     1      46.814   6.983  23.351  1.00  0.00     0.293 HD
ENDBRANCH   2  22
BRANCH   6  24
ATOM     24  O   UNL     1      46.462   6.685  17.171  1.00  0.00    -0.507 OA
ATOM     25  H   UNL     1      47.358   6.885  16.754  1.00  0.00     0.293 HD
ENDBRANCH   6  24
BRANCH   8  26
ATOM     26  O   UNL     1      43.011   9.954  16.493  1.00  0.00    -0.508 OA
ATOM     27  H   UNL     1      42.043  10.110  16.748  1.00  0.00     0.293 HD
ENDBRANCH   8  26
TORSDOF 6
ENDMDL
MODEL 7
REMARK VINA RESULT:    -5.767      2.050      7.249
REMARK INTER + INTRA:          -7.109
REMARK INTER:                  -6.833
REMARK INTRA:                  -0.275
REMARK UNBOUND:                -0.161
REMARK SMILES O=c1c(O)c(-c2ccc(O)c(O)c2)oc2cc(O)cc(O)c12
REMARK SMILES IDX 5 1 3 2 2 3 1 4 22 5 20 6 19 7 17 8 16 9 15 10 14 11 6 12
REMARK SMILES IDX 7 13 8 14 9 15 13 16 11 17 10 18 12 20 4 22 21 24 18 26
REMARK H PARENT 10 19 12 21 4 23 21 25 18 27
REMARK Flexibility Score: inf
ROOT
ATOM      1  C   UNL     1      45.449   8.498  19.567  1.00  0.00     0.180 A 
ATOM      2  C   UNL     1      46.381   7.710  20.263  1.00  0.00     0.208 A 
ATOM      3  C   UNL     1      46.358   7.708  21.667  1.00  0.00     0.238 A 
ATOM      4  O   UNL     1      47.229   7.041  22.286  1.00  0.00    -0.285 OA
ATOM      5  C   UNL     1      45.395   8.483  22.358  1.00  0.00     0.111 A 
ATOM      6  C   UNL     1      45.254   8.525  23.776  1.00  0.00     0.134 A 
ATOM      7  C   UNL     1      44.353   9.427  24.355  1.00  0.00     0.093 A 
ATOM      8  C   UNL     1      43.540  10.241  23.562  1.00  0.00     0.123 A 
ATOM      9  C   UNL     1      43.627  10.163  22.175  1.00  0.00     0.094 A 
ATOM     10  C   UNL     1      44.543   9.300  21.568  1.00  0.00     0.146 A 
ATOM     11  O   UNL     1      44.602   9.266  20.243  1.00  0.00    -0.452 OA
ENDROOT
BRANCH   1  12
ATOM     12  C   UNL     1      45.395   8.533  18.088  1.00  0.00     0.025 A 
ATOM     13  C   UNL     1      46.337   9.258  17.337  1.00  0.00     0.016 A 
ATOM     14  C   UNL     1      46.280   9.256  15.942  1.00  0.00     0.051 A 
ATOM     15  C   UNL     1      45.292   8.521  15.274  1.00  0.00     0.157 A 
ATOM     16  C   UNL     1      44.418   7.781  17.414  1.00  0.00     0.062 A 
ATOM     17  C   UNL     1      44.358   7.778  16.016  1.00  0.00     0.158 A 
BRANCH  15  18
ATOM     18  O   UNL     1      45.237   8.524  13.881  1.00  0.00    -0.504 OA
ATOM     19  H   UNL     1      44.421   8.859  13.383  1.00  0.00     0.293 HD
ENDBRANCH  15  18
BRANCH  17  20
ATOM     20  O   UNL     1      43.366   7.030  15.382  1.00  0.00    -0.504 OA
ATOM     21  H   UNL     1      43.233   6.044  15.572  1.00  0.00     0.293 HD
ENDBRANCH  17  20
ENDBRANCH   1  12
BRANCH   2  22
ATOM     22  O   UNL     1      47.338   6.969  19.563  1.00  0.00    -0.502 OA
ATOM     23  H   UNL     1      47.192   6.656  18.611  1.00  0.00     0.293 HD
ENDBRANCH   2  22
BRANCH   6  24
ATOM     24  O   UNL     1      45.951   7.690  24.656  1.00  0.00    -0.507 OA
ATOM     25  H   UNL     1      46.797   7.190  24.425  1.00  0.00     0.293 HD
ENDBRANCH   6  24
BRANCH   8  26
ATOM     26  O   UNL     1      42.634  11.124  24.145  1.00  0.00    -0.508 OA
ATOM     27  H   UNL     1      42.031  11.713  23.583  1.00  0.00     0.293 HD
ENDBRANCH   8  26
TORSDOF 6
ENDMDL
MODEL 8
REMARK VINA RESULT:    -5.685      1.861      2.956
REMARK INTER + INTRA:          -7.010
REMARK INTER:                  -6.683
REMARK INTRA:                  -0.327
REMARK UNBOUND:                -0.161
REMARK SMILES O=c1c(O)c(-c2ccc(O)c(O)c2)oc2cc(O)cc(O)c12
REMARK SMILES IDX 5 1 3 2 2 3 1 4 22 5 20 6 19 7 17 8 16 9 15 10 14 11 6 12
REMARK SMILES IDX 7 13 8 14 9 15 13 16 11 17 10 18 12 20 4 22 21 24 18 26
REMARK H PARENT 10 19 12 21 4 23 21 25 18 27
REMARK Flexibility Score: inf
ROOT
ATOM      1  C   UNL     1      45.466   8.109  19.202  1.00  0.00     0.180 A 
ATOM      2  C   UNL     1      46.534   7.206  19.067  1.00  0.00     0.208 A 
ATOM      3  C   UNL     1      46.694   6.517  17.854  1.00  0.00     0.238 A 
ATOM      4  O   UNL     1      47.621   5.670  17.757  1.00  0.00    -0.285 OA
ATOM      5  C   UNL     1      45.794   6.750  16.786  1.00  0.00     0.111 A 
ATOM      6  C   UNL     1      45.886   6.138  15.501  1.00  0.00     0.134 A 
ATOM      7  C   UNL     1      44.865   6.343  14.564  1.00  0.00     0.093 A 
ATOM      8  C   UNL     1      43.790   7.190  14.844  1.00  0.00     0.123 A 
ATOM      9  C   UNL     1      43.723   7.840  16.073  1.00  0.00     0.094 A 
ATOM     10  C   UNL     1      44.707   7.627  17.043  1.00  0.00     0.146 A 
ATOM     11  O   UNL     1      44.599   8.257  18.206  1.00  0.00    -0.452 OA
ENDROOT
BRANCH   1  12
ATOM     12  C   UNL     1      45.246   8.891  20.440  1.00  0.00     0.025 A 
ATOM     13  C   UNL     1      45.921  10.102  20.670  1.00  0.00     0.016 A 
ATOM     14  C   UNL     1      45.681  10.834  21.835  1.00  0.00     0.051 A 
ATOM     15  C   UNL     1      44.753  10.377  22.780  1.00  0.00     0.157 A 
ATOM     16  C   UNL     1      44.303   8.446  21.381  1.00  0.00     0.062 A 
ATOM     17  C   UNL     1      44.059   9.177  22.549  1.00  0.00     0.158 A 
BRANCH  15  18
ATOM     18  O   UNL     1      44.517  11.109  23.942  1.00  0.00    -0.504 OA
ATOM     19  H   UNL     1      45.044  10.942  24.791  1.00  0.00     0.293 HD
ENDBRANCH  15  18
BRANCH  17  20
ATOM     20  O   UNL     1      43.125   8.697  23.466  1.00  0.00    -0.504 OA
ATOM     21  H   UNL     1      42.981   9.136  24.367  1.00  0.00     0.293 HD
ENDBRANCH  17  20
ENDBRANCH   1  12
BRANCH   2  22
ATOM     22  O   UNL     1      47.398   6.974  20.140  1.00  0.00    -0.502 OA
ATOM     23  H   UNL     1      47.064   6.811  21.082  1.00  0.00     0.293 HD
ENDBRANCH   2  22
BRANCH   6  24
ATOM     24  O   UNL     1      46.962   5.348  15.087  1.00  0.00    -0.507 OA
ATOM     25  H   UNL     1      47.917   5.475  15.387  1.00  0.00     0.293 HD
ENDBRANCH   6  24
BRANCH   8  26
ATOM     26  O   UNL     1      42.787   7.402  13.901  1.00  0.00    -0.508 OA
ATOM     27  H   UNL     1      42.537   6.690  13.224  1.00  0.00     0.293 HD
ENDBRANCH   8  26
TORSDOF 6
ENDMDL
MODEL 9
REMARK VINA RESULT:    -5.454      1.785      2.171
REMARK INTER + INTRA:          -6.731
REMARK INTER:                  -6.411
REMARK INTRA:                  -0.320
REMARK UNBOUND:                -0.161
REMARK SMILES O=c1c(O)c(-c2ccc(O)c(O)c2)oc2cc(O)cc(O)c12
REMARK SMILES IDX 5 1 3 2 2 3 1 4 22 5 20 6 19 7 17 8 16 9 15 10 14 11 6 12
REMARK SMILES IDX 7 13 8 14 9 15 13 16 11 17 10 18 12 20 4 22 21 24 18 26
REMARK H PARENT 10 19 12 21 4 23 21 25 18 27
REMARK Flexibility Score: inf
ROOT
ATOM      1  C   UNL     1      45.333   9.035  18.957  1.00  0.00     0.180 A 
ATOM      2  C   UNL     1      45.990  10.077  18.280  1.00  0.00     0.208 A 
ATOM      3  C   UNL     1      46.083  10.028  16.880  1.00  0.00     0.238 A 
ATOM      4  O   UNL     1      46.718  10.937  16.283  1.00  0.00    -0.285 OA
ATOM      5  C   UNL     1      45.504   8.946  16.173  1.00  0.00     0.111 A 
ATOM      6  C   UNL     1      45.503   8.815  14.752  1.00  0.00     0.134 A 
ATOM      7  C   UNL     1      45.017   7.638  14.168  1.00  0.00     0.093 A 
ATOM      8  C   UNL     1      44.472   6.617  14.950  1.00  0.00     0.123 A 
ATOM      9  C   UNL     1      44.414   6.762  16.334  1.00  0.00     0.094 A 
ATOM     10  C   UNL     1      44.924   7.908  16.949  1.00  0.00     0.146 A 
ATOM     11  O   UNL     1      44.859   8.001  18.272  1.00  0.00    -0.452 OA
ENDROOT
BRANCH   1  12
ATOM     12  C   UNL     1      45.173   9.030  20.429  1.00  0.00     0.025 A 
ATOM     13  C   UNL     1      44.145   9.754  21.057  1.00  0.00     0.016 A 
ATOM     14  C   UNL     1      43.999   9.715  22.445  1.00  0.00     0.051 A 
ATOM     15  C   UNL     1      44.867   8.941  23.226  1.00  0.00     0.157 A 
ATOM     16  C   UNL     1      46.029   8.240  21.215  1.00  0.00     0.062 A 
ATOM     17  C   UNL     1      45.885   8.198  22.606  1.00  0.00     0.158 A 
BRANCH  15  18
ATOM     18  O   UNL     1      44.720   8.906  24.612  1.00  0.00    -0.504 OA
ATOM     19  H   UNL     1      43.823   8.723  25.047  1.00  0.00     0.293 HD
ENDBRANCH  15  18
BRANCH  17  20
ATOM     20  O   UNL     1      46.762   7.413  23.354  1.00  0.00    -0.504 OA
ATOM     21  H   UNL     1      46.449   6.857  24.141  1.00  0.00     0.293 HD
ENDBRANCH  17  20
ENDBRANCH   1  12
BRANCH   2  22
ATOM     22  O   UNL     1      46.572  11.125  18.999  1.00  0.00    -0.502 OA
ATOM     23  H   UNL     1      47.197  11.797  18.570  1.00  0.00     0.293 HD
ENDBRANCH   2  22
BRANCH   6  24
ATOM     24  O   UNL     1      45.939   9.812  13.875  1.00  0.00    -0.507 OA
ATOM     25  H   UNL     1      46.580   9.665  13.110  1.00  0.00     0.293 HD
ENDBRANCH   6  24
BRANCH   8  26
ATOM     26  O   UNL     1      43.976   5.457  14.360  1.00  0.00    -0.508 OA
ATOM     27  H   UNL     1      43.115   5.027  14.677  1.00  0.00     0.293 HD
ENDBRANCH   8  26
TORSDOF 6
ENDMDL
