MODEL 1
REMARK VINA RESULT:    -3.841      0.000      0.000
REMARK INTER + INTRA:         -11.635
REMARK INTER:                  -8.781
REMARK INTRA:                  -2.853
REMARK UNBOUND:                -2.853
REMARK SMILES CCCCCCCCCCCCCCCCCCCCCCCC(=O)[O-]
REMARK SMILES IDX 13 1 14 2 15 3 16 4 17 5 18 6 19 7 20 8 21 9 22 10 23 11
REMARK SMILES IDX 24 12 25 13 26 14 12 15 11 16 10 17 9 18 8 19 7 20 6 21 5 22
REMARK SMILES IDX 4 23 3 24 2 25 1 26
REMARK H PARENT
REMARK Flexibility Score: inf
ROOT
ATOM      1  C   UNL     1     -41.919   8.843   7.826  1.00  0.00     0.000 C 
ENDROOT
BRANCH   1   2
ATOM      2  C   UNL     1     -41.437   9.957   8.770  1.00  0.00     0.000 C 
BRANCH   2   3
ATOM      3  C   UNL     1     -41.811   9.695  10.239  1.00  0.00     0.000 C 
BRANCH   3   4
ATOM      4  C   UNL     1     -41.090   8.468  10.823  1.00  0.00     0.000 C 
BRANCH   4   5
ATOM      5  C   UNL     1     -42.050   7.305  11.120  1.00  0.00     0.000 C 
BRANCH   5   6
ATOM      6  C   UNL     1     -41.459   5.938  10.743  1.00  0.00     0.000 C 
BRANCH   6   7
ATOM      7  C   UNL     1     -41.005   5.924   9.275  1.00  0.00     0.000 C 
BRANCH   7   8
ATOM      8  C   UNL     1     -41.591   4.746   8.481  1.00  0.00     0.000 C 
BRANCH   8   9
ATOM      9  C   UNL     1     -43.126   4.802   8.385  1.00  0.00     0.000 C 
BRANCH   9  10
ATOM     10  C   UNL     1     -43.616   5.894   7.422  1.00  0.00     0.006 C 
BRANCH  10  11
ATOM     11  C   UNL     1     -44.392   5.323   6.227  1.00  0.00     0.053 C 
BRANCH  11  12
ATOM     12  C   UNL     1     -43.714   5.687   4.944  1.00  0.00     0.041 C 
ATOM     13  O   UNL     1     -43.086   4.815   4.289  1.00  0.00    -0.550 OA
ATOM     14  O   UNL     1     -43.823   6.977   4.442  1.00  0.00    -0.550 OA
ENDBRANCH  11  12
ENDBRANCH  10  11
ENDBRANCH   9  10
ENDBRANCH   8   9
ENDBRANCH   7   8
ENDBRANCH   6   7
ENDBRANCH   5   6
ENDBRANCH   4   5
ENDBRANCH   3   4
ENDBRANCH   2   3
ENDBRANCH   1   2
BRANCH   1  15
ATOM     15  C   UNL     1     -42.914   9.397   6.794  1.00  0.00     0.000 C 
BRANCH  15  16
ATOM     16  C   UNL     1     -44.123  10.087   7.445  1.00  0.00     0.000 C 
BRANCH  16  17
ATOM     17  C   UNL     1     -44.978   9.118   8.280  1.00  0.00     0.000 C 
BRANCH  17  18
ATOM     18  C   UNL     1     -45.321   9.666   9.678  1.00  0.00    -0.000 C 
BRANCH  18  19
ATOM     19  C   UNL     1     -45.703   8.606  10.728  1.00  0.00    -0.000 C 
BRANCH  19  20
ATOM     20  C   UNL     1     -45.155   7.207  10.398  1.00  0.00    -0.000 C 
BRANCH  20  21
ATOM     21  C   UNL     1     -46.241   6.117  10.411  1.00  0.00    -0.000 C 
BRANCH  21  22
ATOM     22  C   UNL     1     -46.261   5.196   9.176  1.00  0.00    -0.000 C 
BRANCH  22  23
ATOM     23  C   UNL     1     -47.638   4.562   8.920  1.00  0.00    -0.000 C 
BRANCH  23  24
ATOM     24  C   UNL     1     -47.611   3.677   7.668  1.00  0.00    -0.000 C 
BRANCH  24  25
ATOM     25  C   UNL     1     -48.980   3.028   7.427  1.00  0.00    -0.003 C 
ATOM     26  C   UNL     1     -48.919   1.520   7.646  1.00  0.00     0.004 C 
ENDBRANCH  24  25
ENDBRANCH  23  24
ENDBRANCH  22  23
ENDBRANCH  21  22
ENDBRANCH  20  21
ENDBRANCH  19  20
ENDBRANCH  18  19
ENDBRANCH  17  18
ENDBRANCH  16  17
ENDBRANCH  15  16
ENDBRANCH   1  15
TORSDOF 22
ENDMDL
MODEL 2
REMARK VINA RESULT:    -3.579      2.138      3.799
REMARK INTER + INTRA:         -11.035
REMARK INTER:                  -7.870
REMARK INTRA:                  -3.165
REMARK UNBOUND:                -2.853
REMARK SMILES CCCCCCCCCCCCCCCCCCCCCCCC(=O)[O-]
REMARK SMILES IDX 13 1 14 2 15 3 16 4 17 5 18 6 19 7 20 8 21 9 22 10 23 11
REMARK SMILES IDX 24 12 25 13 26 14 12 15 11 16 10 17 9 18 8 19 7 20 6 21 5 22
REMARK SMILES IDX 4 23 3 24 2 25 1 26
REMARK H PARENT
REMARK Flexibility Score: inf
ROOT
ATOM      1  C   UNL     1     -45.186   9.150   7.832  1.00  0.00     0.000 C 
ENDROOT
BRANCH   1   2
ATOM      2  C   UNL     1     -44.175  10.122   7.204  1.00  0.00     0.000 C 
BRANCH   2   3
ATOM      3  C   UNL     1     -42.718   9.664   7.381  1.00  0.00     0.000 C 
BRANCH   3   4
ATOM      4  C   UNL     1     -42.078   9.200   6.060  1.00  0.00     0.000 C 
BRANCH   4   5
ATOM      5  C   UNL     1     -43.085   9.160   4.899  1.00  0.00     0.000 C 
BRANCH   5   6
ATOM      6  C   UNL     1     -43.365   7.731   4.409  1.00  0.00     0.000 C 
BRANCH   6   7
ATOM      7  C   UNL     1     -44.182   6.946   5.447  1.00  0.00     0.000 C 
BRANCH   7   8
ATOM      8  C   UNL     1     -43.802   5.458   5.502  1.00  0.00     0.000 C 
BRANCH   8   9
ATOM      9  C   UNL     1     -43.703   4.926   6.943  1.00  0.00     0.000 C 
BRANCH   9  10
ATOM     10  C   UNL     1     -43.128   5.967   7.916  1.00  0.00     0.006 C 
BRANCH  10  11
ATOM     11  C   UNL     1     -41.705   5.622   8.377  1.00  0.00     0.053 C 
BRANCH  11  12
ATOM     12  C   UNL     1     -41.489   6.080   9.785  1.00  0.00     0.041 C 
ATOM     13  O   UNL     1     -41.710   5.298  10.747  1.00  0.00    -0.550 OA
ATOM     14  O   UNL     1     -40.987   7.351  10.034  1.00  0.00    -0.550 OA
ENDBRANCH  11  12
ENDBRANCH  10  11
ENDBRANCH   9  10
ENDBRANCH   8   9
ENDBRANCH   7   8
ENDBRANCH   6   7
ENDBRANCH   5   6
ENDBRANCH   4   5
ENDBRANCH   3   4
ENDBRANCH   2   3
ENDBRANCH   1   2
BRANCH   1  15
ATOM     15  C   UNL     1     -45.895   9.801   9.030  1.00  0.00     0.000 C 
BRANCH  15  16
ATOM     16  C   UNL     1     -45.051   9.763  10.314  1.00  0.00     0.000 C 
BRANCH  16  17
ATOM     17  C   UNL     1     -44.413   8.385  10.560  1.00  0.00     0.000 C 
BRANCH  17  18
ATOM     18  C   UNL     1     -45.443   7.296  10.912  1.00  0.00    -0.000 C 
BRANCH  18  19
ATOM     19  C   UNL     1     -44.868   5.882  11.121  1.00  0.00    -0.000 C 
BRANCH  19  20
ATOM     20  C   UNL     1     -45.485   4.836  10.178  1.00  0.00    -0.000 C 
BRANCH  20  21
ATOM     21  C   UNL     1     -46.565   5.425   9.252  1.00  0.00    -0.000 C 
BRANCH  21  22
ATOM     22  C   UNL     1     -47.785   4.517   9.006  1.00  0.00    -0.000 C 
BRANCH  22  23
ATOM     23  C   UNL     1     -47.723   3.776   7.662  1.00  0.00    -0.000 C 
BRANCH  23  24
ATOM     24  C   UNL     1     -48.963   2.897   7.461  1.00  0.00    -0.000 C 
BRANCH  24  25
ATOM     25  C   UNL     1     -48.589   1.410   7.471  1.00  0.00    -0.003 C 
ATOM     26  C   UNL     1     -49.788   0.543   7.845  1.00  0.00     0.004 C 
ENDBRANCH  24  25
ENDBRANCH  23  24
ENDBRANCH  22  23
ENDBRANCH  21  22
ENDBRANCH  20  21
ENDBRANCH  19  20
ENDBRANCH  18  19
ENDBRANCH  17  18
ENDBRANCH  16  17
ENDBRANCH  15  16
ENDBRANCH   1  15
TORSDOF 22
ENDMDL
MODEL 3
REMARK VINA RESULT:    -3.355      2.345      4.890
REMARK INTER + INTRA:         -10.523
REMARK INTER:                  -7.171
REMARK INTRA:                  -3.352
REMARK UNBOUND:                -2.853
REMARK SMILES CCCCCCCCCCCCCCCCCCCCCCCC(=O)[O-]
REMARK SMILES IDX 13 1 14 2 15 3 16 4 17 5 18 6 19 7 20 8 21 9 22 10 23 11
REMARK SMILES IDX 24 12 25 13 26 14 12 15 11 16 10 17 9 18 8 19 7 20 6 21 5 22
REMARK SMILES IDX 4 23 3 24 2 25 1 26
REMARK H PARENT
REMARK Flexibility Score: inf
ROOT
ATOM      1  C   UNL     1     -44.208   8.721   6.811  1.00  0.00     0.000 C 
ENDROOT
BRANCH   1   2
ATOM      2  C   UNL     1     -45.415   8.674   7.761  1.00  0.00     0.000 C 
BRANCH   2   3
ATOM      3  C   UNL     1     -45.372   9.775   8.834  1.00  0.00     0.000 C 
BRANCH   3   4
ATOM      4  C   UNL     1     -45.442   9.210  10.264  1.00  0.00     0.000 C 
BRANCH   4   5
ATOM      5  C   UNL     1     -44.908   7.772  10.358  1.00  0.00     0.000 C 
BRANCH   5   6
ATOM      6  C   UNL     1     -45.865   6.832  11.108  1.00  0.00     0.000 C 
BRANCH   6   7
ATOM      7  C   UNL     1     -45.900   5.446  10.447  1.00  0.00     0.000 C 
BRANCH   7   8
ATOM      8  C   UNL     1     -46.603   5.454   9.081  1.00  0.00     0.000 C 
BRANCH   8   9
ATOM      9  C   UNL     1     -47.544   4.251   8.893  1.00  0.00     0.000 C 
BRANCH   9  10
ATOM     10  C   UNL     1     -47.667   3.824   7.422  1.00  0.00     0.006 C 
BRANCH  10  11
ATOM     11  C   UNL     1     -48.912   2.966   7.157  1.00  0.00     0.053 C 
BRANCH  11  12
ATOM     12  C   UNL     1     -48.818   1.669   7.897  1.00  0.00     0.041 C 
ATOM     13  O   UNL     1     -48.109   1.581   8.934  1.00  0.00    -0.550 OA
ATOM     14  O   UNL     1     -49.558   0.573   7.475  1.00  0.00    -0.550 OA
ENDBRANCH  11  12
ENDBRANCH  10  11
ENDBRANCH   9  10
ENDBRANCH   8   9
ENDBRANCH   7   8
ENDBRANCH   6   7
ENDBRANCH   5   6
ENDBRANCH   4   5
ENDBRANCH   3   4
ENDBRANCH   2   3
ENDBRANCH   1   2
BRANCH   1  15
ATOM     15  C   UNL     1     -43.536  10.103   6.851  1.00  0.00     0.000 C 
BRANCH  15  16
ATOM     16  C   UNL     1     -42.018  10.020   7.074  1.00  0.00     0.000 C 
BRANCH  16  17
ATOM     17  C   UNL     1     -41.631   8.959   8.120  1.00  0.00     0.000 C 
BRANCH  17  18
ATOM     18  C   UNL     1     -41.660   9.495   9.563  1.00  0.00    -0.000 C 
BRANCH  18  19
ATOM     19  C   UNL     1     -41.493   8.433  10.667  1.00  0.00    -0.000 C 
BRANCH  19  20
ATOM     20  C   UNL     1     -41.003   7.078  10.128  1.00  0.00    -0.000 C 
BRANCH  20  21
ATOM     21  C   UNL     1     -41.803   5.886  10.682  1.00  0.00    -0.000 C 
BRANCH  21  22
ATOM     22  C   UNL     1     -42.395   4.942   9.619  1.00  0.00    -0.000 C 
BRANCH  22  23
ATOM     23  C   UNL     1     -42.917   5.684   8.380  1.00  0.00    -0.000 C 
BRANCH  23  24
ATOM     24  C   UNL     1     -43.273   4.700   7.259  1.00  0.00    -0.000 C 
BRANCH  24  25
ATOM     25  C   UNL     1     -44.346   5.288   6.333  1.00  0.00    -0.003 C 
ATOM     26  C   UNL     1     -43.759   5.653   4.974  1.00  0.00     0.004 C 
ENDBRANCH  24  25
ENDBRANCH  23  24
ENDBRANCH  22  23
ENDBRANCH  21  22
ENDBRANCH  20  21
ENDBRANCH  19  20
ENDBRANCH  18  19
ENDBRANCH  17  18
ENDBRANCH  16  17
ENDBRANCH  15  16
ENDBRANCH   1  15
TORSDOF 22
ENDMDL
MODEL 4
REMARK VINA RESULT:    -2.759      1.888      4.730
REMARK INTER + INTRA:          -9.161
REMARK INTER:                  -6.451
REMARK INTRA:                  -2.709
REMARK UNBOUND:                -2.853
REMARK SMILES CCCCCCCCCCCCCCCCCCCCCCCC(=O)[O-]
REMARK SMILES IDX 13 1 14 2 15 3 16 4 17 5 18 6 19 7 20 8 21 9 22 10 23 11
REMARK SMILES IDX 24 12 25 13 26 14 12 15 11 16 10 17 9 18 8 19 7 20 6 21 5 22
REMARK SMILES IDX 4 23 3 24 2 25 1 26
REMARK H PARENT
REMARK Flexibility Score: inf
ROOT
ATOM      1  C   UNL     1     -41.939   8.756   7.365  1.00  0.00     0.000 C 
ENDROOT
BRANCH   1   2
ATOM      2  C   UNL     1     -43.091   9.518   6.692  1.00  0.00     0.000 C 
BRANCH   2   3
ATOM      3  C   UNL     1     -44.417   9.395   7.461  1.00  0.00     0.000 C 
BRANCH   3   4
ATOM      4  C   UNL     1     -44.373  10.095   8.832  1.00  0.00     0.000 C 
BRANCH   4   5
ATOM      5  C   UNL     1     -45.627   9.817   9.676  1.00  0.00     0.000 C 
BRANCH   5   6
ATOM      6  C   UNL     1     -45.304   9.101  10.997  1.00  0.00     0.000 C 
BRANCH   6   7
ATOM      7  C   UNL     1     -44.856   7.654  10.740  1.00  0.00     0.000 C 
BRANCH   7   8
ATOM      8  C   UNL     1     -45.934   6.622  11.104  1.00  0.00     0.000 C 
BRANCH   8   9
ATOM      9  C   UNL     1     -45.889   5.375  10.203  1.00  0.00     0.000 C 
BRANCH   9  10
ATOM     10  C   UNL     1     -46.925   5.429   9.070  1.00  0.00     0.006 C 
BRANCH  10  11
ATOM     11  C   UNL     1     -47.958   4.298   9.160  1.00  0.00     0.053 C 
BRANCH  11  12
ATOM     12  C   UNL     1     -48.059   3.579   7.851  1.00  0.00     0.041 C 
ATOM     13  O   UNL     1     -47.262   3.852   6.916  1.00  0.00    -0.550 OA
ATOM     14  O   UNL     1     -48.996   2.568   7.683  1.00  0.00    -0.550 OA
ENDBRANCH  11  12
ENDBRANCH  10  11
ENDBRANCH   9  10
ENDBRANCH   8   9
ENDBRANCH   7   8
ENDBRANCH   6   7
ENDBRANCH   5   6
ENDBRANCH   4   5
ENDBRANCH   3   4
ENDBRANCH   2   3
ENDBRANCH   1   2
BRANCH   1  15
ATOM     15  C   UNL     1     -41.320   9.591   8.496  1.00  0.00     0.000 C 
BRANCH  15  16
ATOM     16  C   UNL     1     -41.453   8.921   9.873  1.00  0.00     0.000 C 
BRANCH  16  17
ATOM     17  C   UNL     1     -41.002   7.450   9.859  1.00  0.00     0.000 C 
BRANCH  17  18
ATOM     18  C   UNL     1     -41.579   6.632  11.029  1.00  0.00    -0.000 C 
BRANCH  18  19
ATOM     19  C   UNL     1     -42.160   5.256  10.652  1.00  0.00    -0.000 C 
BRANCH  19  20
ATOM     20  C   UNL     1     -41.338   4.532   9.572  1.00  0.00    -0.000 C 
BRANCH  20  21
ATOM     21  C   UNL     1     -41.755   4.917   8.140  1.00  0.00    -0.000 C 
BRANCH  21  22
ATOM     22  C   UNL     1     -43.084   5.687   8.028  1.00  0.00    -0.000 C 
BRANCH  22  23
ATOM     23  C   UNL     1     -44.043   5.085   6.990  1.00  0.00    -0.000 C 
BRANCH  23  24
ATOM     24  C   UNL     1     -44.572   6.166   6.039  1.00  0.00    -0.000 C 
BRANCH  24  25
ATOM     25  C   UNL     1     -43.708   6.255   4.775  1.00  0.00    -0.003 C 
ATOM     26  C   UNL     1     -43.184   4.881   4.369  1.00  0.00     0.004 C 
ENDBRANCH  24  25
ENDBRANCH  23  24
ENDBRANCH  22  23
ENDBRANCH  21  22
ENDBRANCH  20  21
ENDBRANCH  19  20
ENDBRANCH  18  19
ENDBRANCH  17  18
ENDBRANCH  16  17
ENDBRANCH  15  16
ENDBRANCH   1  15
TORSDOF 22
ENDMDL
MODEL 5
REMARK VINA RESULT:    -2.727      2.501      5.244
REMARK INTER + INTRA:          -9.087
REMARK INTER:                  -5.652
REMARK INTRA:                  -3.436
REMARK UNBOUND:                -2.853
REMARK SMILES CCCCCCCCCCCCCCCCCCCCCCCC(=O)[O-]
REMARK SMILES IDX 13 1 14 2 15 3 16 4 17 5 18 6 19 7 20 8 21 9 22 10 23 11
REMARK SMILES IDX 24 12 25 13 26 14 12 15 11 16 10 17 9 18 8 19 7 20 6 21 5 22
REMARK SMILES IDX 4 23 3 24 2 25 1 26
REMARK H PARENT
REMARK Flexibility Score: inf
ROOT
ATOM      1  C   UNL     1     -41.570   9.705   6.266  1.00  0.00     0.000 C 
ENDROOT
BRANCH   1   2
ATOM      2  C   UNL     1     -42.917  10.063   5.617  1.00  0.00     0.000 C 
BRANCH   2   3
ATOM      3  C   UNL     1     -43.430   8.969   4.666  1.00  0.00     0.000 C 
BRANCH   3   4
ATOM      4  C   UNL     1     -44.059   7.780   5.416  1.00  0.00     0.000 C 
BRANCH   4   5
ATOM      5  C   UNL     1     -43.622   6.423   4.842  1.00  0.00     0.000 C 
BRANCH   5   6
ATOM      6  C   UNL     1     -43.719   5.286   5.871  1.00  0.00     0.000 C 
BRANCH   6   7
ATOM      7  C   UNL     1     -44.842   5.559   6.883  1.00  0.00     0.000 C 
BRANCH   7   8
ATOM      8  C   UNL     1     -46.017   4.577   6.749  1.00  0.00     0.000 C 
BRANCH   8   9
ATOM      9  C   UNL     1     -47.132   4.845   7.776  1.00  0.00     0.000 C 
BRANCH   9  10
ATOM     10  C   UNL     1     -47.750   3.550   8.325  1.00  0.00     0.006 C 
BRANCH  10  11
ATOM     11  C   UNL     1     -48.783   2.937   7.370  1.00  0.00     0.053 C 
BRANCH  11  12
ATOM     12  C   UNL     1     -48.852   1.454   7.559  1.00  0.00     0.041 C 
ATOM     13  O   UNL     1     -49.945   0.847   7.409  1.00  0.00    -0.550 OA
ATOM     14  O   UNL     1     -47.700   0.735   7.846  1.00  0.00    -0.550 OA
ENDBRANCH  11  12
ENDBRANCH  10  11
ENDBRANCH   9  10
ENDBRANCH   8   9
ENDBRANCH   7   8
ENDBRANCH   6   7
ENDBRANCH   5   6
ENDBRANCH   4   5
ENDBRANCH   3   4
ENDBRANCH   2   3
ENDBRANCH   1   2
BRANCH   1  15
ATOM     15  C   UNL     1     -41.614   9.950   7.782  1.00  0.00     0.000 C 
BRANCH  15  16
ATOM     16  C   UNL     1     -42.227   8.773   8.558  1.00  0.00     0.000 C 
BRANCH  16  17
ATOM     17  C   UNL     1     -41.492   8.491   9.880  1.00  0.00     0.000 C 
BRANCH  17  18
ATOM     18  C   UNL     1     -41.411   6.990  10.217  1.00  0.00    -0.000 C 
BRANCH  18  19
ATOM     19  C   UNL     1     -42.017   6.042   9.164  1.00  0.00    -0.000 C 
BRANCH  19  20
ATOM     20  C   UNL     1     -42.638   4.778   9.781  1.00  0.00    -0.000 C 
BRANCH  20  21
ATOM     21  C   UNL     1     -43.727   5.090  10.824  1.00  0.00    -0.000 C 
BRANCH  21  22
ATOM     22  C   UNL     1     -44.964   5.829  10.280  1.00  0.00    -0.000 C 
BRANCH  22  23
ATOM     23  C   UNL     1     -45.355   7.051  11.125  1.00  0.00    -0.000 C 
BRANCH  23  24
ATOM     24  C   UNL     1     -45.183   8.349  10.328  1.00  0.00    -0.000 C 
BRANCH  24  25
ATOM     25  C   UNL     1     -45.405   8.107   8.830  1.00  0.00    -0.003 C 
ATOM     26  C   UNL     1     -45.882   9.377   8.132  1.00  0.00     0.004 C 
ENDBRANCH  24  25
ENDBRANCH  23  24
ENDBRANCH  22  23
ENDBRANCH  21  22
ENDBRANCH  20  21
ENDBRANCH  19  20
ENDBRANCH  18  19
ENDBRANCH  17  18
ENDBRANCH  16  17
ENDBRANCH  15  16
ENDBRANCH   1  15
TORSDOF 22
ENDMDL
MODEL 6
REMARK VINA RESULT:    -2.650      1.197      3.456
REMARK INTER + INTRA:          -8.912
REMARK INTER:                  -7.732
REMARK INTRA:                  -1.180
REMARK UNBOUND:                -2.853
REMARK SMILES CCCCCCCCCCCCCCCCCCCCCCCC(=O)[O-]
REMARK SMILES IDX 13 1 14 2 15 3 16 4 17 5 18 6 19 7 20 8 21 9 22 10 23 11
REMARK SMILES IDX 24 12 25 13 26 14 12 15 11 16 10 17 9 18 8 19 7 20 6 21 5 22
REMARK SMILES IDX 4 23 3 24 2 25 1 26
REMARK H PARENT
REMARK Flexibility Score: inf
ROOT
ATOM      1  C   UNL     1     -41.993   7.463   9.104  1.00  0.00     0.000 C 
ENDROOT
BRANCH   1   2
ATOM      2  C   UNL     1     -42.020   8.240  10.430  1.00  0.00     0.000 C 
BRANCH   2   3
ATOM      3  C   UNL     1     -42.369   9.726  10.244  1.00  0.00     0.000 C 
BRANCH   3   4
ATOM      4  C   UNL     1     -43.666  10.125  10.970  1.00  0.00     0.000 C 
BRANCH   4   5
ATOM      5  C   UNL     1     -44.889  10.120  10.039  1.00  0.00     0.000 C 
BRANCH   5   6
ATOM      6  C   UNL     1     -45.190   8.727   9.465  1.00  0.00     0.000 C 
BRANCH   6   7
ATOM      7  C   UNL     1     -45.334   8.785   7.936  1.00  0.00     0.000 C 
BRANCH   7   8
ATOM      8  C   UNL     1     -44.632  10.003   7.317  1.00  0.00     0.000 C 
BRANCH   8   9
ATOM      9  C   UNL     1     -43.344   9.624   6.564  1.00  0.00     0.000 C 
BRANCH   9  10
ATOM     10  C   UNL     1     -43.163   8.104   6.435  1.00  0.00     0.006 C 
BRANCH  10  11
ATOM     11  C   UNL     1     -43.737   7.550   5.123  1.00  0.00     0.053 C 
BRANCH  11  12
ATOM     12  C   UNL     1     -43.843   6.059   5.189  1.00  0.00     0.041 C 
ATOM     13  O   UNL     1     -43.458   5.353   4.220  1.00  0.00    -0.550 OA
ATOM     14  O   UNL     1     -44.313   5.446   6.343  1.00  0.00    -0.550 OA
ENDBRANCH  11  12
ENDBRANCH  10  11
ENDBRANCH   9  10
ENDBRANCH   8   9
ENDBRANCH   7   8
ENDBRANCH   6   7
ENDBRANCH   5   6
ENDBRANCH   4   5
ENDBRANCH   3   4
ENDBRANCH   2   3
ENDBRANCH   1   2
BRANCH   1  15
ATOM     15  C   UNL     1     -41.087   6.227   9.215  1.00  0.00     0.000 C 
BRANCH  15  16
ATOM     16  C   UNL     1     -41.442   5.336  10.416  1.00  0.00     0.000 C 
BRANCH  16  17
ATOM     17  C   UNL     1     -42.794   4.623  10.243  1.00  0.00     0.000 C 
BRANCH  17  18
ATOM     18  C   UNL     1     -43.965   5.597  10.014  1.00  0.00    -0.000 C 
BRANCH  18  19
ATOM     19  C   UNL     1     -45.123   5.489  11.024  1.00  0.00    -0.000 C 
BRANCH  19  20
ATOM     20  C   UNL     1     -46.490   5.837  10.410  1.00  0.00    -0.000 C 
BRANCH  20  21
ATOM     21  C   UNL     1     -46.683   5.250   9.001  1.00  0.00    -0.000 C 
BRANCH  21  22
ATOM     22  C   UNL     1     -47.655   4.058   8.914  1.00  0.00    -0.000 C 
BRANCH  22  23
ATOM     23  C   UNL     1     -47.846   3.541   7.480  1.00  0.00    -0.000 C 
BRANCH  23  24
ATOM     24  C   UNL     1     -49.151   2.746   7.351  1.00  0.00    -0.000 C 
BRANCH  24  25
ATOM     25  C   UNL     1     -48.941   1.280   7.749  1.00  0.00    -0.003 C 
ATOM     26  C   UNL     1     -50.034   0.390   7.164  1.00  0.00     0.004 C 
ENDBRANCH  24  25
ENDBRANCH  23  24
ENDBRANCH  22  23
ENDBRANCH  21  22
ENDBRANCH  20  21
ENDBRANCH  19  20
ENDBRANCH  18  19
ENDBRANCH  17  18
ENDBRANCH  16  17
ENDBRANCH  15  16
ENDBRANCH   1  15
TORSDOF 22
ENDMDL
MODEL 7
REMARK VINA RESULT:    -2.538      2.259      6.065
REMARK INTER + INTRA:          -8.656
REMARK INTER:                  -5.341
REMARK INTRA:                  -3.315
REMARK UNBOUND:                -2.853
REMARK SMILES CCCCCCCCCCCCCCCCCCCCCCCC(=O)[O-]
REMARK SMILES IDX 13 1 14 2 15 3 16 4 17 5 18 6 19 7 20 8 21 9 22 10 23 11
REMARK SMILES IDX 24 12 25 13 26 14 12 15 11 16 10 17 9 18 8 19 7 20 6 21 5 22
REMARK SMILES IDX 4 23 3 24 2 25 1 26
REMARK H PARENT
REMARK Flexibility Score: inf
ROOT
ATOM      1  C   UNL     1     -43.240   5.335   6.376  1.00  0.00     0.000 C 
ENDROOT
BRANCH   1   2
ATOM      2  C   UNL     1     -44.709   5.595   6.747  1.00  0.00     0.000 C 
BRANCH   2   3
ATOM      3  C   UNL     1     -45.141   7.047   6.484  1.00  0.00     0.000 C 
BRANCH   3   4
ATOM      4  C   UNL     1     -45.655   7.751   7.753  1.00  0.00     0.000 C 
BRANCH   4   5
ATOM      5  C   UNL     1     -44.561   7.915   8.821  1.00  0.00     0.000 C 
BRANCH   5   6
ATOM      6  C   UNL     1     -45.127   8.310  10.193  1.00  0.00     0.000 C 
BRANCH   6   7
ATOM      7  C   UNL     1     -45.636   7.074  10.951  1.00  0.00     0.000 C 
BRANCH   7   8
ATOM      8  C   UNL     1     -45.970   5.899  10.020  1.00  0.00     0.000 C 
BRANCH   8   9
ATOM      9  C   UNL     1     -47.475   5.579   9.986  1.00  0.00     0.000 C 
BRANCH   9  10
ATOM     10  C   UNL     1     -47.765   4.162   9.467  1.00  0.00     0.006 C 
BRANCH  10  11
ATOM     11  C   UNL     1     -47.830   4.097   7.935  1.00  0.00     0.053 C 
BRANCH  11  12
ATOM     12  C   UNL     1     -48.538   2.853   7.497  1.00  0.00     0.041 C 
ATOM     13  O   UNL     1     -49.310   2.881   6.503  1.00  0.00    -0.550 OA
ATOM     14  O   UNL     1     -48.301   1.651   8.150  1.00  0.00    -0.550 OA
ENDBRANCH  11  12
ENDBRANCH  10  11
ENDBRANCH   9  10
ENDBRANCH   8   9
ENDBRANCH   7   8
ENDBRANCH   6   7
ENDBRANCH   5   6
ENDBRANCH   4   5
ENDBRANCH   3   4
ENDBRANCH   2   3
ENDBRANCH   1   2
BRANCH   1  15
ATOM     15  C   UNL     1     -42.318   5.613   7.574  1.00  0.00     0.000 C 
BRANCH  15  16
ATOM     16  C   UNL     1     -42.689   4.785   8.815  1.00  0.00     0.000 C 
BRANCH  16  17
ATOM     17  C   UNL     1     -42.311   5.490  10.129  1.00  0.00     0.000 C 
BRANCH  17  18
ATOM     18  C   UNL     1     -41.252   6.591   9.940  1.00  0.00    -0.000 C 
BRANCH  18  19
ATOM     19  C   UNL     1     -41.090   7.563  11.125  1.00  0.00    -0.000 C 
BRANCH  19  20
ATOM     20  C   UNL     1     -41.797   8.911  10.898  1.00  0.00    -0.000 C 
BRANCH  20  21
ATOM     21  C   UNL     1     -41.100   9.784   9.838  1.00  0.00    -0.000 C 
BRANCH  21  22
ATOM     22  C   UNL     1     -41.912  10.029   8.553  1.00  0.00    -0.000 C 
BRANCH  22  23
ATOM     23  C   UNL     1     -41.351   9.279   7.335  1.00  0.00    -0.000 C 
BRANCH  23  24
ATOM     24  C   UNL     1     -41.570  10.081   6.046  1.00  0.00    -0.000 C 
BRANCH  24  25
ATOM     25  C   UNL     1     -43.044  10.050   5.624  1.00  0.00    -0.003 C 
ATOM     26  C   UNL     1     -43.222   9.308   4.303  1.00  0.00     0.004 C 
ENDBRANCH  24  25
ENDBRANCH  23  24
ENDBRANCH  22  23
ENDBRANCH  21  22
ENDBRANCH  20  21
ENDBRANCH  19  20
ENDBRANCH  18  19
ENDBRANCH  17  18
ENDBRANCH  16  17
ENDBRANCH  15  16
ENDBRANCH   1  15
TORSDOF 22
ENDMDL
MODEL 8
REMARK VINA RESULT:    -2.505      2.403      6.095
REMARK INTER + INTRA:          -8.580
REMARK INTER:                  -5.367
REMARK INTRA:                  -3.213
REMARK UNBOUND:                -2.853
REMARK SMILES CCCCCCCCCCCCCCCCCCCCCCCC(=O)[O-]
REMARK SMILES IDX 13 1 14 2 15 3 16 4 17 5 18 6 19 7 20 8 21 9 22 10 23 11
REMARK SMILES IDX 24 12 25 13 26 14 12 15 11 16 10 17 9 18 8 19 7 20 6 21 5 22
REMARK SMILES IDX 4 23 3 24 2 25 1 26
REMARK H PARENT
REMARK Flexibility Score: inf
ROOT
ATOM      1  C   UNL     1     -45.472   6.621   6.351  1.00  0.00     0.000 C 
ENDROOT
BRANCH   1   2
ATOM      2  C   UNL     1     -45.874   7.865   7.160  1.00  0.00     0.000 C 
BRANCH   2   3
ATOM      3  C   UNL     1     -44.713   8.439   7.987  1.00  0.00     0.000 C 
BRANCH   3   4
ATOM      4  C   UNL     1     -45.120   8.760   9.437  1.00  0.00     0.000 C 
BRANCH   4   5
ATOM      5  C   UNL     1     -44.685   7.668  10.427  1.00  0.00     0.000 C 
BRANCH   5   6
ATOM      6  C   UNL     1     -45.877   6.976  11.106  1.00  0.00     0.000 C 
BRANCH   6   7
ATOM      7  C   UNL     1     -45.881   5.470  10.802  1.00  0.00     0.000 C 
BRANCH   7   8
ATOM      8  C   UNL     1     -46.090   5.163   9.310  1.00  0.00     0.000 C 
BRANCH   8   9
ATOM      9  C   UNL     1     -47.501   4.628   9.008  1.00  0.00     0.000 C 
BRANCH   9  10
ATOM     10  C   UNL     1     -47.543   3.763   7.738  1.00  0.00     0.006 C 
BRANCH  10  11
ATOM     11  C   UNL     1     -48.909   3.099   7.522  1.00  0.00     0.053 C 
BRANCH  11  12
ATOM     12  C   UNL     1     -48.833   1.638   7.837  1.00  0.00     0.041 C 
ATOM     13  O   UNL     1     -48.118   1.232   8.790  1.00  0.00    -0.550 OA
ATOM     14  O   UNL     1     -49.596   0.730   7.114  1.00  0.00    -0.550 OA
ENDBRANCH  11  12
ENDBRANCH  10  11
ENDBRANCH   9  10
ENDBRANCH   8   9
ENDBRANCH   7   8
ENDBRANCH   6   7
ENDBRANCH   5   6
ENDBRANCH   4   5
ENDBRANCH   3   4
ENDBRANCH   2   3
ENDBRANCH   1   2
BRANCH   1  15
ATOM     15  C   UNL     1     -44.118   6.838   5.658  1.00  0.00     0.000 C 
BRANCH  15  16
ATOM     16  C   UNL     1     -43.266   5.560   5.604  1.00  0.00     0.000 C 
BRANCH  16  17
ATOM     17  C   UNL     1     -43.242   4.810   6.947  1.00  0.00     0.000 C 
BRANCH  17  18
ATOM     18  C   UNL     1     -42.834   5.705   8.131  1.00  0.00    -0.000 C 
BRANCH  18  19
ATOM     19  C   UNL     1     -42.437   4.959   9.419  1.00  0.00    -0.000 C 
BRANCH  19  20
ATOM     20  C   UNL     1     -41.418   5.734  10.273  1.00  0.00    -0.000 C 
BRANCH  20  21
ATOM     21  C   UNL     1     -41.163   7.161   9.757  1.00  0.00    -0.000 C 
BRANCH  21  22
ATOM     22  C   UNL     1     -41.385   8.282  10.789  1.00  0.00    -0.000 C 
BRANCH  22  23
ATOM     23  C   UNL     1     -41.657   9.650  10.144  1.00  0.00    -0.000 C 
BRANCH  23  24
ATOM     24  C   UNL     1     -41.004   9.745   8.760  1.00  0.00    -0.000 C 
BRANCH  24  25
ATOM     25  C   UNL     1     -42.039  10.111   7.689  1.00  0.00    -0.003 C 
ATOM     26  C   UNL     1     -41.517   9.798   6.290  1.00  0.00     0.004 C 
ENDBRANCH  24  25
ENDBRANCH  23  24
ENDBRANCH  22  23
ENDBRANCH  21  22
ENDBRANCH  20  21
ENDBRANCH  19  20
ENDBRANCH  18  19
ENDBRANCH  17  18
ENDBRANCH  16  17
ENDBRANCH  15  16
ENDBRANCH   1  15
TORSDOF 22
ENDMDL
MODEL 9
REMARK VINA RESULT:    -2.454      2.056      5.701
REMARK INTER + INTRA:          -8.465
REMARK INTER:                  -5.388
REMARK INTRA:                  -3.077
REMARK UNBOUND:                -2.853
REMARK SMILES CCCCCCCCCCCCCCCCCCCCCCCC(=O)[O-]
REMARK SMILES IDX 13 1 14 2 15 3 16 4 17 5 18 6 19 7 20 8 21 9 22 10 23 11
REMARK SMILES IDX 24 12 25 13 26 14 12 15 11 16 10 17 9 18 8 19 7 20 6 21 5 22
REMARK SMILES IDX 4 23 3 24 2 25 1 26
REMARK H PARENT
REMARK Flexibility Score: inf
ROOT
ATOM      1  C   UNL     1     -43.596   8.602   4.844  1.00  0.00     0.000 C 
ENDROOT
BRANCH   1   2
ATOM      2  C   UNL     1     -42.614   9.320   5.784  1.00  0.00     0.000 C 
BRANCH   2   3
ATOM      3  C   UNL     1     -43.092   9.337   7.246  1.00  0.00     0.000 C 
BRANCH   3   4
ATOM      4  C   UNL     1     -44.503   9.932   7.400  1.00  0.00     0.000 C 
BRANCH   4   5
ATOM      5  C   UNL     1     -45.062   9.764   8.822  1.00  0.00     0.000 C 
BRANCH   5   6
ATOM      6  C   UNL     1     -45.572   8.340   9.093  1.00  0.00     0.000 C 
BRANCH   6   7
ATOM      7  C   UNL     1     -45.244   7.905  10.529  1.00  0.00     0.000 C 
BRANCH   7   8
ATOM      8  C   UNL     1     -45.957   6.607  10.937  1.00  0.00     0.000 C 
BRANCH   8   9
ATOM      9  C   UNL     1     -45.769   5.479   9.906  1.00  0.00     0.000 C 
BRANCH   9  10
ATOM     10  C   UNL     1     -47.016   5.267   9.033  1.00  0.00     0.006 C 
BRANCH  10  11
ATOM     11  C   UNL     1     -47.686   3.909   9.281  1.00  0.00     0.053 C 
BRANCH  11  12
ATOM     12  C   UNL     1     -48.114   3.294   7.986  1.00  0.00     0.041 C 
ATOM     13  O   UNL     1     -47.974   3.928   6.907  1.00  0.00    -0.550 OA
ATOM     14  O   UNL     1     -48.614   1.999   7.962  1.00  0.00    -0.550 OA
ENDBRANCH  11  12
ENDBRANCH  10  11
ENDBRANCH   9  10
ENDBRANCH   8   9
ENDBRANCH   7   8
ENDBRANCH   6   7
ENDBRANCH   5   6
ENDBRANCH   4   5
ENDBRANCH   3   4
ENDBRANCH   2   3
ENDBRANCH   1   2
BRANCH   1  15
ATOM     15  C   UNL     1     -43.631   7.095   5.142  1.00  0.00     0.000 C 
BRANCH  15  16
ATOM     16  C   UNL     1     -44.917   6.661   5.864  1.00  0.00     0.000 C 
BRANCH  16  17
ATOM     17  C   UNL     1     -44.778   5.288   6.544  1.00  0.00     0.000 C 
BRANCH  17  18
ATOM     18  C   UNL     1     -43.313   4.871   6.767  1.00  0.00    -0.000 C 
BRANCH  18  19
ATOM     19  C   UNL     1     -42.485   5.815   7.660  1.00  0.00    -0.000 C 
BRANCH  19  20
ATOM     20  C   UNL     1     -41.655   5.068   8.718  1.00  0.00    -0.000 C 
BRANCH  20  21
ATOM     21  C   UNL     1     -42.395   4.906  10.058  1.00  0.00    -0.000 C 
BRANCH  21  22
ATOM     22  C   UNL     1     -42.188   6.054  11.064  1.00  0.00    -0.000 C 
BRANCH  22  23
ATOM     23  C   UNL     1     -40.734   6.547  11.125  1.00  0.00    -0.000 C 
BRANCH  23  24
ATOM     24  C   UNL     1     -40.667   8.076  11.024  1.00  0.00    -0.000 C 
BRANCH  24  25
ATOM     25  C   UNL     1     -42.003   8.652  10.537  1.00  0.00    -0.003 C 
ATOM     26  C   UNL     1     -42.216  10.067  11.067  1.00  0.00     0.004 C 
ENDBRANCH  24  25
ENDBRANCH  23  24
ENDBRANCH  22  23
ENDBRANCH  21  22
ENDBRANCH  20  21
ENDBRANCH  19  20
ENDBRANCH  18  19
ENDBRANCH  17  18
ENDBRANCH  16  17
ENDBRANCH  15  16
ENDBRANCH   1  15
TORSDOF 22
ENDMDL
