MODEL 1
REMARK VINA RESULT:    -6.487      0.000      0.000
REMARK INTER + INTRA:          -8.127
REMARK INTER:                  -7.814
REMARK INTRA:                  -0.313
REMARK UNBOUND:                -0.313
REMARK SMILES O=c1c(O)c(-c2ccc(O)c(O)c2)oc2cc(O)cc(O)c12
REMARK SMILES IDX 5 1 3 2 2 3 1 4 22 5 20 6 19 7 17 8 16 9 15 10 14 11 6 12
REMARK SMILES IDX 7 13 8 14 9 15 13 16 11 17 10 18 12 20 4 22 21 24 18 26
REMARK H PARENT 10 19 12 21 4 23 21 25 18 27
REMARK Flexibility Score: inf
ROOT
ATOM      1  C   UNL     1       3.906  51.863   7.796  1.00  0.00     0.180 A 
ATOM      2  C   UNL     1       2.604  52.356   7.602  1.00  0.00     0.208 A 
ATOM      3  C   UNL     1       2.375  53.289   6.579  1.00  0.00     0.238 A 
ATOM      4  O   UNL     1       1.198  53.685   6.375  1.00  0.00    -0.285 OA
ATOM      5  C   UNL     1       3.452  53.731   5.773  1.00  0.00     0.111 A 
ATOM      6  C   UNL     1       3.341  54.704   4.736  1.00  0.00     0.134 A 
ATOM      7  C   UNL     1       4.446  54.969   3.917  1.00  0.00     0.093 A 
ATOM      8  C   UNL     1       5.675  54.344   4.141  1.00  0.00     0.123 A 
ATOM      9  C   UNL     1       5.808  53.437   5.190  1.00  0.00     0.094 A 
ATOM     10  C   UNL     1       4.715  53.125   6.000  1.00  0.00     0.146 A 
ATOM     11  O   UNL     1       4.883  52.247   6.982  1.00  0.00    -0.452 OA
ENDROOT
BRANCH   1  12
ATOM     12  C   UNL     1       4.231  50.896   8.868  1.00  0.00     0.025 A 
ATOM     13  C   UNL     1       4.250  49.511   8.625  1.00  0.00     0.016 A 
ATOM     14  C   UNL     1       4.535  48.615   9.659  1.00  0.00     0.051 A 
ATOM     15  C   UNL     1       4.792  49.087  10.952  1.00  0.00     0.157 A 
ATOM     16  C   UNL     1       4.469  51.362  10.172  1.00  0.00     0.062 A 
ATOM     17  C   UNL     1       4.755  50.468  11.210  1.00  0.00     0.158 A 
BRANCH  15  18
ATOM     18  O   UNL     1       5.078  48.191  11.981  1.00  0.00    -0.504 OA
ATOM     19  H   UNL     1       5.608  48.473  12.798  1.00  0.00     0.293 HD
ENDBRANCH  15  18
BRANCH  17  20
ATOM     20  O   UNL     1       5.000  50.969  12.488  1.00  0.00    -0.504 OA
ATOM     21  H   UNL     1       4.977  51.962  12.690  1.00  0.00     0.293 HD
ENDBRANCH  17  20
ENDBRANCH   1  12
BRANCH   2  22
ATOM     22  O   UNL     1       1.552  51.889   8.394  1.00  0.00    -0.502 OA
ATOM     23  H   UNL     1       1.569  50.982   8.843  1.00  0.00     0.293 HD
ENDBRANCH   2  22
BRANCH   6  24
ATOM     24  O   UNL     1       2.187  55.453   4.486  1.00  0.00    -0.507 OA
ATOM     25  H   UNL     1       2.155  56.461   4.440  1.00  0.00     0.293 HD
ENDBRANCH   6  24
BRANCH   8  26
ATOM     26  O   UNL     1       6.774  54.625   3.331  1.00  0.00    -0.508 OA
ATOM     27  H   UNL     1       7.698  54.270   3.550  1.00  0.00     0.293 HD
ENDBRANCH   8  26
TORSDOF 6
ENDMDL
MODEL 2
REMARK VINA RESULT:    -6.159     14.633     17.673
REMARK INTER + INTRA:          -7.732
REMARK INTER:                  -8.255
REMARK INTRA:                   0.523
REMARK UNBOUND:                -0.313
REMARK SMILES O=c1c(O)c(-c2ccc(O)c(O)c2)oc2cc(O)cc(O)c12
REMARK SMILES IDX 5 1 3 2 2 3 1 4 22 5 20 6 19 7 17 8 16 9 15 10 14 11 6 12
REMARK SMILES IDX 7 13 8 14 9 15 13 16 11 17 10 18 12 20 4 22 21 24 18 26
REMARK H PARENT 10 19 12 21 4 23 21 25 18 27
REMARK Flexibility Score: inf
ROOT
ATOM      1  C   UNL     1      -7.865  63.608   4.339  1.00  0.00     0.180 A 
ATOM      2  C   UNL     1      -9.119  63.959   3.810  1.00  0.00     0.208 A 
ATOM      3  C   UNL     1      -9.772  65.099   4.305  1.00  0.00     0.238 A 
ATOM      4  O   UNL     1     -10.868  65.440   3.789  1.00  0.00    -0.285 OA
ATOM      5  C   UNL     1      -9.172  65.864   5.335  1.00  0.00     0.111 A 
ATOM      6  C   UNL     1      -9.763  67.013   5.939  1.00  0.00     0.134 A 
ATOM      7  C   UNL     1      -9.022  67.768   6.857  1.00  0.00     0.093 A 
ATOM      8  C   UNL     1      -7.737  67.376   7.241  1.00  0.00     0.123 A 
ATOM      9  C   UNL     1      -7.176  66.222   6.701  1.00  0.00     0.094 A 
ATOM     10  C   UNL     1      -7.875  65.470   5.756  1.00  0.00     0.146 A 
ATOM     11  O   UNL     1      -7.299  64.382   5.258  1.00  0.00    -0.452 OA
ENDROOT
BRANCH   1  12
ATOM     12  C   UNL     1      -7.127  62.408   3.886  1.00  0.00     0.025 A 
ATOM     13  C   UNL     1      -5.792  62.181   4.267  1.00  0.00     0.016 A 
ATOM     14  C   UNL     1      -5.107  61.054   3.806  1.00  0.00     0.051 A 
ATOM     15  C   UNL     1      -5.739  60.144   2.949  1.00  0.00     0.157 A 
ATOM     16  C   UNL     1      -7.748  61.503   3.009  1.00  0.00     0.062 A 
ATOM     17  C   UNL     1      -7.065  60.372   2.546  1.00  0.00     0.158 A 
BRANCH  15  18
ATOM     18  O   UNL     1      -5.054  59.019   2.493  1.00  0.00    -0.504 OA
ATOM     19  H   UNL     1      -5.445  58.409   1.784  1.00  0.00     0.293 HD
ENDBRANCH  15  18
BRANCH  17  20
ATOM     20  O   UNL     1      -7.721  59.489   1.689  1.00  0.00    -0.504 OA
ATOM     21  H   UNL     1      -8.730  59.471   1.603  1.00  0.00     0.293 HD
ENDBRANCH  17  20
ENDBRANCH   1  12
BRANCH   2  22
ATOM     22  O   UNL     1      -9.683  63.204   2.779  1.00  0.00    -0.502 OA
ATOM     23  H   UNL     1      -9.143  62.548   2.227  1.00  0.00     0.293 HD
ENDBRANCH   2  22
BRANCH   6  24
ATOM     24  O   UNL     1     -11.072  67.438   5.696  1.00  0.00    -0.507 OA
ATOM     25  H   UNL     1     -11.472  68.297   6.045  1.00  0.00     0.293 HD
ENDBRANCH   6  24
BRANCH   8  26
ATOM     26  O   UNL     1      -7.013  68.125   8.168  1.00  0.00    -0.508 OA
ATOM     27  H   UNL     1      -7.094  69.134   8.212  1.00  0.00     0.293 HD
ENDBRANCH   8  26
TORSDOF 6
ENDMDL
MODEL 3
REMARK VINA RESULT:    -6.036     13.453     16.959
REMARK INTER + INTRA:          -7.583
REMARK INTER:                  -7.705
REMARK INTRA:                   0.122
REMARK UNBOUND:                -0.313
REMARK SMILES O=c1c(O)c(-c2ccc(O)c(O)c2)oc2cc(O)cc(O)c12
REMARK SMILES IDX 5 1 3 2 2 3 1 4 22 5 20 6 19 7 17 8 16 9 15 10 14 11 6 12
REMARK SMILES IDX 7 13 8 14 9 15 13 16 11 17 10 18 12 20 4 22 21 24 18 26
REMARK H PARENT 10 19 12 21 4 23 21 25 18 27
REMARK Flexibility Score: inf
ROOT
ATOM      1  C   UNL     1      -6.893  63.403   4.556  1.00  0.00     0.180 A 
ATOM      2  C   UNL     1      -5.602  62.913   4.820  1.00  0.00     0.208 A 
ATOM      3  C   UNL     1      -5.187  61.722   4.204  1.00  0.00     0.238 A 
ATOM      4  O   UNL     1      -4.012  61.317   4.401  1.00  0.00    -0.285 OA
ATOM      5  C   UNL     1      -6.072  61.026   3.345  1.00  0.00     0.111 A 
ATOM      6  C   UNL     1      -5.771  59.790   2.701  1.00  0.00     0.134 A 
ATOM      7  C   UNL     1      -6.673  59.258   1.770  1.00  0.00     0.093 A 
ATOM      8  C   UNL     1      -7.894  59.886   1.512  1.00  0.00     0.123 A 
ATOM      9  C   UNL     1      -8.223  61.062   2.181  1.00  0.00     0.094 A 
ATOM     10  C   UNL     1      -7.328  61.635   3.087  1.00  0.00     0.146 A 
ATOM     11  O   UNL     1      -7.676  62.763   3.695  1.00  0.00    -0.452 OA
ENDROOT
BRANCH   1  12
ATOM     12  C   UNL     1      -7.411  64.638   5.186  1.00  0.00     0.025 A 
ATOM     13  C   UNL     1      -7.137  64.945   6.531  1.00  0.00     0.016 A 
ATOM     14  C   UNL     1      -7.657  66.104   7.112  1.00  0.00     0.051 A 
ATOM     15  C   UNL     1      -8.468  66.967   6.364  1.00  0.00     0.157 A 
ATOM     16  C   UNL     1      -8.242  65.497   4.447  1.00  0.00     0.062 A 
ATOM     17  C   UNL     1      -8.764  66.659   5.026  1.00  0.00     0.158 A 
BRANCH  15  18
ATOM     18  O   UNL     1      -8.983  68.124   6.946  1.00  0.00    -0.504 OA
ATOM     19  H   UNL     1      -9.908  68.144   7.361  1.00  0.00     0.293 HD
ENDBRANCH  15  18
BRANCH  17  20
ATOM     20  O   UNL     1      -9.574  67.494   4.256  1.00  0.00    -0.504 OA
ATOM     21  H   UNL     1     -10.376  67.975   4.646  1.00  0.00     0.293 HD
ENDBRANCH  17  20
ENDBRANCH   1  12
BRANCH   2  22
ATOM     22  O   UNL     1      -4.737  63.626   5.653  1.00  0.00    -0.502 OA
ATOM     23  H   UNL     1      -4.243  63.193   6.424  1.00  0.00     0.293 HD
ENDBRANCH   2  22
BRANCH   6  24
ATOM     24  O   UNL     1      -4.623  59.035   2.956  1.00  0.00    -0.507 OA
ATOM     25  H   UNL     1      -4.480  58.465   3.778  1.00  0.00     0.293 HD
ENDBRANCH   6  24
BRANCH   8  26
ATOM     26  O   UNL     1      -8.793  59.342   0.596  1.00  0.00    -0.508 OA
ATOM     27  H   UNL     1      -9.664  58.919   0.896  1.00  0.00     0.293 HD
ENDBRANCH   8  26
TORSDOF 6
ENDMDL
MODEL 4
REMARK VINA RESULT:    -6.004      3.342      5.398
REMARK INTER + INTRA:          -7.545
REMARK INTER:                  -7.261
REMARK INTRA:                  -0.284
REMARK UNBOUND:                -0.313
REMARK SMILES O=c1c(O)c(-c2ccc(O)c(O)c2)oc2cc(O)cc(O)c12
REMARK SMILES IDX 5 1 3 2 2 3 1 4 22 5 20 6 19 7 17 8 16 9 15 10 14 11 6 12
REMARK SMILES IDX 7 13 8 14 9 15 13 16 11 17 10 18 12 20 4 22 21 24 18 26
REMARK H PARENT 10 19 12 21 4 23 21 25 18 27
REMARK Flexibility Score: inf
ROOT
ATOM      1  C   UNL     1       1.969  53.864   8.863  1.00  0.00     0.180 A 
ATOM      2  C   UNL     1       2.963  53.097   9.495  1.00  0.00     0.208 A 
ATOM      3  C   UNL     1       4.094  52.710   8.759  1.00  0.00     0.238 A 
ATOM      4  O   UNL     1       5.006  52.070   9.344  1.00  0.00    -0.285 OA
ATOM      5  C   UNL     1       4.210  53.079   7.397  1.00  0.00     0.111 A 
ATOM      6  C   UNL     1       5.292  52.707   6.546  1.00  0.00     0.134 A 
ATOM      7  C   UNL     1       5.367  53.238   5.252  1.00  0.00     0.093 A 
ATOM      8  C   UNL     1       4.364  54.075   4.758  1.00  0.00     0.123 A 
ATOM      9  C   UNL     1       3.273  54.396   5.561  1.00  0.00     0.094 A 
ATOM     10  C   UNL     1       3.189  53.911   6.868  1.00  0.00     0.146 A 
ATOM     11  O   UNL     1       2.137  54.250   7.604  1.00  0.00    -0.452 OA
ENDROOT
BRANCH   1  12
ATOM     12  C   UNL     1       0.737  54.290   9.566  1.00  0.00     0.025 A 
ATOM     13  C   UNL     1       0.744  55.371  10.466  1.00  0.00     0.016 A 
ATOM     14  C   UNL     1      -0.425  55.739  11.137  1.00  0.00     0.051 A 
ATOM     15  C   UNL     1      -1.613  55.026  10.930  1.00  0.00     0.157 A 
ATOM     16  C   UNL     1      -0.452  53.566   9.378  1.00  0.00     0.062 A 
ATOM     17  C   UNL     1      -1.625  53.932  10.048  1.00  0.00     0.158 A 
BRANCH  15  18
ATOM     18  O   UNL     1      -2.779  55.398  11.598  1.00  0.00    -0.504 OA
ATOM     19  H   UNL     1      -3.597  55.725  11.098  1.00  0.00     0.293 HD
ENDBRANCH  15  18
BRANCH  17  20
ATOM     20  O   UNL     1      -2.790  53.198   9.825  1.00  0.00    -0.504 OA
ATOM     21  H   UNL     1      -3.014  52.369  10.362  1.00  0.00     0.293 HD
ENDBRANCH  17  20
ENDBRANCH   1  12
BRANCH   2  22
ATOM     22  O   UNL     1       2.840  52.762  10.846  1.00  0.00    -0.502 OA
ATOM     23  H   UNL     1       2.010  52.321  11.224  1.00  0.00     0.293 HD
ENDBRANCH   2  22
BRANCH   6  24
ATOM     24  O   UNL     1       6.297  51.805   6.909  1.00  0.00    -0.507 OA
ATOM     25  H   UNL     1       6.427  50.893   6.495  1.00  0.00     0.293 HD
ENDBRANCH   6  24
BRANCH   8  26
ATOM     26  O   UNL     1       4.439  54.586   3.463  1.00  0.00    -0.508 OA
ATOM     27  H   UNL     1       4.753  54.017   2.686  1.00  0.00     0.293 HD
ENDBRANCH   8  26
TORSDOF 6
ENDMDL
MODEL 5
REMARK VINA RESULT:    -5.988     13.647     16.080
REMARK INTER + INTRA:          -7.526
REMARK INTER:                  -7.211
REMARK INTRA:                  -0.315
REMARK UNBOUND:                -0.313
REMARK SMILES O=c1c(O)c(-c2ccc(O)c(O)c2)oc2cc(O)cc(O)c12
REMARK SMILES IDX 5 1 3 2 2 3 1 4 22 5 20 6 19 7 17 8 16 9 15 10 14 11 6 12
REMARK SMILES IDX 7 13 8 14 9 15 13 16 11 17 10 18 12 20 4 22 21 24 18 26
REMARK H PARENT 10 19 12 21 4 23 21 25 18 27
REMARK Flexibility Score: inf
ROOT
ATOM      1  C   UNL     1      -5.581  64.298   5.603  1.00  0.00     0.180 A 
ATOM      2  C   UNL     1      -6.882  64.700   5.252  1.00  0.00     0.208 A 
ATOM      3  C   UNL     1      -7.624  63.904   4.366  1.00  0.00     0.238 A 
ATOM      4  O   UNL     1      -8.808  64.239   4.099  1.00  0.00    -0.285 OA
ATOM      5  C   UNL     1      -7.052  62.726   3.827  1.00  0.00     0.111 A 
ATOM      6  C   UNL     1      -7.699  61.867   2.889  1.00  0.00     0.134 A 
ATOM      7  C   UNL     1      -7.089  60.660   2.524  1.00  0.00     0.093 A 
ATOM      8  C   UNL     1      -5.827  60.314   3.014  1.00  0.00     0.123 A 
ATOM      9  C   UNL     1      -5.162  61.176   3.883  1.00  0.00     0.094 A 
ATOM     10  C   UNL     1      -5.760  62.368   4.294  1.00  0.00     0.146 A 
ATOM     11  O   UNL     1      -5.097  63.155   5.132  1.00  0.00    -0.452 OA
ENDROOT
BRANCH   1  12
ATOM     12  C   UNL     1      -4.728  65.097   6.512  1.00  0.00     0.025 A 
ATOM     13  C   UNL     1      -4.683  64.835   7.893  1.00  0.00     0.016 A 
ATOM     14  C   UNL     1      -3.890  65.618   8.735  1.00  0.00     0.051 A 
ATOM     15  C   UNL     1      -3.142  66.681   8.215  1.00  0.00     0.157 A 
ATOM     16  C   UNL     1      -3.992  66.178   5.999  1.00  0.00     0.062 A 
ATOM     17  C   UNL     1      -3.196  66.964   6.840  1.00  0.00     0.158 A 
BRANCH  15  18
ATOM     18  O   UNL     1      -2.349  67.459   9.058  1.00  0.00    -0.504 OA
ATOM     19  H   UNL     1      -2.329  67.304  10.060  1.00  0.00     0.293 HD
ENDBRANCH  15  18
BRANCH  17  20
ATOM     20  O   UNL     1      -2.468  68.020   6.292  1.00  0.00    -0.504 OA
ATOM     21  H   UNL     1      -2.667  68.390   5.370  1.00  0.00     0.293 HD
ENDBRANCH  17  20
ENDBRANCH   1  12
BRANCH   2  22
ATOM     22  O   UNL     1      -7.436  65.854   5.813  1.00  0.00    -0.502 OA
ATOM     23  H   UNL     1      -7.158  66.205   6.721  1.00  0.00     0.293 HD
ENDBRANCH   2  22
BRANCH   6  24
ATOM     24  O   UNL     1      -8.917  62.162   2.270  1.00  0.00    -0.507 OA
ATOM     25  H   UNL     1      -9.517  62.935   2.522  1.00  0.00     0.293 HD
ENDBRANCH   6  24
BRANCH   8  26
ATOM     26  O   UNL     1      -5.220  59.119   2.633  1.00  0.00    -0.508 OA
ATOM     27  H   UNL     1      -5.353  58.729   1.707  1.00  0.00     0.293 HD
ENDBRANCH   8  26
TORSDOF 6
ENDMDL
MODEL 6
REMARK VINA RESULT:    -5.982     13.415     17.148
REMARK INTER + INTRA:          -7.518
REMARK INTER:                  -7.253
REMARK INTRA:                  -0.266
REMARK UNBOUND:                -0.313
REMARK SMILES O=c1c(O)c(-c2ccc(O)c(O)c2)oc2cc(O)cc(O)c12
REMARK SMILES IDX 5 1 3 2 2 3 1 4 22 5 20 6 19 7 17 8 16 9 15 10 14 11 6 12
REMARK SMILES IDX 7 13 8 14 9 15 13 16 11 17 10 18 12 20 4 22 21 24 18 26
REMARK H PARENT 10 19 12 21 4 23 21 25 18 27
REMARK Flexibility Score: inf
ROOT
ATOM      1  C   UNL     1      -6.435  63.751   5.318  1.00  0.00     0.180 A 
ATOM      2  C   UNL     1      -5.305  62.968   5.025  1.00  0.00     0.208 A 
ATOM      3  C   UNL     1      -4.471  62.557   6.076  1.00  0.00     0.238 A 
ATOM      4  O   UNL     1      -3.492  61.810   5.815  1.00  0.00    -0.285 OA
ATOM      5  C   UNL     1      -4.766  62.948   7.405  1.00  0.00     0.111 A 
ATOM      6  C   UNL     1      -3.967  62.622   8.542  1.00  0.00     0.134 A 
ATOM      7  C   UNL     1      -4.424  62.951   9.824  1.00  0.00     0.093 A 
ATOM      8  C   UNL     1      -5.620  63.651  10.005  1.00  0.00     0.123 A 
ATOM      9  C   UNL     1      -6.376  64.025   8.897  1.00  0.00     0.094 A 
ATOM     10  C   UNL     1      -5.965  63.680   7.609  1.00  0.00     0.146 A 
ATOM     11  O   UNL     1      -6.721  64.047   6.581  1.00  0.00    -0.452 OA
ENDROOT
BRANCH   1  12
ATOM     12  C   UNL     1      -7.348  64.243   4.262  1.00  0.00     0.025 A 
ATOM     13  C   UNL     1      -8.270  63.386   3.633  1.00  0.00     0.016 A 
ATOM     14  C   UNL     1      -9.104  63.866   2.621  1.00  0.00     0.051 A 
ATOM     15  C   UNL     1      -9.023  65.204   2.212  1.00  0.00     0.157 A 
ATOM     16  C   UNL     1      -7.256  65.578   3.833  1.00  0.00     0.062 A 
ATOM     17  C   UNL     1      -8.091  66.062   2.820  1.00  0.00     0.158 A 
BRANCH  15  18
ATOM     18  O   UNL     1      -9.859  65.681   1.204  1.00  0.00    -0.504 OA
ATOM     19  H   UNL     1     -10.800  65.323   1.081  1.00  0.00     0.293 HD
ENDBRANCH  15  18
BRANCH  17  20
ATOM     20  O   UNL     1      -7.980  67.397   2.432  1.00  0.00    -0.504 OA
ATOM     21  H   UNL     1      -8.793  67.985   2.288  1.00  0.00     0.293 HD
ENDBRANCH  17  20
ENDBRANCH   1  12
BRANCH   2  22
ATOM     22  O   UNL     1      -5.045  62.575   3.710  1.00  0.00    -0.502 OA
ATOM     23  H   UNL     1      -4.948  63.240   2.952  1.00  0.00     0.293 HD
ENDBRANCH   2  22
BRANCH   6  24
ATOM     24  O   UNL     1      -2.714  62.007   8.466  1.00  0.00    -0.507 OA
ATOM     25  H   UNL     1      -1.874  62.358   8.904  1.00  0.00     0.293 HD
ENDBRANCH   6  24
BRANCH   8  26
ATOM     26  O   UNL     1      -6.059  63.988  11.284  1.00  0.00    -0.508 OA
ATOM     27  H   UNL     1      -5.483  63.827  12.101  1.00  0.00     0.293 HD
ENDBRANCH   8  26
TORSDOF 6
ENDMDL
MODEL 7
REMARK VINA RESULT:    -5.873     12.725     15.149
REMARK INTER + INTRA:          -7.387
REMARK INTER:                  -7.454
REMARK INTRA:                   0.066
REMARK UNBOUND:                -0.313
REMARK SMILES O=c1c(O)c(-c2ccc(O)c(O)c2)oc2cc(O)cc(O)c12
REMARK SMILES IDX 5 1 3 2 2 3 1 4 22 5 20 6 19 7 17 8 16 9 15 10 14 11 6 12
REMARK SMILES IDX 7 13 8 14 9 15 13 16 11 17 10 18 12 20 4 22 21 24 18 26
REMARK H PARENT 10 19 12 21 4 23 21 25 18 27
REMARK Flexibility Score: inf
ROOT
ATOM      1  C   UNL     1      -5.022  63.144   5.494  1.00  0.00     0.180 A 
ATOM      2  C   UNL     1      -5.051  64.548   5.429  1.00  0.00     0.208 A 
ATOM      3  C   UNL     1      -4.378  65.288   6.414  1.00  0.00     0.238 A 
ATOM      4  O   UNL     1      -4.361  66.543   6.320  1.00  0.00    -0.285 OA
ATOM      5  C   UNL     1      -3.700  64.618   7.460  1.00  0.00     0.111 A 
ATOM      6  C   UNL     1      -3.020  65.268   8.533  1.00  0.00     0.134 A 
ATOM      7  C   UNL     1      -2.274  64.506   9.440  1.00  0.00     0.093 A 
ATOM      8  C   UNL     1      -2.237  63.113   9.351  1.00  0.00     0.123 A 
ATOM      9  C   UNL     1      -2.947  62.465   8.343  1.00  0.00     0.094 A 
ATOM     10  C   UNL     1      -3.670  63.200   7.402  1.00  0.00     0.146 A 
ATOM     11  O   UNL     1      -4.324  62.544   6.451  1.00  0.00    -0.452 OA
ENDROOT
BRANCH   1  12
ATOM     12  C   UNL     1      -5.728  62.295   4.507  1.00  0.00     0.025 A 
ATOM     13  C   UNL     1      -7.032  62.600   4.078  1.00  0.00     0.016 A 
ATOM     14  C   UNL     1      -7.687  61.771   3.164  1.00  0.00     0.051 A 
ATOM     15  C   UNL     1      -7.056  60.619   2.676  1.00  0.00     0.157 A 
ATOM     16  C   UNL     1      -5.108  61.127   4.030  1.00  0.00     0.062 A 
ATOM     17  C   UNL     1      -5.762  60.295   3.115  1.00  0.00     0.158 A 
BRANCH  15  18
ATOM     18  O   UNL     1      -7.712  59.795   1.762  1.00  0.00    -0.504 OA
ATOM     19  H   UNL     1      -8.477  60.138   1.192  1.00  0.00     0.293 HD
ENDBRANCH  15  18
BRANCH  17  20
ATOM     20  O   UNL     1      -5.109  59.152   2.653  1.00  0.00    -0.504 OA
ATOM     21  H   UNL     1      -5.118  58.281   3.171  1.00  0.00     0.293 HD
ENDBRANCH  17  20
ENDBRANCH   1  12
BRANCH   2  22
ATOM     22  O   UNL     1      -5.707  65.189   4.376  1.00  0.00    -0.502 OA
ATOM     23  H   UNL     1      -5.369  65.154   3.422  1.00  0.00     0.293 HD
ENDBRANCH   2  22
BRANCH   6  24
ATOM     24  O   UNL     1      -3.068  66.646   8.767  1.00  0.00    -0.507 OA
ATOM     25  H   UNL     1      -3.854  67.133   9.173  1.00  0.00     0.293 HD
ENDBRANCH   6  24
BRANCH   8  26
ATOM     26  O   UNL     1      -1.504  62.361  10.268  1.00  0.00    -0.508 OA
ATOM     27  H   UNL     1      -1.365  61.365  10.145  1.00  0.00     0.293 HD
ENDBRANCH   8  26
TORSDOF 6
ENDMDL
MODEL 8
REMARK VINA RESULT:    -5.854     15.049     17.039
REMARK INTER + INTRA:          -7.365
REMARK INTER:                  -7.042
REMARK INTRA:                  -0.323
REMARK UNBOUND:                -0.313
REMARK SMILES O=c1c(O)c(-c2ccc(O)c(O)c2)oc2cc(O)cc(O)c12
REMARK SMILES IDX 5 1 3 2 2 3 1 4 22 5 20 6 19 7 17 8 16 9 15 10 14 11 6 12
REMARK SMILES IDX 7 13 8 14 9 15 13 16 11 17 10 18 12 20 4 22 21 24 18 26
REMARK H PARENT 10 19 12 21 4 23 21 25 18 27
REMARK Flexibility Score: inf
ROOT
ATOM      1  C   UNL     1      -5.740  64.729   5.716  1.00  0.00     0.180 A 
ATOM      2  C   UNL     1      -5.524  63.499   5.070  1.00  0.00     0.208 A 
ATOM      3  C   UNL     1      -6.465  63.049   4.131  1.00  0.00     0.238 A 
ATOM      4  O   UNL     1      -6.239  61.974   3.516  1.00  0.00    -0.285 OA
ATOM      5  C   UNL     1      -7.619  63.824   3.862  1.00  0.00     0.111 A 
ATOM      6  C   UNL     1      -8.658  63.445   2.961  1.00  0.00     0.134 A 
ATOM      7  C   UNL     1      -9.688  64.349   2.674  1.00  0.00     0.093 A 
ATOM      8  C   UNL     1      -9.751  65.593   3.307  1.00  0.00     0.123 A 
ATOM      9  C   UNL     1      -8.773  65.948   4.233  1.00  0.00     0.094 A 
ATOM     10  C   UNL     1      -7.714  65.082   4.512  1.00  0.00     0.146 A 
ATOM     11  O   UNL     1      -6.798  65.464   5.394  1.00  0.00    -0.452 OA
ENDROOT
BRANCH   1  12
ATOM     12  C   UNL     1      -4.805  65.259   6.734  1.00  0.00     0.025 A 
ATOM     13  C   UNL     1      -4.870  64.842   8.076  1.00  0.00     0.016 A 
ATOM     14  C   UNL     1      -3.994  65.374   9.025  1.00  0.00     0.051 A 
ATOM     15  C   UNL     1      -3.049  66.339   8.653  1.00  0.00     0.157 A 
ATOM     16  C   UNL     1      -3.870  66.243   6.371  1.00  0.00     0.062 A 
ATOM     17  C   UNL     1      -2.990  66.777   7.319  1.00  0.00     0.158 A 
BRANCH  15  18
ATOM     18  O   UNL     1      -2.175  66.866   9.601  1.00  0.00    -0.504 OA
ATOM     19  H   UNL     1      -2.382  67.727  10.094  1.00  0.00     0.293 HD
ENDBRANCH  15  18
BRANCH  17  20
ATOM     20  O   UNL     1      -2.066  67.741   6.917  1.00  0.00    -0.504 OA
ATOM     21  H   UNL     1      -1.891  67.945   5.941  1.00  0.00     0.293 HD
ENDBRANCH  17  20
ENDBRANCH   1  12
BRANCH   2  22
ATOM     22  O   UNL     1      -4.367  62.761   5.334  1.00  0.00    -0.502 OA
ATOM     23  H   UNL     1      -4.296  61.771   5.134  1.00  0.00     0.293 HD
ENDBRANCH   2  22
BRANCH   6  24
ATOM     24  O   UNL     1      -8.740  62.192   2.346  1.00  0.00    -0.507 OA
ATOM     25  H   UNL     1      -8.035  61.471   2.414  1.00  0.00     0.293 HD
ENDBRANCH   6  24
BRANCH   8  26
ATOM     26  O   UNL     1     -10.788  66.481   3.027  1.00  0.00    -0.508 OA
ATOM     27  H   UNL     1     -10.632  67.482   2.987  1.00  0.00     0.293 HD
ENDBRANCH   8  26
TORSDOF 6
ENDMDL
MODEL 9
REMARK VINA RESULT:    -5.748     12.435     14.549
REMARK INTER + INTRA:          -7.237
REMARK INTER:                  -6.916
REMARK INTRA:                  -0.321
REMARK UNBOUND:                -0.313
REMARK SMILES O=c1c(O)c(-c2ccc(O)c(O)c2)oc2cc(O)cc(O)c12
REMARK SMILES IDX 5 1 3 2 2 3 1 4 22 5 20 6 19 7 17 8 16 9 15 10 14 11 6 12
REMARK SMILES IDX 7 13 8 14 9 15 13 16 11 17 10 18 12 20 4 22 21 24 18 26
REMARK H PARENT 10 19 12 21 4 23 21 25 18 27
REMARK Flexibility Score: inf
ROOT
ATOM      1  C   UNL     1      -5.436  62.598   6.440  1.00  0.00     0.180 A 
ATOM      2  C   UNL     1      -6.183  63.781   6.305  1.00  0.00     0.208 A 
ATOM      3  C   UNL     1      -7.068  63.907   5.223  1.00  0.00     0.238 A 
ATOM      4  O   UNL     1      -7.774  64.946   5.138  1.00  0.00    -0.285 OA
ATOM      5  C   UNL     1      -7.185  62.857   4.281  1.00  0.00     0.111 A 
ATOM      6  C   UNL     1      -8.020  62.894   3.125  1.00  0.00     0.134 A 
ATOM      7  C   UNL     1      -8.155  61.747   2.333  1.00  0.00     0.093 A 
ATOM      8  C   UNL     1      -7.433  60.585   2.619  1.00  0.00     0.123 A 
ATOM      9  C   UNL     1      -6.569  60.559   3.711  1.00  0.00     0.094 A 
ATOM     10  C   UNL     1      -6.442  61.675   4.540  1.00  0.00     0.146 A 
ATOM     11  O   UNL     1      -5.615  61.605   5.577  1.00  0.00    -0.452 OA
ENDROOT
BRANCH   1  12
ATOM     12  C   UNL     1      -4.464  62.401   7.540  1.00  0.00     0.025 A 
ATOM     13  C   UNL     1      -4.845  61.807   8.756  1.00  0.00     0.016 A 
ATOM     14  C   UNL     1      -3.917  61.654   9.789  1.00  0.00     0.051 A 
ATOM     15  C   UNL     1      -2.600  62.103   9.629  1.00  0.00     0.157 A 
ATOM     16  C   UNL     1      -3.148  62.869   7.392  1.00  0.00     0.062 A 
ATOM     17  C   UNL     1      -2.216  62.717   8.425  1.00  0.00     0.158 A 
BRANCH  15  18
ATOM     18  O   UNL     1      -1.676  61.946  10.660  1.00  0.00    -0.504 OA
ATOM     19  H   UNL     1      -0.724  62.286  10.577  1.00  0.00     0.293 HD
ENDBRANCH  15  18
BRANCH  17  20
ATOM     20  O   UNL     1      -0.914  63.181   8.236  1.00  0.00    -0.504 OA
ATOM     21  H   UNL     1      -0.171  62.579   7.899  1.00  0.00     0.293 HD
ENDBRANCH  17  20
ENDBRANCH   1  12
BRANCH   2  22
ATOM     22  O   UNL     1      -6.069  64.796   7.258  1.00  0.00    -0.502 OA
ATOM     23  H   UNL     1      -6.051  65.778   7.009  1.00  0.00     0.293 HD
ENDBRANCH   2  22
BRANCH   6  24
ATOM     24  O   UNL     1      -8.713  64.031   2.698  1.00  0.00    -0.507 OA
ATOM     25  H   UNL     1      -9.718  64.130   2.710  1.00  0.00     0.293 HD
ENDBRANCH   6  24
BRANCH   8  26
ATOM     26  O   UNL     1      -7.562  59.453   1.817  1.00  0.00    -0.508 OA
ATOM     27  H   UNL     1      -6.774  58.844   1.630  1.00  0.00     0.293 HD
ENDBRANCH   8  26
TORSDOF 6
ENDMDL
