MODEL 1
REMARK VINA RESULT:    -1.587      0.000      0.000
REMARK INTER + INTRA:          -4.099
REMARK INTER:                  -2.515
REMARK INTRA:                  -1.583
REMARK UNBOUND:                -1.583
REMARK SMILES CCCCCCCCCCCC(=O)[O-]
REMARK SMILES IDX 7 1 8 2 9 3 10 4 11 5 12 6 13 7 14 8 6 9 5 10 4 11 3 12 2 13
REMARK SMILES IDX 1 14
REMARK H PARENT
REMARK Flexibility Score: inf
ROOT
ATOM      1  C   UNL     1     -30.698 -36.124  13.744  1.00  0.00     0.000 C 
ENDROOT
BRANCH   1   2
ATOM      2  C   UNL     1     -30.721 -35.828  15.250  1.00  0.00     0.000 C 
BRANCH   2   3
ATOM      3  C   UNL     1     -30.486 -34.342  15.566  1.00  0.00     0.000 C 
BRANCH   3   4
ATOM      4  C   UNL     1     -31.488 -33.790  16.596  1.00  0.00     0.006 C 
BRANCH   4   5
ATOM      5  C   UNL     1     -32.500 -32.828  15.961  1.00  0.00     0.053 C 
BRANCH   5   6
ATOM      6  C   UNL     1     -31.824 -31.777  15.135  1.00  0.00     0.041 C 
ATOM      7  O   UNL     1     -32.104 -31.654  13.913  1.00  0.00    -0.550 OA
ATOM      8  O   UNL     1     -30.912 -30.908  15.722  1.00  0.00    -0.550 OA
ENDBRANCH   5   6
ENDBRANCH   4   5
ENDBRANCH   3   4
ENDBRANCH   2   3
ENDBRANCH   1   2
BRANCH   1   9
ATOM      9  C   UNL     1     -30.360 -34.862  12.942  1.00  0.00     0.000 C 
BRANCH   9  10
ATOM     10  C   UNL     1     -31.475 -34.526  11.945  1.00  0.00    -0.000 C 
BRANCH  10  11
ATOM     11  C   UNL     1     -32.663 -35.482  12.104  1.00  0.00    -0.000 C 
BRANCH  11  12
ATOM     12  C   UNL     1     -33.985 -34.706  12.201  1.00  0.00    -0.000 C 
BRANCH  12  13
ATOM     13  C   UNL     1     -34.486 -34.571  13.647  1.00  0.00    -0.003 C 
ATOM     14  C   UNL     1     -34.402 -35.883  14.428  1.00  0.00     0.004 C 
ENDBRANCH  12  13
ENDBRANCH  11  12
ENDBRANCH  10  11
ENDBRANCH   9  10
ENDBRANCH   1   9
TORSDOF 10
ENDMDL
MODEL 2
REMARK VINA RESULT:    -1.572      2.338      3.902
REMARK INTER + INTRA:          -4.075
REMARK INTER:                  -2.789
REMARK INTRA:                  -1.285
REMARK UNBOUND:                -1.583
REMARK SMILES CCCCCCCCCCCC(=O)[O-]
REMARK SMILES IDX 7 1 8 2 9 3 10 4 11 5 12 6 13 7 14 8 6 9 5 10 4 11 3 12 2 13
REMARK SMILES IDX 1 14
REMARK H PARENT
REMARK Flexibility Score: inf
ROOT
ATOM      1  C   UNL     1     -33.857 -33.920  14.043  1.00  0.00     0.000 C 
ENDROOT
BRANCH   1   2
ATOM      2  C   UNL     1     -35.125 -34.662  14.488  1.00  0.00     0.000 C 
BRANCH   2   3
ATOM      3  C   UNL     1     -34.844 -35.720  15.567  1.00  0.00     0.000 C 
BRANCH   3   4
ATOM      4  C   UNL     1     -33.360 -35.774  15.972  1.00  0.00     0.006 C 
BRANCH   4   5
ATOM      5  C   UNL     1     -33.168 -35.639  17.487  1.00  0.00     0.053 C 
BRANCH   5   6
ATOM      6  C   UNL     1     -33.762 -34.368  18.012  1.00  0.00     0.041 C 
ATOM      7  O   UNL     1     -34.622 -34.404  18.933  1.00  0.00    -0.550 OA
ATOM      8  O   UNL     1     -33.341 -33.143  17.511  1.00  0.00    -0.550 OA
ENDBRANCH   5   6
ENDBRANCH   4   5
ENDBRANCH   3   4
ENDBRANCH   2   3
ENDBRANCH   1   2
BRANCH   1   9
ATOM      9  C   UNL     1     -33.742 -33.898  12.514  1.00  0.00     0.000 C 
BRANCH   9  10
ATOM     10  C   UNL     1     -33.333 -35.272  11.972  1.00  0.00    -0.000 C 
BRANCH  10  11
ATOM     11  C   UNL     1     -32.047 -35.770  12.643  1.00  0.00    -0.000 C 
BRANCH  11  12
ATOM     12  C   UNL     1     -30.863 -34.849  12.315  1.00  0.00    -0.000 C 
BRANCH  12  13
ATOM     13  C   UNL     1     -30.153 -34.328  13.574  1.00  0.00    -0.003 C 
ATOM     14  C   UNL     1     -30.000 -35.400  14.654  1.00  0.00     0.004 C 
ENDBRANCH  12  13
ENDBRANCH  11  12
ENDBRANCH  10  11
ENDBRANCH   9  10
ENDBRANCH   1   9
TORSDOF 10
ENDMDL
MODEL 3
REMARK VINA RESULT:    -1.564     22.509     24.800
REMARK INTER + INTRA:          -4.061
REMARK INTER:                  -2.406
REMARK INTRA:                  -1.656
REMARK UNBOUND:                -1.583
REMARK SMILES CCCCCCCCCCCC(=O)[O-]
REMARK SMILES IDX 7 1 8 2 9 3 10 4 11 5 12 6 13 7 14 8 6 9 5 10 4 11 3 12 2 13
REMARK SMILES IDX 1 14
REMARK H PARENT
REMARK Flexibility Score: inf
ROOT
ATOM      1  C   UNL     1     -18.080 -20.524  32.017  1.00  0.00     0.000 C 
ENDROOT
BRANCH   1   2
ATOM      2  C   UNL     1     -19.019 -21.685  31.661  1.00  0.00     0.000 C 
BRANCH   2   3
ATOM      3  C   UNL     1     -19.709 -21.493  30.301  1.00  0.00     0.000 C 
BRANCH   3   4
ATOM      4  C   UNL     1     -19.417 -22.644  29.321  1.00  0.00     0.006 C 
BRANCH   4   5
ATOM      5  C   UNL     1     -19.658 -24.019  29.955  1.00  0.00     0.053 C 
BRANCH   5   6
ATOM      6  C   UNL     1     -18.484 -24.930  29.769  1.00  0.00     0.041 C 
ATOM      7  O   UNL     1     -17.978 -25.087  28.626  1.00  0.00    -0.550 OA
ATOM      8  O   UNL     1     -17.925 -25.579  30.863  1.00  0.00    -0.550 OA
ENDBRANCH   5   6
ENDBRANCH   4   5
ENDBRANCH   3   4
ENDBRANCH   2   3
ENDBRANCH   1   2
BRANCH   1   9
ATOM      9  C   UNL     1     -16.615 -20.974  31.987  1.00  0.00     0.000 C 
BRANCH   9  10
ATOM     10  C   UNL     1     -16.508 -22.503  31.942  1.00  0.00    -0.000 C 
BRANCH  10  11
ATOM     11  C   UNL     1     -15.543 -22.956  30.839  1.00  0.00    -0.000 C 
BRANCH  11  12
ATOM     12  C   UNL     1     -15.322 -21.840  29.808  1.00  0.00    -0.000 C 
BRANCH  12  13
ATOM     13  C   UNL     1     -15.897 -22.187  28.427  1.00  0.00    -0.003 C 
ATOM     14  C   UNL     1     -16.494 -20.974  27.712  1.00  0.00     0.004 C 
ENDBRANCH  12  13
ENDBRANCH  11  12
ENDBRANCH  10  11
ENDBRANCH   9  10
ENDBRANCH   1   9
TORSDOF 10
ENDMDL
MODEL 4
REMARK VINA RESULT:    -1.563      2.439      2.898
REMARK INTER + INTRA:          -4.059
REMARK INTER:                  -2.847
REMARK INTRA:                  -1.213
REMARK UNBOUND:                -1.583
REMARK SMILES CCCCCCCCCCCC(=O)[O-]
REMARK SMILES IDX 7 1 8 2 9 3 10 4 11 5 12 6 13 7 14 8 6 9 5 10 4 11 3 12 2 13
REMARK SMILES IDX 1 14
REMARK H PARENT
REMARK Flexibility Score: inf
ROOT
ATOM      1  C   UNL     1     -30.774 -35.057  12.878  1.00  0.00     0.000 C 
ENDROOT
BRANCH   1   2
ATOM      2  C   UNL     1     -30.220 -35.178  14.305  1.00  0.00     0.000 C 
BRANCH   2   3
ATOM      3  C   UNL     1     -31.212 -34.681  15.369  1.00  0.00     0.000 C 
BRANCH   3   4
ATOM      4  C   UNL     1     -31.939 -35.833  16.085  1.00  0.00     0.006 C 
BRANCH   4   5
ATOM      5  C   UNL     1     -31.873 -35.698  17.612  1.00  0.00     0.053 C 
BRANCH   5   6
ATOM      6  C   UNL     1     -33.062 -34.967  18.156  1.00  0.00     0.041 C 
ATOM      7  O   UNL     1     -34.158 -35.568  18.314  1.00  0.00    -0.550 OA
ATOM      8  O   UNL     1     -32.950 -33.631  18.523  1.00  0.00    -0.550 OA
ENDBRANCH   5   6
ENDBRANCH   4   5
ENDBRANCH   3   4
ENDBRANCH   2   3
ENDBRANCH   1   2
BRANCH   1   9
ATOM      9  C   UNL     1     -31.840 -36.125  12.610  1.00  0.00     0.000 C 
BRANCH   9  10
ATOM     10  C   UNL     1     -33.186 -35.483  12.252  1.00  0.00    -0.000 C 
BRANCH  10  11
ATOM     11  C   UNL     1     -33.034 -33.975  12.022  1.00  0.00    -0.000 C 
BRANCH  11  12
ATOM     12  C   UNL     1     -33.796 -33.175  13.088  1.00  0.00    -0.000 C 
BRANCH  12  13
ATOM     13  C   UNL     1     -35.055 -33.902  13.584  1.00  0.00    -0.003 C 
ATOM     14  C   UNL     1     -35.070 -34.092  15.101  1.00  0.00     0.004 C 
ENDBRANCH  12  13
ENDBRANCH  11  12
ENDBRANCH  10  11
ENDBRANCH   9  10
ENDBRANCH   1   9
TORSDOF 10
ENDMDL
MODEL 5
REMARK VINA RESULT:    -1.554      2.387      3.492
REMARK INTER + INTRA:          -4.045
REMARK INTER:                  -2.656
REMARK INTRA:                  -1.389
REMARK UNBOUND:                -1.583
REMARK SMILES CCCCCCCCCCCC(=O)[O-]
REMARK SMILES IDX 7 1 8 2 9 3 10 4 11 5 12 6 13 7 14 8 6 9 5 10 4 11 3 12 2 13
REMARK SMILES IDX 1 14
REMARK H PARENT
REMARK Flexibility Score: inf
ROOT
ATOM      1  C   UNL     1     -31.294 -33.023  15.661  1.00  0.00     0.000 C 
ENDROOT
BRANCH   1   2
ATOM      2  C   UNL     1     -32.139 -32.365  14.561  1.00  0.00     0.000 C 
BRANCH   2   3
ATOM      3  C   UNL     1     -33.604 -32.164  14.981  1.00  0.00     0.000 C 
BRANCH   3   4
ATOM      4  C   UNL     1     -33.944 -32.873  16.303  1.00  0.00     0.006 C 
BRANCH   4   5
ATOM      5  C   UNL     1     -34.837 -34.101  16.088  1.00  0.00     0.053 C 
BRANCH   5   6
ATOM      6  C   UNL     1     -34.123 -35.373  16.428  1.00  0.00     0.041 C 
ATOM      7  O   UNL     1     -33.696 -36.125  15.510  1.00  0.00    -0.550 OA
ATOM      8  O   UNL     1     -33.896 -35.712  17.756  1.00  0.00    -0.550 OA
ENDBRANCH   5   6
ENDBRANCH   4   5
ENDBRANCH   3   4
ENDBRANCH   2   3
ENDBRANCH   1   2
BRANCH   1   9
ATOM      9  C   UNL     1     -30.714 -34.359  15.183  1.00  0.00     0.000 C 
BRANCH   9  10
ATOM     10  C   UNL     1     -30.199 -34.253  13.742  1.00  0.00    -0.000 C 
BRANCH  10  11
ATOM     11  C   UNL     1     -30.763 -35.381  12.870  1.00  0.00    -0.000 C 
BRANCH  11  12
ATOM     12  C   UNL     1     -31.801 -34.841  11.875  1.00  0.00    -0.000 C 
BRANCH  12  13
ATOM     13  C   UNL     1     -33.235 -35.261  12.230  1.00  0.00    -0.003 C 
ATOM     14  C   UNL     1     -34.263 -34.169  11.930  1.00  0.00     0.004 C 
ENDBRANCH  12  13
ENDBRANCH  11  12
ENDBRANCH  10  11
ENDBRANCH   9  10
ENDBRANCH   1   9
TORSDOF 10
ENDMDL
MODEL 6
REMARK VINA RESULT:    -1.537      2.193      3.622
REMARK INTER + INTRA:          -4.019
REMARK INTER:                  -2.738
REMARK INTRA:                  -1.281
REMARK UNBOUND:                -1.583
REMARK SMILES CCCCCCCCCCCC(=O)[O-]
REMARK SMILES IDX 7 1 8 2 9 3 10 4 11 5 12 6 13 7 14 8 6 9 5 10 4 11 3 12 2 13
REMARK SMILES IDX 1 14
REMARK H PARENT
REMARK Flexibility Score: inf
ROOT
ATOM      1  C   UNL     1     -34.117 -36.121  14.119  1.00  0.00     0.000 C 
ENDROOT
BRANCH   1   2
ATOM      2  C   UNL     1     -34.526 -34.736  14.639  1.00  0.00     0.000 C 
BRANCH   2   3
ATOM      3  C   UNL     1     -34.116 -34.509  16.104  1.00  0.00     0.000 C 
BRANCH   3   4
ATOM      4  C   UNL     1     -32.892 -35.347  16.513  1.00  0.00     0.006 C 
BRANCH   4   5
ATOM      5  C   UNL     1     -32.684 -35.364  18.032  1.00  0.00     0.053 C 
BRANCH   5   6
ATOM      6  C   UNL     1     -31.898 -34.178  18.499  1.00  0.00     0.041 C 
ATOM      7  O   UNL     1     -32.031 -33.754  19.679  1.00  0.00    -0.550 OA
ATOM      8  O   UNL     1     -30.993 -33.561  17.645  1.00  0.00    -0.550 OA
ENDBRANCH   5   6
ENDBRANCH   4   5
ENDBRANCH   3   4
ENDBRANCH   2   3
ENDBRANCH   1   2
BRANCH   1   9
ATOM      9  C   UNL     1     -33.601 -36.035  12.678  1.00  0.00     0.000 C 
BRANCH   9  10
ATOM     10  C   UNL     1     -32.079 -35.852  12.647  1.00  0.00    -0.000 C 
BRANCH  10  11
ATOM     11  C   UNL     1     -31.694 -34.557  11.921  1.00  0.00    -0.000 C 
BRANCH  11  12
ATOM     12  C   UNL     1     -30.710 -33.728  12.760  1.00  0.00    -0.000 C 
BRANCH  12  13
ATOM     13  C   UNL     1     -31.417 -32.838  13.793  1.00  0.00    -0.003 C 
ATOM     14  C   UNL     1     -32.485 -31.941  13.167  1.00  0.00     0.004 C 
ENDBRANCH  12  13
ENDBRANCH  11  12
ENDBRANCH  10  11
ENDBRANCH   9  10
ENDBRANCH   1   9
TORSDOF 10
ENDMDL
MODEL 7
REMARK VINA RESULT:    -1.503     22.348     24.473
REMARK INTER + INTRA:          -3.965
REMARK INTER:                  -2.422
REMARK INTRA:                  -1.542
REMARK UNBOUND:                -1.583
REMARK SMILES CCCCCCCCCCCC(=O)[O-]
REMARK SMILES IDX 7 1 8 2 9 3 10 4 11 5 12 6 13 7 14 8 6 9 5 10 4 11 3 12 2 13
REMARK SMILES IDX 1 14
REMARK H PARENT
REMARK Flexibility Score: inf
ROOT
ATOM      1  C   UNL     1     -18.819 -24.569  29.105  1.00  0.00     0.000 C 
ENDROOT
BRANCH   1   2
ATOM      2  C   UNL     1     -18.617 -23.389  28.144  1.00  0.00     0.000 C 
BRANCH   2   3
ATOM      3  C   UNL     1     -19.048 -22.047  28.757  1.00  0.00     0.000 C 
BRANCH   3   4
ATOM      4  C   UNL     1     -20.184 -22.201  29.783  1.00  0.00     0.006 C 
BRANCH   4   5
ATOM      5  C   UNL     1     -19.943 -21.361  31.044  1.00  0.00     0.053 C 
BRANCH   5   6
ATOM      6  C   UNL     1     -20.869 -20.186  31.114  1.00  0.00     0.041 C 
ATOM      7  O   UNL     1     -21.804 -20.065  30.278  1.00  0.00    -0.550 OA
ATOM      8  O   UNL     1     -20.724 -19.243  32.124  1.00  0.00    -0.550 OA
ENDBRANCH   5   6
ENDBRANCH   4   5
ENDBRANCH   3   4
ENDBRANCH   2   3
ENDBRANCH   1   2
BRANCH   1   9
ATOM      9  C   UNL     1     -17.503 -24.946  29.796  1.00  0.00     0.000 C 
BRANCH   9  10
ATOM     10  C   UNL     1     -17.487 -24.466  31.252  1.00  0.00    -0.000 C 
BRANCH  10  11
ATOM     11  C   UNL     1     -16.147 -23.807  31.600  1.00  0.00    -0.000 C 
BRANCH  11  12
ATOM     12  C   UNL     1     -16.356 -22.379  32.125  1.00  0.00    -0.000 C 
BRANCH  12  13
ATOM     13  C   UNL     1     -16.239 -21.319  31.019  1.00  0.00    -0.003 C 
ATOM     14  C   UNL     1     -15.432 -21.807  29.815  1.00  0.00     0.004 C 
ENDBRANCH  12  13
ENDBRANCH  11  12
ENDBRANCH  10  11
ENDBRANCH   9  10
ENDBRANCH   1   9
TORSDOF 10
ENDMDL
MODEL 8
REMARK VINA RESULT:    -1.480      1.680      2.214
REMARK INTER + INTRA:          -3.928
REMARK INTER:                  -2.285
REMARK INTRA:                  -1.643
REMARK UNBOUND:                -1.583
REMARK SMILES CCCCCCCCCCCC(=O)[O-]
REMARK SMILES IDX 7 1 8 2 9 3 10 4 11 5 12 6 13 7 14 8 6 9 5 10 4 11 3 12 2 13
REMARK SMILES IDX 1 14
REMARK H PARENT
REMARK Flexibility Score: inf
ROOT
ATOM      1  C   UNL     1     -30.799 -33.874  13.171  1.00  0.00     0.000 C 
ENDROOT
BRANCH   1   2
ATOM      2  C   UNL     1     -30.357 -34.994  14.123  1.00  0.00     0.000 C 
BRANCH   2   3
ATOM      3  C   UNL     1     -30.640 -34.664  15.598  1.00  0.00     0.000 C 
BRANCH   3   4
ATOM      4  C   UNL     1     -31.028 -33.190  15.811  1.00  0.00     0.006 C 
BRANCH   4   5
ATOM      5  C   UNL     1     -32.267 -33.040  16.703  1.00  0.00     0.053 C 
BRANCH   5   6
ATOM      6  C   UNL     1     -31.966 -32.259  17.945  1.00  0.00     0.041 C 
ATOM      7  O   UNL     1     -31.077 -32.657  18.745  1.00  0.00    -0.550 OA
ATOM      8  O   UNL     1     -32.640 -31.071  18.202  1.00  0.00    -0.550 OA
ENDBRANCH   5   6
ENDBRANCH   4   5
ENDBRANCH   3   4
ENDBRANCH   2   3
ENDBRANCH   1   2
BRANCH   1   9
ATOM      9  C   UNL     1     -31.404 -34.451  11.887  1.00  0.00     0.000 C 
BRANCH   9  10
ATOM     10  C   UNL     1     -32.894 -34.766  12.072  1.00  0.00    -0.000 C 
BRANCH  10  11
ATOM     11  C   UNL     1     -33.583 -33.690  12.919  1.00  0.00    -0.000 C 
BRANCH  11  12
ATOM     12  C   UNL     1     -34.518 -34.323  13.959  1.00  0.00    -0.000 C 
BRANCH  12  13
ATOM     13  C   UNL     1     -34.199 -35.803  14.218  1.00  0.00    -0.003 C 
ATOM     14  C   UNL     1     -34.048 -36.125  15.705  1.00  0.00     0.004 C 
ENDBRANCH  12  13
ENDBRANCH  11  12
ENDBRANCH  10  11
ENDBRANCH   9  10
ENDBRANCH   1   9
TORSDOF 10
ENDMDL
MODEL 9
REMARK VINA RESULT:    -1.450     22.471     24.513
REMARK INTER + INTRA:          -3.882
REMARK INTER:                  -2.367
REMARK INTRA:                  -1.515
REMARK UNBOUND:                -1.583
REMARK SMILES CCCCCCCCCCCC(=O)[O-]
REMARK SMILES IDX 7 1 8 2 9 3 10 4 11 5 12 6 13 7 14 8 6 9 5 10 4 11 3 12 2 13
REMARK SMILES IDX 1 14
REMARK H PARENT
REMARK Flexibility Score: inf
ROOT
ATOM      1  C   UNL     1     -15.435 -25.957  29.975  1.00  0.00     0.000 C 
ENDROOT
BRANCH   1   2
ATOM      2  C   UNL     1     -16.861 -26.315  29.536  1.00  0.00     0.000 C 
BRANCH   2   3
ATOM      3  C   UNL     1     -17.741 -25.074  29.311  1.00  0.00     0.000 C 
BRANCH   3   4
ATOM      4  C   UNL     1     -18.874 -24.956  30.346  1.00  0.00     0.006 C 
BRANCH   4   5
ATOM      5  C   UNL     1     -19.977 -23.994  29.889  1.00  0.00     0.053 C 
BRANCH   5   6
ATOM      6  C   UNL     1     -19.804 -22.629  30.480  1.00  0.00     0.041 C 
ATOM      7  O   UNL     1     -19.795 -22.477  31.731  1.00  0.00    -0.550 OA
ATOM      8  O   UNL     1     -19.614 -21.529  29.652  1.00  0.00    -0.550 OA
ENDBRANCH   5   6
ENDBRANCH   4   5
ENDBRANCH   3   4
ENDBRANCH   2   3
ENDBRANCH   1   2
BRANCH   1   9
ATOM      9  C   UNL     1     -15.402 -25.542  31.450  1.00  0.00     0.000 C 
BRANCH   9  10
ATOM     10  C   UNL     1     -14.893 -24.104  31.608  1.00  0.00    -0.000 C 
BRANCH  10  11
ATOM     11  C   UNL     1     -16.002 -23.180  32.125  1.00  0.00    -0.000 C 
BRANCH  11  12
ATOM     12  C   UNL     1     -16.217 -21.993  31.175  1.00  0.00    -0.000 C 
BRANCH  12  13
ATOM     13  C   UNL     1     -15.508 -22.180  29.825  1.00  0.00    -0.003 C 
ATOM     14  C   UNL     1     -16.220 -21.463  28.678  1.00  0.00     0.004 C 
ENDBRANCH  12  13
ENDBRANCH  11  12
ENDBRANCH  10  11
ENDBRANCH   9  10
ENDBRANCH   1   9
TORSDOF 10
ENDMDL
