MODEL 1
REMARK VINA RESULT:    -6.787      0.000      0.000
REMARK INTER + INTRA:          -7.183
REMARK INTER:                  -7.183
REMARK INTRA:                   0.000
REMARK UNBOUND:                 0.000
REMARK SMILES O=c1ccc2cc(O)c(O)cc2o1
REMARK SMILES IDX 4 1 3 2 2 3 1 4 13 5 12 6 11 7 9 8 7 9 6 10 5 11 8 12 10 14
REMARK H PARENT 8 13 10 15
REMARK Flexibility Score: inf
ROOT
ATOM      1  C   UNL     1      81.966  61.583   7.389  1.00  0.00     0.019 A 
ATOM      2  C   UNL     1      83.157  61.403   6.684  1.00  0.00     0.094 A 
ATOM      3  C   UNL     1      84.368  61.730   7.304  1.00  0.00     0.336 A 
ATOM      4  O   UNL     1      85.452  61.574   6.684  1.00  0.00    -0.246 OA
ATOM      5  O   UNL     1      84.382  62.204   8.547  1.00  0.00    -0.423 OA
ATOM      6  C   UNL     1      83.271  62.391   9.254  1.00  0.00     0.142 A 
ATOM      7  C   UNL     1      83.348  62.894  10.556  1.00  0.00     0.098 A 
ATOM      8  C   UNL     1      82.178  63.092  11.306  1.00  0.00     0.161 A 
ATOM      9  C   UNL     1      80.928  62.788  10.750  1.00  0.00     0.158 A 
ATOM     10  C   UNL     1      80.844  62.284   9.444  1.00  0.00     0.062 A 
ATOM     11  C   UNL     1      82.012  62.084   8.694  1.00  0.00     0.022 A 
ENDROOT
BRANCH   9  12
ATOM     12  O   UNL     1      79.772  62.989  11.502  1.00  0.00    -0.504 OA
ATOM     13  H   UNL     1      79.792  62.995  12.516  1.00  0.00     0.293 HD
ENDBRANCH   9  12
BRANCH   8  14
ATOM     14  O   UNL     1      82.252  63.593  12.605  1.00  0.00    -0.504 OA
ATOM     15  H   UNL     1      83.006  64.204  12.896  1.00  0.00     0.293 HD
ENDBRANCH   8  14
TORSDOF 2
ENDMDL
MODEL 2
REMARK VINA RESULT:    -6.538      1.861      3.628
REMARK INTER + INTRA:          -6.921
REMARK INTER:                  -6.921
REMARK INTRA:                   0.000
REMARK UNBOUND:                 0.000
REMARK SMILES O=c1ccc2cc(O)c(O)cc2o1
REMARK SMILES IDX 4 1 3 2 2 3 1 4 13 5 12 6 11 7 9 8 7 9 6 10 5 11 8 12 10 14
REMARK H PARENT 8 13 10 15
REMARK Flexibility Score: inf
ROOT
ATOM      1  C   UNL     1      81.390  61.479   7.254  1.00  0.00     0.019 A 
ATOM      2  C   UNL     1      80.059  61.197   6.944  1.00  0.00     0.094 A 
ATOM      3  C   UNL     1      79.079  61.396   7.923  1.00  0.00     0.336 A 
ATOM      4  O   UNL     1      77.872  61.147   7.662  1.00  0.00    -0.246 OA
ATOM      5  O   UNL     1      79.412  61.846   9.129  1.00  0.00    -0.423 OA
ATOM      6  C   UNL     1      80.668  62.127   9.466  1.00  0.00     0.142 A 
ATOM      7  C   UNL     1      80.959  62.598  10.750  1.00  0.00     0.098 A 
ATOM      8  C   UNL     1      82.283  62.896  11.109  1.00  0.00     0.161 A 
ATOM      9  C   UNL     1      83.319  62.721  10.181  1.00  0.00     0.158 A 
ATOM     10  C   UNL     1      83.033  62.249   8.891  1.00  0.00     0.062 A 
ATOM     11  C   UNL     1      81.711  61.952   8.530  1.00  0.00     0.022 A 
ENDROOT
BRANCH   9  12
ATOM     12  O   UNL     1      84.630  63.019  10.547  1.00  0.00    -0.504 OA
ATOM     13  H   UNL     1      84.913  63.963  10.782  1.00  0.00     0.293 HD
ENDBRANCH   9  12
BRANCH   8  14
ATOM     14  O   UNL     1      82.576  63.365  12.389  1.00  0.00    -0.504 OA
ATOM     15  H   UNL     1      82.418  62.795  13.211  1.00  0.00     0.293 HD
ENDBRANCH   8  14
TORSDOF 2
ENDMDL
MODEL 3
REMARK VINA RESULT:    -6.533      1.509      2.171
REMARK INTER + INTRA:          -6.915
REMARK INTER:                  -6.915
REMARK INTRA:                   0.000
REMARK UNBOUND:                 0.000
REMARK SMILES O=c1ccc2cc(O)c(O)cc2o1
REMARK SMILES IDX 4 1 3 2 2 3 1 4 13 5 12 6 11 7 9 8 7 9 6 10 5 11 8 12 10 14
REMARK H PARENT 8 13 10 15
REMARK Flexibility Score: inf
ROOT
ATOM      1  C   UNL     1      82.164  61.507   6.990  1.00  0.00     0.019 A 
ATOM      2  C   UNL     1      83.534  61.730   7.126  1.00  0.00     0.094 A 
ATOM      3  C   UNL     1      84.019  62.255   8.330  1.00  0.00     0.336 A 
ATOM      4  O   UNL     1      85.252  62.464   8.471  1.00  0.00    -0.246 OA
ATOM      5  O   UNL     1      83.184  62.536   9.327  1.00  0.00    -0.423 OA
ATOM      6  C   UNL     1      81.872  62.337   9.239  1.00  0.00     0.142 A 
ATOM      7  C   UNL     1      81.043  62.652  10.321  1.00  0.00     0.098 A 
ATOM      8  C   UNL     1      79.658  62.444  10.232  1.00  0.00     0.161 A 
ATOM      9  C   UNL     1      79.100  61.922   9.057  1.00  0.00     0.158 A 
ATOM     10  C   UNL     1      79.926  61.605   7.968  1.00  0.00     0.062 A 
ATOM     11  C   UNL     1      81.310  61.811   8.056  1.00  0.00     0.022 A 
ENDROOT
BRANCH   9  12
ATOM     12  O   UNL     1      77.724  61.719   8.978  1.00  0.00    -0.504 OA
ATOM     13  H   UNL     1      77.090  62.109   9.667  1.00  0.00     0.293 HD
ENDBRANCH   9  12
BRANCH   8  14
ATOM     14  O   UNL     1      78.830  62.756  11.309  1.00  0.00    -0.504 OA
ATOM     15  H   UNL     1      79.151  63.339  12.073  1.00  0.00     0.293 HD
ENDBRANCH   8  14
TORSDOF 2
ENDMDL
MODEL 4
REMARK VINA RESULT:    -6.449      1.882      2.684
REMARK INTER + INTRA:          -6.826
REMARK INTER:                  -6.826
REMARK INTRA:                   0.000
REMARK UNBOUND:                 0.000
REMARK SMILES O=c1ccc2cc(O)c(O)cc2o1
REMARK SMILES IDX 4 1 3 2 2 3 1 4 13 5 12 6 11 7 9 8 7 9 6 10 5 11 8 12 10 14
REMARK H PARENT 8 13 10 15
REMARK Flexibility Score: inf
ROOT
ATOM      1  C   UNL     1      83.235  61.880   7.793  1.00  0.00     0.019 A 
ATOM      2  C   UNL     1      82.686  61.384   6.610  1.00  0.00     0.094 A 
ATOM      3  C   UNL     1      81.301  61.194   6.533  1.00  0.00     0.336 A 
ATOM      4  O   UNL     1      80.787  60.748   5.474  1.00  0.00    -0.246 OA
ATOM      5  O   UNL     1      80.523  61.483   7.573  1.00  0.00    -0.423 OA
ATOM      6  C   UNL     1      81.005  61.957   8.718  1.00  0.00     0.142 A 
ATOM      7  C   UNL     1      80.138  62.242   9.777  1.00  0.00     0.098 A 
ATOM      8  C   UNL     1      80.642  62.743  10.987  1.00  0.00     0.161 A 
ATOM      9  C   UNL     1      82.019  62.958  11.138  1.00  0.00     0.158 A 
ATOM     10  C   UNL     1      82.895  62.674  10.079  1.00  0.00     0.062 A 
ATOM     11  C   UNL     1      82.392  62.175   8.870  1.00  0.00     0.022 A 
ENDROOT
BRANCH   9  12
ATOM     12  O   UNL     1      82.511  63.455  12.344  1.00  0.00    -0.504 OA
ATOM     13  H   UNL     1      83.496  63.403  12.576  1.00  0.00     0.293 HD
ENDBRANCH   9  12
BRANCH   8  14
ATOM     14  O   UNL     1      79.780  63.027  12.045  1.00  0.00    -0.504 OA
ATOM     15  H   UNL     1      79.822  63.910  12.540  1.00  0.00     0.293 HD
ENDBRANCH   8  14
TORSDOF 2
ENDMDL
MODEL 5
REMARK VINA RESULT:    -6.374      1.249      2.480
REMARK INTER + INTRA:          -6.746
REMARK INTER:                  -6.746
REMARK INTRA:                   0.000
REMARK UNBOUND:                 0.000
REMARK SMILES O=c1ccc2cc(O)c(O)cc2o1
REMARK SMILES IDX 4 1 3 2 2 3 1 4 13 5 12 6 11 7 9 8 7 9 6 10 5 11 8 12 10 14
REMARK H PARENT 8 13 10 15
REMARK Flexibility Score: inf
ROOT
ATOM      1  C   UNL     1      84.081  62.721  10.129  1.00  0.00     0.019 A 
ATOM      2  C   UNL     1      84.899  62.506   9.019  1.00  0.00     0.094 A 
ATOM      3  C   UNL     1      84.310  62.135   7.805  1.00  0.00     0.336 A 
ATOM      4  O   UNL     1      85.032  61.937   6.792  1.00  0.00    -0.246 OA
ATOM      5  O   UNL     1      82.991  61.992   7.712  1.00  0.00    -0.423 OA
ATOM      6  C   UNL     1      82.175  62.188   8.745  1.00  0.00     0.142 A 
ATOM      7  C   UNL     1      80.796  62.022   8.587  1.00  0.00     0.098 A 
ATOM      8  C   UNL     1      79.932  62.228   9.674  1.00  0.00     0.161 A 
ATOM      9  C   UNL     1      80.450  62.599  10.922  1.00  0.00     0.158 A 
ATOM     10  C   UNL     1      81.833  62.768  11.086  1.00  0.00     0.062 A 
ATOM     11  C   UNL     1      82.697  62.563  10.002  1.00  0.00     0.022 A 
ENDROOT
BRANCH   9  12
ATOM     12  O   UNL     1      79.585  62.801  11.996  1.00  0.00    -0.504 OA
ATOM     13  H   UNL     1      79.795  62.446  12.921  1.00  0.00     0.293 HD
ENDBRANCH   9  12
BRANCH   8  14
ATOM     14  O   UNL     1      78.556  62.063   9.520  1.00  0.00    -0.504 OA
ATOM     15  H   UNL     1      78.001  61.567  10.208  1.00  0.00     0.293 HD
ENDBRANCH   8  14
TORSDOF 2
ENDMDL
MODEL 6
REMARK VINA RESULT:    -6.347      2.170      3.091
REMARK INTER + INTRA:          -6.718
REMARK INTER:                  -6.718
REMARK INTRA:                   0.000
REMARK UNBOUND:                 0.000
REMARK SMILES O=c1ccc2cc(O)c(O)cc2o1
REMARK SMILES IDX 4 1 3 2 2 3 1 4 13 5 12 6 11 7 9 8 7 9 6 10 5 11 8 12 10 14
REMARK H PARENT 8 13 10 15
REMARK Flexibility Score: inf
ROOT
ATOM      1  C   UNL     1      79.217  61.937   9.013  1.00  0.00     0.019 A 
ATOM      2  C   UNL     1      78.990  61.473   7.716  1.00  0.00     0.094 A 
ATOM      3  C   UNL     1      80.082  61.285   6.863  1.00  0.00     0.336 A 
ATOM      4  O   UNL     1      79.897  60.867   5.689  1.00  0.00    -0.246 OA
ATOM      5  O   UNL     1      81.318  61.545   7.282  1.00  0.00    -0.423 OA
ATOM      6  C   UNL     1      81.578  61.988   8.509  1.00  0.00     0.142 A 
ATOM      7  C   UNL     1      82.898  62.245   8.894  1.00  0.00     0.098 A 
ATOM      8  C   UNL     1      83.178  62.712  10.188  1.00  0.00     0.161 A 
ATOM      9  C   UNL     1      82.133  62.925  11.098  1.00  0.00     0.158 A 
ATOM     10  C   UNL     1      80.807  62.669  10.718  1.00  0.00     0.062 A 
ATOM     11  C   UNL     1      80.526  62.201   9.427  1.00  0.00     0.022 A 
ENDROOT
BRANCH   9  12
ATOM     12  O   UNL     1      82.420  63.389  12.380  1.00  0.00    -0.504 OA
ATOM     13  H   UNL     1      83.360  63.658  12.649  1.00  0.00     0.293 HD
ENDBRANCH   9  12
BRANCH   8  14
ATOM     14  O   UNL     1      84.492  62.969  10.574  1.00  0.00    -0.504 OA
ATOM     15  H   UNL     1      85.254  62.359  10.300  1.00  0.00     0.293 HD
ENDBRANCH   8  14
TORSDOF 2
ENDMDL
MODEL 7
REMARK VINA RESULT:    -6.346      2.130      3.625
REMARK INTER + INTRA:          -6.717
REMARK INTER:                  -6.717
REMARK INTRA:                   0.000
REMARK UNBOUND:                 0.000
REMARK SMILES O=c1ccc2cc(O)c(O)cc2o1
REMARK SMILES IDX 4 1 3 2 2 3 1 4 13 5 12 6 11 7 9 8 7 9 6 10 5 11 8 12 10 14
REMARK H PARENT 8 13 10 15
REMARK Flexibility Score: inf
ROOT
ATOM      1  C   UNL     1      81.919  62.926  11.680  1.00  0.00     0.019 A 
ATOM      2  C   UNL     1      83.220  62.916  11.176  1.00  0.00     0.094 A 
ATOM      3  C   UNL     1      83.424  62.575   9.835  1.00  0.00     0.336 A 
ATOM      4  O   UNL     1      84.591  62.560   9.362  1.00  0.00    -0.246 OA
ATOM      5  O   UNL     1      82.393  62.265   9.053  1.00  0.00    -0.423 OA
ATOM      6  C   UNL     1      81.138  62.263   9.493  1.00  0.00     0.142 A 
ATOM      7  C   UNL     1      80.093  61.929   8.625  1.00  0.00     0.098 A 
ATOM      8  C   UNL     1      78.767  61.925   9.085  1.00  0.00     0.161 A 
ATOM      9  C   UNL     1      78.486  62.256  10.418  1.00  0.00     0.158 A 
ATOM     10  C   UNL     1      79.529  62.592  11.294  1.00  0.00     0.062 A 
ATOM     11  C   UNL     1      80.854  62.597  10.836  1.00  0.00     0.022 A 
ENDROOT
BRANCH   9  12
ATOM     12  O   UNL     1      77.166  62.249  10.866  1.00  0.00    -0.504 OA
ATOM     13  H   UNL     1      76.587  63.080  10.823  1.00  0.00     0.293 HD
ENDBRANCH   9  12
BRANCH   8  14
ATOM     14  O   UNL     1      77.725  61.592   8.222  1.00  0.00    -0.504 OA
ATOM     15  H   UNL     1      76.839  62.084   8.246  1.00  0.00     0.293 HD
ENDBRANCH   8  14
TORSDOF 2
ENDMDL
MODEL 8
REMARK VINA RESULT:    -6.315      2.995      3.946
REMARK INTER + INTRA:          -6.684
REMARK INTER:                  -6.684
REMARK INTRA:                   0.000
REMARK UNBOUND:                 0.000
REMARK SMILES O=c1ccc2cc(O)c(O)cc2o1
REMARK SMILES IDX 4 1 3 2 2 3 1 4 13 5 12 6 11 7 9 8 7 9 6 10 5 11 8 12 10 14
REMARK H PARENT 8 13 10 15
REMARK Flexibility Score: inf
ROOT
ATOM      1  C   UNL     1      81.456  61.323   7.423  1.00  0.00     0.019 A 
ATOM      2  C   UNL     1      81.206  61.040   6.080  1.00  0.00     0.094 A 
ATOM      3  C   UNL     1      79.940  61.319   5.553  1.00  0.00     0.336 A 
ATOM      4  O   UNL     1      79.695  61.071   4.343  1.00  0.00    -0.246 OA
ATOM      5  O   UNL     1      78.991  61.847   6.323  1.00  0.00    -0.423 OA
ATOM      6  C   UNL     1      79.188  62.132   7.607  1.00  0.00     0.142 A 
ATOM      7  C   UNL     1      78.153  62.685   8.367  1.00  0.00     0.098 A 
ATOM      8  C   UNL     1      78.356  62.987   9.723  1.00  0.00     0.161 A 
ATOM      9  C   UNL     1      79.599  62.734  10.319  1.00  0.00     0.158 A 
ATOM     10  C   UNL     1      80.642  62.178   9.562  1.00  0.00     0.062 A 
ATOM     11  C   UNL     1      80.440  61.877   8.208  1.00  0.00     0.022 A 
ENDROOT
BRANCH   9  12
ATOM     12  O   UNL     1      79.792  63.037  11.666  1.00  0.00    -0.504 OA
ATOM     13  H   UNL     1      79.164  62.691  12.383  1.00  0.00     0.293 HD
ENDBRANCH   9  12
BRANCH   8  14
ATOM     14  O   UNL     1      77.326  63.539  10.483  1.00  0.00    -0.504 OA
ATOM     15  H   UNL     1      77.506  63.988  11.373  1.00  0.00     0.293 HD
ENDBRANCH   8  14
TORSDOF 2
ENDMDL
MODEL 9
REMARK VINA RESULT:    -6.305      1.811      4.867
REMARK INTER + INTRA:          -6.674
REMARK INTER:                  -6.674
REMARK INTRA:                   0.000
REMARK UNBOUND:                 0.000
REMARK SMILES O=c1ccc2cc(O)c(O)cc2o1
REMARK SMILES IDX 4 1 3 2 2 3 1 4 13 5 12 6 11 7 9 8 7 9 6 10 5 11 8 12 10 14
REMARK H PARENT 8 13 10 15
REMARK Flexibility Score: inf
ROOT
ATOM      1  C   UNL     1      78.969  61.927   9.209  1.00  0.00     0.019 A 
ATOM      2  C   UNL     1      77.795  61.889   9.962  1.00  0.00     0.094 A 
ATOM      3  C   UNL     1      77.866  62.128  11.340  1.00  0.00     0.336 A 
ATOM      4  O   UNL     1      76.818  62.098  12.036  1.00  0.00    -0.246 OA
ATOM      5  O   UNL     1      79.035  62.388  11.919  1.00  0.00    -0.423 OA
ATOM      6  C   UNL     1      80.177  62.434  11.238  1.00  0.00     0.142 A 
ATOM      7  C   UNL     1      81.376  62.712  11.902  1.00  0.00     0.098 A 
ATOM      8  C   UNL     1      82.583  62.762  11.188  1.00  0.00     0.161 A 
ATOM      9  C   UNL     1      82.590  62.532   9.805  1.00  0.00     0.158 A 
ATOM     10  C   UNL     1      81.390  62.252   9.133  1.00  0.00     0.062 A 
ATOM     11  C   UNL     1      80.184  62.203   9.845  1.00  0.00     0.022 A 
ENDROOT
BRANCH   9  12
ATOM     12  O   UNL     1      83.793  62.583   9.104  1.00  0.00    -0.504 OA
ATOM     13  H   UNL     1      84.604  62.053   9.403  1.00  0.00     0.293 HD
ENDBRANCH   9  12
BRANCH   8  14
ATOM     14  O   UNL     1      83.779  63.039  11.847  1.00  0.00    -0.504 OA
ATOM     15  H   UNL     1      83.833  63.742  12.575  1.00  0.00     0.293 HD
ENDBRANCH   8  14
TORSDOF 2
ENDMDL
