MODEL 1
REMARK VINA RESULT:    -4.978      0.000      0.000
REMARK INTER + INTRA:         -10.482
REMARK INTER:                  -9.635
REMARK INTRA:                  -0.848
REMARK UNBOUND:                -0.848
REMARK SMILES CCCCCCCCCCCCCCCCCC(=O)[O-]
REMARK SMILES IDX 10 1 11 2 12 3 13 4 14 5 15 6 16 7 17 8 18 9 19 10 20 11
REMARK SMILES IDX 9 12 8 13 7 14 6 15 5 16 4 17 3 18 2 19 1 20
REMARK H PARENT
REMARK Flexibility Score: inf
ROOT
ATOM      1  C   UNL     1      93.134 122.939 124.679  1.00  0.00     0.000 C 
ENDROOT
BRANCH   1   2
ATOM      2  C   UNL     1      94.577 123.096 125.186  1.00  0.00     0.000 C 
BRANCH   2   3
ATOM      3  C   UNL     1      95.482 123.905 124.232  1.00  0.00     0.000 C 
BRANCH   3   4
ATOM      4  C   UNL     1      96.713 124.481 124.948  1.00  0.00     0.000 C 
BRANCH   4   5
ATOM      5  C   UNL     1      97.104 123.617 126.154  1.00  0.00     0.000 C 
BRANCH   5   6
ATOM      6  C   UNL     1      98.472 124.035 126.710  1.00  0.00     0.000 C 
BRANCH   6   7
ATOM      7  C   UNL     1      99.566 122.987 126.455  1.00  0.00     0.006 C 
BRANCH   7   8
ATOM      8  C   UNL     1      99.038 121.548 126.528  1.00  0.00     0.053 C 
BRANCH   8   9
ATOM      9  C   UNL     1     100.132 120.572 126.228  1.00  0.00     0.041 C 
ATOM     10  O   UNL     1     101.050 120.370 127.067  1.00  0.00    -0.550 OA
ATOM     11  O   UNL     1     100.164 119.919 125.002  1.00  0.00    -0.550 OA
ENDBRANCH   8   9
ENDBRANCH   7   8
ENDBRANCH   6   7
ENDBRANCH   5   6
ENDBRANCH   4   5
ENDBRANCH   3   4
ENDBRANCH   2   3
ENDBRANCH   1   2
BRANCH   1  12
ATOM     12  C   UNL     1      92.958 123.402 123.224  1.00  0.00     0.000 C 
BRANCH  12  13
ATOM     13  C   UNL     1      92.584 122.250 122.279  1.00  0.00    -0.000 C 
BRANCH  13  14
ATOM     14  C   UNL     1      92.774 122.619 120.796  1.00  0.00    -0.000 C 
BRANCH  14  15
ATOM     15  C   UNL     1      93.533 121.540 120.003  1.00  0.00    -0.000 C 
BRANCH  15  16
ATOM     16  C   UNL     1      93.299 121.594 118.479  1.00  0.00    -0.000 C 
BRANCH  16  17
ATOM     17  C   UNL     1      92.091 122.467 118.068  1.00  0.00    -0.000 C 
BRANCH  17  18
ATOM     18  C   UNL     1      91.623 122.230 116.619  1.00  0.00    -0.000 C 
BRANCH  18  19
ATOM     19  C   UNL     1      92.441 121.182 115.846  1.00  0.00    -0.003 C 
ATOM     20  C   UNL     1      91.746 119.822 115.773  1.00  0.00     0.004 C 
ENDBRANCH  18  19
ENDBRANCH  17  18
ENDBRANCH  16  17
ENDBRANCH  15  16
ENDBRANCH  14  15
ENDBRANCH  13  14
ENDBRANCH  12  13
ENDBRANCH   1  12
TORSDOF 16
ENDMDL
MODEL 2
REMARK VINA RESULT:    -4.910      4.399      9.823
REMARK INTER + INTRA:         -10.351
REMARK INTER:                  -9.645
REMARK INTRA:                  -0.706
REMARK UNBOUND:                -0.848
REMARK SMILES CCCCCCCCCCCCCCCCCC(=O)[O-]
REMARK SMILES IDX 10 1 11 2 12 3 13 4 14 5 15 6 16 7 17 8 18 9 19 10 20 11
REMARK SMILES IDX 9 12 8 13 7 14 6 15 5 16 4 17 3 18 2 19 1 20
REMARK H PARENT
REMARK Flexibility Score: inf
ROOT
ATOM      1  C   UNL     1      94.827 123.090 125.340  1.00  0.00     0.000 C 
ENDROOT
BRANCH   1   2
ATOM      2  C   UNL     1      93.399 122.848 124.826  1.00  0.00     0.000 C 
BRANCH   2   3
ATOM      3  C   UNL     1      93.151 123.400 123.405  1.00  0.00     0.000 C 
BRANCH   3   4
ATOM      4  C   UNL     1      92.754 122.295 122.414  1.00  0.00     0.000 C 
BRANCH   4   5
ATOM      5  C   UNL     1      92.505 122.873 121.016  1.00  0.00     0.000 C 
BRANCH   5   6
ATOM      6  C   UNL     1      93.013 121.917 119.927  1.00  0.00     0.000 C 
BRANCH   6   7
ATOM      7  C   UNL     1      92.370 122.177 118.556  1.00  0.00     0.006 C 
BRANCH   7   8
ATOM      8  C   UNL     1      92.892 121.231 117.466  1.00  0.00     0.053 C 
BRANCH   8   9
ATOM      9  C   UNL     1      91.979 121.243 116.280  1.00  0.00     0.041 C 
ATOM     10  O   UNL     1      91.390 122.305 115.944  1.00  0.00    -0.550 OA
ATOM     11  O   UNL     1      91.742 120.070 115.574  1.00  0.00    -0.550 OA
ENDBRANCH   8   9
ENDBRANCH   7   8
ENDBRANCH   6   7
ENDBRANCH   5   6
ENDBRANCH   4   5
ENDBRANCH   3   4
ENDBRANCH   2   3
ENDBRANCH   1   2
BRANCH   1  12
ATOM     12  C   UNL     1      95.598 124.121 124.499  1.00  0.00     0.000 C 
BRANCH  12  13
ATOM     13  C   UNL     1      96.911 124.562 125.163  1.00  0.00    -0.000 C 
BRANCH  13  14
ATOM     14  C   UNL     1      97.499 123.475 126.082  1.00  0.00    -0.000 C 
BRANCH  14  15
ATOM     15  C   UNL     1      98.898 123.835 126.615  1.00  0.00    -0.000 C 
BRANCH  15  16
ATOM     16  C   UNL     1      99.941 122.709 126.463  1.00  0.00    -0.000 C 
BRANCH  16  17
ATOM     17  C   UNL     1      99.375 121.297 126.741  1.00  0.00    -0.000 C 
BRANCH  17  18
ATOM     18  C   UNL     1     100.462 120.234 126.991  1.00  0.00    -0.000 C 
BRANCH  18  19
ATOM     19  C   UNL     1     101.796 120.504 126.276  1.00  0.00    -0.003 C 
ATOM     20  C   UNL     1     101.889 119.814 124.914  1.00  0.00     0.004 C 
ENDBRANCH  18  19
ENDBRANCH  17  18
ENDBRANCH  16  17
ENDBRANCH  15  16
ENDBRANCH  14  15
ENDBRANCH  13  14
ENDBRANCH  12  13
ENDBRANCH   1  12
TORSDOF 16
ENDMDL
MODEL 3
REMARK VINA RESULT:    -4.657      4.163      9.648
REMARK INTER + INTRA:          -9.861
REMARK INTER:                  -9.339
REMARK INTRA:                  -0.522
REMARK UNBOUND:                -0.848
REMARK SMILES CCCCCCCCCCCCCCCCCC(=O)[O-]
REMARK SMILES IDX 10 1 11 2 12 3 13 4 14 5 15 6 16 7 17 8 18 9 19 10 20 11
REMARK SMILES IDX 9 12 8 13 7 14 6 15 5 16 4 17 3 18 2 19 1 20
REMARK H PARENT
REMARK Flexibility Score: inf
ROOT
ATOM      1  C   UNL     1      93.041 123.077 124.499  1.00  0.00     0.000 C 
ENDROOT
BRANCH   1   2
ATOM      2  C   UNL     1      92.862 123.435 123.014  1.00  0.00     0.000 C 
BRANCH   2   3
ATOM      3  C   UNL     1      92.640 122.207 122.105  1.00  0.00     0.000 C 
BRANCH   3   4
ATOM      4  C   UNL     1      92.618 122.583 120.616  1.00  0.00     0.000 C 
BRANCH   4   5
ATOM      5  C   UNL     1      93.642 121.761 119.824  1.00  0.00     0.000 C 
BRANCH   5   6
ATOM      6  C   UNL     1      93.138 121.478 118.402  1.00  0.00     0.000 C 
BRANCH   6   7
ATOM      7  C   UNL     1      91.996 122.414 117.976  1.00  0.00     0.006 C 
BRANCH   7   8
ATOM      8  C   UNL     1      91.614 122.249 116.498  1.00  0.00     0.053 C 
BRANCH   8   9
ATOM      9  C   UNL     1      92.184 120.979 115.948  1.00  0.00     0.041 C 
ATOM     10  O   UNL     1      91.628 119.876 116.192  1.00  0.00    -0.550 OA
ATOM     11  O   UNL     1      93.357 121.010 115.203  1.00  0.00    -0.550 OA
ENDBRANCH   8   9
ENDBRANCH   7   8
ENDBRANCH   6   7
ENDBRANCH   5   6
ENDBRANCH   4   5
ENDBRANCH   3   4
ENDBRANCH   2   3
ENDBRANCH   1   2
BRANCH   1  12
ATOM     12  C   UNL     1      94.516 123.044 124.932  1.00  0.00     0.000 C 
BRANCH  12  13
ATOM     13  C   UNL     1      95.409 123.936 124.056  1.00  0.00    -0.000 C 
BRANCH  13  14
ATOM     14  C   UNL     1      96.516 124.636 124.866  1.00  0.00    -0.000 C 
BRANCH  14  15
ATOM     15  C   UNL     1      97.000 123.799 126.064  1.00  0.00    -0.000 C 
BRANCH  15  16
ATOM     16  C   UNL     1      98.353 124.255 126.648  1.00  0.00    -0.000 C 
BRANCH  16  17
ATOM     17  C   UNL     1      99.502 123.247 126.410  1.00  0.00    -0.000 C 
BRANCH  17  18
ATOM     18  C   UNL     1      99.119 121.788 126.726  1.00  0.00    -0.000 C 
BRANCH  18  19
ATOM     19  C   UNL     1     100.285 120.790 126.645  1.00  0.00    -0.003 C 
ATOM     20  C   UNL     1     100.330 120.036 125.315  1.00  0.00     0.004 C 
ENDBRANCH  18  19
ENDBRANCH  17  18
ENDBRANCH  16  17
ENDBRANCH  15  16
ENDBRANCH  14  15
ENDBRANCH  13  14
ENDBRANCH  12  13
ENDBRANCH   1  12
TORSDOF 16
ENDMDL
MODEL 4
REMARK VINA RESULT:    -4.555     12.598     14.802
REMARK INTER + INTRA:          -9.662
REMARK INTER:                  -7.329
REMARK INTRA:                  -2.334
REMARK UNBOUND:                -0.848
REMARK SMILES CCCCCCCCCCCCCCCCCC(=O)[O-]
REMARK SMILES IDX 10 1 11 2 12 3 13 4 14 5 15 6 16 7 17 8 18 9 19 10 20 11
REMARK SMILES IDX 9 12 8 13 7 14 6 15 5 16 4 17 3 18 2 19 1 20
REMARK H PARENT
REMARK Flexibility Score: inf
ROOT
ATOM      1  C   UNL     1      83.752 124.145 126.408  1.00  0.00     0.000 C 
ENDROOT
BRANCH   1   2
ATOM      2  C   UNL     1      82.279 124.095 126.844  1.00  0.00     0.000 C 
BRANCH   2   3
ATOM      3  C   UNL     1      82.077 124.292 128.362  1.00  0.00     0.000 C 
BRANCH   3   4
ATOM      4  C   UNL     1      83.282 124.974 129.025  1.00  0.00     0.000 C 
BRANCH   4   5
ATOM      5  C   UNL     1      83.134 124.995 130.551  1.00  0.00     0.000 C 
BRANCH   5   6
ATOM      6  C   UNL     1      82.793 126.407 131.051  1.00  0.00     0.000 C 
BRANCH   6   7
ATOM      7  C   UNL     1      83.413 127.513 130.183  1.00  0.00     0.006 C 
BRANCH   7   8
ATOM      8  C   UNL     1      82.848 128.904 130.502  1.00  0.00     0.053 C 
BRANCH   8   9
ATOM      9  C   UNL     1      83.841 129.706 131.284  1.00  0.00     0.041 C 
ATOM     10  O   UNL     1      84.908 129.174 131.690  1.00  0.00    -0.550 OA
ATOM     11  O   UNL     1      83.567 131.031 131.604  1.00  0.00    -0.550 OA
ENDBRANCH   8   9
ENDBRANCH   7   8
ENDBRANCH   6   7
ENDBRANCH   5   6
ENDBRANCH   4   5
ENDBRANCH   3   4
ENDBRANCH   2   3
ENDBRANCH   1   2
BRANCH   1  12
ATOM     12  C   UNL     1      83.962 123.674 124.959  1.00  0.00     0.000 C 
BRANCH  12  13
ATOM     13  C   UNL     1      84.452 122.220 124.876  1.00  0.00    -0.000 C 
BRANCH  13  14
ATOM     14  C   UNL     1      83.343 121.251 124.426  1.00  0.00    -0.000 C 
BRANCH  14  15
ATOM     15  C   UNL     1      83.081 120.126 125.445  1.00  0.00    -0.000 C 
BRANCH  15  16
ATOM     16  C   UNL     1      82.090 120.506 126.564  1.00  0.00    -0.000 C 
BRANCH  16  17
ATOM     17  C   UNL     1      82.662 120.318 127.988  1.00  0.00    -0.000 C 
BRANCH  17  18
ATOM     18  C   UNL     1      84.200 120.229 128.029  1.00  0.00    -0.000 C 
BRANCH  18  19
ATOM     19  C   UNL     1      84.899 121.491 128.562  1.00  0.00    -0.003 C 
ATOM     20  C   UNL     1      84.792 121.631 130.081  1.00  0.00     0.004 C 
ENDBRANCH  18  19
ENDBRANCH  17  18
ENDBRANCH  16  17
ENDBRANCH  15  16
ENDBRANCH  14  15
ENDBRANCH  13  14
ENDBRANCH  12  13
ENDBRANCH   1  12
TORSDOF 16
ENDMDL
MODEL 5
REMARK VINA RESULT:    -3.937      1.243      2.982
REMARK INTER + INTRA:          -8.468
REMARK INTER:                  -7.813
REMARK INTRA:                  -0.655
REMARK UNBOUND:                -0.848
REMARK SMILES CCCCCCCCCCCCCCCCCC(=O)[O-]
REMARK SMILES IDX 10 1 11 2 12 3 13 4 14 5 15 6 16 7 17 8 18 9 19 10 20 11
REMARK SMILES IDX 9 12 8 13 7 14 6 15 5 16 4 17 3 18 2 19 1 20
REMARK H PARENT
REMARK Flexibility Score: inf
ROOT
ATOM      1  C   UNL     1      96.512 125.471 124.286  1.00  0.00     0.000 C 
ENDROOT
BRANCH   1   2
ATOM      2  C   UNL     1      97.626 125.818 125.287  1.00  0.00     0.000 C 
BRANCH   2   3
ATOM      3  C   UNL     1      97.623 124.928 126.549  1.00  0.00     0.000 C 
BRANCH   3   4
ATOM      4  C   UNL     1      98.922 124.121 126.693  1.00  0.00     0.000 C 
BRANCH   4   5
ATOM      5  C   UNL     1      98.687 122.638 126.385  1.00  0.00     0.000 C 
BRANCH   5   6
ATOM      6  C   UNL     1      99.943 121.808 126.683  1.00  0.00     0.000 C 
BRANCH   6   7
ATOM      7  C   UNL     1     101.204 122.371 126.009  1.00  0.00     0.006 C 
BRANCH   7   8
ATOM      8  C   UNL     1     102.110 121.274 125.433  1.00  0.00     0.053 C 
BRANCH   8   9
ATOM      9  C   UNL     1     101.353 119.990 125.291  1.00  0.00     0.041 C 
ATOM     10  O   UNL     1     101.413 119.115 126.195  1.00  0.00    -0.550 OA
ATOM     11  O   UNL     1     100.617 119.741 124.138  1.00  0.00    -0.550 OA
ENDBRANCH   8   9
ENDBRANCH   7   8
ENDBRANCH   6   7
ENDBRANCH   5   6
ENDBRANCH   4   5
ENDBRANCH   3   4
ENDBRANCH   2   3
ENDBRANCH   1   2
BRANCH   1  12
ATOM     12  C   UNL     1      95.846 124.116 124.580  1.00  0.00     0.000 C 
BRANCH  12  13
ATOM     13  C   UNL     1      94.803 123.729 123.521  1.00  0.00    -0.000 C 
BRANCH  13  14
ATOM     14  C   UNL     1      93.434 123.392 124.140  1.00  0.00    -0.000 C 
BRANCH  14  15
ATOM     15  C   UNL     1      92.491 122.677 123.155  1.00  0.00    -0.000 C 
BRANCH  15  16
ATOM     16  C   UNL     1      92.796 122.960 121.670  1.00  0.00    -0.000 C 
BRANCH  16  17
ATOM     17  C   UNL     1      92.927 121.683 120.809  1.00  0.00    -0.000 C 
BRANCH  17  18
ATOM     18  C   UNL     1      93.135 121.968 119.308  1.00  0.00    -0.000 C 
BRANCH  18  19
ATOM     19  C   UNL     1      91.926 122.608 118.606  1.00  0.00    -0.003 C 
ATOM     20  C   UNL     1      91.981 122.468 117.084  1.00  0.00     0.004 C 
ENDBRANCH  18  19
ENDBRANCH  17  18
ENDBRANCH  16  17
ENDBRANCH  15  16
ENDBRANCH  14  15
ENDBRANCH  13  14
ENDBRANCH  12  13
ENDBRANCH   1  12
TORSDOF 16
ENDMDL
MODEL 6
REMARK VINA RESULT:    -2.698      2.650      3.459
REMARK INTER + INTRA:          -6.069
REMARK INTER:                  -5.455
REMARK INTRA:                  -0.614
REMARK UNBOUND:                -0.848
REMARK SMILES CCCCCCCCCCCCCCCCCC(=O)[O-]
REMARK SMILES IDX 10 1 11 2 12 3 13 4 14 5 15 6 16 7 17 8 18 9 19 10 20 11
REMARK SMILES IDX 9 12 8 13 7 14 6 15 5 16 4 17 3 18 2 19 1 20
REMARK H PARENT
REMARK Flexibility Score: inf
ROOT
ATOM      1  C   UNL     1      92.810 123.435 123.044  1.00  0.00     0.000 C 
ENDROOT
BRANCH   1   2
ATOM      2  C   UNL     1      92.626 123.059 124.523  1.00  0.00     0.000 C 
BRANCH   2   3
ATOM      3  C   UNL     1      93.941 122.664 125.229  1.00  0.00     0.000 C 
BRANCH   3   4
ATOM      4  C   UNL     1      95.165 123.351 124.603  1.00  0.00     0.000 C 
BRANCH   4   5
ATOM      5  C   UNL     1      95.950 124.144 125.655  1.00  0.00     0.000 C 
BRANCH   5   6
ATOM      6  C   UNL     1      97.275 123.447 125.993  1.00  0.00     0.000 C 
BRANCH   6   7
ATOM      7  C   UNL     1      98.368 124.430 126.441  1.00  0.00     0.006 C 
BRANCH   7   8
ATOM      8  C   UNL     1      97.810 125.616 127.239  1.00  0.00     0.053 C 
BRANCH   8   9
ATOM      9  C   UNL     1      97.771 126.848 126.390  1.00  0.00     0.041 C 
ATOM     10  O   UNL     1      97.975 126.769 125.149  1.00  0.00    -0.550 OA
ATOM     11  O   UNL     1      97.554 128.089 126.975  1.00  0.00    -0.550 OA
ENDBRANCH   8   9
ENDBRANCH   7   8
ENDBRANCH   6   7
ENDBRANCH   5   6
ENDBRANCH   4   5
ENDBRANCH   3   4
ENDBRANCH   2   3
ENDBRANCH   1   2
BRANCH   1  12
ATOM     12  C   UNL     1      92.718 122.222 122.103  1.00  0.00     0.000 C 
BRANCH  12  13
ATOM     13  C   UNL     1      92.793 122.618 120.621  1.00  0.00    -0.000 C 
BRANCH  13  14
ATOM     14  C   UNL     1      93.795 121.755 119.832  1.00  0.00    -0.000 C 
BRANCH  14  15
ATOM     15  C   UNL     1      93.243 121.289 118.472  1.00  0.00    -0.000 C 
BRANCH  15  16
ATOM     16  C   UNL     1      91.875 121.899 118.104  1.00  0.00    -0.000 C 
BRANCH  16  17
ATOM     17  C   UNL     1      91.720 122.210 116.597  1.00  0.00    -0.000 C 
BRANCH  17  18
ATOM     18  C   UNL     1      92.670 121.396 115.698  1.00  0.00    -0.000 C 
BRANCH  18  19
ATOM     19  C   UNL     1      92.011 120.201 114.989  1.00  0.00    -0.003 C 
ATOM     20  C   UNL     1      91.437 119.174 115.966  1.00  0.00     0.004 C 
ENDBRANCH  18  19
ENDBRANCH  17  18
ENDBRANCH  16  17
ENDBRANCH  15  16
ENDBRANCH  14  15
ENDBRANCH  13  14
ENDBRANCH  12  13
ENDBRANCH   1  12
TORSDOF 16
ENDMDL
MODEL 7
REMARK VINA RESULT:    -2.511      4.261      9.402
REMARK INTER + INTRA:          -5.707
REMARK INTER:                  -4.672
REMARK INTRA:                  -1.035
REMARK UNBOUND:                -0.848
REMARK SMILES CCCCCCCCCCCCCCCCCC(=O)[O-]
REMARK SMILES IDX 10 1 11 2 12 3 13 4 14 5 15 6 16 7 17 8 18 9 19 10 20 11
REMARK SMILES IDX 9 12 8 13 7 14 6 15 5 16 4 17 3 18 2 19 1 20
REMARK H PARENT
REMARK Flexibility Score: inf
ROOT
ATOM      1  C   UNL     1      94.510 124.163 123.771  1.00  0.00     0.000 C 
ENDROOT
BRANCH   1   2
ATOM      2  C   UNL     1      93.230 123.456 124.247  1.00  0.00     0.000 C 
BRANCH   2   3
ATOM      3  C   UNL     1      92.359 122.913 123.094  1.00  0.00     0.000 C 
BRANCH   3   4
ATOM      4  C   UNL     1      93.076 122.990 121.737  1.00  0.00     0.000 C 
BRANCH   4   5
ATOM      5  C   UNL     1      92.821 121.726 120.907  1.00  0.00     0.000 C 
BRANCH   5   6
ATOM      6  C   UNL     1      94.025 121.405 120.011  1.00  0.00     0.000 C 
BRANCH   6   7
ATOM      7  C   UNL     1      93.628 121.127 118.553  1.00  0.00     0.006 C 
BRANCH   7   8
ATOM      8  C   UNL     1      92.256 121.714 118.190  1.00  0.00     0.053 C 
BRANCH   8   9
ATOM      9  C   UNL     1      92.047 121.679 116.708  1.00  0.00     0.041 C 
ATOM     10  O   UNL     1      92.423 120.681 116.038  1.00  0.00    -0.550 OA
ATOM     11  O   UNL     1      91.478 122.769 116.060  1.00  0.00    -0.550 OA
ENDBRANCH   8   9
ENDBRANCH   7   8
ENDBRANCH   6   7
ENDBRANCH   5   6
ENDBRANCH   4   5
ENDBRANCH   3   4
ENDBRANCH   2   3
ENDBRANCH   1   2
BRANCH   1  12
ATOM     12  C   UNL     1      95.753 123.757 124.580  1.00  0.00     0.000 C 
BRANCH  12  13
ATOM     13  C   UNL     1      95.427 122.760 125.702  1.00  0.00    -0.000 C 
BRANCH  13  14
ATOM     14  C   UNL     1      96.442 122.824 126.859  1.00  0.00    -0.000 C 
BRANCH  14  15
ATOM     15  C   UNL     1      97.817 122.243 126.480  1.00  0.00    -0.000 C 
BRANCH  15  16
ATOM     16  C   UNL     1      98.999 123.203 126.728  1.00  0.00    -0.000 C 
BRANCH  16  17
ATOM     17  C   UNL     1      98.765 124.629 126.178  1.00  0.00    -0.000 C 
BRANCH  17  18
ATOM     18  C   UNL     1      97.997 125.547 127.148  1.00  0.00    -0.000 C 
BRANCH  18  19
ATOM     19  C   UNL     1      97.623 126.920 126.567  1.00  0.00    -0.003 C 
ATOM     20  C   UNL     1      97.691 126.956 125.040  1.00  0.00     0.004 C 
ENDBRANCH  18  19
ENDBRANCH  17  18
ENDBRANCH  16  17
ENDBRANCH  15  16
ENDBRANCH  14  15
ENDBRANCH  13  14
ENDBRANCH  12  13
ENDBRANCH   1  12
TORSDOF 16
ENDMDL
