MODEL 1
REMARK VINA RESULT:    -4.739      0.000      0.000
REMARK INTER + INTRA:         -13.394
REMARK INTER:                 -10.279
REMARK INTRA:                  -3.115
REMARK UNBOUND:                -3.115
REMARK SMILES CCCCCCCCCCCCCCCCCCCCCC(=O)[O-]
REMARK SMILES IDX 12 1 11 2 10 3 9 4 8 5 7 6 6 7 5 8 4 9 3 10 2 11 1 12 13 13
REMARK SMILES IDX 14 14 15 15 16 16 17 17 18 18 19 19 20 20 21 21 22 22 23 23
REMARK SMILES IDX 24 24
REMARK H PARENT
REMARK Flexibility Score: inf
ROOT
ATOM      1  C   UNL     1      16.153  71.109  20.577  1.00  0.00     0.000 C 
ENDROOT
BRANCH   1   2
ATOM      2  C   UNL     1      16.392  72.545  20.084  1.00  0.00     0.000 C 
BRANCH   2   3
ATOM      3  C   UNL     1      15.536  72.901  18.858  1.00  0.00     0.000 C 
BRANCH   3   4
ATOM      4  C   UNL     1      16.387  73.352  17.657  1.00  0.00    -0.000 C 
BRANCH   4   5
ATOM      5  C   UNL     1      17.435  74.407  18.044  1.00  0.00    -0.000 C 
BRANCH   5   6
ATOM      6  C   UNL     1      18.879  73.907  17.849  1.00  0.00    -0.000 C 
BRANCH   6   7
ATOM      7  C   UNL     1      19.754  74.150  19.096  1.00  0.00    -0.000 C 
BRANCH   7   8
ATOM      8  C   UNL     1      19.790  75.621  19.547  1.00  0.00    -0.000 C 
BRANCH   8   9
ATOM      9  C   UNL     1      21.013  76.383  19.011  1.00  0.00    -0.000 C 
BRANCH   9  10
ATOM     10  C   UNL     1      20.615  77.692  18.295  1.00  0.00    -0.000 C 
BRANCH  10  11
ATOM     11  C   UNL     1      19.201  77.656  17.694  1.00  0.00    -0.003 C 
ATOM     12  C   UNL     1      19.189  77.290  16.211  1.00  0.00     0.004 C 
ENDBRANCH  10  11
ENDBRANCH   9  10
ENDBRANCH   8   9
ENDBRANCH   7   8
ENDBRANCH   6   7
ENDBRANCH   5   6
ENDBRANCH   4   5
ENDBRANCH   3   4
ENDBRANCH   2   3
ENDBRANCH   1   2
BRANCH   1  13
ATOM     13  C   UNL     1      17.483  70.383  20.814  1.00  0.00     0.000 C 
BRANCH  13  14
ATOM     14  C   UNL     1      18.466  70.649  19.664  1.00  0.00     0.000 C 
BRANCH  14  15
ATOM     15  C   UNL     1      18.298  69.654  18.503  1.00  0.00     0.000 C 
BRANCH  15  16
ATOM     16  C   UNL     1      17.933  70.348  17.182  1.00  0.00     0.000 C 
BRANCH  16  17
ATOM     17  C   UNL     1      16.778  69.624  16.481  1.00  0.00     0.000 C 
BRANCH  17  18
ATOM     18  C   UNL     1      15.799  69.033  17.507  1.00  0.00     0.000 C 
BRANCH  18  19
ATOM     19  C   UNL     1      14.443  68.661  16.886  1.00  0.00     0.000 C 
BRANCH  19  20
ATOM     20  C   UNL     1      13.269  68.889  17.855  1.00  0.00     0.006 C 
BRANCH  20  21
ATOM     21  C   UNL     1      12.399  67.636  18.015  1.00  0.00     0.053 C 
BRANCH  21  22
ATOM     22  C   UNL     1      12.722  66.892  19.276  1.00  0.00     0.041 C 
ATOM     23  O   UNL     1      13.914  66.594  19.548  1.00  0.00    -0.550 OA
ATOM     24  O   UNL     1      11.708  66.555  20.163  1.00  0.00    -0.550 OA
ENDBRANCH  21  22
ENDBRANCH  20  21
ENDBRANCH  19  20
ENDBRANCH  18  19
ENDBRANCH  17  18
ENDBRANCH  16  17
ENDBRANCH  15  16
ENDBRANCH  14  15
ENDBRANCH  13  14
ENDBRANCH   1  13
TORSDOF 20
ENDMDL
MODEL 2
REMARK VINA RESULT:    -4.706      2.519      3.755
REMARK INTER + INTRA:         -13.322
REMARK INTER:                  -9.886
REMARK INTRA:                  -3.437
REMARK UNBOUND:                -3.115
REMARK SMILES CCCCCCCCCCCCCCCCCCCCCC(=O)[O-]
REMARK SMILES IDX 12 1 11 2 10 3 9 4 8 5 7 6 6 7 5 8 4 9 3 10 2 11 1 12 13 13
REMARK SMILES IDX 14 14 15 15 16 16 17 17 18 18 19 19 20 20 21 21 22 22 23 23
REMARK SMILES IDX 24 24
REMARK H PARENT
REMARK Flexibility Score: inf
ROOT
ATOM      1  C   UNL     1      18.314  72.239  20.368  1.00  0.00     0.000 C 
ENDROOT
BRANCH   1   2
ATOM      2  C   UNL     1      16.816  72.581  20.334  1.00  0.00     0.000 C 
BRANCH   2   3
ATOM      3  C   UNL     1      16.484  73.698  19.332  1.00  0.00     0.000 C 
BRANCH   3   4
ATOM      4  C   UNL     1      15.331  73.318  18.387  1.00  0.00    -0.000 C 
BRANCH   4   5
ATOM      5  C   UNL     1      15.648  73.634  16.917  1.00  0.00    -0.000 C 
BRANCH   5   6
ATOM      6  C   UNL     1      17.021  74.307  16.739  1.00  0.00    -0.000 C 
BRANCH   6   7
ATOM      7  C   UNL     1      16.899  75.824  16.483  1.00  0.00    -0.000 C 
BRANCH   7   8
ATOM      8  C   UNL     1      18.012  76.653  17.147  1.00  0.00    -0.000 C 
BRANCH   8   9
ATOM      9  C   UNL     1      18.782  75.871  18.224  1.00  0.00    -0.000 C 
BRANCH   9  10
ATOM     10  C   UNL     1      19.657  76.795  19.099  1.00  0.00    -0.000 C 
BRANCH  10  11
ATOM     11  C   UNL     1      20.876  76.085  19.711  1.00  0.00    -0.003 C 
ATOM     12  C   UNL     1      20.505  75.114  20.830  1.00  0.00     0.004 C 
ENDBRANCH  10  11
ENDBRANCH   9  10
ENDBRANCH   8   9
ENDBRANCH   7   8
ENDBRANCH   6   7
ENDBRANCH   5   6
ENDBRANCH   4   5
ENDBRANCH   3   4
ENDBRANCH   2   3
ENDBRANCH   1   2
BRANCH   1  13
ATOM     13  C   UNL     1      18.892  72.172  18.949  1.00  0.00     0.000 C 
BRANCH  13  14
ATOM     14  C   UNL     1      18.833  70.740  18.398  1.00  0.00     0.000 C 
BRANCH  14  15
ATOM     15  C   UNL     1      17.866  70.605  17.210  1.00  0.00     0.000 C 
BRANCH  15  16
ATOM     16  C   UNL     1      16.919  69.404  17.357  1.00  0.00     0.000 C 
BRANCH  16  17
ATOM     17  C   UNL     1      15.742  69.741  18.280  1.00  0.00     0.000 C 
BRANCH  17  18
ATOM     18  C   UNL     1      15.528  68.631  19.321  1.00  0.00     0.000 C 
BRANCH  18  19
ATOM     19  C   UNL     1      16.638  68.590  20.382  1.00  0.00     0.000 C 
BRANCH  19  20
ATOM     20  C   UNL     1      16.247  69.329  21.674  1.00  0.00     0.006 C 
BRANCH  20  21
ATOM     21  C   UNL     1      17.398  69.375  22.687  1.00  0.00     0.053 C 
BRANCH  21  22
ATOM     22  C   UNL     1      17.007  68.770  24.002  1.00  0.00     0.041 C 
ATOM     23  O   UNL     1      17.302  67.575  24.263  1.00  0.00    -0.550 OA
ATOM     24  O   UNL     1      16.341  69.538  24.948  1.00  0.00    -0.550 OA
ENDBRANCH  21  22
ENDBRANCH  20  21
ENDBRANCH  19  20
ENDBRANCH  18  19
ENDBRANCH  17  18
ENDBRANCH  16  17
ENDBRANCH  15  16
ENDBRANCH  14  15
ENDBRANCH  13  14
ENDBRANCH   1  13
TORSDOF 20
ENDMDL
MODEL 3
REMARK VINA RESULT:    -4.656      1.201      2.317
REMARK INTER + INTRA:         -13.215
REMARK INTER:                 -10.464
REMARK INTRA:                  -2.750
REMARK UNBOUND:                -3.115
REMARK SMILES CCCCCCCCCCCCCCCCCCCCCC(=O)[O-]
REMARK SMILES IDX 12 1 11 2 10 3 9 4 8 5 7 6 6 7 5 8 4 9 3 10 2 11 1 12 13 13
REMARK SMILES IDX 14 14 15 15 16 16 17 17 18 18 19 19 20 20 21 21 22 22 23 23
REMARK SMILES IDX 24 24
REMARK H PARENT
REMARK Flexibility Score: inf
ROOT
ATOM      1  C   UNL     1      17.042  72.888  20.215  1.00  0.00     0.000 C 
ENDROOT
BRANCH   1   2
ATOM      2  C   UNL     1      16.861  73.645  18.890  1.00  0.00     0.000 C 
BRANCH   2   3
ATOM      3  C   UNL     1      18.080  73.520  17.963  1.00  0.00     0.000 C 
BRANCH   3   4
ATOM      4  C   UNL     1      17.891  74.276  16.636  1.00  0.00    -0.000 C 
BRANCH   4   5
ATOM      5  C   UNL     1      16.918  75.459  16.767  1.00  0.00    -0.000 C 
BRANCH   5   6
ATOM      6  C   UNL     1      17.491  76.764  16.186  1.00  0.00    -0.000 C 
BRANCH   6   7
ATOM      7  C   UNL     1      19.017  76.871  16.384  1.00  0.00    -0.000 C 
BRANCH   7   8
ATOM      8  C   UNL     1      19.470  78.216  16.979  1.00  0.00    -0.000 C 
BRANCH   8   9
ATOM      9  C   UNL     1      19.894  78.108  18.453  1.00  0.00    -0.000 C 
BRANCH   9  10
ATOM     10  C   UNL     1      19.425  76.786  19.097  1.00  0.00    -0.000 C 
BRANCH  10  11
ATOM     11  C   UNL     1      20.578  75.825  19.434  1.00  0.00    -0.003 C 
ATOM     12  C   UNL     1      20.460  75.213  20.828  1.00  0.00     0.004 C 
ENDBRANCH  10  11
ENDBRANCH   9  10
ENDBRANCH   8   9
ENDBRANCH   7   8
ENDBRANCH   6   7
ENDBRANCH   5   6
ENDBRANCH   4   5
ENDBRANCH   3   4
ENDBRANCH   2   3
ENDBRANCH   1   2
BRANCH   1  13
ATOM     13  C   UNL     1      18.355  72.096  20.218  1.00  0.00     0.000 C 
BRANCH  13  14
ATOM     14  C   UNL     1      18.118  70.639  20.643  1.00  0.00     0.000 C 
BRANCH  14  15
ATOM     15  C   UNL     1      17.326  69.840  19.595  1.00  0.00     0.000 C 
BRANCH  15  16
ATOM     16  C   UNL     1      18.125  69.614  18.302  1.00  0.00     0.000 C 
BRANCH  16  17
ATOM     17  C   UNL     1      17.318  70.049  17.074  1.00  0.00     0.000 C 
BRANCH  17  18
ATOM     18  C   UNL     1      15.809  69.936  17.342  1.00  0.00     0.000 C 
BRANCH  18  19
ATOM     19  C   UNL     1      15.256  68.534  17.041  1.00  0.00     0.000 C 
BRANCH  19  20
ATOM     20  C   UNL     1      14.092  68.147  17.970  1.00  0.00     0.006 C 
BRANCH  20  21
ATOM     21  C   UNL     1      13.408  66.846  17.531  1.00  0.00     0.053 C 
BRANCH  21  22
ATOM     22  C   UNL     1      12.434  66.355  18.560  1.00  0.00     0.041 C 
ATOM     23  O   UNL     1      12.545  66.716  19.760  1.00  0.00    -0.550 OA
ATOM     24  O   UNL     1      11.389  65.522  18.185  1.00  0.00    -0.550 OA
ENDBRANCH  21  22
ENDBRANCH  20  21
ENDBRANCH  19  20
ENDBRANCH  18  19
ENDBRANCH  17  18
ENDBRANCH  16  17
ENDBRANCH  15  16
ENDBRANCH  14  15
ENDBRANCH  13  14
ENDBRANCH   1  13
TORSDOF 20
ENDMDL
MODEL 4
REMARK VINA RESULT:    -4.641      3.196      7.976
REMARK INTER + INTRA:         -13.181
REMARK INTER:                 -10.193
REMARK INTRA:                  -2.988
REMARK UNBOUND:                -3.115
REMARK SMILES CCCCCCCCCCCCCCCCCCCCCC(=O)[O-]
REMARK SMILES IDX 12 1 11 2 10 3 9 4 8 5 7 6 6 7 5 8 4 9 3 10 2 11 1 12 13 13
REMARK SMILES IDX 14 14 15 15 16 16 17 17 18 18 19 19 20 20 21 21 22 22 23 23
REMARK SMILES IDX 24 24
REMARK H PARENT
REMARK Flexibility Score: inf
ROOT
ATOM      1  C   UNL     1      16.419  73.153  19.695  1.00  0.00     0.000 C 
ENDROOT
BRANCH   1   2
ATOM      2  C   UNL     1      15.663  71.819  19.804  1.00  0.00     0.000 C 
BRANCH   2   3
ATOM      3  C   UNL     1      16.117  70.975  21.005  1.00  0.00     0.000 C 
BRANCH   3   4
ATOM      4  C   UNL     1      17.229  69.977  20.636  1.00  0.00    -0.000 C 
BRANCH   4   5
ATOM      5  C   UNL     1      18.590  70.662  20.432  1.00  0.00    -0.000 C 
BRANCH   5   6
ATOM      6  C   UNL     1      19.100  70.545  18.984  1.00  0.00    -0.000 C 
BRANCH   6   7
ATOM      7  C   UNL     1      18.175  69.677  18.107  1.00  0.00    -0.000 C 
BRANCH   7   8
ATOM      8  C   UNL     1      17.531  70.446  16.940  1.00  0.00    -0.000 C 
BRANCH   8   9
ATOM      9  C   UNL     1      16.434  69.641  16.224  1.00  0.00    -0.000 C 
BRANCH   9  10
ATOM     10  C   UNL     1      15.063  69.779  16.920  1.00  0.00    -0.000 C 
BRANCH  10  11
ATOM     11  C   UNL     1      14.447  68.433  17.334  1.00  0.00    -0.003 C 
ATOM     12  C   UNL     1      14.628  68.122  18.818  1.00  0.00     0.004 C 
ENDBRANCH  10  11
ENDBRANCH   9  10
ENDBRANCH   8   9
ENDBRANCH   7   8
ENDBRANCH   6   7
ENDBRANCH   5   6
ENDBRANCH   4   5
ENDBRANCH   3   4
ENDBRANCH   2   3
ENDBRANCH   1   2
BRANCH   1  13
ATOM     13  C   UNL     1      16.257  73.760  18.296  1.00  0.00     0.000 C 
BRANCH  13  14
ATOM     14  C   UNL     1      16.522  75.273  18.320  1.00  0.00     0.000 C 
BRANCH  14  15
ATOM     15  C   UNL     1      16.774  75.849  16.916  1.00  0.00     0.000 C 
BRANCH  15  16
ATOM     16  C   UNL     1      18.110  75.382  16.321  1.00  0.00     0.000 C 
BRANCH  16  17
ATOM     17  C   UNL     1      18.982  76.577  15.920  1.00  0.00     0.000 C 
BRANCH  17  18
ATOM     18  C   UNL     1      19.056  77.607  17.057  1.00  0.00     0.000 C 
BRANCH  18  19
ATOM     19  C   UNL     1      20.501  77.948  17.456  1.00  0.00     0.000 C 
BRANCH  19  20
ATOM     20  C   UNL     1      21.023  77.060  18.598  1.00  0.00     0.006 C 
BRANCH  20  21
ATOM     21  C   UNL     1      19.886  76.504  19.466  1.00  0.00     0.053 C 
BRANCH  21  22
ATOM     22  C   UNL     1      20.182  75.116  19.948  1.00  0.00     0.041 C 
ATOM     23  O   UNL     1      20.664  74.934  21.096  1.00  0.00    -0.550 OA
ATOM     24  O   UNL     1      19.898  74.024  19.139  1.00  0.00    -0.550 OA
ENDBRANCH  21  22
ENDBRANCH  20  21
ENDBRANCH  19  20
ENDBRANCH  18  19
ENDBRANCH  17  18
ENDBRANCH  16  17
ENDBRANCH  15  16
ENDBRANCH  14  15
ENDBRANCH  13  14
ENDBRANCH   1  13
TORSDOF 20
ENDMDL
MODEL 5
REMARK VINA RESULT:    -4.586      2.982      3.961
REMARK INTER + INTRA:         -13.063
REMARK INTER:                  -9.695
REMARK INTRA:                  -3.368
REMARK UNBOUND:                -3.115
REMARK SMILES CCCCCCCCCCCCCCCCCCCCCC(=O)[O-]
REMARK SMILES IDX 12 1 11 2 10 3 9 4 8 5 7 6 6 7 5 8 4 9 3 10 2 11 1 12 13 13
REMARK SMILES IDX 14 14 15 15 16 16 17 17 18 18 19 19 20 20 21 21 22 22 23 23
REMARK SMILES IDX 24 24
REMARK H PARENT
REMARK Flexibility Score: inf
ROOT
ATOM      1  C   UNL     1      18.210  72.530  20.298  1.00  0.00     0.000 C 
ENDROOT
BRANCH   1   2
ATOM      2  C   UNL     1      16.822  73.029  19.866  1.00  0.00     0.000 C 
BRANCH   2   3
ATOM      3  C   UNL     1      16.895  74.183  18.854  1.00  0.00     0.000 C 
BRANCH   3   4
ATOM      4  C   UNL     1      17.711  73.818  17.601  1.00  0.00    -0.000 C 
BRANCH   4   5
ATOM      5  C   UNL     1      17.411  74.747  16.414  1.00  0.00    -0.000 C 
BRANCH   5   6
ATOM      6  C   UNL     1      17.260  76.219  16.838  1.00  0.00    -0.000 C 
BRANCH   6   7
ATOM      7  C   UNL     1      18.412  77.099  16.310  1.00  0.00    -0.000 C 
BRANCH   7   8
ATOM      8  C   UNL     1      19.219  77.792  17.422  1.00  0.00    -0.000 C 
BRANCH   8   9
ATOM      9  C   UNL     1      20.670  77.291  17.512  1.00  0.00    -0.000 C 
BRANCH   9  10
ATOM     10  C   UNL     1      20.786  75.994  18.342  1.00  0.00    -0.000 C 
BRANCH  10  11
ATOM     11  C   UNL     1      19.965  76.021  19.641  1.00  0.00    -0.003 C 
ATOM     12  C   UNL     1      20.648  75.294  20.797  1.00  0.00     0.004 C 
ENDBRANCH  10  11
ENDBRANCH   9  10
ENDBRANCH   8   9
ENDBRANCH   7   8
ENDBRANCH   6   7
ENDBRANCH   5   6
ENDBRANCH   4   5
ENDBRANCH   3   4
ENDBRANCH   2   3
ENDBRANCH   1   2
BRANCH   1  13
ATOM     13  C   UNL     1      18.286  71.000  20.231  1.00  0.00     0.000 C 
BRANCH  13  14
ATOM     14  C   UNL     1      18.947  70.539  18.924  1.00  0.00     0.000 C 
BRANCH  14  15
ATOM     15  C   UNL     1      18.064  69.563  18.128  1.00  0.00     0.000 C 
BRANCH  15  16
ATOM     16  C   UNL     1      17.060  70.288  17.219  1.00  0.00     0.000 C 
BRANCH  16  17
ATOM     17  C   UNL     1      15.640  70.204  17.790  1.00  0.00     0.000 C 
BRANCH  17  18
ATOM     18  C   UNL     1      14.746  71.306  17.199  1.00  0.00     0.000 C 
BRANCH  18  19
ATOM     19  C   UNL     1      13.632  71.747  18.163  1.00  0.00     0.000 C 
BRANCH  19  20
ATOM     20  C   UNL     1      13.371  73.262  18.108  1.00  0.00     0.006 C 
BRANCH  20  21
ATOM     21  C   UNL     1      12.145  73.669  18.935  1.00  0.00     0.053 C 
BRANCH  21  22
ATOM     22  C   UNL     1      10.990  74.060  18.063  1.00  0.00     0.041 C 
ATOM     23  O   UNL     1       9.861  74.286  18.570  1.00  0.00    -0.550 OA
ATOM     24  O   UNL     1      11.171  74.201  16.693  1.00  0.00    -0.550 OA
ENDBRANCH  21  22
ENDBRANCH  20  21
ENDBRANCH  19  20
ENDBRANCH  18  19
ENDBRANCH  17  18
ENDBRANCH  16  17
ENDBRANCH  15  16
ENDBRANCH  14  15
ENDBRANCH  13  14
ENDBRANCH   1  13
TORSDOF 20
ENDMDL
MODEL 6
REMARK VINA RESULT:    -4.558      2.590      5.166
REMARK INTER + INTRA:         -13.002
REMARK INTER:                  -9.952
REMARK INTRA:                  -3.050
REMARK UNBOUND:                -3.115
REMARK SMILES CCCCCCCCCCCCCCCCCCCCCC(=O)[O-]
REMARK SMILES IDX 12 1 11 2 10 3 9 4 8 5 7 6 6 7 5 8 4 9 3 10 2 11 1 12 13 13
REMARK SMILES IDX 14 14 15 15 16 16 17 17 18 18 19 19 20 20 21 21 22 22 23 23
REMARK SMILES IDX 24 24
REMARK H PARENT
REMARK Flexibility Score: inf
ROOT
ATOM      1  C   UNL     1      20.507  75.399  20.411  1.00  0.00     0.000 C 
ENDROOT
BRANCH   1   2
ATOM      2  C   UNL     1      21.414  76.409  19.692  1.00  0.00     0.000 C 
BRANCH   2   3
ATOM      3  C   UNL     1      20.985  76.665  18.239  1.00  0.00     0.000 C 
BRANCH   3   4
ATOM      4  C   UNL     1      20.519  78.114  18.009  1.00  0.00    -0.000 C 
BRANCH   4   5
ATOM      5  C   UNL     1      19.458  78.220  16.902  1.00  0.00    -0.000 C 
BRANCH   5   6
ATOM      6  C   UNL     1      18.957  76.844  16.427  1.00  0.00    -0.000 C 
BRANCH   6   7
ATOM      7  C   UNL     1      17.456  76.639  16.714  1.00  0.00    -0.000 C 
BRANCH   7   8
ATOM      8  C   UNL     1      16.995  75.177  16.572  1.00  0.00    -0.000 C 
BRANCH   8   9
ATOM      9  C   UNL     1      15.760  74.852  17.428  1.00  0.00    -0.000 C 
BRANCH   9  10
ATOM     10  C   UNL     1      14.888  73.745  16.795  1.00  0.00    -0.000 C 
BRANCH  10  11
ATOM     11  C   UNL     1      14.771  72.484  17.666  1.00  0.00    -0.003 C 
ATOM     12  C   UNL     1      14.241  72.771  19.070  1.00  0.00     0.004 C 
ENDBRANCH  10  11
ENDBRANCH   9  10
ENDBRANCH   8   9
ENDBRANCH   7   8
ENDBRANCH   6   7
ENDBRANCH   5   6
ENDBRANCH   4   5
ENDBRANCH   3   4
ENDBRANCH   2   3
ENDBRANCH   1   2
BRANCH   1  13
ATOM     13  C   UNL     1      19.770  74.510  19.401  1.00  0.00     0.000 C 
BRANCH  13  14
ATOM     14  C   UNL     1      18.810  73.547  20.115  1.00  0.00     0.000 C 
BRANCH  14  15
ATOM     15  C   UNL     1      18.018  72.669  19.131  1.00  0.00     0.000 C 
BRANCH  15  16
ATOM     16  C   UNL     1      18.915  71.678  18.374  1.00  0.00     0.000 C 
BRANCH  16  17
ATOM     17  C   UNL     1      18.089  70.800  17.428  1.00  0.00     0.000 C 
BRANCH  17  18
ATOM     18  C   UNL     1      17.814  69.425  18.057  1.00  0.00     0.000 C 
BRANCH  18  19
ATOM     19  C   UNL     1      16.365  69.277  18.548  1.00  0.00     0.000 C 
BRANCH  19  20
ATOM     20  C   UNL     1      16.283  68.813  20.013  1.00  0.00     0.006 C 
BRANCH  20  21
ATOM     21  C   UNL     1      16.314  69.990  20.996  1.00  0.00     0.053 C 
BRANCH  21  22
ATOM     22  C   UNL     1      17.445  69.870  21.972  1.00  0.00     0.041 C 
ATOM     23  O   UNL     1      18.568  70.373  21.706  1.00  0.00    -0.550 OA
ATOM     24  O   UNL     1      17.249  69.227  23.187  1.00  0.00    -0.550 OA
ENDBRANCH  21  22
ENDBRANCH  20  21
ENDBRANCH  19  20
ENDBRANCH  18  19
ENDBRANCH  17  18
ENDBRANCH  16  17
ENDBRANCH  15  16
ENDBRANCH  14  15
ENDBRANCH  13  14
ENDBRANCH   1  13
TORSDOF 20
ENDMDL
MODEL 7
REMARK VINA RESULT:    -4.537      4.326      8.661
REMARK INTER + INTRA:         -12.957
REMARK INTER:                 -10.349
REMARK INTRA:                  -2.608
REMARK UNBOUND:                -3.115
REMARK SMILES CCCCCCCCCCCCCCCCCCCCCC(=O)[O-]
REMARK SMILES IDX 12 1 11 2 10 3 9 4 8 5 7 6 6 7 5 8 4 9 3 10 2 11 1 12 13 13
REMARK SMILES IDX 14 14 15 15 16 16 17 17 18 18 19 19 20 20 21 21 22 22 23 23
REMARK SMILES IDX 24 24
REMARK H PARENT
REMARK Flexibility Score: inf
ROOT
ATOM      1  C   UNL     1      15.408  70.091  18.068  1.00  0.00     0.000 C 
ENDROOT
BRANCH   1   2
ATOM      2  C   UNL     1      16.796  70.212  17.419  1.00  0.00     0.000 C 
BRANCH   2   3
ATOM      3  C   UNL     1      17.907  69.573  18.268  1.00  0.00     0.000 C 
BRANCH   3   4
ATOM      4  C   UNL     1      18.648  70.603  19.139  1.00  0.00    -0.000 C 
BRANCH   4   5
ATOM      5  C   UNL     1      18.077  70.689  20.563  1.00  0.00    -0.000 C 
BRANCH   5   6
ATOM      6  C   UNL     1      17.270  69.437  20.953  1.00  0.00    -0.000 C 
BRANCH   6   7
ATOM      7  C   UNL     1      16.389  69.675  22.197  1.00  0.00    -0.000 C 
BRANCH   7   8
ATOM      8  C   UNL     1      17.087  69.326  23.524  1.00  0.00    -0.000 C 
BRANCH   8   9
ATOM      9  C   UNL     1      16.948  67.842  23.902  1.00  0.00    -0.000 C 
BRANCH   9  10
ATOM     10  C   UNL     1      17.005  67.623  25.430  1.00  0.00    -0.000 C 
BRANCH  10  11
ATOM     11  C   UNL     1      17.497  66.223  25.831  1.00  0.00    -0.003 C 
ATOM     12  C   UNL     1      16.358  65.251  26.131  1.00  0.00     0.004 C 
ENDBRANCH  10  11
ENDBRANCH   9  10
ENDBRANCH   8   9
ENDBRANCH   7   8
ENDBRANCH   6   7
ENDBRANCH   5   6
ENDBRANCH   4   5
ENDBRANCH   3   4
ENDBRANCH   2   3
ENDBRANCH   1   2
BRANCH   1  13
ATOM     13  C   UNL     1      14.680  71.441  18.058  1.00  0.00     0.000 C 
BRANCH  13  14
ATOM     14  C   UNL     1      15.006  72.251  19.321  1.00  0.00     0.000 C 
BRANCH  14  15
ATOM     15  C   UNL     1      15.942  73.438  19.034  1.00  0.00     0.000 C 
BRANCH  15  16
ATOM     16  C   UNL     1      15.912  73.868  17.560  1.00  0.00     0.000 C 
BRANCH  16  17
ATOM     17  C   UNL     1      17.329  73.953  16.982  1.00  0.00     0.000 C 
BRANCH  17  18
ATOM     18  C   UNL     1      18.378  73.969  18.104  1.00  0.00     0.000 C 
BRANCH  18  19
ATOM     19  C   UNL     1      19.756  74.450  17.622  1.00  0.00     0.000 C 
BRANCH  19  20
ATOM     20  C   UNL     1      19.988  75.946  17.899  1.00  0.00     0.006 C 
BRANCH  20  21
ATOM     21  C   UNL     1      19.706  76.315  19.361  1.00  0.00     0.053 C 
BRANCH  21  22
ATOM     22  C   UNL     1      20.799  75.846  20.273  1.00  0.00     0.041 C 
ATOM     23  O   UNL     1      21.962  76.314  20.163  1.00  0.00    -0.550 OA
ATOM     24  O   UNL     1      20.524  74.914  21.265  1.00  0.00    -0.550 OA
ENDBRANCH  21  22
ENDBRANCH  20  21
ENDBRANCH  19  20
ENDBRANCH  18  19
ENDBRANCH  17  18
ENDBRANCH  16  17
ENDBRANCH  15  16
ENDBRANCH  14  15
ENDBRANCH  13  14
ENDBRANCH   1  13
TORSDOF 20
ENDMDL
MODEL 8
REMARK VINA RESULT:    -4.470      4.096      8.359
REMARK INTER + INTRA:         -12.812
REMARK INTER:                  -9.472
REMARK INTRA:                  -3.341
REMARK UNBOUND:                -3.115
REMARK SMILES CCCCCCCCCCCCCCCCCCCCCC(=O)[O-]
REMARK SMILES IDX 12 1 11 2 10 3 9 4 8 5 7 6 6 7 5 8 4 9 3 10 2 11 1 12 13 13
REMARK SMILES IDX 14 14 15 15 16 16 17 17 18 18 19 19 20 20 21 21 22 22 23 23
REMARK SMILES IDX 24 24
REMARK H PARENT
REMARK Flexibility Score: inf
ROOT
ATOM      1  C   UNL     1      17.075  71.006  20.731  1.00  0.00     0.000 C 
ENDROOT
BRANCH   1   2
ATOM      2  C   UNL     1      17.267  69.629  20.076  1.00  0.00     0.000 C 
BRANCH   2   3
ATOM      3  C   UNL     1      18.126  69.691  18.804  1.00  0.00     0.000 C 
BRANCH   3   4
ATOM      4  C   UNL     1      17.287  69.566  17.520  1.00  0.00    -0.000 C 
BRANCH   4   5
ATOM      5  C   UNL     1      17.278  70.864  16.696  1.00  0.00    -0.000 C 
BRANCH   5   6
ATOM      6  C   UNL     1      15.855  71.401  16.454  1.00  0.00    -0.000 C 
BRANCH   6   7
ATOM      7  C   UNL     1      15.004  71.401  17.741  1.00  0.00    -0.000 C 
BRANCH   7   8
ATOM      8  C   UNL     1      13.490  71.482  17.479  1.00  0.00    -0.000 C 
BRANCH   8   9
ATOM      9  C   UNL     1      12.859  70.113  17.178  1.00  0.00    -0.000 C 
BRANCH   9  10
ATOM     10  C   UNL     1      13.623  68.958  17.860  1.00  0.00    -0.000 C 
BRANCH  10  11
ATOM     11  C   UNL     1      13.667  67.671  17.020  1.00  0.00    -0.003 C 
ATOM     12  C   UNL     1      14.675  67.737  15.875  1.00  0.00     0.004 C 
ENDBRANCH  10  11
ENDBRANCH   9  10
ENDBRANCH   8   9
ENDBRANCH   7   8
ENDBRANCH   6   7
ENDBRANCH   5   6
ENDBRANCH   4   5
ENDBRANCH   3   4
ENDBRANCH   2   3
ENDBRANCH   1   2
BRANCH   1  13
ATOM     13  C   UNL     1      18.238  71.943  20.385  1.00  0.00     0.000 C 
BRANCH  13  14
ATOM     14  C   UNL     1      17.743  73.170  19.605  1.00  0.00     0.000 C 
BRANCH  14  15
ATOM     15  C   UNL     1      18.897  74.050  19.096  1.00  0.00     0.000 C 
BRANCH  15  16
ATOM     16  C   UNL     1      19.107  73.924  17.579  1.00  0.00     0.000 C 
BRANCH  16  17
ATOM     17  C   UNL     1      17.948  74.568  16.808  1.00  0.00     0.000 C 
BRANCH  17  18
ATOM     18  C   UNL     1      18.441  75.760  15.974  1.00  0.00     0.000 C 
BRANCH  18  19
ATOM     19  C   UNL     1      18.175  77.112  16.657  1.00  0.00     0.000 C 
BRANCH  19  20
ATOM     20  C   UNL     1      19.472  77.867  16.994  1.00  0.00     0.006 C 
BRANCH  20  21
ATOM     21  C   UNL     1      19.991  77.530  18.398  1.00  0.00     0.053 C 
BRANCH  21  22
ATOM     22  C   UNL     1      21.313  76.825  18.348  1.00  0.00     0.041 C 
ATOM     23  O   UNL     1      21.713  76.303  17.275  1.00  0.00    -0.550 OA
ATOM     24  O   UNL     1      22.115  76.772  19.480  1.00  0.00    -0.550 OA
ENDBRANCH  21  22
ENDBRANCH  20  21
ENDBRANCH  19  20
ENDBRANCH  18  19
ENDBRANCH  17  18
ENDBRANCH  16  17
ENDBRANCH  15  16
ENDBRANCH  14  15
ENDBRANCH  13  14
ENDBRANCH   1  13
TORSDOF 20
ENDMDL
MODEL 9
REMARK VINA RESULT:    -4.459      2.965      3.746
REMARK INTER + INTRA:         -12.787
REMARK INTER:                  -9.447
REMARK INTRA:                  -3.340
REMARK UNBOUND:                -3.115
REMARK SMILES CCCCCCCCCCCCCCCCCCCCCC(=O)[O-]
REMARK SMILES IDX 12 1 11 2 10 3 9 4 8 5 7 6 6 7 5 8 4 9 3 10 2 11 1 12 13 13
REMARK SMILES IDX 14 14 15 15 16 16 17 17 18 18 19 19 20 20 21 21 22 22 23 23
REMARK SMILES IDX 24 24
REMARK H PARENT
REMARK Flexibility Score: inf
ROOT
ATOM      1  C   UNL     1      17.071  71.711  20.430  1.00  0.00     0.000 C 
ENDROOT
BRANCH   1   2
ATOM      2  C   UNL     1      17.763  73.062  20.192  1.00  0.00     0.000 C 
BRANCH   2   3
ATOM      3  C   UNL     1      18.367  73.181  18.784  1.00  0.00     0.000 C 
BRANCH   3   4
ATOM      4  C   UNL     1      19.696  73.957  18.778  1.00  0.00    -0.000 C 
BRANCH   4   5
ATOM      5  C   UNL     1      19.879  74.819  20.037  1.00  0.00    -0.000 C 
BRANCH   5   6
ATOM      6  C   UNL     1      20.818  76.017  19.802  1.00  0.00    -0.000 C 
BRANCH   6   7
ATOM      7  C   UNL     1      20.927  76.390  18.310  1.00  0.00    -0.000 C 
BRANCH   7   8
ATOM      8  C   UNL     1      20.629  77.872  18.020  1.00  0.00    -0.000 C 
BRANCH   8   9
ATOM      9  C   UNL     1      19.595  78.069  16.900  1.00  0.00    -0.000 C 
BRANCH   9  10
ATOM     10  C   UNL     1      18.371  77.143  17.070  1.00  0.00    -0.000 C 
BRANCH  10  11
ATOM     11  C   UNL     1      18.150  76.194  15.881  1.00  0.00    -0.003 C 
ATOM     12  C   UNL     1      16.805  75.472  15.932  1.00  0.00     0.004 C 
ENDBRANCH  10  11
ENDBRANCH   9  10
ENDBRANCH   8   9
ENDBRANCH   7   8
ENDBRANCH   6   7
ENDBRANCH   5   6
ENDBRANCH   4   5
ENDBRANCH   3   4
ENDBRANCH   2   3
ENDBRANCH   1   2
BRANCH   1  13
ATOM     13  C   UNL     1      18.073  70.555  20.319  1.00  0.00     0.000 C 
BRANCH  13  14
ATOM     14  C   UNL     1      17.526  69.437  19.420  1.00  0.00     0.000 C 
BRANCH  14  15
ATOM     15  C   UNL     1      18.006  69.563  17.965  1.00  0.00     0.000 C 
BRANCH  15  16
ATOM     16  C   UNL     1      16.841  69.699  16.972  1.00  0.00     0.000 C 
BRANCH  16  17
ATOM     17  C   UNL     1      17.089  70.847  15.987  1.00  0.00     0.000 C 
BRANCH  17  18
ATOM     18  C   UNL     1      15.978  71.904  16.087  1.00  0.00     0.000 C 
BRANCH  18  19
ATOM     19  C   UNL     1      15.131  71.756  17.361  1.00  0.00     0.000 C 
BRANCH  19  20
ATOM     20  C   UNL     1      14.762  73.114  17.984  1.00  0.00     0.006 C 
BRANCH  20  21
ATOM     21  C   UNL     1      13.578  73.003  18.954  1.00  0.00     0.053 C 
BRANCH  21  22
ATOM     22  C   UNL     1      12.350  73.667  18.409  1.00  0.00     0.041 C 
ATOM     23  O   UNL     1      12.253  73.910  17.178  1.00  0.00    -0.550 OA
ATOM     24  O   UNL     1      11.301  73.992  19.259  1.00  0.00    -0.550 OA
ENDBRANCH  21  22
ENDBRANCH  20  21
ENDBRANCH  19  20
ENDBRANCH  18  19
ENDBRANCH  17  18
ENDBRANCH  16  17
ENDBRANCH  15  16
ENDBRANCH  14  15
ENDBRANCH  13  14
ENDBRANCH   1  13
TORSDOF 20
ENDMDL
