MODEL 1
REMARK VINA RESULT:    -2.855      0.000      0.000
REMARK INTER + INTRA:          -5.558
REMARK INTER:                  -4.524
REMARK INTRA:                  -1.034
REMARK UNBOUND:                -1.034
REMARK SMILES CCCCCCCCCCCC(=O)[O-]
REMARK SMILES IDX 7 1 8 2 9 3 10 4 11 5 12 6 13 7 14 8 6 9 5 10 4 11 3 12 2 13
REMARK SMILES IDX 1 14
REMARK H PARENT
REMARK Flexibility Score: inf
ROOT
ATOM      1  C   UNL     1      29.807  65.346  18.233  1.00  0.00     0.000 C 
ENDROOT
BRANCH   1   2
ATOM      2  C   UNL     1      31.078  65.996  18.802  1.00  0.00     0.000 C 
BRANCH   2   3
ATOM      3  C   UNL     1      32.198  64.961  18.965  1.00  0.00     0.000 C 
BRANCH   3   4
ATOM      4  C   UNL     1      31.642  63.620  19.460  1.00  0.00     0.006 C 
BRANCH   4   5
ATOM      5  C   UNL     1      32.745  62.561  19.533  1.00  0.00     0.053 C 
BRANCH   5   6
ATOM      6  C   UNL     1      32.632  61.772  20.798  1.00  0.00     0.041 C 
ATOM      7  O   UNL     1      32.947  62.292  21.900  1.00  0.00    -0.550 OA
ATOM      8  O   UNL     1      32.227  60.444  20.755  1.00  0.00    -0.550 OA
ENDBRANCH   5   6
ENDBRANCH   4   5
ENDBRANCH   3   4
ENDBRANCH   2   3
ENDBRANCH   1   2
BRANCH   1   9
ATOM      9  C   UNL     1      29.309  66.035  16.953  1.00  0.00     0.000 C 
BRANCH   9  10
ATOM     10  C   UNL     1      29.249  65.077  15.751  1.00  0.00    -0.000 C 
BRANCH  10  11
ATOM     11  C   UNL     1      30.332  63.987  15.810  1.00  0.00    -0.000 C 
BRANCH  11  12
ATOM     12  C   UNL     1      30.831  63.569  14.414  1.00  0.00    -0.000 C 
BRANCH  12  13
ATOM     13  C   UNL     1      32.328  63.227  14.404  1.00  0.00    -0.003 C 
ATOM     14  C   UNL     1      32.942  63.223  15.803  1.00  0.00     0.004 C 
ENDBRANCH  12  13
ENDBRANCH  11  12
ENDBRANCH  10  11
ENDBRANCH   9  10
ENDBRANCH   1   9
TORSDOF 10
ENDMDL
MODEL 2
REMARK VINA RESULT:    -2.733      1.275      2.251
REMARK INTER + INTRA:          -5.364
REMARK INTER:                  -4.469
REMARK INTRA:                  -0.895
REMARK UNBOUND:                -1.034
REMARK SMILES CCCCCCCCCCCC(=O)[O-]
REMARK SMILES IDX 7 1 8 2 9 3 10 4 11 5 12 6 13 7 14 8 6 9 5 10 4 11 3 12 2 13
REMARK SMILES IDX 1 14
REMARK H PARENT
REMARK Flexibility Score: inf
ROOT
ATOM      1  C   UNL     1      30.895  65.204  18.801  1.00  0.00     0.000 C 
ENDROOT
BRANCH   1   2
ATOM      2  C   UNL     1      30.848  65.340  20.331  1.00  0.00     0.000 C 
BRANCH   2   3
ATOM      3  C   UNL     1      32.253  65.232  20.935  1.00  0.00     0.000 C 
BRANCH   3   4
ATOM      4  C   UNL     1      32.464  63.868  21.602  1.00  0.00     0.006 C 
BRANCH   4   5
ATOM      5  C   UNL     1      32.695  62.774  20.556  1.00  0.00     0.053 C 
BRANCH   5   6
ATOM      6  C   UNL     1      32.685  61.424  21.198  1.00  0.00     0.041 C 
ATOM      7  O   UNL     1      32.604  60.386  20.490  1.00  0.00    -0.550 OA
ATOM      8  O   UNL     1      32.714  61.311  22.583  1.00  0.00    -0.550 OA
ENDBRANCH   5   6
ENDBRANCH   4   5
ENDBRANCH   3   4
ENDBRANCH   2   3
ENDBRANCH   1   2
BRANCH   1   9
ATOM      9  C   UNL     1      32.101  65.924  18.178  1.00  0.00     0.000 C 
BRANCH   9  10
ATOM     10  C   UNL     1      33.081  64.953  17.495  1.00  0.00    -0.000 C 
BRANCH  10  11
ATOM     11  C   UNL     1      32.380  63.706  16.932  1.00  0.00    -0.000 C 
BRANCH  11  12
ATOM     12  C   UNL     1      32.868  63.338  15.519  1.00  0.00    -0.000 C 
BRANCH  12  13
ATOM     13  C   UNL     1      31.709  63.040  14.556  1.00  0.00    -0.003 C 
ATOM     14  C   UNL     1      30.439  63.816  14.904  1.00  0.00     0.004 C 
ENDBRANCH  12  13
ENDBRANCH  11  12
ENDBRANCH  10  11
ENDBRANCH   9  10
ENDBRANCH   1   9
TORSDOF 10
ENDMDL
MODEL 3
REMARK VINA RESULT:    -2.510     13.043     15.011
REMARK INTER + INTRA:          -5.012
REMARK INTER:                  -4.163
REMARK INTRA:                  -0.849
REMARK UNBOUND:                -1.034
REMARK SMILES CCCCCCCCCCCC(=O)[O-]
REMARK SMILES IDX 7 1 8 2 9 3 10 4 11 5 12 6 13 7 14 8 6 9 5 10 4 11 3 12 2 13
REMARK SMILES IDX 1 14
REMARK H PARENT
REMARK Flexibility Score: inf
ROOT
ATOM      1  C   UNL     1      16.842  64.872  16.987  1.00  0.00     0.000 C 
ENDROOT
BRANCH   1   2
ATOM      2  C   UNL     1      16.718  65.939  15.888  1.00  0.00     0.000 C 
BRANCH   2   3
ATOM      3  C   UNL     1      18.049  66.125  15.150  1.00  0.00     0.000 C 
BRANCH   3   4
ATOM      4  C   UNL     1      19.235  66.012  16.115  1.00  0.00     0.006 C 
BRANCH   4   5
ATOM      5  C   UNL     1      20.566  66.125  15.366  1.00  0.00     0.053 C 
BRANCH   5   6
ATOM      6  C   UNL     1      21.677  65.543  16.180  1.00  0.00     0.041 C 
ATOM      7  O   UNL     1      21.454  64.581  16.961  1.00  0.00    -0.550 OA
ATOM      8  O   UNL     1      22.950  66.095  16.114  1.00  0.00    -0.550 OA
ENDBRANCH   5   6
ENDBRANCH   4   5
ENDBRANCH   3   4
ENDBRANCH   2   3
ENDBRANCH   1   2
BRANCH   1   9
ATOM      9  C   UNL     1      15.621  64.834  17.919  1.00  0.00     0.000 C 
BRANCH   9  10
ATOM     10  C   UNL     1      14.355  64.316  17.215  1.00  0.00    -0.000 C 
BRANCH  10  11
ATOM     11  C   UNL     1      13.332  65.430  16.943  1.00  0.00    -0.000 C 
BRANCH  11  12
ATOM     12  C   UNL     1      12.923  65.514  15.462  1.00  0.00    -0.000 C 
BRANCH  12  13
ATOM     13  C   UNL     1      13.379  64.288  14.656  1.00  0.00    -0.003 C 
ATOM     14  C   UNL     1      14.286  64.657  13.482  1.00  0.00     0.004 C 
ENDBRANCH  12  13
ENDBRANCH  11  12
ENDBRANCH  10  11
ENDBRANCH   9  10
ENDBRANCH   1   9
TORSDOF 10
ENDMDL
MODEL 4
REMARK VINA RESULT:    -2.472      3.239      5.883
REMARK INTER + INTRA:          -4.950
REMARK INTER:                  -4.235
REMARK INTRA:                  -0.715
REMARK UNBOUND:                -1.034
REMARK SMILES CCCCCCCCCCCC(=O)[O-]
REMARK SMILES IDX 7 1 8 2 9 3 10 4 11 5 12 6 13 7 14 8 6 9 5 10 4 11 3 12 2 13
REMARK SMILES IDX 1 14
REMARK H PARENT
REMARK Flexibility Score: inf
ROOT
ATOM      1  C   UNL     1      32.625  63.667  16.063  1.00  0.00     0.000 C 
ENDROOT
BRANCH   1   2
ATOM      2  C   UNL     1      31.756  63.153  14.904  1.00  0.00     0.000 C 
BRANCH   2   3
ATOM      3  C   UNL     1      30.353  63.770  14.954  1.00  0.00     0.000 C 
BRANCH   3   4
ATOM      4  C   UNL     1      30.171  64.627  16.212  1.00  0.00     0.006 C 
BRANCH   4   5
ATOM      5  C   UNL     1      29.044  65.646  16.025  1.00  0.00     0.053 C 
BRANCH   5   6
ATOM      6  C   UNL     1      27.795  65.176  16.699  1.00  0.00     0.041 C 
ATOM      7  O   UNL     1      26.859  64.676  16.020  1.00  0.00    -0.550 OA
ATOM      8  O   UNL     1      27.641  65.336  18.070  1.00  0.00    -0.550 OA
ENDBRANCH   5   6
ENDBRANCH   4   5
ENDBRANCH   3   4
ENDBRANCH   2   3
ENDBRANCH   1   2
BRANCH   1   9
ATOM      9  C   UNL     1      32.863  62.602  17.145  1.00  0.00     0.000 C 
BRANCH   9  10
ATOM     10  C   UNL     1      33.097  63.215  18.536  1.00  0.00    -0.000 C 
BRANCH  10  11
ATOM     11  C   UNL     1      31.808  63.296  19.371  1.00  0.00    -0.000 C 
BRANCH  11  12
ATOM     12  C   UNL     1      31.393  64.745  19.684  1.00  0.00    -0.000 C 
BRANCH  12  13
ATOM     13  C   UNL     1      31.634  65.121  21.154  1.00  0.00    -0.003 C 
ATOM     14  C   UNL     1      30.376  65.652  21.841  1.00  0.00     0.004 C 
ENDBRANCH  12  13
ENDBRANCH  11  12
ENDBRANCH  10  11
ENDBRANCH   9  10
ENDBRANCH   1   9
TORSDOF 10
ENDMDL
MODEL 5
REMARK VINA RESULT:    -2.390      3.211      5.841
REMARK INTER + INTRA:          -4.821
REMARK INTER:                  -4.318
REMARK INTRA:                  -0.503
REMARK UNBOUND:                -1.034
REMARK SMILES CCCCCCCCCCCC(=O)[O-]
REMARK SMILES IDX 7 1 8 2 9 3 10 4 11 5 12 6 13 7 14 8 6 9 5 10 4 11 3 12 2 13
REMARK SMILES IDX 1 14
REMARK H PARENT
REMARK Flexibility Score: inf
ROOT
ATOM      1  C   UNL     1      32.603  63.802  16.005  1.00  0.00     0.000 C 
ENDROOT
BRANCH   1   2
ATOM      2  C   UNL     1      31.656  63.126  15.003  1.00  0.00     0.000 C 
BRANCH   2   3
ATOM      3  C   UNL     1      30.338  63.900  14.885  1.00  0.00     0.000 C 
BRANCH   3   4
ATOM      4  C   UNL     1      29.976  64.580  16.211  1.00  0.00     0.006 C 
BRANCH   4   5
ATOM      5  C   UNL     1      28.986  65.726  15.990  1.00  0.00     0.053 C 
BRANCH   5   6
ATOM      6  C   UNL     1      27.703  65.457  16.711  1.00  0.00     0.041 C 
ATOM      7  O   UNL     1      27.635  65.605  17.960  1.00  0.00    -0.550 OA
ATOM      8  O   UNL     1      26.595  64.995  16.011  1.00  0.00    -0.550 OA
ENDBRANCH   5   6
ENDBRANCH   4   5
ENDBRANCH   3   4
ENDBRANCH   2   3
ENDBRANCH   1   2
BRANCH   1   9
ATOM      9  C   UNL     1      32.825  62.962  17.273  1.00  0.00     0.000 C 
BRANCH   9  10
ATOM     10  C   UNL     1      33.125  63.826  18.510  1.00  0.00    -0.000 C 
BRANCH  10  11
ATOM     11  C   UNL     1      31.984  63.800  19.539  1.00  0.00    -0.000 C 
BRANCH  11  12
ATOM     12  C   UNL     1      32.343  62.999  20.804  1.00  0.00    -0.000 C 
BRANCH  12  13
ATOM     13  C   UNL     1      32.847  61.585  20.482  1.00  0.00    -0.003 C 
ATOM     14  C   UNL     1      32.011  60.493  21.149  1.00  0.00     0.004 C 
ENDBRANCH  12  13
ENDBRANCH  11  12
ENDBRANCH  10  11
ENDBRANCH   9  10
ENDBRANCH   1   9
TORSDOF 10
ENDMDL
MODEL 6
REMARK VINA RESULT:    -2.262      1.798      2.495
REMARK INTER + INTRA:          -4.618
REMARK INTER:                  -4.092
REMARK INTRA:                  -0.525
REMARK UNBOUND:                -1.034
REMARK SMILES CCCCCCCCCCCC(=O)[O-]
REMARK SMILES IDX 7 1 8 2 9 3 10 4 11 5 12 6 13 7 14 8 6 9 5 10 4 11 3 12 2 13
REMARK SMILES IDX 1 14
REMARK H PARENT
REMARK Flexibility Score: inf
ROOT
ATOM      1  C   UNL     1      28.153  65.045  18.304  1.00  0.00     0.000 C 
ENDROOT
BRANCH   1   2
ATOM      2  C   UNL     1      28.898  66.118  19.113  1.00  0.00     0.000 C 
BRANCH   2   3
ATOM      3  C   UNL     1      28.545  66.025  20.603  1.00  0.00     0.000 C 
BRANCH   3   4
ATOM      4  C   UNL     1      29.799  65.795  21.454  1.00  0.00     0.006 C 
BRANCH   4   5
ATOM      5  C   UNL     1      31.039  65.628  20.573  1.00  0.00     0.053 C 
BRANCH   5   6
ATOM      6  C   UNL     1      31.825  64.428  20.995  1.00  0.00     0.041 C 
ATOM      7  O   UNL     1      31.797  63.377  20.302  1.00  0.00    -0.550 OA
ATOM      8  O   UNL     1      32.549  64.452  22.180  1.00  0.00    -0.550 OA
ENDBRANCH   5   6
ENDBRANCH   4   5
ENDBRANCH   3   4
ENDBRANCH   2   3
ENDBRANCH   1   2
BRANCH   1   9
ATOM      9  C   UNL     1      27.732  65.538  16.911  1.00  0.00     0.000 C 
BRANCH   9  10
ATOM     10  C   UNL     1      28.930  65.729  15.964  1.00  0.00    -0.000 C 
BRANCH  10  11
ATOM     11  C   UNL     1      30.014  64.657  16.160  1.00  0.00    -0.000 C 
BRANCH  11  12
ATOM     12  C   UNL     1      30.337  63.894  14.862  1.00  0.00    -0.000 C 
BRANCH  12  13
ATOM     13  C   UNL     1      31.663  63.125  14.947  1.00  0.00    -0.003 C 
ATOM     14  C   UNL     1      32.398  63.358  16.267  1.00  0.00     0.004 C 
ENDBRANCH  12  13
ENDBRANCH  11  12
ENDBRANCH  10  11
ENDBRANCH   9  10
ENDBRANCH   1   9
TORSDOF 10
ENDMDL
MODEL 7
REMARK VINA RESULT:    -2.226      4.321      6.484
REMARK INTER + INTRA:          -4.561
REMARK INTER:                  -4.013
REMARK INTRA:                  -0.548
REMARK UNBOUND:                -1.034
REMARK SMILES CCCCCCCCCCCC(=O)[O-]
REMARK SMILES IDX 7 1 8 2 9 3 10 4 11 5 12 6 13 7 14 8 6 9 5 10 4 11 3 12 2 13
REMARK SMILES IDX 1 14
REMARK H PARENT
REMARK Flexibility Score: inf
ROOT
ATOM      1  C   UNL     1      29.228  65.820  18.577  1.00  0.00     0.000 C 
ENDROOT
BRANCH   1   2
ATOM      2  C   UNL     1      29.629  66.088  17.119  1.00  0.00     0.000 C 
BRANCH   2   3
ATOM      3  C   UNL     1      28.490  65.722  16.159  1.00  0.00     0.000 C 
BRANCH   3   4
ATOM      4  C   UNL     1      27.279  65.175  16.924  1.00  0.00     0.006 C 
BRANCH   4   5
ATOM      5  C   UNL     1      26.081  66.121  16.805  1.00  0.00     0.053 C 
BRANCH   5   6
ATOM      6  C   UNL     1      24.972  65.470  16.041  1.00  0.00     0.041 C 
ATOM      7  O   UNL     1      23.790  65.887  16.162  1.00  0.00    -0.550 OA
ATOM      8  O   UNL     1      25.235  64.370  15.235  1.00  0.00    -0.550 OA
ENDBRANCH   5   6
ENDBRANCH   4   5
ENDBRANCH   3   4
ENDBRANCH   2   3
ENDBRANCH   1   2
BRANCH   1   9
ATOM      9  C   UNL     1      30.437  65.553  19.487  1.00  0.00     0.000 C 
BRANCH   9  10
ATOM     10  C   UNL     1      31.674  65.083  18.703  1.00  0.00    -0.000 C 
BRANCH  10  11
ATOM     11  C   UNL     1      32.051  63.625  19.014  1.00  0.00    -0.000 C 
BRANCH  11  12
ATOM     12  C   UNL     1      32.113  63.336  20.525  1.00  0.00    -0.000 C 
BRANCH  12  13
ATOM     13  C   UNL     1      33.034  62.154  20.860  1.00  0.00    -0.003 C 
ATOM     14  C   UNL     1      32.329  60.804  20.740  1.00  0.00     0.004 C 
ENDBRANCH  12  13
ENDBRANCH  11  12
ENDBRANCH  10  11
ENDBRANCH   9  10
ENDBRANCH   1   9
TORSDOF 10
ENDMDL
MODEL 8
REMARK VINA RESULT:    -2.221      3.686      6.563
REMARK INTER + INTRA:          -4.553
REMARK INTER:                  -3.929
REMARK INTRA:                  -0.624
REMARK UNBOUND:                -1.034
REMARK SMILES CCCCCCCCCCCC(=O)[O-]
REMARK SMILES IDX 7 1 8 2 9 3 10 4 11 5 12 6 13 7 14 8 6 9 5 10 4 11 3 12 2 13
REMARK SMILES IDX 1 14
REMARK H PARENT
REMARK Flexibility Score: inf
ROOT
ATOM      1  C   UNL     1      31.613  63.763  19.542  1.00  0.00     0.000 C 
ENDROOT
BRANCH   1   2
ATOM      2  C   UNL     1      32.362  64.423  18.374  1.00  0.00     0.000 C 
BRANCH   2   3
ATOM      3  C   UNL     1      31.668  65.721  17.941  1.00  0.00     0.000 C 
BRANCH   3   4
ATOM      4  C   UNL     1      30.152  65.632  18.148  1.00  0.00     0.006 C 
BRANCH   4   5
ATOM      5  C   UNL     1      29.431  65.352  16.827  1.00  0.00     0.053 C 
BRANCH   5   6
ATOM      6  C   UNL     1      27.979  65.089  17.067  1.00  0.00     0.041 C 
ATOM      7  O   UNL     1      27.224  64.780  16.107  1.00  0.00    -0.550 OA
ATOM      8  O   UNL     1      27.447  65.234  18.342  1.00  0.00    -0.550 OA
ENDBRANCH   5   6
ENDBRANCH   4   5
ENDBRANCH   3   4
ENDBRANCH   2   3
ENDBRANCH   1   2
BRANCH   1   9
ATOM      9  C   UNL     1      32.353  62.540  20.106  1.00  0.00     0.000 C 
BRANCH   9  10
ATOM     10  C   UNL     1      33.056  62.837  21.442  1.00  0.00    -0.000 C 
BRANCH  10  11
ATOM     11  C   UNL     1      32.583  64.155  22.077  1.00  0.00    -0.000 C 
BRANCH  11  12
ATOM     12  C   UNL     1      32.440  64.059  23.607  1.00  0.00    -0.000 C 
BRANCH  12  13
ATOM     13  C   UNL     1      31.682  65.255  24.203  1.00  0.00    -0.003 C 
ATOM     14  C   UNL     1      30.495  65.689  23.344  1.00  0.00     0.004 C 
ENDBRANCH  12  13
ENDBRANCH  11  12
ENDBRANCH  10  11
ENDBRANCH   9  10
ENDBRANCH   1   9
TORSDOF 10
ENDMDL
MODEL 9
REMARK VINA RESULT:    -2.209      1.819      3.915
REMARK INTER + INTRA:          -4.534
REMARK INTER:                  -4.010
REMARK INTRA:                  -0.524
REMARK UNBOUND:                -1.034
REMARK SMILES CCCCCCCCCCCC(=O)[O-]
REMARK SMILES IDX 7 1 8 2 9 3 10 4 11 5 12 6 13 7 14 8 6 9 5 10 4 11 3 12 2 13
REMARK SMILES IDX 1 14
REMARK H PARENT
REMARK Flexibility Score: inf
ROOT
ATOM      1  C   UNL     1      30.574  63.875  15.133  1.00  0.00     0.000 C 
ENDROOT
BRANCH   1   2
ATOM      2  C   UNL     1      31.893  63.088  15.165  1.00  0.00     0.000 C 
BRANCH   2   3
ATOM      3  C   UNL     1      32.844  63.653  16.227  1.00  0.00     0.000 C 
BRANCH   3   4
ATOM      4  C   UNL     1      33.125  62.618  17.323  1.00  0.00     0.006 C 
BRANCH   4   5
ATOM      5  C   UNL     1      32.760  63.167  18.705  1.00  0.00     0.053 C 
BRANCH   5   6
ATOM      6  C   UNL     1      32.924  62.110  19.750  1.00  0.00     0.041 C 
ATOM      7  O   UNL     1      32.936  62.422  20.970  1.00  0.00    -0.550 OA
ATOM      8  O   UNL     1      33.114  60.786  19.376  1.00  0.00    -0.550 OA
ENDBRANCH   5   6
ENDBRANCH   4   5
ENDBRANCH   3   4
ENDBRANCH   2   3
ENDBRANCH   1   2
BRANCH   1   9
ATOM      9  C   UNL     1      30.285  64.604  16.455  1.00  0.00     0.000 C 
BRANCH   9  10
ATOM     10  C   UNL     1      29.125  65.608  16.335  1.00  0.00    -0.000 C 
BRANCH  10  11
ATOM     11  C   UNL     1      28.363  65.790  17.657  1.00  0.00    -0.000 C 
BRANCH  11  12
ATOM     12  C   UNL     1      26.839  65.871  17.458  1.00  0.00    -0.000 C 
BRANCH  12  13
ATOM     13  C   UNL     1      26.385  65.242  16.132  1.00  0.00    -0.003 C 
ATOM     14  C   UNL     1      24.864  65.176  16.000  1.00  0.00     0.004 C 
ENDBRANCH  12  13
ENDBRANCH  11  12
ENDBRANCH  10  11
ENDBRANCH   9  10
ENDBRANCH   1   9
TORSDOF 10
ENDMDL
