MODEL 1
REMARK VINA RESULT:    -7.461      0.000      0.000
REMARK INTER + INTRA:         -12.327
REMARK INTER:                 -10.950
REMARK INTRA:                  -1.377
REMARK UNBOUND:                -1.377
REMARK SMILES O=c1c(OC[C@H]2O[C@H](O)[C@@H](O)[C@@H](O)[C@H]2O)c(-c2ccc(O)c(O)c2)oc2cc(O)cc(O)c12
REMARK SMILES IDX 4 1 3 2 16 3 25 4 2 5 26 6 1 7 33 8 27 9 31 10 28 11 30 12
REMARK SMILES IDX 17 13 18 14 19 15 20 16 24 17 22 18 21 19 23 21 32 23 29 25
REMARK SMILES IDX 5 27 6 28 14 29 7 30 12 31 8 32 10 33 15 34 13 36 9 38 11 40
REMARK H PARENT 21 20 23 22 32 24 29 26 15 35 13 37 9 39 11 41
REMARK Flexibility Score: inf
ROOT
ATOM      1  O   UNL     1       0.174 -20.603  28.235  1.00  0.00    -0.483 OA
ENDROOT
BRANCH   1   2
ATOM      2  C   UNL     1      -0.182 -21.884  28.697  1.00  0.00     0.211 A 
ATOM      3  C   UNL     1       0.265 -23.003  27.969  1.00  0.00     0.180 A 
ATOM      4  O   UNL     1       0.023 -24.232  28.413  1.00  0.00    -0.452 OA
ATOM      5  C   UNL     1      -0.940 -22.106  29.868  1.00  0.00     0.239 A 
ATOM      6  C   UNL     1      -0.664 -24.485  29.518  1.00  0.00     0.146 A 
ATOM      7  O   UNL     1      -1.397 -21.132  30.520  1.00  0.00    -0.285 OA
ATOM      8  C   UNL     1      -1.189 -23.427  30.297  1.00  0.00     0.111 A 
ATOM      9  C   UNL     1      -0.869 -25.814  29.901  1.00  0.00     0.094 A 
ATOM     10  C   UNL     1      -1.932 -23.735  31.465  1.00  0.00     0.134 A 
ATOM     11  C   UNL     1      -1.603 -26.112  31.052  1.00  0.00     0.123 A 
ATOM     12  C   UNL     1      -2.133 -25.076  31.826  1.00  0.00     0.093 A 
BRANCH   3  13
ATOM     13  C   UNL     1       1.037 -22.854  26.714  1.00  0.00     0.025 A 
ATOM     14  C   UNL     1       2.432 -22.673  26.732  1.00  0.00     0.016 A 
ATOM     15  C   UNL     1       3.141 -22.533  25.535  1.00  0.00     0.051 A 
ATOM     16  C   UNL     1       2.467 -22.560  24.306  1.00  0.00     0.157 A 
ATOM     17  C   UNL     1       0.364 -22.857  25.482  1.00  0.00     0.062 A 
ATOM     18  C   UNL     1       1.076 -22.720  24.280  1.00  0.00     0.158 A 
BRANCH  16  19
ATOM     19  O   UNL     1       3.172 -22.425  23.109  1.00  0.00    -0.504 OA
ATOM     20  H   UNL     1       3.247 -23.191  22.449  1.00  0.00     0.293 HD
ENDBRANCH  16  19
BRANCH  18  21
ATOM     21  O   UNL     1       0.406 -22.742  23.057  1.00  0.00    -0.504 OA
ATOM     22  H   UNL     1      -0.480 -23.220  22.950  1.00  0.00     0.293 HD
ENDBRANCH  18  21
ENDBRANCH   3  13
BRANCH  10  23
ATOM     23  O   UNL     1      -2.469 -22.722  32.268  1.00  0.00    -0.507 OA
ATOM     24  H   UNL     1      -3.432 -22.744  32.580  1.00  0.00     0.293 HD
ENDBRANCH  10  23
BRANCH  11  25
ATOM     25  O   UNL     1      -1.811 -27.435  31.436  1.00  0.00    -0.508 OA
ATOM     26  H   UNL     1      -1.905 -28.179  30.751  1.00  0.00     0.293 HD
ENDBRANCH  11  25
ENDBRANCH   1   2
BRANCH   1  27
ATOM     27  C   UNL     1      -0.723 -19.567  27.842  1.00  0.00     0.265 C 
BRANCH  27  28
ATOM     28  C   UNL     1      -0.154 -18.857  26.610  1.00  0.00     0.190 C 
ATOM     29  C   UNL     1      -1.250 -18.645  25.536  1.00  0.00     0.178 C 
ATOM     30  O   UNL     1       0.927 -19.625  26.102  1.00  0.00    -0.340 OA
ATOM     31  C   UNL     1      -0.635 -17.970  24.290  1.00  0.00     0.179 C 
ATOM     32  C   UNL     1       1.595 -18.970  25.033  1.00  0.00     0.279 C 
ATOM     33  C   UNL     1       0.662 -18.674  23.828  1.00  0.00     0.201 C 
BRANCH  29  34
ATOM     34  O   UNL     1      -1.915 -19.847  25.214  1.00  0.00    -0.387 OA
ATOM     35  H   UNL     1      -2.881 -19.728  25.409  1.00  0.00     0.211 HD
ENDBRANCH  29  34
BRANCH  31  36
ATOM     36  O   UNL     1      -1.572 -17.854  23.246  1.00  0.00    -0.387 OA
ATOM     37  H   UNL     1      -1.313 -18.483  22.522  1.00  0.00     0.211 HD
ENDBRANCH  31  36
BRANCH  32  38
ATOM     38  O   UNL     1       2.303 -17.842  25.487  1.00  0.00    -0.366 OA
ATOM     39  H   UNL     1       2.301 -17.155  24.779  1.00  0.00     0.213 HD
ENDBRANCH  32  38
BRANCH  33  40
ATOM     40  O   UNL     1       0.348 -19.878  23.170  1.00  0.00    -0.385 OA
ATOM     41  H   UNL     1       0.612 -19.771  22.219  1.00  0.00     0.211 HD
ENDBRANCH  33  40
ENDBRANCH  27  28
ENDBRANCH   1  27
TORSDOF 12
ENDMDL
MODEL 2
REMARK VINA RESULT:    -7.424      3.792      7.600
REMARK INTER + INTRA:         -12.273
REMARK INTER:                 -11.011
REMARK INTRA:                  -1.261
REMARK UNBOUND:                -1.377
REMARK SMILES O=c1c(OC[C@H]2O[C@H](O)[C@@H](O)[C@@H](O)[C@H]2O)c(-c2ccc(O)c(O)c2)oc2cc(O)cc(O)c12
REMARK SMILES IDX 4 1 3 2 16 3 25 4 2 5 26 6 1 7 33 8 27 9 31 10 28 11 30 12
REMARK SMILES IDX 17 13 18 14 19 15 20 16 24 17 22 18 21 19 23 21 32 23 29 25
REMARK SMILES IDX 5 27 6 28 14 29 7 30 12 31 8 32 10 33 15 34 13 36 9 38 11 40
REMARK H PARENT 21 20 23 22 32 24 29 26 15 35 13 37 9 39 11 41
REMARK Flexibility Score: inf
ROOT
ATOM      1  O   UNL     1       0.400 -17.662  28.342  1.00  0.00    -0.483 OA
ENDROOT
BRANCH   1   2
ATOM      2  C   UNL     1      -0.683 -16.767  28.256  1.00  0.00     0.211 A 
ATOM      3  C   UNL     1      -1.513 -16.832  27.119  1.00  0.00     0.180 A 
ATOM      4  O   UNL     1      -2.593 -16.064  27.034  1.00  0.00    -0.452 OA
ATOM      5  C   UNL     1      -0.999 -15.828  29.262  1.00  0.00     0.239 A 
ATOM      6  C   UNL     1      -2.939 -15.185  27.966  1.00  0.00     0.146 A 
ATOM      7  O   UNL     1      -0.256 -15.707  30.270  1.00  0.00    -0.285 OA
ATOM      8  C   UNL     1      -2.147 -15.019  29.126  1.00  0.00     0.111 A 
ATOM      9  C   UNL     1      -4.094 -14.421  27.782  1.00  0.00     0.094 A 
ATOM     10  C   UNL     1      -2.538 -14.060  30.094  1.00  0.00     0.134 A 
ATOM     11  C   UNL     1      -4.475 -13.476  28.739  1.00  0.00     0.123 A 
ATOM     12  C   UNL     1      -3.697 -13.296  29.886  1.00  0.00     0.093 A 
BRANCH   3  13
ATOM     13  C   UNL     1      -1.232 -17.766  26.006  1.00  0.00     0.025 A 
ATOM     14  C   UNL     1      -0.685 -17.314  24.792  1.00  0.00     0.016 A 
ATOM     15  C   UNL     1      -0.429 -18.214  23.753  1.00  0.00     0.051 A 
ATOM     16  C   UNL     1      -0.727 -19.576  23.907  1.00  0.00     0.157 A 
ATOM     17  C   UNL     1      -1.550 -19.127  26.147  1.00  0.00     0.062 A 
ATOM     18  C   UNL     1      -1.290 -20.032  25.106  1.00  0.00     0.158 A 
BRANCH  16  19
ATOM     19  O   UNL     1      -0.469 -20.478  22.875  1.00  0.00    -0.504 OA
ATOM     20  H   UNL     1       0.041 -21.338  23.038  1.00  0.00     0.293 HD
ENDBRANCH  16  19
BRANCH  18  21
ATOM     21  O   UNL     1      -1.590 -21.385  25.256  1.00  0.00    -0.504 OA
ATOM     22  H   UNL     1      -1.495 -22.035  24.485  1.00  0.00     0.293 HD
ENDBRANCH  18  21
ENDBRANCH   3  13
BRANCH  10  23
ATOM     23  O   UNL     1      -1.787 -13.861  31.259  1.00  0.00    -0.507 OA
ATOM     24  H   UNL     1      -1.849 -13.003  31.793  1.00  0.00     0.293 HD
ENDBRANCH  10  23
BRANCH  11  25
ATOM     25  O   UNL     1      -5.624 -12.709  28.559  1.00  0.00    -0.508 OA
ATOM     26  H   UNL     1      -5.991 -12.118  29.300  1.00  0.00     0.293 HD
ENDBRANCH  11  25
ENDBRANCH   1   2
BRANCH   1  27
ATOM     27  C   UNL     1       0.725 -18.489  29.456  1.00  0.00     0.265 C 
BRANCH  27  28
ATOM     28  C   UNL     1      -0.233 -19.683  29.485  1.00  0.00     0.190 C 
ATOM     29  C   UNL     1      -1.227 -19.568  30.668  1.00  0.00     0.178 C 
ATOM     30  O   UNL     1       0.530 -20.877  29.565  1.00  0.00    -0.340 OA
ATOM     31  C   UNL     1      -2.149 -20.808  30.697  1.00  0.00     0.179 C 
ATOM     32  C   UNL     1      -0.280 -22.040  29.466  1.00  0.00     0.279 C 
ATOM     33  C   UNL     1      -1.350 -22.128  30.587  1.00  0.00     0.201 C 
BRANCH  29  34
ATOM     34  O   UNL     1      -0.566 -19.370  31.898  1.00  0.00    -0.387 OA
ATOM     35  H   UNL     1      -0.136 -18.476  31.879  1.00  0.00     0.211 HD
ENDBRANCH  29  34
BRANCH  31  36
ATOM     36  O   UNL     1      -2.999 -20.799  31.819  1.00  0.00    -0.387 OA
ATOM     37  H   UNL     1      -3.862 -20.386  31.554  1.00  0.00     0.211 HD
ENDBRANCH  31  36
BRANCH  32  38
ATOM     38  O   UNL     1      -0.808 -22.187  28.170  1.00  0.00    -0.366 OA
ATOM     39  H   UNL     1      -1.736 -21.853  28.162  1.00  0.00     0.213 HD
ENDBRANCH  32  38
BRANCH  33  40
ATOM     40  O   UNL     1      -0.723 -22.415  31.814  1.00  0.00    -0.385 OA
ATOM     41  H   UNL     1      -0.017 -21.730  31.951  1.00  0.00     0.211 HD
ENDBRANCH  33  40
ENDBRANCH  27  28
ENDBRANCH   1  27
TORSDOF 12
ENDMDL
MODEL 3
REMARK VINA RESULT:    -7.304      1.443      1.772
REMARK INTER + INTRA:         -12.097
REMARK INTER:                 -10.868
REMARK INTRA:                  -1.229
REMARK UNBOUND:                -1.377
REMARK SMILES O=c1c(OC[C@H]2O[C@H](O)[C@@H](O)[C@@H](O)[C@H]2O)c(-c2ccc(O)c(O)c2)oc2cc(O)cc(O)c12
REMARK SMILES IDX 4 1 3 2 16 3 25 4 2 5 26 6 1 7 33 8 27 9 31 10 28 11 30 12
REMARK SMILES IDX 17 13 18 14 19 15 20 16 24 17 22 18 21 19 23 21 32 23 29 25
REMARK SMILES IDX 5 27 6 28 14 29 7 30 12 31 8 32 10 33 15 34 13 36 9 38 11 40
REMARK H PARENT 21 20 23 22 32 24 29 26 15 35 13 37 9 39 11 41
REMARK Flexibility Score: inf
ROOT
ATOM      1  O   UNL     1      -0.216 -20.068  28.397  1.00  0.00    -0.483 OA
ENDROOT
BRANCH   1   2
ATOM      2  C   UNL     1      -0.506 -21.366  28.856  1.00  0.00     0.211 A 
ATOM      3  C   UNL     1      -0.023 -22.460  28.112  1.00  0.00     0.180 A 
ATOM      4  O   UNL     1      -0.202 -23.701  28.552  1.00  0.00    -0.452 OA
ATOM      5  C   UNL     1      -1.231 -21.629  30.039  1.00  0.00     0.239 A 
ATOM      6  C   UNL     1      -0.856 -23.992  29.668  1.00  0.00     0.146 A 
ATOM      7  O   UNL     1      -1.720 -20.682  30.706  1.00  0.00    -0.285 OA
ATOM      8  C   UNL     1      -1.413 -22.963  30.463  1.00  0.00     0.111 A 
ATOM      9  C   UNL     1      -0.994 -25.330  30.045  1.00  0.00     0.094 A 
ATOM     10  C   UNL     1      -2.120 -23.311  31.642  1.00  0.00     0.134 A 
ATOM     11  C   UNL     1      -1.692 -25.668  31.207  1.00  0.00     0.123 A 
ATOM     12  C   UNL     1      -2.254 -24.663  31.997  1.00  0.00     0.093 A 
BRANCH   3  13
ATOM     13  C   UNL     1       0.719 -22.269  26.845  1.00  0.00     0.025 A 
ATOM     14  C   UNL     1       2.120 -22.378  26.795  1.00  0.00     0.016 A 
ATOM     15  C   UNL     1       2.800 -22.191  25.587  1.00  0.00     0.051 A 
ATOM     16  C   UNL     1       2.092 -21.883  24.417  1.00  0.00     0.157 A 
ATOM     17  C   UNL     1       0.017 -21.936  25.675  1.00  0.00     0.062 A 
ATOM     18  C   UNL     1       0.698 -21.753  24.462  1.00  0.00     0.158 A 
BRANCH  16  19
ATOM     19  O   UNL     1       2.767 -21.701  23.209  1.00  0.00    -0.504 OA
ATOM     20  H   UNL     1       2.563 -22.272  22.397  1.00  0.00     0.293 HD
ENDBRANCH  16  19
BRANCH  18  21
ATOM     21  O   UNL     1      -0.003 -21.441  23.298  1.00  0.00    -0.504 OA
ATOM     22  H   UNL     1      -0.092 -22.108  22.541  1.00  0.00     0.293 HD
ENDBRANCH  18  21
ENDBRANCH   3  13
BRANCH  10  23
ATOM     23  O   UNL     1      -2.687 -22.328  32.462  1.00  0.00    -0.507 OA
ATOM     24  H   UNL     1      -2.153 -21.533  32.789  1.00  0.00     0.293 HD
ENDBRANCH  10  23
BRANCH  11  25
ATOM     25  O   UNL     1      -1.834 -27.002  31.585  1.00  0.00    -0.508 OA
ATOM     26  H   UNL     1      -1.064 -27.524  31.993  1.00  0.00     0.293 HD
ENDBRANCH  11  25
ENDBRANCH   1   2
BRANCH   1  27
ATOM     27  C   UNL     1      -1.160 -19.106  27.932  1.00  0.00     0.265 C 
BRANCH  27  28
ATOM     28  C   UNL     1      -0.523 -18.291  26.802  1.00  0.00     0.190 C 
ATOM     29  C   UNL     1      -0.670 -16.771  27.065  1.00  0.00     0.178 C 
ATOM     30  O   UNL     1      -1.128 -18.665  25.574  1.00  0.00    -0.340 OA
ATOM     31  C   UNL     1      -0.060 -15.978  25.887  1.00  0.00     0.179 C 
ATOM     32  C   UNL     1      -0.504 -18.048  24.458  1.00  0.00     0.279 C 
ATOM     33  C   UNL     1      -0.555 -16.497  24.518  1.00  0.00     0.201 C 
BRANCH  29  34
ATOM     34  O   UNL     1      -2.009 -16.403  27.314  1.00  0.00    -0.387 OA
ATOM     35  H   UNL     1      -2.464 -17.169  27.751  1.00  0.00     0.211 HD
ENDBRANCH  29  34
BRANCH  31  36
ATOM     36  O   UNL     1      -0.264 -14.593  26.031  1.00  0.00    -0.387 OA
ATOM     37  H   UNL     1       0.397 -14.245  26.685  1.00  0.00     0.211 HD
ENDBRANCH  31  36
BRANCH  32  38
ATOM     38  O   UNL     1       0.789 -18.561  24.246  1.00  0.00    -0.366 OA
ATOM     39  H   UNL     1       0.717 -19.478  23.890  1.00  0.00     0.213 HD
ENDBRANCH  32  38
BRANCH  33  40
ATOM     40  O   UNL     1      -1.873 -16.061  24.287  1.00  0.00    -0.385 OA
ATOM     41  H   UNL     1      -1.990 -15.205  24.776  1.00  0.00     0.211 HD
ENDBRANCH  33  40
ENDBRANCH  27  28
ENDBRANCH   1  27
TORSDOF 12
ENDMDL
MODEL 4
REMARK VINA RESULT:    -7.231      2.422      4.770
REMARK INTER + INTRA:         -11.989
REMARK INTER:                 -10.559
REMARK INTRA:                  -1.429
REMARK UNBOUND:                -1.377
REMARK SMILES O=c1c(OC[C@H]2O[C@H](O)[C@@H](O)[C@@H](O)[C@H]2O)c(-c2ccc(O)c(O)c2)oc2cc(O)cc(O)c12
REMARK SMILES IDX 4 1 3 2 16 3 25 4 2 5 26 6 1 7 33 8 27 9 31 10 28 11 30 12
REMARK SMILES IDX 17 13 18 14 19 15 20 16 24 17 22 18 21 19 23 21 32 23 29 25
REMARK SMILES IDX 5 27 6 28 14 29 7 30 12 31 8 32 10 33 15 34 13 36 9 38 11 40
REMARK H PARENT 21 20 23 22 32 24 29 26 15 35 13 37 9 39 11 41
REMARK Flexibility Score: inf
ROOT
ATOM      1  O   UNL     1       0.869 -21.162  26.334  1.00  0.00    -0.483 OA
ENDROOT
BRANCH   1   2
ATOM      2  C   UNL     1       1.148 -22.256  27.174  1.00  0.00     0.211 A 
ATOM      3  C   UNL     1       0.926 -22.107  28.557  1.00  0.00     0.180 A 
ATOM      4  O   UNL     1       1.097 -23.139  29.377  1.00  0.00    -0.452 OA
ATOM      5  C   UNL     1       1.611 -23.504  26.701  1.00  0.00     0.239 A 
ATOM      6  C   UNL     1       1.508 -24.332  28.972  1.00  0.00     0.146 A 
ATOM      7  O   UNL     1       1.866 -23.661  25.479  1.00  0.00    -0.285 OA
ATOM      8  C   UNL     1       1.795 -24.569  27.608  1.00  0.00     0.111 A 
ATOM      9  C   UNL     1       1.660 -25.354  29.914  1.00  0.00     0.094 A 
ATOM     10  C   UNL     1       2.247 -25.853  27.212  1.00  0.00     0.134 A 
ATOM     11  C   UNL     1       2.107 -26.617  29.520  1.00  0.00     0.123 A 
ATOM     12  C   UNL     1       2.401 -26.862  28.176  1.00  0.00     0.093 A 
BRANCH   3  13
ATOM     13  C   UNL     1       0.472 -20.823  29.136  1.00  0.00     0.025 A 
ATOM     14  C   UNL     1       1.387 -19.895  29.664  1.00  0.00     0.016 A 
ATOM     15  C   UNL     1       0.936 -18.688  30.208  1.00  0.00     0.051 A 
ATOM     16  C   UNL     1      -0.435 -18.397  30.243  1.00  0.00     0.157 A 
ATOM     17  C   UNL     1      -0.902 -20.537  29.195  1.00  0.00     0.062 A 
ATOM     18  C   UNL     1      -1.356 -19.325  29.738  1.00  0.00     0.158 A 
BRANCH  16  19
ATOM     19  O   UNL     1      -0.889 -17.192  30.780  1.00  0.00    -0.504 OA
ATOM     20  H   UNL     1      -1.792 -17.122  31.236  1.00  0.00     0.293 HD
ENDBRANCH  16  19
BRANCH  18  21
ATOM     21  O   UNL     1      -2.719 -19.036  29.778  1.00  0.00    -0.504 OA
ATOM     22  H   UNL     1      -3.390 -19.587  29.257  1.00  0.00     0.293 HD
ENDBRANCH  18  21
ENDBRANCH   3  13
BRANCH  10  23
ATOM     23  O   UNL     1       2.542 -26.135  25.873  1.00  0.00    -0.507 OA
ATOM     24  H   UNL     1       2.527 -27.081  25.512  1.00  0.00     0.293 HD
ENDBRANCH  10  23
BRANCH  11  25
ATOM     25  O   UNL     1       2.262 -27.638  30.456  1.00  0.00    -0.508 OA
ATOM     26  H   UNL     1       2.963 -28.364  30.339  1.00  0.00     0.293 HD
ENDBRANCH  11  25
ENDBRANCH   1   2
BRANCH   1  27
ATOM     27  C   UNL     1      -0.141 -21.105  25.330  1.00  0.00     0.265 C 
BRANCH  27  28
ATOM     28  C   UNL     1      -0.715 -19.686  25.282  1.00  0.00     0.190 C 
ATOM     29  C   UNL     1      -0.287 -18.957  23.983  1.00  0.00     0.178 C 
ATOM     30  O   UNL     1      -0.282 -18.981  26.436  1.00  0.00    -0.340 OA
ATOM     31  C   UNL     1      -0.843 -17.516  23.987  1.00  0.00     0.179 C 
ATOM     32  C   UNL     1      -0.877 -17.695  26.535  1.00  0.00     0.279 C 
ATOM     33  C   UNL     1      -0.554 -16.785  25.319  1.00  0.00     0.201 C 
BRANCH  29  34
ATOM     34  O   UNL     1       1.110 -18.986  23.795  1.00  0.00    -0.387 OA
ATOM     35  H   UNL     1       1.435 -19.895  24.024  1.00  0.00     0.211 HD
ENDBRANCH  29  34
BRANCH  31  36
ATOM     36  O   UNL     1      -0.391 -16.781  22.875  1.00  0.00    -0.387 OA
ATOM     37  H   UNL     1      -0.528 -17.331  22.060  1.00  0.00     0.211 HD
ENDBRANCH  31  36
BRANCH  32  38
ATOM     38  O   UNL     1      -2.252 -17.788  26.820  1.00  0.00    -0.366 OA
ATOM     39  H   UNL     1      -2.734 -18.039  25.997  1.00  0.00     0.213 HD
ENDBRANCH  32  38
BRANCH  33  40
ATOM     40  O   UNL     1       0.797 -16.394  25.371  1.00  0.00    -0.385 OA
ATOM     41  H   UNL     1       1.320 -17.076  24.873  1.00  0.00     0.211 HD
ENDBRANCH  33  40
ENDBRANCH  27  28
ENDBRANCH   1  27
TORSDOF 12
ENDMDL
MODEL 5
REMARK VINA RESULT:    -7.112      2.027      2.869
REMARK INTER + INTRA:         -11.815
REMARK INTER:                 -10.418
REMARK INTRA:                  -1.397
REMARK UNBOUND:                -1.377
REMARK SMILES O=c1c(OC[C@H]2O[C@H](O)[C@@H](O)[C@@H](O)[C@H]2O)c(-c2ccc(O)c(O)c2)oc2cc(O)cc(O)c12
REMARK SMILES IDX 4 1 3 2 16 3 25 4 2 5 26 6 1 7 33 8 27 9 31 10 28 11 30 12
REMARK SMILES IDX 17 13 18 14 19 15 20 16 24 17 22 18 21 19 23 21 32 23 29 25
REMARK SMILES IDX 5 27 6 28 14 29 7 30 12 31 8 32 10 33 15 34 13 36 9 38 11 40
REMARK H PARENT 21 20 23 22 32 24 29 26 15 35 13 37 9 39 11 41
REMARK Flexibility Score: inf
ROOT
ATOM      1  O   UNL     1      -0.070 -20.335  28.304  1.00  0.00    -0.483 OA
ENDROOT
BRANCH   1   2
ATOM      2  C   UNL     1      -0.365 -21.633  28.762  1.00  0.00     0.211 A 
ATOM      3  C   UNL     1       0.148 -22.727  28.038  1.00  0.00     0.180 A 
ATOM      4  O   UNL     1      -0.035 -23.967  28.480  1.00  0.00    -0.452 OA
ATOM      5  C   UNL     1      -1.122 -21.895  29.925  1.00  0.00     0.239 A 
ATOM      6  C   UNL     1      -0.720 -24.256  29.577  1.00  0.00     0.146 A 
ATOM      7  O   UNL     1      -1.636 -20.947  30.571  1.00  0.00    -0.285 OA
ATOM      8  C   UNL     1      -1.306 -23.228  30.351  1.00  0.00     0.111 A 
ATOM      9  C   UNL     1      -0.859 -25.594  29.958  1.00  0.00     0.094 A 
ATOM     10  C   UNL     1      -2.045 -23.574  31.511  1.00  0.00     0.134 A 
ATOM     11  C   UNL     1      -1.588 -25.931  31.101  1.00  0.00     0.123 A 
ATOM     12  C   UNL     1      -2.180 -24.925  31.869  1.00  0.00     0.093 A 
BRANCH   3  13
ATOM     13  C   UNL     1       0.925 -22.538  26.792  1.00  0.00     0.025 A 
ATOM     14  C   UNL     1       2.316 -22.340  26.821  1.00  0.00     0.016 A 
ATOM     15  C   UNL     1       3.030 -22.161  25.632  1.00  0.00     0.051 A 
ATOM     16  C   UNL     1       2.363 -22.165  24.399  1.00  0.00     0.157 A 
ATOM     17  C   UNL     1       0.257 -22.517  25.556  1.00  0.00     0.062 A 
ATOM     18  C   UNL     1       0.973 -22.342  24.362  1.00  0.00     0.158 A 
BRANCH  16  19
ATOM     19  O   UNL     1       3.071 -21.992  23.210  1.00  0.00    -0.504 OA
ATOM     20  H   UNL     1       3.284 -21.069  22.849  1.00  0.00     0.293 HD
ENDBRANCH  16  19
BRANCH  18  21
ATOM     21  O   UNL     1       0.311 -22.341  23.135  1.00  0.00    -0.504 OA
ATOM     22  H   UNL     1      -0.489 -22.940  22.967  1.00  0.00     0.293 HD
ENDBRANCH  18  21
ENDBRANCH   3  13
BRANCH  10  23
ATOM     23  O   UNL     1      -2.643 -22.591  32.308  1.00  0.00    -0.507 OA
ATOM     24  H   UNL     1      -2.173 -21.721  32.522  1.00  0.00     0.293 HD
ENDBRANCH  10  23
BRANCH  11  25
ATOM     25  O   UNL     1      -1.732 -27.263  31.482  1.00  0.00    -0.508 OA
ATOM     26  H   UNL     1      -1.275 -27.632  32.312  1.00  0.00     0.293 HD
ENDBRANCH  11  25
ENDBRANCH   1   2
BRANCH   1  27
ATOM     27  C   UNL     1      -0.797 -19.601  27.321  1.00  0.00     0.265 C 
BRANCH  27  28
ATOM     28  C   UNL     1      -0.731 -18.110  27.664  1.00  0.00     0.190 C 
ATOM     29  C   UNL     1      -1.103 -17.865  29.148  1.00  0.00     0.178 C 
ATOM     30  O   UNL     1      -1.598 -17.403  26.790  1.00  0.00    -0.340 OA
ATOM     31  C   UNL     1      -1.072 -16.350  29.450  1.00  0.00     0.179 C 
ATOM     32  C   UNL     1      -1.498 -15.996  26.956  1.00  0.00     0.279 C 
ATOM     33  C   UNL     1      -1.851 -15.531  28.395  1.00  0.00     0.201 C 
BRANCH  29  34
ATOM     34  O   UNL     1      -2.342 -18.448  29.487  1.00  0.00    -0.387 OA
ATOM     35  H   UNL     1      -3.043 -18.038  28.916  1.00  0.00     0.211 HD
ENDBRANCH  29  34
BRANCH  31  36
ATOM     36  O   UNL     1      -1.507 -16.071  30.760  1.00  0.00    -0.387 OA
ATOM     37  H   UNL     1      -2.499 -16.030  30.757  1.00  0.00     0.211 HD
ENDBRANCH  31  36
BRANCH  32  38
ATOM     38  O   UNL     1      -0.259 -15.513  26.497  1.00  0.00    -0.366 OA
ATOM     39  H   UNL     1      -0.363 -14.572  26.221  1.00  0.00     0.213 HD
ENDBRANCH  32  38
BRANCH  33  40
ATOM     40  O   UNL     1      -3.236 -15.668  28.606  1.00  0.00    -0.385 OA
ATOM     41  H   UNL     1      -3.395 -15.577  29.583  1.00  0.00     0.211 HD
ENDBRANCH  33  40
ENDBRANCH  27  28
ENDBRANCH   1  27
TORSDOF 12
ENDMDL
MODEL 6
REMARK VINA RESULT:    -7.074      5.314      8.513
REMARK INTER + INTRA:         -11.759
REMARK INTER:                 -10.606
REMARK INTRA:                  -1.154
REMARK UNBOUND:                -1.377
REMARK SMILES O=c1c(OC[C@H]2O[C@H](O)[C@@H](O)[C@@H](O)[C@H]2O)c(-c2ccc(O)c(O)c2)oc2cc(O)cc(O)c12
REMARK SMILES IDX 4 1 3 2 16 3 25 4 2 5 26 6 1 7 33 8 27 9 31 10 28 11 30 12
REMARK SMILES IDX 17 13 18 14 19 15 20 16 24 17 22 18 21 19 23 21 32 23 29 25
REMARK SMILES IDX 5 27 6 28 14 29 7 30 12 31 8 32 10 33 15 34 13 36 9 38 11 40
REMARK H PARENT 21 20 23 22 32 24 29 26 15 35 13 37 9 39 11 41
REMARK Flexibility Score: inf
ROOT
ATOM      1  O   UNL     1      -1.733 -14.472  29.330  1.00  0.00    -0.483 OA
ENDROOT
BRANCH   1   2
ATOM      2  C   UNL     1      -3.045 -14.420  28.822  1.00  0.00     0.211 A 
ATOM      3  C   UNL     1      -3.216 -14.308  27.428  1.00  0.00     0.180 A 
ATOM      4  O   UNL     1      -4.434 -14.339  26.898  1.00  0.00    -0.452 OA
ATOM      5  C   UNL     1      -4.198 -14.502  29.633  1.00  0.00     0.239 A 
ATOM      6  C   UNL     1      -5.541 -14.437  27.620  1.00  0.00     0.146 A 
ATOM      7  O   UNL     1      -4.088 -14.555  30.884  1.00  0.00    -0.285 OA
ATOM      8  C   UNL     1      -5.474 -14.515  29.031  1.00  0.00     0.111 A 
ATOM      9  C   UNL     1      -6.777 -14.458  26.969  1.00  0.00     0.094 A 
ATOM     10  C   UNL     1      -6.679 -14.604  29.773  1.00  0.00     0.134 A 
ATOM     11  C   UNL     1      -7.962 -14.545  27.705  1.00  0.00     0.123 A 
ATOM     12  C   UNL     1      -7.910 -14.614  29.099  1.00  0.00     0.093 A 
BRANCH   3  13
ATOM     13  C   UNL     1      -2.059 -14.186  26.512  1.00  0.00     0.025 A 
ATOM     14  C   UNL     1      -1.307 -13.000  26.440  1.00  0.00     0.016 A 
ATOM     15  C   UNL     1      -0.219 -12.905  25.566  1.00  0.00     0.051 A 
ATOM     16  C   UNL     1       0.125 -13.988  24.744  1.00  0.00     0.157 A 
ATOM     17  C   UNL     1      -1.725 -15.259  25.670  1.00  0.00     0.062 A 
ATOM     18  C   UNL     1      -0.631 -15.166  24.795  1.00  0.00     0.158 A 
BRANCH  16  19
ATOM     19  O   UNL     1       1.212 -13.900  23.875  1.00  0.00    -0.504 OA
ATOM     20  H   UNL     1       1.958 -13.230  24.025  1.00  0.00     0.293 HD
ENDBRANCH  16  19
BRANCH  18  21
ATOM     21  O   UNL     1      -0.291 -16.241  23.975  1.00  0.00    -0.504 OA
ATOM     22  H   UNL     1      -0.970 -16.668  23.357  1.00  0.00     0.293 HD
ENDBRANCH  18  21
ENDBRANCH   3  13
BRANCH  10  23
ATOM     23  O   UNL     1      -6.663 -14.684  31.171  1.00  0.00    -0.507 OA
ATOM     24  H   UNL     1      -7.500 -14.542  31.722  1.00  0.00     0.293 HD
ENDBRANCH  10  23
BRANCH  11  25
ATOM     25  O   UNL     1      -9.197 -14.563  27.059  1.00  0.00    -0.508 OA
ATOM     26  H   UNL     1      -9.275 -14.422  26.056  1.00  0.00     0.293 HD
ENDBRANCH  11  25
ENDBRANCH   1   2
BRANCH   1  27
ATOM     27  C   UNL     1      -1.107 -15.601  29.935  1.00  0.00     0.265 C 
BRANCH  27  28
ATOM     28  C   UNL     1      -0.673 -16.576  28.837  1.00  0.00     0.190 C 
ATOM     29  C   UNL     1      -1.810 -17.574  28.499  1.00  0.00     0.178 C 
ATOM     30  O   UNL     1       0.499 -17.253  29.267  1.00  0.00    -0.340 OA
ATOM     31  C   UNL     1      -1.325 -18.571  27.424  1.00  0.00     0.179 C 
ATOM     32  C   UNL     1       1.042 -18.084  28.251  1.00  0.00     0.279 C 
ATOM     33  C   UNL     1       0.052 -19.181  27.774  1.00  0.00     0.201 C 
BRANCH  29  34
ATOM     34  O   UNL     1      -2.297 -18.230  29.649  1.00  0.00    -0.387 OA
ATOM     35  H   UNL     1      -1.926 -17.772  30.448  1.00  0.00     0.211 HD
ENDBRANCH  29  34
BRANCH  31  36
ATOM     36  O   UNL     1      -2.289 -19.563  27.162  1.00  0.00    -0.387 OA
ATOM     37  H   UNL     1      -2.637 -19.898  28.030  1.00  0.00     0.211 HD
ENDBRANCH  31  36
BRANCH  32  38
ATOM     38  O   UNL     1       1.585 -17.321  27.202  1.00  0.00    -0.366 OA
ATOM     39  H   UNL     1       2.241 -16.685  27.573  1.00  0.00     0.213 HD
ENDBRANCH  32  38
BRANCH  33  40
ATOM     40  O   UNL     1      -0.095 -20.153  28.782  1.00  0.00    -0.385 OA
ATOM     41  H   UNL     1       0.809 -20.329  29.155  1.00  0.00     0.211 HD
ENDBRANCH  33  40
ENDBRANCH  27  28
ENDBRANCH   1  27
TORSDOF 12
ENDMDL
MODEL 7
REMARK VINA RESULT:    -7.043      2.580      7.233
REMARK INTER + INTRA:         -11.713
REMARK INTER:                 -10.537
REMARK INTRA:                  -1.176
REMARK UNBOUND:                -1.377
REMARK SMILES O=c1c(OC[C@H]2O[C@H](O)[C@@H](O)[C@@H](O)[C@H]2O)c(-c2ccc(O)c(O)c2)oc2cc(O)cc(O)c12
REMARK SMILES IDX 4 1 3 2 16 3 25 4 2 5 26 6 1 7 33 8 27 9 31 10 28 11 30 12
REMARK SMILES IDX 17 13 18 14 19 15 20 16 24 17 22 18 21 19 23 21 32 23 29 25
REMARK SMILES IDX 5 27 6 28 14 29 7 30 12 31 8 32 10 33 15 34 13 36 9 38 11 40
REMARK H PARENT 21 20 23 22 32 24 29 26 15 35 13 37 9 39 11 41
REMARK Flexibility Score: inf
ROOT
ATOM      1  O   UNL     1      -0.575 -20.167  27.803  1.00  0.00    -0.483 OA
ENDROOT
BRANCH   1   2
ATOM      2  C   UNL     1      -0.774 -18.845  27.361  1.00  0.00     0.211 A 
ATOM      3  C   UNL     1      -0.195 -18.457  26.137  1.00  0.00     0.180 A 
ATOM      4  O   UNL     1      -0.426 -17.246  25.642  1.00  0.00    -0.452 OA
ATOM      5  C   UNL     1      -1.548 -17.898  28.066  1.00  0.00     0.239 A 
ATOM      6  C   UNL     1      -1.164 -16.334  26.259  1.00  0.00     0.146 A 
ATOM      7  O   UNL     1      -2.042 -18.191  29.185  1.00  0.00    -0.285 OA
ATOM      8  C   UNL     1      -1.756 -16.616  27.512  1.00  0.00     0.111 A 
ATOM      9  C   UNL     1      -1.346 -15.086  25.657  1.00  0.00     0.094 A 
ATOM     10  C   UNL     1      -2.527 -15.612  28.151  1.00  0.00     0.134 A 
ATOM     11  C   UNL     1      -2.105 -14.099  26.291  1.00  0.00     0.123 A 
ATOM     12  C   UNL     1      -2.689 -14.363  27.533  1.00  0.00     0.093 A 
BRANCH   3  13
ATOM     13  C   UNL     1       0.656 -19.381  25.354  1.00  0.00     0.025 A 
ATOM     14  C   UNL     1       2.058 -19.332  25.438  1.00  0.00     0.016 A 
ATOM     15  C   UNL     1       2.843 -20.214  24.687  1.00  0.00     0.051 A 
ATOM     16  C   UNL     1       2.238 -21.147  23.834  1.00  0.00     0.157 A 
ATOM     17  C   UNL     1       0.055 -20.302  24.480  1.00  0.00     0.062 A 
ATOM     18  C   UNL     1       0.841 -21.190  23.729  1.00  0.00     0.158 A 
BRANCH  16  19
ATOM     19  O   UNL     1       3.017 -22.032  23.087  1.00  0.00    -0.504 OA
ATOM     20  H   UNL     1       2.887 -22.138  22.088  1.00  0.00     0.293 HD
ENDBRANCH  16  19
BRANCH  18  21
ATOM     21  O   UNL     1       0.242 -22.116  22.876  1.00  0.00    -0.504 OA
ATOM     22  H   UNL     1      -0.380 -22.833  23.230  1.00  0.00     0.293 HD
ENDBRANCH  18  21
ENDBRANCH   3  13
BRANCH  10  23
ATOM     23  O   UNL     1      -3.133 -15.846  29.392  1.00  0.00    -0.507 OA
ATOM     24  H   UNL     1      -3.060 -15.183  30.153  1.00  0.00     0.293 HD
ENDBRANCH  10  23
BRANCH  11  25
ATOM     25  O   UNL     1      -2.287 -12.853  25.695  1.00  0.00    -0.508 OA
ATOM     26  H   UNL     1      -1.816 -12.603  24.830  1.00  0.00     0.293 HD
ENDBRANCH  11  25
ENDBRANCH   1   2
BRANCH   1  27
ATOM     27  C   UNL     1       0.439 -20.613  28.699  1.00  0.00     0.265 C 
BRANCH  27  28
ATOM     28  C   UNL     1      -0.096 -21.802  29.503  1.00  0.00     0.190 C 
ATOM     29  C   UNL     1      -1.177 -21.347  30.515  1.00  0.00     0.178 C 
ATOM     30  O   UNL     1       0.993 -22.435  30.159  1.00  0.00    -0.340 OA
ATOM     31  C   UNL     1      -1.663 -22.560  31.340  1.00  0.00     0.179 C 
ATOM     32  C   UNL     1       0.600 -23.627  30.823  1.00  0.00     0.279 C 
ATOM     33  C   UNL     1      -0.485 -23.385  31.908  1.00  0.00     0.201 C 
BRANCH  29  34
ATOM     34  O   UNL     1      -0.724 -20.294  31.337  1.00  0.00    -0.387 OA
ATOM     35  H   UNL     1      -1.063 -19.440  30.962  1.00  0.00     0.211 HD
ENDBRANCH  29  34
BRANCH  31  36
ATOM     36  O   UNL     1      -2.570 -22.176  32.345  1.00  0.00    -0.387 OA
ATOM     37  H   UNL     1      -2.273 -21.304  32.718  1.00  0.00     0.211 HD
ENDBRANCH  31  36
BRANCH  32  38
ATOM     38  O   UNL     1       0.262 -24.638  29.904  1.00  0.00    -0.366 OA
ATOM     39  H   UNL     1      -0.720 -24.718  29.862  1.00  0.00     0.213 HD
ENDBRANCH  32  38
BRANCH  33  40
ATOM     40  O   UNL     1       0.088 -22.715  33.004  1.00  0.00    -0.385 OA
ATOM     41  H   UNL     1       0.867 -22.203  32.662  1.00  0.00     0.211 HD
ENDBRANCH  33  40
ENDBRANCH  27  28
ENDBRANCH   1  27
TORSDOF 12
ENDMDL
MODEL 8
REMARK VINA RESULT:    -7.032      5.792      8.812
REMARK INTER + INTRA:         -11.698
REMARK INTER:                 -10.239
REMARK INTRA:                  -1.459
REMARK UNBOUND:                -1.377
REMARK SMILES O=c1c(OC[C@H]2O[C@H](O)[C@@H](O)[C@@H](O)[C@H]2O)c(-c2ccc(O)c(O)c2)oc2cc(O)cc(O)c12
REMARK SMILES IDX 4 1 3 2 16 3 25 4 2 5 26 6 1 7 33 8 27 9 31 10 28 11 30 12
REMARK SMILES IDX 17 13 18 14 19 15 20 16 24 17 22 18 21 19 23 21 32 23 29 25
REMARK SMILES IDX 5 27 6 28 14 29 7 30 12 31 8 32 10 33 15 34 13 36 9 38 11 40
REMARK H PARENT 21 20 23 22 32 24 29 26 15 35 13 37 9 39 11 41
REMARK Flexibility Score: inf
ROOT
ATOM      1  O   UNL     1      -1.135 -15.497  28.421  1.00  0.00    -0.483 OA
ENDROOT
BRANCH   1   2
ATOM      2  C   UNL     1      -2.051 -14.856  29.276  1.00  0.00     0.211 A 
ATOM      3  C   UNL     1      -1.755 -14.806  30.652  1.00  0.00     0.180 A 
ATOM      4  O   UNL     1      -2.549 -14.140  31.484  1.00  0.00    -0.452 OA
ATOM      5  C   UNL     1      -3.234 -14.233  28.822  1.00  0.00     0.239 A 
ATOM      6  C   UNL     1      -3.657 -13.524  31.097  1.00  0.00     0.146 A 
ATOM      7  O   UNL     1      -3.557 -14.296  27.609  1.00  0.00    -0.285 OA
ATOM      8  C   UNL     1      -4.059 -13.550  29.742  1.00  0.00     0.111 A 
ATOM      9  C   UNL     1      -4.428 -12.851  32.050  1.00  0.00     0.094 A 
ATOM     10  C   UNL     1      -5.258 -12.892  29.366  1.00  0.00     0.134 A 
ATOM     11  C   UNL     1      -5.609 -12.206  31.675  1.00  0.00     0.123 A 
ATOM     12  C   UNL     1      -6.021 -12.231  30.340  1.00  0.00     0.093 A 
BRANCH   3  13
ATOM     13  C   UNL     1      -0.551 -15.461  31.211  1.00  0.00     0.025 A 
ATOM     14  C   UNL     1       0.538 -14.706  31.683  1.00  0.00     0.016 A 
ATOM     15  C   UNL     1       1.667 -15.345  32.205  1.00  0.00     0.051 A 
ATOM     16  C   UNL     1       1.729 -16.745  32.253  1.00  0.00     0.157 A 
ATOM     17  C   UNL     1      -0.474 -16.863  31.240  1.00  0.00     0.062 A 
ATOM     18  C   UNL     1       0.657 -17.505  31.767  1.00  0.00     0.158 A 
BRANCH  16  19
ATOM     19  O   UNL     1       2.852 -17.386  32.778  1.00  0.00    -0.504 OA
ATOM     20  H   UNL     1       3.256 -17.106  33.664  1.00  0.00     0.293 HD
ENDBRANCH  16  19
BRANCH  18  21
ATOM     21  O   UNL     1       0.722 -18.897  31.811  1.00  0.00    -0.504 OA
ATOM     22  H   UNL     1       1.345 -19.376  32.451  1.00  0.00     0.293 HD
ENDBRANCH  18  21
ENDBRANCH   3  13
BRANCH  10  23
ATOM     23  O   UNL     1      -5.695 -12.890  28.036  1.00  0.00    -0.507 OA
ATOM     24  H   UNL     1      -5.579 -12.081  27.439  1.00  0.00     0.293 HD
ENDBRANCH  10  23
BRANCH  11  25
ATOM     25  O   UNL     1      -6.381 -11.536  32.622  1.00  0.00    -0.508 OA
ATOM     26  H   UNL     1      -6.711 -12.000  33.464  1.00  0.00     0.293 HD
ENDBRANCH  11  25
ENDBRANCH   1   2
BRANCH   1  27
ATOM     27  C   UNL     1      -0.202 -14.860  27.553  1.00  0.00     0.265 C 
BRANCH  27  28
ATOM     28  C   UNL     1       0.099 -15.792  26.375  1.00  0.00     0.190 C 
ATOM     29  C   UNL     1      -1.021 -15.715  25.307  1.00  0.00     0.178 C 
ATOM     30  O   UNL     1       0.253 -17.114  26.869  1.00  0.00    -0.340 OA
ATOM     31  C   UNL     1      -0.712 -16.699  24.156  1.00  0.00     0.179 C 
ATOM     32  C   UNL     1       0.662 -18.022  25.856  1.00  0.00     0.279 C 
ATOM     33  C   UNL     1      -0.347 -18.108  24.679  1.00  0.00     0.201 C 
BRANCH  29  34
ATOM     34  O   UNL     1      -2.299 -15.934  25.862  1.00  0.00    -0.387 OA
ATOM     35  H   UNL     1      -2.602 -15.088  26.283  1.00  0.00     0.211 HD
ENDBRANCH  29  34
BRANCH  31  36
ATOM     36  O   UNL     1      -1.756 -16.742  23.213  1.00  0.00    -0.387 OA
ATOM     37  H   UNL     1      -1.549 -16.094  22.489  1.00  0.00     0.211 HD
ENDBRANCH  31  36
BRANCH  32  38
ATOM     38  O   UNL     1       1.984 -17.770  25.448  1.00  0.00    -0.366 OA
ATOM     39  H   UNL     1       2.584 -17.864  26.225  1.00  0.00     0.213 HD
ENDBRANCH  32  38
BRANCH  33  40
ATOM     40  O   UNL     1      -1.508 -18.780  25.104  1.00  0.00    -0.385 OA
ATOM     41  H   UNL     1      -2.265 -18.141  25.020  1.00  0.00     0.211 HD
ENDBRANCH  33  40
ENDBRANCH  27  28
ENDBRANCH   1  27
TORSDOF 12
ENDMDL
MODEL 9
REMARK VINA RESULT:    -6.985      2.654      7.502
REMARK INTER + INTRA:         -11.628
REMARK INTER:                 -10.293
REMARK INTRA:                  -1.335
REMARK UNBOUND:                -1.377
REMARK SMILES O=c1c(OC[C@H]2O[C@H](O)[C@@H](O)[C@@H](O)[C@H]2O)c(-c2ccc(O)c(O)c2)oc2cc(O)cc(O)c12
REMARK SMILES IDX 4 1 3 2 16 3 25 4 2 5 26 6 1 7 33 8 27 9 31 10 28 11 30 12
REMARK SMILES IDX 17 13 18 14 19 15 20 16 24 17 22 18 21 19 23 21 32 23 29 25
REMARK SMILES IDX 5 27 6 28 14 29 7 30 12 31 8 32 10 33 15 34 13 36 9 38 11 40
REMARK H PARENT 21 20 23 22 32 24 29 26 15 35 13 37 9 39 11 41
REMARK Flexibility Score: inf
ROOT
ATOM      1  O   UNL     1      -0.227 -20.099  26.670  1.00  0.00    -0.483 OA
ENDROOT
BRANCH   1   2
ATOM      2  C   UNL     1      -0.719 -18.814  26.968  1.00  0.00     0.211 A 
ATOM      3  C   UNL     1      -0.829 -18.441  28.322  1.00  0.00     0.180 A 
ATOM      4  O   UNL     1      -1.209 -17.211  28.648  1.00  0.00    -0.452 OA
ATOM      5  C   UNL     1      -1.078 -17.870  25.982  1.00  0.00     0.239 A 
ATOM      6  C   UNL     1      -1.535 -16.287  27.755  1.00  0.00     0.146 A 
ATOM      7  O   UNL     1      -1.039 -18.181  24.764  1.00  0.00    -0.285 OA
ATOM      8  C   UNL     1      -1.493 -16.579  26.372  1.00  0.00     0.111 A 
ATOM      9  C   UNL     1      -1.926 -15.021  28.199  1.00  0.00     0.094 A 
ATOM     10  C   UNL     1      -1.862 -15.571  25.444  1.00  0.00     0.134 A 
ATOM     11  C   UNL     1      -2.290 -14.032  27.281  1.00  0.00     0.123 A 
ATOM     12  C   UNL     1      -2.261 -14.310  25.912  1.00  0.00     0.093 A 
BRANCH   3  13
ATOM     13  C   UNL     1      -0.502 -19.383  29.416  1.00  0.00     0.025 A 
ATOM     14  C   UNL     1       0.827 -19.597  29.822  1.00  0.00     0.016 A 
ATOM     15  C   UNL     1       1.114 -20.494  30.857  1.00  0.00     0.051 A 
ATOM     16  C   UNL     1       0.081 -21.197  31.491  1.00  0.00     0.157 A 
ATOM     17  C   UNL     1      -1.531 -20.108  30.038  1.00  0.00     0.062 A 
ATOM     18  C   UNL     1      -1.245 -21.005  31.079  1.00  0.00     0.158 A 
BRANCH  16  19
ATOM     19  O   UNL     1       0.362 -22.088  32.526  1.00  0.00    -0.504 OA
ATOM     20  H   UNL     1       0.659 -23.039  32.341  1.00  0.00     0.293 HD
ENDBRANCH  16  19
BRANCH  18  21
ATOM     21  O   UNL     1      -2.271 -21.708  31.707  1.00  0.00    -0.504 OA
ATOM     22  H   UNL     1      -2.088 -22.561  32.222  1.00  0.00     0.293 HD
ENDBRANCH  18  21
ENDBRANCH   3  13
BRANCH  10  23
ATOM     23  O   UNL     1      -1.836 -15.813  24.065  1.00  0.00    -0.507 OA
ATOM     24  H   UNL     1      -1.719 -16.746  23.690  1.00  0.00     0.293 HD
ENDBRANCH  10  23
BRANCH  11  25
ATOM     25  O   UNL     1      -2.683 -12.769  27.720  1.00  0.00    -0.508 OA
ATOM     26  H   UNL     1      -2.424 -11.926  27.215  1.00  0.00     0.293 HD
ENDBRANCH  11  25
ENDBRANCH   1   2
BRANCH   1  27
ATOM     27  C   UNL     1      -1.008 -21.257  26.388  1.00  0.00     0.265 C 
BRANCH  27  28
ATOM     28  C   UNL     1      -0.170 -22.232  25.555  1.00  0.00     0.190 C 
ATOM     29  C   UNL     1       0.948 -22.877  26.413  1.00  0.00     0.178 C 
ATOM     30  O   UNL     1       0.369 -21.533  24.444  1.00  0.00    -0.340 OA
ATOM     31  C   UNL     1       1.802 -23.817  25.534  1.00  0.00     0.179 C 
ATOM     32  C   UNL     1       1.055 -22.396  23.547  1.00  0.00     0.279 C 
ATOM     33  C   UNL     1       2.242 -23.140  24.216  1.00  0.00     0.201 C 
BRANCH  29  34
ATOM     34  O   UNL     1       1.734 -21.909  27.073  1.00  0.00    -0.387 OA
ATOM     35  H   UNL     1       2.100 -21.289  26.390  1.00  0.00     0.211 HD
ENDBRANCH  29  34
BRANCH  31  36
ATOM     36  O   UNL     1       2.895 -24.345  26.246  1.00  0.00    -0.387 OA
ATOM     37  H   UNL     1       3.423 -24.918  25.630  1.00  0.00     0.211 HD
ENDBRANCH  31  36
BRANCH  32  38
ATOM     38  O   UNL     1       0.161 -23.250  22.875  1.00  0.00    -0.366 OA
ATOM     39  H   UNL     1       0.667 -23.802  22.233  1.00  0.00     0.213 HD
ENDBRANCH  32  38
BRANCH  33  40
ATOM     40  O   UNL     1       3.286 -22.230  24.468  1.00  0.00    -0.385 OA
ATOM     41  H   UNL     1       3.152 -21.875  25.386  1.00  0.00     0.211 HD
ENDBRANCH  33  40
ENDBRANCH  27  28
ENDBRANCH   1  27
TORSDOF 12
ENDMDL
