MODEL 1
REMARK VINA RESULT:    -3.674      0.000      0.000
REMARK INTER + INTRA:         -12.477
REMARK INTER:                  -8.400
REMARK INTRA:                  -4.077
REMARK UNBOUND:                -4.077
REMARK SMILES CCCCCCCCCCCCCCCCCCCCCCCC(=O)[O-]
REMARK SMILES IDX 13 1 14 2 15 3 16 4 17 5 18 6 19 7 20 8 21 9 22 10 23 11
REMARK SMILES IDX 24 12 25 13 26 14 12 15 11 16 10 17 9 18 8 19 7 20 6 21 5 22
REMARK SMILES IDX 4 23 3 24 2 25 1 26
REMARK H PARENT
REMARK Flexibility Score: inf
ROOT
ATOM      1  C   UNL     1       5.809   3.434  48.009  1.00  0.00     0.000 C 
ENDROOT
BRANCH   1   2
ATOM      2  C   UNL     1       6.511   2.164  47.486  1.00  0.00     0.000 C 
BRANCH   2   3
ATOM      3  C   UNL     1       7.075   1.232  48.574  1.00  0.00     0.000 C 
BRANCH   3   4
ATOM      4  C   UNL     1       5.985   0.393  49.261  1.00  0.00     0.000 C 
BRANCH   4   5
ATOM      5  C   UNL     1       6.198   0.267  50.780  1.00  0.00     0.000 C 
BRANCH   5   6
ATOM      6  C   UNL     1       6.571   1.575  51.507  1.00  0.00     0.000 C 
BRANCH   6   7
ATOM      7  C   UNL     1       5.767   1.875  52.784  1.00  0.00     0.000 C 
BRANCH   7   8
ATOM      8  C   UNL     1       5.178   3.297  52.800  1.00  0.00     0.000 C 
BRANCH   8   9
ATOM      9  C   UNL     1       3.688   3.330  52.414  1.00  0.00     0.000 C 
BRANCH   9  10
ATOM     10  C   UNL     1       3.402   3.544  50.913  1.00  0.00     0.006 C 
BRANCH  10  11
ATOM     11  C   UNL     1       3.012   2.269  50.149  1.00  0.00     0.053 C 
BRANCH  11  12
ATOM     12  C   UNL     1       2.233   1.320  51.008  1.00  0.00     0.041 C 
ATOM     13  O   UNL     1       2.749   0.234  51.385  1.00  0.00    -0.550 OA
ATOM     14  O   UNL     1       0.948   1.652  51.422  1.00  0.00    -0.550 OA
ENDBRANCH  11  12
ENDBRANCH  10  11
ENDBRANCH   9  10
ENDBRANCH   8   9
ENDBRANCH   7   8
ENDBRANCH   6   7
ENDBRANCH   5   6
ENDBRANCH   4   5
ENDBRANCH   3   4
ENDBRANCH   2   3
ENDBRANCH   1   2
BRANCH   1  15
ATOM     15  C   UNL     1       6.752   4.549  48.505  1.00  0.00     0.000 C 
BRANCH  15  16
ATOM     16  C   UNL     1       6.755   4.772  50.027  1.00  0.00     0.000 C 
BRANCH  16  17
ATOM     17  C   UNL     1       7.636   5.939  50.514  1.00  0.00     0.000 C 
BRANCH  17  18
ATOM     18  C   UNL     1       7.254   6.473  51.910  1.00  0.00    -0.000 C 
BRANCH  18  19
ATOM     19  C   UNL     1       6.545   7.837  51.846  1.00  0.00    -0.000 C 
BRANCH  19  20
ATOM     20  C   UNL     1       5.035   7.706  51.588  1.00  0.00    -0.000 C 
BRANCH  20  21
ATOM     21  C   UNL     1       4.637   8.147  50.168  1.00  0.00    -0.000 C 
BRANCH  21  22
ATOM     22  C   UNL     1       5.288   9.479  49.752  1.00  0.00    -0.000 C 
BRANCH  22  23
ATOM     23  C   UNL     1       5.770   9.534  48.291  1.00  0.00    -0.000 C 
BRANCH  23  24
ATOM     24  C   UNL     1       6.748   8.402  47.938  1.00  0.00    -0.000 C 
BRANCH  24  25
ATOM     25  C   UNL     1       8.190   8.794  48.278  1.00  0.00    -0.003 C 
ATOM     26  C   UNL     1       9.185   7.782  47.718  1.00  0.00     0.004 C 
ENDBRANCH  24  25
ENDBRANCH  23  24
ENDBRANCH  22  23
ENDBRANCH  21  22
ENDBRANCH  20  21
ENDBRANCH  19  20
ENDBRANCH  18  19
ENDBRANCH  17  18
ENDBRANCH  16  17
ENDBRANCH  15  16
ENDBRANCH   1  15
TORSDOF 22
ENDMDL
MODEL 2
REMARK VINA RESULT:    -3.673      1.357      2.313
REMARK INTER + INTRA:         -12.473
REMARK INTER:                  -7.949
REMARK INTRA:                  -4.524
REMARK UNBOUND:                -4.077
REMARK SMILES CCCCCCCCCCCCCCCCCCCCCCCC(=O)[O-]
REMARK SMILES IDX 13 1 14 2 15 3 16 4 17 5 18 6 19 7 20 8 21 9 22 10 23 11
REMARK SMILES IDX 24 12 25 13 26 14 12 15 11 16 10 17 9 18 8 19 7 20 6 21 5 22
REMARK SMILES IDX 4 23 3 24 2 25 1 26
REMARK H PARENT
REMARK Flexibility Score: inf
ROOT
ATOM      1  C   UNL     1       6.367   5.206  49.624  1.00  0.00     0.000 C 
ENDROOT
BRANCH   1   2
ATOM      2  C   UNL     1       6.700   4.516  48.286  1.00  0.00     0.000 C 
BRANCH   2   3
ATOM      3  C   UNL     1       5.823   3.298  47.942  1.00  0.00     0.000 C 
BRANCH   3   4
ATOM      4  C   UNL     1       6.647   2.029  47.671  1.00  0.00     0.000 C 
BRANCH   4   5
ATOM      5  C   UNL     1       6.425   0.936  48.732  1.00  0.00     0.000 C 
BRANCH   5   6
ATOM      6  C   UNL     1       6.841   1.314  50.169  1.00  0.00     0.000 C 
BRANCH   6   7
ATOM      7  C   UNL     1       5.698   1.359  51.198  1.00  0.00     0.000 C 
BRANCH   7   8
ATOM      8  C   UNL     1       5.854   2.504  52.214  1.00  0.00     0.000 C 
BRANCH   8   9
ATOM      9  C   UNL     1       4.583   3.363  52.346  1.00  0.00     0.000 C 
BRANCH   9  10
ATOM     10  C   UNL     1       3.629   3.316  51.135  1.00  0.00     0.006 C 
BRANCH  10  11
ATOM     11  C   UNL     1       3.037   4.677  50.736  1.00  0.00     0.053 C 
BRANCH  11  12
ATOM     12  C   UNL     1       1.740   4.949  51.435  1.00  0.00     0.041 C 
ATOM     13  O   UNL     1       1.246   6.108  51.429  1.00  0.00    -0.550 OA
ATOM     14  O   UNL     1       1.058   3.913  52.062  1.00  0.00    -0.550 OA
ENDBRANCH  11  12
ENDBRANCH  10  11
ENDBRANCH   9  10
ENDBRANCH   8   9
ENDBRANCH   7   8
ENDBRANCH   6   7
ENDBRANCH   5   6
ENDBRANCH   4   5
ENDBRANCH   3   4
ENDBRANCH   2   3
ENDBRANCH   1   2
BRANCH   1  15
ATOM     15  C   UNL     1       7.540   5.307  50.622  1.00  0.00     0.000 C 
BRANCH  15  16
ATOM     16  C   UNL     1       7.444   6.469  51.626  1.00  0.00     0.000 C 
BRANCH  16  17
ATOM     17  C   UNL     1       6.041   6.709  52.214  1.00  0.00     0.000 C 
BRANCH  17  18
ATOM     18  C   UNL     1       5.620   8.193  52.247  1.00  0.00    -0.000 C 
BRANCH  18  19
ATOM     19  C   UNL     1       4.204   8.417  51.688  1.00  0.00    -0.000 C 
BRANCH  19  20
ATOM     20  C   UNL     1       4.116   8.141  50.178  1.00  0.00    -0.000 C 
BRANCH  20  21
ATOM     21  C   UNL     1       3.856   9.418  49.358  1.00  0.00    -0.000 C 
BRANCH  21  22
ATOM     22  C   UNL     1       5.105   9.909  48.604  1.00  0.00    -0.000 C 
BRANCH  22  23
ATOM     23  C   UNL     1       6.236   8.872  48.479  1.00  0.00    -0.000 C 
BRANCH  23  24
ATOM     24  C   UNL     1       7.508   9.275  49.242  1.00  0.00    -0.000 C 
BRANCH  24  25
ATOM     25  C   UNL     1       8.764   8.948  48.427  1.00  0.00    -0.003 C 
ATOM     26  C   UNL     1       8.672   7.557  47.805  1.00  0.00     0.004 C 
ENDBRANCH  24  25
ENDBRANCH  23  24
ENDBRANCH  22  23
ENDBRANCH  21  22
ENDBRANCH  20  21
ENDBRANCH  19  20
ENDBRANCH  18  19
ENDBRANCH  17  18
ENDBRANCH  16  17
ENDBRANCH  15  16
ENDBRANCH   1  15
TORSDOF 22
ENDMDL
MODEL 3
REMARK VINA RESULT:    -3.658      1.494      3.310
REMARK INTER + INTRA:         -12.440
REMARK INTER:                  -8.363
REMARK INTRA:                  -4.077
REMARK UNBOUND:                -4.077
REMARK SMILES CCCCCCCCCCCCCCCCCCCCCCCC(=O)[O-]
REMARK SMILES IDX 13 1 14 2 15 3 16 4 17 5 18 6 19 7 20 8 21 9 22 10 23 11
REMARK SMILES IDX 24 12 25 13 26 14 12 15 11 16 10 17 9 18 8 19 7 20 6 21 5 22
REMARK SMILES IDX 4 23 3 24 2 25 1 26
REMARK H PARENT
REMARK Flexibility Score: inf
ROOT
ATOM      1  C   UNL     1       6.625   4.505  48.263  1.00  0.00     0.000 C 
ENDROOT
BRANCH   1   2
ATOM      2  C   UNL     1       5.760   3.229  48.258  1.00  0.00     0.000 C 
BRANCH   2   3
ATOM      3  C   UNL     1       6.493   1.944  47.829  1.00  0.00     0.000 C 
BRANCH   3   4
ATOM      4  C   UNL     1       6.629   0.926  48.973  1.00  0.00     0.000 C 
BRANCH   4   5
ATOM      5  C   UNL     1       7.053   1.575  50.302  1.00  0.00     0.000 C 
BRANCH   5   6
ATOM      6  C   UNL     1       6.298   1.077  51.553  1.00  0.00     0.000 C 
BRANCH   6   7
ATOM      7  C   UNL     1       5.829   2.176  52.522  1.00  0.00     0.000 C 
BRANCH   7   8
ATOM      8  C   UNL     1       4.757   3.095  51.911  1.00  0.00     0.000 C 
BRANCH   8   9
ATOM      9  C   UNL     1       3.382   2.412  51.791  1.00  0.00     0.000 C 
BRANCH   9  10
ATOM     10  C   UNL     1       2.935   2.081  50.352  1.00  0.00     0.006 C 
BRANCH  10  11
ATOM     11  C   UNL     1       2.960   0.584  50.005  1.00  0.00     0.053 C 
BRANCH  11  12
ATOM     12  C   UNL     1       1.580   0.007  49.921  1.00  0.00     0.041 C 
ATOM     13  O   UNL     1       0.909   0.118  48.859  1.00  0.00    -0.550 OA
ATOM     14  O   UNL     1       1.049  -0.686  51.001  1.00  0.00    -0.550 OA
ENDBRANCH  11  12
ENDBRANCH  10  11
ENDBRANCH   9  10
ENDBRANCH   8   9
ENDBRANCH   7   8
ENDBRANCH   6   7
ENDBRANCH   5   6
ENDBRANCH   4   5
ENDBRANCH   3   4
ENDBRANCH   2   3
ENDBRANCH   1   2
BRANCH   1  15
ATOM     15  C   UNL     1       6.667   5.265  49.606  1.00  0.00     0.000 C 
BRANCH  15  16
ATOM     16  C   UNL     1       7.618   6.474  49.642  1.00  0.00     0.000 C 
BRANCH  16  17
ATOM     17  C   UNL     1       7.913   7.112  48.271  1.00  0.00     0.000 C 
BRANCH  17  18
ATOM     18  C   UNL     1       7.005   8.311  47.929  1.00  0.00    -0.000 C 
BRANCH  18  19
ATOM     19  C   UNL     1       6.341   8.923  49.175  1.00  0.00    -0.000 C 
BRANCH  19  20
ATOM     20  C   UNL     1       4.889   9.359  48.916  1.00  0.00    -0.000 C 
BRANCH  20  21
ATOM     21  C   UNL     1       3.889   8.676  49.865  1.00  0.00    -0.000 C 
BRANCH  21  22
ATOM     22  C   UNL     1       4.561   8.084  51.118  1.00  0.00    -0.000 C 
BRANCH  22  23
ATOM     23  C   UNL     1       3.905   6.800  51.658  1.00  0.00    -0.000 C 
BRANCH  23  24
ATOM     24  C   UNL     1       3.103   6.040  50.590  1.00  0.00    -0.000 C 
BRANCH  24  25
ATOM     25  C   UNL     1       1.624   5.943  50.979  1.00  0.00    -0.003 C 
ATOM     26  C   UNL     1       1.459   5.392  52.393  1.00  0.00     0.004 C 
ENDBRANCH  24  25
ENDBRANCH  23  24
ENDBRANCH  22  23
ENDBRANCH  21  22
ENDBRANCH  20  21
ENDBRANCH  19  20
ENDBRANCH  18  19
ENDBRANCH  17  18
ENDBRANCH  16  17
ENDBRANCH  15  16
ENDBRANCH   1  15
TORSDOF 22
ENDMDL
MODEL 4
REMARK VINA RESULT:    -3.638      2.805      4.566
REMARK INTER + INTRA:         -12.395
REMARK INTER:                  -7.961
REMARK INTRA:                  -4.434
REMARK UNBOUND:                -4.077
REMARK SMILES CCCCCCCCCCCCCCCCCCCCCCCC(=O)[O-]
REMARK SMILES IDX 13 1 14 2 15 3 16 4 17 5 18 6 19 7 20 8 21 9 22 10 23 11
REMARK SMILES IDX 24 12 25 13 26 14 12 15 11 16 10 17 9 18 8 19 7 20 6 21 5 22
REMARK SMILES IDX 4 23 3 24 2 25 1 26
REMARK H PARENT
REMARK Flexibility Score: inf
ROOT
ATOM      1  C   UNL     1       6.105   1.727  48.120  1.00  0.00     0.000 C 
ENDROOT
BRANCH   1   2
ATOM      2  C   UNL     1       5.701   3.210  48.233  1.00  0.00     0.000 C 
BRANCH   2   3
ATOM      3  C   UNL     1       4.561   3.505  49.225  1.00  0.00     0.000 C 
BRANCH   3   4
ATOM      4  C   UNL     1       3.633   2.298  49.442  1.00  0.00     0.000 C 
BRANCH   4   5
ATOM      5  C   UNL     1       2.725   2.456  50.674  1.00  0.00     0.000 C 
BRANCH   5   6
ATOM      6  C   UNL     1       3.389   3.103  51.907  1.00  0.00     0.000 C 
BRANCH   6   7
ATOM      7  C   UNL     1       2.751   4.418  52.388  1.00  0.00     0.000 C 
BRANCH   7   8
ATOM      8  C   UNL     1       1.885   5.092  51.309  1.00  0.00     0.000 C 
BRANCH   8   9
ATOM      9  C   UNL     1       2.234   6.577  51.105  1.00  0.00     0.000 C 
BRANCH   9  10
ATOM     10  C   UNL     1       3.644   6.850  50.540  1.00  0.00     0.006 C 
BRANCH  10  11
ATOM     11  C   UNL     1       4.202   8.245  50.863  1.00  0.00     0.053 C 
BRANCH  11  12
ATOM     12  C   UNL     1       3.812   9.256  49.828  1.00  0.00     0.041 C 
ATOM     13  O   UNL     1       2.824  10.014  50.022  1.00  0.00    -0.550 OA
ATOM     14  O   UNL     1       4.562   9.387  48.666  1.00  0.00    -0.550 OA
ENDBRANCH  11  12
ENDBRANCH  10  11
ENDBRANCH   9  10
ENDBRANCH   8   9
ENDBRANCH   7   8
ENDBRANCH   6   7
ENDBRANCH   5   6
ENDBRANCH   4   5
ENDBRANCH   3   4
ENDBRANCH   2   3
ENDBRANCH   1   2
BRANCH   1  15
ATOM     15  C   UNL     1       7.131   1.243  49.166  1.00  0.00     0.000 C 
BRANCH  15  16
ATOM     16  C   UNL     1       6.525   0.561  50.406  1.00  0.00     0.000 C 
BRANCH  16  17
ATOM     17  C   UNL     1       6.697   1.337  51.726  1.00  0.00     0.000 C 
BRANCH  17  18
ATOM     18  C   UNL     1       7.379   2.712  51.561  1.00  0.00    -0.000 C 
BRANCH  18  19
ATOM     19  C   UNL     1       7.041   3.679  52.708  1.00  0.00    -0.000 C 
BRANCH  19  20
ATOM     20  C   UNL     1       6.400   4.985  52.210  1.00  0.00    -0.000 C 
BRANCH  20  21
ATOM     21  C   UNL     1       7.327   6.202  52.382  1.00  0.00    -0.000 C 
BRANCH  21  22
ATOM     22  C   UNL     1       7.665   6.889  51.046  1.00  0.00    -0.000 C 
BRANCH  22  23
ATOM     23  C   UNL     1       7.444   6.018  49.796  1.00  0.00    -0.000 C 
BRANCH  23  24
ATOM     24  C   UNL     1       7.123   6.843  48.540  1.00  0.00    -0.000 C 
BRANCH  24  25
ATOM     25  C   UNL     1       7.905   8.162  48.533  1.00  0.00    -0.003 C 
ATOM     26  C   UNL     1       9.105   8.088  47.594  1.00  0.00     0.004 C 
ENDBRANCH  24  25
ENDBRANCH  23  24
ENDBRANCH  22  23
ENDBRANCH  21  22
ENDBRANCH  20  21
ENDBRANCH  19  20
ENDBRANCH  18  19
ENDBRANCH  17  18
ENDBRANCH  16  17
ENDBRANCH  15  16
ENDBRANCH   1  15
TORSDOF 22
ENDMDL
MODEL 5
REMARK VINA RESULT:    -3.611      1.570      3.226
REMARK INTER + INTRA:         -12.332
REMARK INTER:                  -8.857
REMARK INTRA:                  -3.475
REMARK UNBOUND:                -4.077
REMARK SMILES CCCCCCCCCCCCCCCCCCCCCCCC(=O)[O-]
REMARK SMILES IDX 13 1 14 2 15 3 16 4 17 5 18 6 19 7 20 8 21 9 22 10 23 11
REMARK SMILES IDX 24 12 25 13 26 14 12 15 11 16 10 17 9 18 8 19 7 20 6 21 5 22
REMARK SMILES IDX 4 23 3 24 2 25 1 26
REMARK H PARENT
REMARK Flexibility Score: inf
ROOT
ATOM      1  C   UNL     1       6.997   1.216  48.599  1.00  0.00     0.000 C 
ENDROOT
BRANCH   1   2
ATOM      2  C   UNL     1       6.053   0.749  49.725  1.00  0.00     0.000 C 
BRANCH   2   3
ATOM      3  C   UNL     1       6.586   0.954  51.155  1.00  0.00     0.000 C 
BRANCH   3   4
ATOM      4  C   UNL     1       7.343   2.281  51.323  1.00  0.00     0.000 C 
BRANCH   4   5
ATOM      5  C   UNL     1       6.750   3.171  52.429  1.00  0.00     0.000 C 
BRANCH   5   6
ATOM      6  C   UNL     1       5.250   2.956  52.719  1.00  0.00     0.000 C 
BRANCH   6   7
ATOM      7  C   UNL     1       4.314   4.072  52.222  1.00  0.00     0.000 C 
BRANCH   7   8
ATOM      8  C   UNL     1       3.087   3.533  51.467  1.00  0.00     0.000 C 
BRANCH   8   9
ATOM      9  C   UNL     1       3.099   2.000  51.325  1.00  0.00     0.000 C 
BRANCH   9  10
ATOM     10  C   UNL     1       2.422   1.452  50.052  1.00  0.00     0.006 C 
BRANCH  10  11
ATOM     11  C   UNL     1       1.233   0.514  50.315  1.00  0.00     0.053 C 
BRANCH  11  12
ATOM     12  C   UNL     1       1.160  -0.591  49.307  1.00  0.00     0.041 C 
ATOM     13  O   UNL     1       0.427  -0.475  48.288  1.00  0.00    -0.550 OA
ATOM     14  O   UNL     1       1.931  -1.736  49.473  1.00  0.00    -0.550 OA
ENDBRANCH  11  12
ENDBRANCH  10  11
ENDBRANCH   9  10
ENDBRANCH   8   9
ENDBRANCH   7   8
ENDBRANCH   6   7
ENDBRANCH   5   6
ENDBRANCH   4   5
ENDBRANCH   3   4
ENDBRANCH   2   3
ENDBRANCH   1   2
BRANCH   1  15
ATOM     15  C   UNL     1       6.416   2.293  47.660  1.00  0.00     0.000 C 
BRANCH  15  16
ATOM     16  C   UNL     1       5.221   3.079  48.228  1.00  0.00     0.000 C 
BRANCH  16  17
ATOM     17  C   UNL     1       5.587   4.393  48.945  1.00  0.00     0.000 C 
BRANCH  17  18
ATOM     18  C   UNL     1       6.960   4.968  48.537  1.00  0.00    -0.000 C 
BRANCH  18  19
ATOM     19  C   UNL     1       7.235   6.343  49.170  1.00  0.00    -0.000 C 
BRANCH  19  20
ATOM     20  C   UNL     1       7.308   7.469  48.126  1.00  0.00    -0.000 C 
BRANCH  20  21
ATOM     21  C   UNL     1       6.833   8.823  48.682  1.00  0.00    -0.000 C 
BRANCH  21  22
ATOM     22  C   UNL     1       5.690   9.441  47.856  1.00  0.00    -0.000 C 
BRANCH  22  23
ATOM     23  C   UNL     1       4.789  10.421  48.629  1.00  0.00    -0.000 C 
BRANCH  23  24
ATOM     24  C   UNL     1       4.621  10.042  50.109  1.00  0.00    -0.000 C 
BRANCH  24  25
ATOM     25  C   UNL     1       3.344   9.222  50.325  1.00  0.00    -0.003 C 
ATOM     26  C   UNL     1       3.656   7.732  50.425  1.00  0.00     0.004 C 
ENDBRANCH  24  25
ENDBRANCH  23  24
ENDBRANCH  22  23
ENDBRANCH  21  22
ENDBRANCH  20  21
ENDBRANCH  19  20
ENDBRANCH  18  19
ENDBRANCH  17  18
ENDBRANCH  16  17
ENDBRANCH  15  16
ENDBRANCH   1  15
TORSDOF 22
ENDMDL
MODEL 6
REMARK VINA RESULT:    -3.590      1.527      3.608
REMARK INTER + INTRA:         -12.284
REMARK INTER:                  -8.034
REMARK INTRA:                  -4.250
REMARK UNBOUND:                -4.077
REMARK SMILES CCCCCCCCCCCCCCCCCCCCCCCC(=O)[O-]
REMARK SMILES IDX 13 1 14 2 15 3 16 4 17 5 18 6 19 7 20 8 21 9 22 10 23 11
REMARK SMILES IDX 24 12 25 13 26 14 12 15 11 16 10 17 9 18 8 19 7 20 6 21 5 22
REMARK SMILES IDX 4 23 3 24 2 25 1 26
REMARK H PARENT
REMARK Flexibility Score: inf
ROOT
ATOM      1  C   UNL     1       3.332   2.200  49.893  1.00  0.00     0.000 C 
ENDROOT
BRANCH   1   2
ATOM      2  C   UNL     1       4.169   3.423  49.467  1.00  0.00     0.000 C 
BRANCH   2   3
ATOM      3  C   UNL     1       5.030   3.220  48.207  1.00  0.00     0.000 C 
BRANCH   3   4
ATOM      4  C   UNL     1       6.473   3.722  48.384  1.00  0.00     0.000 C 
BRANCH   4   5
ATOM      5  C   UNL     1       6.552   5.048  49.161  1.00  0.00     0.000 C 
BRANCH   5   6
ATOM      6  C   UNL     1       7.340   4.994  50.486  1.00  0.00     0.000 C 
BRANCH   6   7
ATOM      7  C   UNL     1       6.487   5.060  51.765  1.00  0.00     0.000 C 
BRANCH   7   8
ATOM      8  C   UNL     1       6.394   3.708  52.493  1.00  0.00     0.000 C 
BRANCH   8   9
ATOM      9  C   UNL     1       7.181   2.592  51.783  1.00  0.00     0.000 C 
BRANCH   9  10
ATOM     10  C   UNL     1       6.454   1.234  51.686  1.00  0.00     0.006 C 
BRANCH  10  11
ATOM     11  C   UNL     1       6.552   0.555  50.311  1.00  0.00     0.053 C 
BRANCH  11  12
ATOM     12  C   UNL     1       5.539  -0.537  50.153  1.00  0.00     0.041 C 
ATOM     13  O   UNL     1       4.800  -0.862  51.121  1.00  0.00    -0.550 OA
ATOM     14  O   UNL     1       5.385  -1.172  48.926  1.00  0.00    -0.550 OA
ENDBRANCH  11  12
ENDBRANCH  10  11
ENDBRANCH   9  10
ENDBRANCH   8   9
ENDBRANCH   7   8
ENDBRANCH   6   7
ENDBRANCH   5   6
ENDBRANCH   4   5
ENDBRANCH   3   4
ENDBRANCH   2   3
ENDBRANCH   1   2
BRANCH   1  15
ATOM     15  C   UNL     1       2.540   2.372  51.206  1.00  0.00     0.000 C 
BRANCH  15  16
ATOM     16  C   UNL     1       2.712   3.736  51.898  1.00  0.00     0.000 C 
BRANCH  16  17
ATOM     17  C   UNL     1       1.442   4.606  51.949  1.00  0.00     0.000 C 
BRANCH  17  18
ATOM     18  C   UNL     1       1.607   5.996  51.301  1.00  0.00    -0.000 C 
BRANCH  18  19
ATOM     19  C   UNL     1       3.028   6.561  51.471  1.00  0.00    -0.000 C 
BRANCH  19  20
ATOM     20  C   UNL     1       3.609   7.103  50.155  1.00  0.00    -0.000 C 
BRANCH  20  21
ATOM     21  C   UNL     1       4.764   8.095  50.383  1.00  0.00    -0.000 C 
BRANCH  21  22
ATOM     22  C   UNL     1       4.571   9.423  49.628  1.00  0.00    -0.000 C 
BRANCH  22  23
ATOM     23  C   UNL     1       5.623   9.709  48.542  1.00  0.00    -0.000 C 
BRANCH  23  24
ATOM     24  C   UNL     1       6.481   8.481  48.199  1.00  0.00    -0.000 C 
BRANCH  24  25
ATOM     25  C   UNL     1       7.953   8.723  48.551  1.00  0.00    -0.003 C 
ATOM     26  C   UNL     1       8.880   8.031  47.556  1.00  0.00     0.004 C 
ENDBRANCH  24  25
ENDBRANCH  23  24
ENDBRANCH  22  23
ENDBRANCH  21  22
ENDBRANCH  20  21
ENDBRANCH  19  20
ENDBRANCH  18  19
ENDBRANCH  17  18
ENDBRANCH  16  17
ENDBRANCH  15  16
ENDBRANCH   1  15
TORSDOF 22
ENDMDL
MODEL 7
REMARK VINA RESULT:    -3.584      3.243      4.758
REMARK INTER + INTRA:         -12.271
REMARK INTER:                  -8.334
REMARK INTRA:                  -3.937
REMARK UNBOUND:                -4.077
REMARK SMILES CCCCCCCCCCCCCCCCCCCCCCCC(=O)[O-]
REMARK SMILES IDX 13 1 14 2 15 3 16 4 17 5 18 6 19 7 20 8 21 9 22 10 23 11
REMARK SMILES IDX 24 12 25 13 26 14 12 15 11 16 10 17 9 18 8 19 7 20 6 21 5 22
REMARK SMILES IDX 4 23 3 24 2 25 1 26
REMARK H PARENT
REMARK Flexibility Score: inf
ROOT
ATOM      1  C   UNL     1       5.904   3.280  48.011  1.00  0.00     0.000 C 
ENDROOT
BRANCH   1   2
ATOM      2  C   UNL     1       6.705   1.973  47.844  1.00  0.00     0.000 C 
BRANCH   2   3
ATOM      3  C   UNL     1       6.360   0.861  48.852  1.00  0.00     0.000 C 
BRANCH   3   4
ATOM      4  C   UNL     1       7.109   1.013  50.186  1.00  0.00     0.000 C 
BRANCH   4   5
ATOM      5  C   UNL     1       6.178   1.381  51.355  1.00  0.00     0.000 C 
BRANCH   5   6
ATOM      6  C   UNL     1       6.567   2.653  52.136  1.00  0.00     0.000 C 
BRANCH   6   7
ATOM      7  C   UNL     1       7.430   3.665  51.363  1.00  0.00     0.000 C 
BRANCH   7   8
ATOM      8  C   UNL     1       7.167   5.121  51.786  1.00  0.00     0.000 C 
BRANCH   8   9
ATOM      9  C   UNL     1       7.752   6.146  50.797  1.00  0.00     0.000 C 
BRANCH   9  10
ATOM     10  C   UNL     1       6.822   6.541  49.632  1.00  0.00     0.006 C 
BRANCH  10  11
ATOM     11  C   UNL     1       7.493   6.538  48.249  1.00  0.00     0.053 C 
BRANCH  11  12
ATOM     12  C   UNL     1       8.527   7.615  48.128  1.00  0.00     0.041 C 
ATOM     13  O   UNL     1       8.286   8.778  48.550  1.00  0.00    -0.550 OA
ATOM     14  O   UNL     1       9.772   7.325  47.582  1.00  0.00    -0.550 OA
ENDBRANCH  11  12
ENDBRANCH  10  11
ENDBRANCH   9  10
ENDBRANCH   8   9
ENDBRANCH   7   8
ENDBRANCH   6   7
ENDBRANCH   5   6
ENDBRANCH   4   5
ENDBRANCH   3   4
ENDBRANCH   2   3
ENDBRANCH   1   2
BRANCH   1  15
ATOM     15  C   UNL     1       4.491   3.113  48.607  1.00  0.00     0.000 C 
BRANCH  15  16
ATOM     16  C   UNL     1       4.147   4.082  49.752  1.00  0.00     0.000 C 
BRANCH  16  17
ATOM     17  C   UNL     1       3.132   3.545  50.778  1.00  0.00     0.000 C 
BRANCH  17  18
ATOM     18  C   UNL     1       2.719   4.575  51.851  1.00  0.00    -0.000 C 
BRANCH  18  19
ATOM     19  C   UNL     1       3.823   5.610  52.129  1.00  0.00    -0.000 C 
BRANCH  19  20
ATOM     20  C   UNL     1       3.259   7.013  52.411  1.00  0.00    -0.000 C 
BRANCH  20  21
ATOM     21  C   UNL     1       4.003   8.115  51.636  1.00  0.00    -0.000 C 
BRANCH  21  22
ATOM     22  C   UNL     1       3.428   8.348  50.227  1.00  0.00    -0.000 C 
BRANCH  22  23
ATOM     23  C   UNL     1       3.851   9.673  49.566  1.00  0.00    -0.000 C 
BRANCH  23  24
ATOM     24  C   UNL     1       4.971   9.496  48.529  1.00  0.00    -0.000 C 
BRANCH  24  25
ATOM     25  C   UNL     1       5.366  10.842  47.912  1.00  0.00    -0.003 C 
ATOM     26  C   UNL     1       4.686  12.002  48.635  1.00  0.00     0.004 C 
ENDBRANCH  24  25
ENDBRANCH  23  24
ENDBRANCH  22  23
ENDBRANCH  21  22
ENDBRANCH  20  21
ENDBRANCH  19  20
ENDBRANCH  18  19
ENDBRANCH  17  18
ENDBRANCH  16  17
ENDBRANCH  15  16
ENDBRANCH   1  15
TORSDOF 22
ENDMDL
MODEL 8
REMARK VINA RESULT:    -3.580      1.771      6.748
REMARK INTER + INTRA:         -12.262
REMARK INTER:                  -8.446
REMARK INTRA:                  -3.816
REMARK UNBOUND:                -4.077
REMARK SMILES CCCCCCCCCCCCCCCCCCCCCCCC(=O)[O-]
REMARK SMILES IDX 13 1 14 2 15 3 16 4 17 5 18 6 19 7 20 8 21 9 22 10 23 11
REMARK SMILES IDX 24 12 25 13 26 14 12 15 11 16 10 17 9 18 8 19 7 20 6 21 5 22
REMARK SMILES IDX 4 23 3 24 2 25 1 26
REMARK H PARENT
REMARK Flexibility Score: inf
ROOT
ATOM      1  C   UNL     1       6.756   4.106  49.129  1.00  0.00     0.000 C 
ENDROOT
BRANCH   1   2
ATOM      2  C   UNL     1       6.334   5.524  49.564  1.00  0.00     0.000 C 
BRANCH   2   3
ATOM      3  C   UNL     1       7.479   6.550  49.651  1.00  0.00     0.000 C 
BRANCH   3   4
ATOM      4  C   UNL     1       8.175   6.781  48.299  1.00  0.00     0.000 C 
BRANCH   4   5
ATOM      5  C   UNL     1       7.645   8.021  47.558  1.00  0.00     0.000 C 
BRANCH   5   6
ATOM      6  C   UNL     1       6.945   9.073  48.445  1.00  0.00     0.000 C 
BRANCH   6   7
ATOM      7  C   UNL     1       5.583   9.570  47.930  1.00  0.00     0.000 C 
BRANCH   7   8
ATOM      8  C   UNL     1       4.475   9.488  48.995  1.00  0.00     0.000 C 
BRANCH   8   9
ATOM      9  C   UNL     1       5.006   9.069  50.378  1.00  0.00     0.000 C 
BRANCH   9  10
ATOM     10  C   UNL     1       3.986   8.343  51.280  1.00  0.00     0.006 C 
BRANCH  10  11
ATOM     11  C   UNL     1       3.209   7.214  50.585  1.00  0.00     0.053 C 
BRANCH  11  12
ATOM     12  C   UNL     1       2.023   6.776  51.389  1.00  0.00     0.041 C 
ATOM     13  O   UNL     1       1.649   7.447  52.388  1.00  0.00    -0.550 OA
ATOM     14  O   UNL     1       1.307   5.646  51.012  1.00  0.00    -0.550 OA
ENDBRANCH  11  12
ENDBRANCH  10  11
ENDBRANCH   9  10
ENDBRANCH   8   9
ENDBRANCH   7   8
ENDBRANCH   6   7
ENDBRANCH   5   6
ENDBRANCH   4   5
ENDBRANCH   3   4
ENDBRANCH   2   3
ENDBRANCH   1   2
BRANCH   1  15
ATOM     15  C   UNL     1       5.934   3.502  47.972  1.00  0.00     0.000 C 
BRANCH  15  16
ATOM     16  C   UNL     1       6.410   2.122  47.485  1.00  0.00     0.000 C 
BRANCH  16  17
ATOM     17  C   UNL     1       6.945   1.190  48.590  1.00  0.00     0.000 C 
BRANCH  17  18
ATOM     18  C   UNL     1       5.869   0.277  49.215  1.00  0.00    -0.000 C 
BRANCH  18  19
ATOM     19  C   UNL     1       6.015   0.153  50.741  1.00  0.00    -0.000 C 
BRANCH  19  20
ATOM     20  C   UNL     1       6.276   1.507  51.421  1.00  0.00    -0.000 C 
BRANCH  20  21
ATOM     21  C   UNL     1       5.146   1.911  52.385  1.00  0.00    -0.000 C 
BRANCH  21  22
ATOM     22  C   UNL     1       4.379   3.161  51.917  1.00  0.00    -0.000 C 
BRANCH  22  23
ATOM     23  C   UNL     1       3.533   2.963  50.647  1.00  0.00    -0.000 C 
BRANCH  23  24
ATOM     24  C   UNL     1       2.261   2.136  50.895  1.00  0.00    -0.000 C 
BRANCH  24  25
ATOM     25  C   UNL     1       2.266   0.854  50.054  1.00  0.00    -0.003 C 
ATOM     26  C   UNL     1       2.314  -0.387  50.940  1.00  0.00     0.004 C 
ENDBRANCH  24  25
ENDBRANCH  23  24
ENDBRANCH  22  23
ENDBRANCH  21  22
ENDBRANCH  20  21
ENDBRANCH  19  20
ENDBRANCH  18  19
ENDBRANCH  17  18
ENDBRANCH  16  17
ENDBRANCH  15  16
ENDBRANCH   1  15
TORSDOF 22
ENDMDL
MODEL 9
REMARK VINA RESULT:    -3.563      3.182      6.656
REMARK INTER + INTRA:         -12.223
REMARK INTER:                  -7.732
REMARK INTRA:                  -4.491
REMARK UNBOUND:                -4.077
REMARK SMILES CCCCCCCCCCCCCCCCCCCCCCCC(=O)[O-]
REMARK SMILES IDX 13 1 14 2 15 3 16 4 17 5 18 6 19 7 20 8 21 9 22 10 23 11
REMARK SMILES IDX 24 12 25 13 26 14 12 15 11 16 10 17 9 18 8 19 7 20 6 21 5 22
REMARK SMILES IDX 4 23 3 24 2 25 1 26
REMARK H PARENT
REMARK Flexibility Score: inf
ROOT
ATOM      1  C   UNL     1       6.750   1.806  48.195  1.00  0.00     0.000 C 
ENDROOT
BRANCH   1   2
ATOM      2  C   UNL     1       5.948   3.119  48.096  1.00  0.00     0.000 C 
BRANCH   2   3
ATOM      3  C   UNL     1       6.780   4.407  48.242  1.00  0.00     0.000 C 
BRANCH   3   4
ATOM      4  C   UNL     1       6.288   5.306  49.388  1.00  0.00     0.000 C 
BRANCH   4   5
ATOM      5  C   UNL     1       7.366   5.553  50.459  1.00  0.00     0.000 C 
BRANCH   5   6
ATOM      6  C   UNL     1       6.906   6.367  51.686  1.00  0.00     0.000 C 
BRANCH   6   7
ATOM      7  C   UNL     1       7.595   7.731  51.870  1.00  0.00     0.000 C 
BRANCH   7   8
ATOM      8  C   UNL     1       6.631   8.917  51.695  1.00  0.00     0.000 C 
BRANCH   8   9
ATOM      9  C   UNL     1       5.643   8.717  50.532  1.00  0.00     0.000 C 
BRANCH   9  10
ATOM     10  C   UNL     1       5.939   9.551  49.268  1.00  0.00     0.006 C 
BRANCH  10  11
ATOM     11  C   UNL     1       6.484   8.740  48.081  1.00  0.00     0.053 C 
BRANCH  11  12
ATOM     12  C   UNL     1       7.960   8.510  48.193  1.00  0.00     0.041 C 
ATOM     13  O   UNL     1       8.490   7.507  47.644  1.00  0.00    -0.550 OA
ATOM     14  O   UNL     1       8.757   9.423  48.873  1.00  0.00    -0.550 OA
ENDBRANCH  11  12
ENDBRANCH  10  11
ENDBRANCH   9  10
ENDBRANCH   8   9
ENDBRANCH   7   8
ENDBRANCH   6   7
ENDBRANCH   5   6
ENDBRANCH   4   5
ENDBRANCH   3   4
ENDBRANCH   2   3
ENDBRANCH   1   2
BRANCH   1  15
ATOM     15  C   UNL     1       6.615   1.054  49.535  1.00  0.00     0.000 C 
BRANCH  15  16
ATOM     16  C   UNL     1       6.973   1.878  50.785  1.00  0.00     0.000 C 
BRANCH  16  17
ATOM     17  C   UNL     1       6.287   1.421  52.086  1.00  0.00     0.000 C 
BRANCH  17  18
ATOM     18  C   UNL     1       5.598   0.044  51.981  1.00  0.00    -0.000 C 
BRANCH  18  19
ATOM     19  C   UNL     1       4.078   0.126  52.200  1.00  0.00    -0.000 C 
BRANCH  19  20
ATOM     20  C   UNL     1       3.280  -0.218  50.932  1.00  0.00    -0.000 C 
BRANCH  20  21
ATOM     21  C   UNL     1       2.930   1.026  50.096  1.00  0.00    -0.000 C 
BRANCH  21  22
ATOM     22  C   UNL     1       2.572   2.247  50.963  1.00  0.00    -0.000 C 
BRANCH  22  23
ATOM     23  C   UNL     1       3.385   3.518  50.658  1.00  0.00    -0.000 C 
BRANCH  23  24
ATOM     24  C   UNL     1       3.832   4.263  51.926  1.00  0.00    -0.000 C 
BRANCH  24  25
ATOM     25  C   UNL     1       3.169   5.642  52.017  1.00  0.00    -0.003 C 
ATOM     26  C   UNL     1       2.896   6.216  50.629  1.00  0.00     0.004 C 
ENDBRANCH  24  25
ENDBRANCH  23  24
ENDBRANCH  22  23
ENDBRANCH  21  22
ENDBRANCH  20  21
ENDBRANCH  19  20
ENDBRANCH  18  19
ENDBRANCH  17  18
ENDBRANCH  16  17
ENDBRANCH  15  16
ENDBRANCH   1  15
TORSDOF 22
ENDMDL
