MODEL 1
REMARK VINA RESULT:     7.061      0.000      0.000
REMARK INTER + INTRA:          17.543
REMARK INTER:                  17.792
REMARK INTRA:                  -0.250
REMARK UNBOUND:                -0.250
REMARK SMILES CCCCCCCCCCCCCCCCCCCCCCCCCCCC(=O)[O-]
REMARK SMILES IDX 15 1 16 2 17 3 18 4 19 5 20 6 21 7 22 8 23 9 24 10 25 11
REMARK SMILES IDX 26 12 27 13 28 14 29 15 30 16 14 17 13 18 12 19 11 20 10 21
REMARK SMILES IDX 9 22 8 23 7 24 6 25 5 26 4 27 3 28 2 29 1 30
REMARK H PARENT
REMARK Flexibility Score: inf
ROOT
ATOM      1  C   UNL     1      36.537 104.493 266.486  1.00  0.00     0.000 C 
ENDROOT
BRANCH   1   2
ATOM      2  C   UNL     1      35.056 104.934 266.452  1.00  0.00     0.000 C 
BRANCH   2   3
ATOM      3  C   UNL     1      34.875 106.418 266.806  1.00  0.00     0.000 C 
BRANCH   3   4
ATOM      4  C   UNL     1      35.491 107.326 265.734  1.00  0.00     0.000 C 
BRANCH   4   5
ATOM      5  C   UNL     1      35.983 108.641 266.356  1.00  0.00     0.000 C 
BRANCH   5   6
ATOM      6  C   UNL     1      35.005 109.216 267.393  1.00  0.00     0.000 C 
BRANCH   6   7
ATOM      7  C   UNL     1      35.581 109.412 268.812  1.00  0.00     0.000 C 
BRANCH   7   8
ATOM      8  C   UNL     1      35.120 108.391 269.872  1.00  0.00     0.000 C 
BRANCH   8   9
ATOM      9  C   UNL     1      35.210 106.914 269.427  1.00  0.00     0.000 C 
BRANCH   9  10
ATOM     10  C   UNL     1      36.185 106.064 270.262  1.00  0.00     0.000 C 
BRANCH  10  11
ATOM     11  C   UNL     1      37.300 106.858 270.961  1.00  0.00     0.000 C 
BRANCH  11  12
ATOM     12  C   UNL     1      38.484 105.972 271.390  1.00  0.00     0.006 C 
BRANCH  12  13
ATOM     13  C   UNL     1      38.317 105.428 272.816  1.00  0.00     0.053 C 
BRANCH  13  14
ATOM     14  C   UNL     1      39.007 104.108 272.996  1.00  0.00     0.041 C 
ATOM     15  O   UNL     1      38.389 103.135 273.506  1.00  0.00    -0.550 OA
ATOM     16  O   UNL     1      40.325 103.946 272.589  1.00  0.00    -0.550 OA
ENDBRANCH  13  14
ENDBRANCH  12  13
ENDBRANCH  11  12
ENDBRANCH  10  11
ENDBRANCH   9  10
ENDBRANCH   8   9
ENDBRANCH   7   8
ENDBRANCH   6   7
ENDBRANCH   5   6
ENDBRANCH   4   5
ENDBRANCH   3   4
ENDBRANCH   2   3
ENDBRANCH   1   2
BRANCH   1  17
ATOM     17  C   UNL     1      36.814 103.175 265.736  1.00  0.00     0.000 C 
BRANCH  17  18
ATOM     18  C   UNL     1      36.261 103.109 264.300  1.00  0.00     0.000 C 
BRANCH  18  19
ATOM     19  C   UNL     1      35.223 104.195 263.952  1.00  0.00     0.000 C 
BRANCH  19  20
ATOM     20  C   UNL     1      35.256 104.685 262.490  1.00  0.00     0.000 C 
BRANCH  20  21
ATOM     21  C   UNL     1      35.210 106.213 262.314  1.00  0.00     0.000 C 
BRANCH  21  22
ATOM     22  C   UNL     1      36.208 106.950 263.221  1.00  0.00    -0.000 C 
BRANCH  22  23
ATOM     23  C   UNL     1      37.571 106.247 263.232  1.00  0.00    -0.000 C 
BRANCH  23  24
ATOM     24  C   UNL     1      38.716 107.268 263.233  1.00  0.00    -0.000 C 
BRANCH  24  25
ATOM     25  C   UNL     1      39.296 107.445 261.822  1.00  0.00    -0.000 C 
BRANCH  25  26
ATOM     26  C   UNL     1      39.426 106.114 261.063  1.00  0.00    -0.000 C 
BRANCH  26  27
ATOM     27  C   UNL     1      38.393 105.969 259.935  1.00  0.00    -0.000 C 
BRANCH  27  28
ATOM     28  C   UNL     1      37.583 107.263 259.765  1.00  0.00    -0.000 C 
BRANCH  28  29
ATOM     29  C   UNL     1      36.463 107.128 258.721  1.00  0.00    -0.003 C 
ATOM     30  C   UNL     1      36.570 105.839 257.904  1.00  0.00     0.004 C 
ENDBRANCH  28  29
ENDBRANCH  27  28
ENDBRANCH  26  27
ENDBRANCH  25  26
ENDBRANCH  24  25
ENDBRANCH  23  24
ENDBRANCH  22  23
ENDBRANCH  21  22
ENDBRANCH  20  21
ENDBRANCH  19  20
ENDBRANCH  18  19
ENDBRANCH  17  18
ENDBRANCH   1  17
TORSDOF 26
ENDMDL
MODEL 2
REMARK VINA RESULT:     7.333      2.792      9.025
REMARK INTER + INTRA:          18.230
REMARK INTER:                  14.637
REMARK INTRA:                   3.594
REMARK UNBOUND:                -0.250
REMARK SMILES CCCCCCCCCCCCCCCCCCCCCCCCCCCC(=O)[O-]
REMARK SMILES IDX 15 1 16 2 17 3 18 4 19 5 20 6 21 7 22 8 23 9 24 10 25 11
REMARK SMILES IDX 26 12 27 13 28 14 29 15 30 16 14 17 13 18 12 19 11 20 10 21
REMARK SMILES IDX 9 22 8 23 7 24 6 25 5 26 4 27 3 28 2 29 1 30
REMARK H PARENT
REMARK Flexibility Score: inf
ROOT
ATOM      1  C   UNL     1      36.602 104.272 266.288  1.00  0.00     0.000 C 
ENDROOT
BRANCH   1   2
ATOM      2  C   UNL     1      36.552 104.045 264.760  1.00  0.00     0.000 C 
BRANCH   2   3
ATOM      3  C   UNL     1      35.579 105.001 264.054  1.00  0.00     0.000 C 
BRANCH   3   4
ATOM      4  C   UNL     1      34.956 104.346 262.814  1.00  0.00     0.000 C 
BRANCH   4   5
ATOM      5  C   UNL     1      36.048 103.781 261.894  1.00  0.00     0.000 C 
BRANCH   5   6
ATOM      6  C   UNL     1      36.158 104.538 260.560  1.00  0.00     0.000 C 
BRANCH   6   7
ATOM      7  C   UNL     1      37.471 104.315 259.777  1.00  0.00     0.000 C 
BRANCH   7   8
ATOM      8  C   UNL     1      37.718 105.273 258.594  1.00  0.00     0.000 C 
BRANCH   8   9
ATOM      9  C   UNL     1      36.586 106.294 258.342  1.00  0.00     0.000 C 
BRANCH   9  10
ATOM     10  C   UNL     1      36.752 107.618 259.111  1.00  0.00     0.000 C 
BRANCH  10  11
ATOM     11  C   UNL     1      36.365 107.556 260.597  1.00  0.00     0.000 C 
BRANCH  11  12
ATOM     12  C   UNL     1      37.327 106.685 261.428  1.00  0.00     0.006 C 
BRANCH  12  13
ATOM     13  C   UNL     1      38.703 107.342 261.600  1.00  0.00     0.053 C 
BRANCH  13  14
ATOM     14  C   UNL     1      39.197 107.244 263.014  1.00  0.00     0.041 C 
ATOM     15  O   UNL     1      38.456 107.601 263.969  1.00  0.00    -0.550 OA
ATOM     16  O   UNL     1      40.467 106.747 263.278  1.00  0.00    -0.550 OA
ENDBRANCH  13  14
ENDBRANCH  12  13
ENDBRANCH  11  12
ENDBRANCH  10  11
ENDBRANCH   9  10
ENDBRANCH   8   9
ENDBRANCH   7   8
ENDBRANCH   6   7
ENDBRANCH   5   6
ENDBRANCH   4   5
ENDBRANCH   3   4
ENDBRANCH   2   3
ENDBRANCH   1   2
BRANCH   1  17
ATOM     17  C   UNL     1      35.245 104.663 266.907  1.00  0.00     0.000 C 
BRANCH  17  18
ATOM     18  C   UNL     1      34.890 106.159 266.815  1.00  0.00     0.000 C 
BRANCH  18  19
ATOM     19  C   UNL     1      34.878 106.739 265.386  1.00  0.00     0.000 C 
BRANCH  19  20
ATOM     20  C   UNL     1      35.075 108.265 265.299  1.00  0.00     0.000 C 
BRANCH  20  21
ATOM     21  C   UNL     1      35.852 108.889 266.472  1.00  0.00     0.000 C 
BRANCH  21  22
ATOM     22  C   UNL     1      34.964 109.743 267.391  1.00  0.00    -0.000 C 
BRANCH  22  23
ATOM     23  C   UNL     1      34.948 109.187 268.820  1.00  0.00    -0.000 C 
BRANCH  23  24
ATOM     24  C   UNL     1      35.540 107.772 268.867  1.00  0.00    -0.000 C 
BRANCH  24  25
ATOM     25  C   UNL     1      35.666 107.277 270.316  1.00  0.00    -0.000 C 
BRANCH  25  26
ATOM     26  C   UNL     1      37.121 106.988 270.720  1.00  0.00    -0.000 C 
BRANCH  26  27
ATOM     27  C   UNL     1      37.299 105.597 271.346  1.00  0.00    -0.000 C 
BRANCH  27  28
ATOM     28  C   UNL     1      38.607 105.521 272.148  1.00  0.00    -0.000 C 
BRANCH  28  29
ATOM     29  C   UNL     1      38.634 104.336 273.126  1.00  0.00    -0.003 C 
ATOM     30  C   UNL     1      39.963 103.580 273.102  1.00  0.00     0.004 C 
ENDBRANCH  28  29
ENDBRANCH  27  28
ENDBRANCH  26  27
ENDBRANCH  25  26
ENDBRANCH  24  25
ENDBRANCH  23  24
ENDBRANCH  22  23
ENDBRANCH  21  22
ENDBRANCH  20  21
ENDBRANCH  19  20
ENDBRANCH  18  19
ENDBRANCH  17  18
ENDBRANCH   1  17
TORSDOF 26
ENDMDL
MODEL 3
REMARK VINA RESULT:     7.850      1.102      2.489
REMARK INTER + INTRA:          19.532
REMARK INTER:                  17.726
REMARK INTRA:                   1.807
REMARK UNBOUND:                -0.250
REMARK SMILES CCCCCCCCCCCCCCCCCCCCCCCCCCCC(=O)[O-]
REMARK SMILES IDX 15 1 16 2 17 3 18 4 19 5 20 6 21 7 22 8 23 9 24 10 25 11
REMARK SMILES IDX 26 12 27 13 28 14 29 15 30 16 14 17 13 18 12 19 11 20 10 21
REMARK SMILES IDX 9 22 8 23 7 24 6 25 5 26 4 27 3 28 2 29 1 30
REMARK H PARENT
REMARK Flexibility Score: inf
ROOT
ATOM      1  C   UNL     1      36.365 106.176 265.121  1.00  0.00     0.000 C 
ENDROOT
BRANCH   1   2
ATOM      2  C   UNL     1      35.030 106.781 265.610  1.00  0.00     0.000 C 
BRANCH   2   3
ATOM      3  C   UNL     1      34.907 108.277 265.283  1.00  0.00     0.000 C 
BRANCH   3   4
ATOM      4  C   UNL     1      35.769 109.127 266.226  1.00  0.00     0.000 C 
BRANCH   4   5
ATOM      5  C   UNL     1      34.884 109.994 267.134  1.00  0.00     0.000 C 
BRANCH   5   6
ATOM      6  C   UNL     1      35.262 109.883 268.621  1.00  0.00     0.000 C 
BRANCH   6   7
ATOM      7  C   UNL     1      34.946 108.526 269.287  1.00  0.00     0.000 C 
BRANCH   7   8
ATOM      8  C   UNL     1      35.120 107.282 268.392  1.00  0.00     0.000 C 
BRANCH   8   9
ATOM      9  C   UNL     1      35.346 105.961 269.161  1.00  0.00     0.000 C 
BRANCH   9  10
ATOM     10  C   UNL     1      35.887 106.151 270.591  1.00  0.00     0.000 C 
BRANCH  10  11
ATOM     11  C   UNL     1      37.315 106.713 270.672  1.00  0.00     0.000 C 
BRANCH  11  12
ATOM     12  C   UNL     1      38.332 105.682 271.197  1.00  0.00     0.006 C 
BRANCH  12  13
ATOM     13  C   UNL     1      38.237 105.492 272.717  1.00  0.00     0.053 C 
BRANCH  13  14
ATOM     14  C   UNL     1      38.809 104.176 273.155  1.00  0.00     0.041 C 
ATOM     15  O   UNL     1      38.100 103.362 273.805  1.00  0.00    -0.550 OA
ATOM     16  O   UNL     1      40.118 103.842 272.832  1.00  0.00    -0.550 OA
ENDBRANCH  13  14
ENDBRANCH  12  13
ENDBRANCH  11  12
ENDBRANCH  10  11
ENDBRANCH   9  10
ENDBRANCH   8   9
ENDBRANCH   7   8
ENDBRANCH   6   7
ENDBRANCH   5   6
ENDBRANCH   4   5
ENDBRANCH   3   4
ENDBRANCH   2   3
ENDBRANCH   1   2
BRANCH   1  17
ATOM     17  C   UNL     1      36.219 104.787 264.468  1.00  0.00     0.000 C 
BRANCH  17  18
ATOM     18  C   UNL     1      34.888 104.544 263.733  1.00  0.00     0.000 C 
BRANCH  18  19
ATOM     19  C   UNL     1      35.019 103.856 262.359  1.00  0.00     0.000 C 
BRANCH  19  20
ATOM     20  C   UNL     1      35.780 104.667 261.292  1.00  0.00     0.000 C 
BRANCH  20  21
ATOM     21  C   UNL     1      36.116 106.115 261.693  1.00  0.00     0.000 C 
BRANCH  21  22
ATOM     22  C   UNL     1      36.121 107.080 260.496  1.00  0.00    -0.000 C 
BRANCH  22  23
ATOM     23  C   UNL     1      36.216 106.318 259.169  1.00  0.00    -0.000 C 
BRANCH  23  24
ATOM     24  C   UNL     1      37.514 106.663 258.427  1.00  0.00    -0.000 C 
BRANCH  24  25
ATOM     25  C   UNL     1      38.390 105.415 258.241  1.00  0.00    -0.000 C 
BRANCH  25  26
ATOM     26  C   UNL     1      39.206 105.070 259.498  1.00  0.00    -0.000 C 
BRANCH  26  27
ATOM     27  C   UNL     1      38.742 105.846 260.739  1.00  0.00    -0.000 C 
BRANCH  27  28
ATOM     28  C   UNL     1      39.938 106.238 261.620  1.00  0.00    -0.000 C 
BRANCH  28  29
ATOM     29  C   UNL     1      39.729 107.578 262.342  1.00  0.00    -0.003 C 
ATOM     30  C   UNL     1      38.424 107.622 263.138  1.00  0.00     0.004 C 
ENDBRANCH  28  29
ENDBRANCH  27  28
ENDBRANCH  26  27
ENDBRANCH  25  26
ENDBRANCH  24  25
ENDBRANCH  23  24
ENDBRANCH  22  23
ENDBRANCH  21  22
ENDBRANCH  20  21
ENDBRANCH  19  20
ENDBRANCH  18  19
ENDBRANCH  17  18
ENDBRANCH   1  17
TORSDOF 26
ENDMDL
MODEL 4
REMARK VINA RESULT:     7.948      1.116      2.644
REMARK INTER + INTRA:          19.779
REMARK INTER:                  17.934
REMARK INTRA:                   1.845
REMARK UNBOUND:                -0.250
REMARK SMILES CCCCCCCCCCCCCCCCCCCCCCCCCCCC(=O)[O-]
REMARK SMILES IDX 15 1 16 2 17 3 18 4 19 5 20 6 21 7 22 8 23 9 24 10 25 11
REMARK SMILES IDX 26 12 27 13 28 14 29 15 30 16 14 17 13 18 12 19 11 20 10 21
REMARK SMILES IDX 9 22 8 23 7 24 6 25 5 26 4 27 3 28 2 29 1 30
REMARK H PARENT
REMARK Flexibility Score: inf
ROOT
ATOM      1  C   UNL     1      36.402 103.593 266.061  1.00  0.00     0.000 C 
ENDROOT
BRANCH   1   2
ATOM      2  C   UNL     1      35.013 103.644 266.737  1.00  0.00     0.000 C 
BRANCH   2   3
ATOM      3  C   UNL     1      35.082 104.141 268.188  1.00  0.00     0.000 C 
BRANCH   3   4
ATOM      4  C   UNL     1      34.877 105.660 268.267  1.00  0.00     0.000 C 
BRANCH   4   5
ATOM      5  C   UNL     1      34.875 106.280 266.862  1.00  0.00     0.000 C 
BRANCH   5   6
ATOM      6  C   UNL     1      34.936 107.816 266.885  1.00  0.00     0.000 C 
BRANCH   6   7
ATOM      7  C   UNL     1      36.044 108.424 267.773  1.00  0.00     0.000 C 
BRANCH   7   8
ATOM      8  C   UNL     1      35.636 108.760 269.222  1.00  0.00     0.000 C 
BRANCH   8   9
ATOM      9  C   UNL     1      35.325 107.532 270.106  1.00  0.00     0.000 C 
BRANCH   9  10
ATOM     10  C   UNL     1      36.568 106.713 270.502  1.00  0.00     0.000 C 
BRANCH  10  11
ATOM     11  C   UNL     1      37.529 107.423 271.469  1.00  0.00     0.000 C 
BRANCH  11  12
ATOM     12  C   UNL     1      38.854 106.661 271.659  1.00  0.00     0.006 C 
BRANCH  12  13
ATOM     13  C   UNL     1      38.689 105.148 271.462  1.00  0.00     0.053 C 
BRANCH  13  14
ATOM     14  C   UNL     1      38.791 104.400 272.758  1.00  0.00     0.041 C 
ATOM     15  O   UNL     1      37.749 104.008 273.348  1.00  0.00    -0.550 OA
ATOM     16  O   UNL     1      40.037 104.122 273.308  1.00  0.00    -0.550 OA
ENDBRANCH  13  14
ENDBRANCH  12  13
ENDBRANCH  11  12
ENDBRANCH  10  11
ENDBRANCH   9  10
ENDBRANCH   8   9
ENDBRANCH   7   8
ENDBRANCH   6   7
ENDBRANCH   5   6
ENDBRANCH   4   5
ENDBRANCH   3   4
ENDBRANCH   2   3
ENDBRANCH   1   2
BRANCH   1  17
ATOM     17  C   UNL     1      36.413 104.129 264.615  1.00  0.00     0.000 C 
BRANCH  17  18
ATOM     18  C   UNL     1      35.102 104.791 264.151  1.00  0.00     0.000 C 
BRANCH  18  19
ATOM     19  C   UNL     1      35.070 105.200 262.665  1.00  0.00     0.000 C 
BRANCH  19  20
ATOM     20  C   UNL     1      35.692 104.177 261.693  1.00  0.00     0.000 C 
BRANCH  20  21
ATOM     21  C   UNL     1      36.392 104.788 260.465  1.00  0.00     0.000 C 
BRANCH  21  22
ATOM     22  C   UNL     1      35.810 106.152 260.062  1.00  0.00    -0.000 C 
BRANCH  22  23
ATOM     23  C   UNL     1      36.794 106.940 259.190  1.00  0.00    -0.000 C 
BRANCH  23  24
ATOM     24  C   UNL     1      37.875 106.018 258.610  1.00  0.00    -0.000 C 
BRANCH  24  25
ATOM     25  C   UNL     1      38.733 105.405 259.728  1.00  0.00    -0.000 C 
BRANCH  25  26
ATOM     26  C   UNL     1      39.349 106.468 260.653  1.00  0.00    -0.000 C 
BRANCH  26  27
ATOM     27  C   UNL     1      38.383 106.933 261.751  1.00  0.00    -0.000 C 
BRANCH  27  28
ATOM     28  C   UNL     1      39.143 107.273 263.042  1.00  0.00    -0.000 C 
BRANCH  28  29
ATOM     29  C   UNL     1      38.262 107.161 264.296  1.00  0.00    -0.003 C 
ATOM     30  C   UNL     1      36.829 107.639 264.056  1.00  0.00     0.004 C 
ENDBRANCH  28  29
ENDBRANCH  27  28
ENDBRANCH  26  27
ENDBRANCH  25  26
ENDBRANCH  24  25
ENDBRANCH  23  24
ENDBRANCH  22  23
ENDBRANCH  21  22
ENDBRANCH  20  21
ENDBRANCH  19  20
ENDBRANCH  18  19
ENDBRANCH  17  18
ENDBRANCH   1  17
TORSDOF 26
ENDMDL
MODEL 5
REMARK VINA RESULT:     8.100      2.948      9.144
REMARK INTER + INTRA:          20.162
REMARK INTER:                  20.497
REMARK INTRA:                  -0.335
REMARK UNBOUND:                -0.250
REMARK SMILES CCCCCCCCCCCCCCCCCCCCCCCCCCCC(=O)[O-]
REMARK SMILES IDX 15 1 16 2 17 3 18 4 19 5 20 6 21 7 22 8 23 9 24 10 25 11
REMARK SMILES IDX 26 12 27 13 28 14 29 15 30 16 14 17 13 18 12 19 11 20 10 21
REMARK SMILES IDX 9 22 8 23 7 24 6 25 5 26 4 27 3 28 2 29 1 30
REMARK H PARENT
REMARK Flexibility Score: inf
ROOT
ATOM      1  C   UNL     1      36.524 104.677 265.886  1.00  0.00     0.000 C 
ENDROOT
BRANCH   1   2
ATOM      2  C   UNL     1      36.550 103.805 264.611  1.00  0.00     0.000 C 
BRANCH   2   3
ATOM      3  C   UNL     1      35.197 103.784 263.884  1.00  0.00     0.000 C 
BRANCH   3   4
ATOM      4  C   UNL     1      35.032 105.011 262.977  1.00  0.00     0.000 C 
BRANCH   4   5
ATOM      5  C   UNL     1      35.866 104.855 261.697  1.00  0.00     0.000 C 
BRANCH   5   6
ATOM      6  C   UNL     1      35.990 106.163 260.899  1.00  0.00     0.000 C 
BRANCH   6   7
ATOM      7  C   UNL     1      36.785 106.063 259.579  1.00  0.00     0.000 C 
BRANCH   7   8
ATOM      8  C   UNL     1      38.247 105.589 259.710  1.00  0.00     0.000 C 
BRANCH   8   9
ATOM      9  C   UNL     1      38.778 105.527 261.159  1.00  0.00     0.000 C 
BRANCH   9  10
ATOM     10  C   UNL     1      39.559 106.780 261.596  1.00  0.00     0.000 C 
BRANCH  10  11
ATOM     11  C   UNL     1      39.106 107.391 262.933  1.00  0.00     0.000 C 
BRANCH  11  12
ATOM     12  C   UNL     1      37.662 107.007 263.305  1.00  0.00     0.006 C 
BRANCH  12  13
ATOM     13  C   UNL     1      37.127 107.831 264.484  1.00  0.00     0.053 C 
BRANCH  13  14
ATOM     14  C   UNL     1      35.629 107.801 264.555  1.00  0.00     0.041 C 
ATOM     15  O   UNL     1      34.946 107.747 263.497  1.00  0.00    -0.550 OA
ATOM     16  O   UNL     1      34.987 107.817 265.787  1.00  0.00    -0.550 OA
ENDBRANCH  13  14
ENDBRANCH  12  13
ENDBRANCH  11  12
ENDBRANCH  10  11
ENDBRANCH   9  10
ENDBRANCH   8   9
ENDBRANCH   7   8
ENDBRANCH   6   7
ENDBRANCH   5   6
ENDBRANCH   4   5
ENDBRANCH   3   4
ENDBRANCH   2   3
ENDBRANCH   1   2
BRANCH   1  17
ATOM     17  C   UNL     1      35.156 104.706 266.596  1.00  0.00     0.000 C 
BRANCH  17  18
ATOM     18  C   UNL     1      35.174 104.266 268.072  1.00  0.00     0.000 C 
BRANCH  18  19
ATOM     19  C   UNL     1      34.879 105.388 269.089  1.00  0.00     0.000 C 
BRANCH  19  20
ATOM     20  C   UNL     1      34.877 106.815 268.504  1.00  0.00     0.000 C 
BRANCH  20  21
ATOM     21  C   UNL     1      35.030 107.943 269.540  1.00  0.00     0.000 C 
BRANCH  21  22
ATOM     22  C   UNL     1      35.975 107.571 270.693  1.00  0.00    -0.000 C 
BRANCH  22  23
ATOM     23  C   UNL     1      37.411 108.025 270.402  1.00  0.00    -0.000 C 
BRANCH  23  24
ATOM     24  C   UNL     1      38.418 107.252 271.264  1.00  0.00    -0.000 C 
BRANCH  24  25
ATOM     25  C   UNL     1      37.981 105.790 271.442  1.00  0.00    -0.000 C 
BRANCH  25  26
ATOM     26  C   UNL     1      39.050 104.934 272.142  1.00  0.00    -0.000 C 
BRANCH  26  27
ATOM     27  C   UNL     1      38.520 104.237 273.404  1.00  0.00    -0.000 C 
BRANCH  27  28
ATOM     28  C   UNL     1      39.595 103.328 274.021  1.00  0.00    -0.000 C 
BRANCH  28  29
ATOM     29  C   UNL     1      40.615 102.830 272.985  1.00  0.00    -0.003 C 
ATOM     30  C   UNL     1      42.046 103.255 273.314  1.00  0.00     0.004 C 
ENDBRANCH  28  29
ENDBRANCH  27  28
ENDBRANCH  26  27
ENDBRANCH  25  26
ENDBRANCH  24  25
ENDBRANCH  23  24
ENDBRANCH  22  23
ENDBRANCH  21  22
ENDBRANCH  20  21
ENDBRANCH  19  20
ENDBRANCH  18  19
ENDBRANCH  17  18
ENDBRANCH   1  17
TORSDOF 26
ENDMDL
MODEL 6
REMARK VINA RESULT:     8.197      2.727      9.363
REMARK INTER + INTRA:          20.407
REMARK INTER:                  18.618
REMARK INTRA:                   1.789
REMARK UNBOUND:                -0.250
REMARK SMILES CCCCCCCCCCCCCCCCCCCCCCCCCCCC(=O)[O-]
REMARK SMILES IDX 15 1 16 2 17 3 18 4 19 5 20 6 21 7 22 8 23 9 24 10 25 11
REMARK SMILES IDX 26 12 27 13 28 14 29 15 30 16 14 17 13 18 12 19 11 20 10 21
REMARK SMILES IDX 9 22 8 23 7 24 6 25 5 26 4 27 3 28 2 29 1 30
REMARK H PARENT
REMARK Flexibility Score: inf
ROOT
ATOM      1  C   UNL     1      35.880 104.729 267.052  1.00  0.00     0.000 C 
ENDROOT
BRANCH   1   2
ATOM      2  C   UNL     1      36.253 103.993 265.745  1.00  0.00     0.000 C 
BRANCH   2   3
ATOM      3  C   UNL     1      35.194 104.171 264.646  1.00  0.00     0.000 C 
BRANCH   3   4
ATOM      4  C   UNL     1      35.055 105.644 264.239  1.00  0.00     0.000 C 
BRANCH   4   5
ATOM      5  C   UNL     1      35.464 105.841 262.772  1.00  0.00     0.000 C 
BRANCH   5   6
ATOM      6  C   UNL     1      35.780 104.518 262.055  1.00  0.00     0.000 C 
BRANCH   6   7
ATOM      7  C   UNL     1      36.356 104.657 260.629  1.00  0.00     0.000 C 
BRANCH   7   8
ATOM      8  C   UNL     1      36.047 105.983 259.905  1.00  0.00     0.000 C 
BRANCH   8   9
ATOM      9  C   UNL     1      36.812 106.187 258.578  1.00  0.00     0.000 C 
BRANCH   9  10
ATOM     10  C   UNL     1      38.340 106.048 258.706  1.00  0.00     0.000 C 
BRANCH  10  11
ATOM     11  C   UNL     1      38.819 105.327 259.976  1.00  0.00     0.000 C 
BRANCH  11  12
ATOM     12  C   UNL     1      39.594 106.253 260.931  1.00  0.00     0.006 C 
BRANCH  12  13
ATOM     13  C   UNL     1      38.670 107.227 261.675  1.00  0.00     0.053 C 
BRANCH  13  14
ATOM     14  C   UNL     1      38.830 107.125 263.163  1.00  0.00     0.041 C 
ATOM     15  O   UNL     1      39.905 106.692 263.656  1.00  0.00    -0.550 OA
ATOM     16  O   UNL     1      37.799 107.523 264.006  1.00  0.00    -0.550 OA
ENDBRANCH  13  14
ENDBRANCH  12  13
ENDBRANCH  11  12
ENDBRANCH  10  11
ENDBRANCH   9  10
ENDBRANCH   8   9
ENDBRANCH   7   8
ENDBRANCH   6   7
ENDBRANCH   5   6
ENDBRANCH   4   5
ENDBRANCH   3   4
ENDBRANCH   2   3
ENDBRANCH   1   2
BRANCH   1  17
ATOM     17  C   UNL     1      35.002 105.978 266.838  1.00  0.00     0.000 C 
BRANCH  17  18
ATOM     18  C   UNL     1      35.764 107.315 266.787  1.00  0.00     0.000 C 
BRANCH  18  19
ATOM     19  C   UNL     1      34.877 108.573 266.874  1.00  0.00     0.000 C 
BRANCH  19  20
ATOM     20  C   UNL     1      34.921 109.310 268.227  1.00  0.00     0.000 C 
BRANCH  20  21
ATOM     21  C   UNL     1      35.901 108.722 269.258  1.00  0.00     0.000 C 
BRANCH  21  22
ATOM     22  C   UNL     1      35.317 107.525 270.023  1.00  0.00    -0.000 C 
BRANCH  22  23
ATOM     23  C   UNL     1      36.420 106.557 270.466  1.00  0.00    -0.000 C 
BRANCH  23  24
ATOM     24  C   UNL     1      37.421 107.252 271.397  1.00  0.00    -0.000 C 
BRANCH  24  25
ATOM     25  C   UNL     1      38.831 106.665 271.226  1.00  0.00    -0.000 C 
BRANCH  25  26
ATOM     26  C   UNL     1      38.919 105.196 271.672  1.00  0.00    -0.000 C 
BRANCH  26  27
ATOM     27  C   UNL     1      38.133 104.918 272.962  1.00  0.00    -0.000 C 
BRANCH  27  28
ATOM     28  C   UNL     1      38.248 103.440 273.366  1.00  0.00    -0.000 C 
BRANCH  28  29
ATOM     29  C   UNL     1      39.706 102.961 273.450  1.00  0.00    -0.003 C 
ATOM     30  C   UNL     1      40.704 104.024 272.987  1.00  0.00     0.004 C 
ENDBRANCH  28  29
ENDBRANCH  27  28
ENDBRANCH  26  27
ENDBRANCH  25  26
ENDBRANCH  24  25
ENDBRANCH  23  24
ENDBRANCH  22  23
ENDBRANCH  21  22
ENDBRANCH  20  21
ENDBRANCH  19  20
ENDBRANCH  18  19
ENDBRANCH  17  18
ENDBRANCH   1  17
TORSDOF 26
ENDMDL
MODEL 7
REMARK VINA RESULT:     8.723      1.804      3.217
REMARK INTER + INTRA:          21.731
REMARK INTER:                  23.296
REMARK INTRA:                  -1.565
REMARK UNBOUND:                -0.250
REMARK SMILES CCCCCCCCCCCCCCCCCCCCCCCCCCCC(=O)[O-]
REMARK SMILES IDX 15 1 16 2 17 3 18 4 19 5 20 6 21 7 22 8 23 9 24 10 25 11
REMARK SMILES IDX 26 12 27 13 28 14 29 15 30 16 14 17 13 18 12 19 11 20 10 21
REMARK SMILES IDX 9 22 8 23 7 24 6 25 5 26 4 27 3 28 2 29 1 30
REMARK H PARENT
REMARK Flexibility Score: inf
ROOT
ATOM      1  C   UNL     1      34.996 105.220 266.464  1.00  0.00     0.000 C 
ENDROOT
BRANCH   1   2
ATOM      2  C   UNL     1      34.875 104.608 267.878  1.00  0.00     0.000 C 
BRANCH   2   3
ATOM      3  C   UNL     1      35.077 105.648 268.990  1.00  0.00     0.000 C 
BRANCH   3   4
ATOM      4  C   UNL     1      34.953 107.077 268.446  1.00  0.00     0.000 C 
BRANCH   4   5
ATOM      5  C   UNL     1      35.787 108.052 269.290  1.00  0.00     0.000 C 
BRANCH   5   6
ATOM      6  C   UNL     1      36.275 107.434 270.611  1.00  0.00     0.000 C 
BRANCH   6   7
ATOM      7  C   UNL     1      37.802 107.475 270.838  1.00  0.00     0.000 C 
BRANCH   7   8
ATOM      8  C   UNL     1      38.316 106.730 272.087  1.00  0.00     0.000 C 
BRANCH   8   9
ATOM      9  C   UNL     1      38.451 105.200 271.916  1.00  0.00     0.000 C 
BRANCH   9  10
ATOM     10  C   UNL     1      38.651 104.435 273.237  1.00  0.00     0.000 C 
BRANCH  10  11
ATOM     11  C   UNL     1      39.473 103.141 273.117  1.00  0.00     0.000 C 
BRANCH  11  12
ATOM     12  C   UNL     1      40.809 103.211 273.880  1.00  0.00     0.006 C 
BRANCH  12  13
ATOM     13  C   UNL     1      42.011 103.363 272.937  1.00  0.00     0.053 C 
BRANCH  13  14
ATOM     14  C   UNL     1      43.298 102.977 273.603  1.00  0.00     0.041 C 
ATOM     15  O   UNL     1      44.284 103.763 273.580  1.00  0.00    -0.550 OA
ATOM     16  O   UNL     1      43.407 101.759 274.263  1.00  0.00    -0.550 OA
ENDBRANCH  13  14
ENDBRANCH  12  13
ENDBRANCH  11  12
ENDBRANCH  10  11
ENDBRANCH   9  10
ENDBRANCH   8   9
ENDBRANCH   7   8
ENDBRANCH   6   7
ENDBRANCH   5   6
ENDBRANCH   4   5
ENDBRANCH   3   4
ENDBRANCH   2   3
ENDBRANCH   1   2
BRANCH   1  17
ATOM     17  C   UNL     1      35.198 104.178 265.347  1.00  0.00     0.000 C 
BRANCH  17  18
ATOM     18  C   UNL     1      35.356 104.759 263.929  1.00  0.00     0.000 C 
BRANCH  18  19
ATOM     19  C   UNL     1      35.977 106.170 263.870  1.00  0.00     0.000 C 
BRANCH  19  20
ATOM     20  C   UNL     1      36.215 106.719 262.449  1.00  0.00     0.000 C 
BRANCH  20  21
ATOM     21  C   UNL     1      37.192 107.906 262.366  1.00  0.00     0.000 C 
BRANCH  21  22
ATOM     22  C   UNL     1      38.483 107.675 263.166  1.00  0.00    -0.000 C 
BRANCH  22  23
ATOM     23  C   UNL     1      39.227 106.429 262.671  1.00  0.00    -0.000 C 
BRANCH  23  24
ATOM     24  C   UNL     1      39.592 106.559 261.187  1.00  0.00    -0.000 C 
BRANCH  24  25
ATOM     25  C   UNL     1      39.089 105.347 260.389  1.00  0.00    -0.000 C 
BRANCH  25  26
ATOM     26  C   UNL     1      37.609 105.472 259.990  1.00  0.00    -0.000 C 
BRANCH  26  27
ATOM     27  C   UNL     1      37.391 105.361 258.474  1.00  0.00    -0.000 C 
BRANCH  27  28
ATOM     28  C   UNL     1      37.001 106.722 257.875  1.00  0.00    -0.000 C 
BRANCH  28  29
ATOM     29  C   UNL     1      35.836 107.386 258.625  1.00  0.00    -0.003 C 
ATOM     30  C   UNL     1      35.697 108.875 258.301  1.00  0.00     0.004 C 
ENDBRANCH  28  29
ENDBRANCH  27  28
ENDBRANCH  26  27
ENDBRANCH  25  26
ENDBRANCH  24  25
ENDBRANCH  23  24
ENDBRANCH  22  23
ENDBRANCH  21  22
ENDBRANCH  20  21
ENDBRANCH  19  20
ENDBRANCH  18  19
ENDBRANCH  17  18
ENDBRANCH   1  17
TORSDOF 26
ENDMDL
MODEL 8
REMARK VINA RESULT:     8.839      3.076      9.770
REMARK INTER + INTRA:          22.023
REMARK INTER:                  23.239
REMARK INTRA:                  -1.216
REMARK UNBOUND:                -0.250
REMARK SMILES CCCCCCCCCCCCCCCCCCCCCCCCCCCC(=O)[O-]
REMARK SMILES IDX 15 1 16 2 17 3 18 4 19 5 20 6 21 7 22 8 23 9 24 10 25 11
REMARK SMILES IDX 26 12 27 13 28 14 29 15 30 16 14 17 13 18 12 19 11 20 10 21
REMARK SMILES IDX 9 22 8 23 7 24 6 25 5 26 4 27 3 28 2 29 1 30
REMARK H PARENT
REMARK Flexibility Score: inf
ROOT
ATOM      1  C   UNL     1      36.233 108.555 266.173  1.00  0.00     0.000 C 
ENDROOT
BRANCH   1   2
ATOM      2  C   UNL     1      36.208 107.390 265.157  1.00  0.00     0.000 C 
BRANCH   2   3
ATOM      3  C   UNL     1      34.877 106.624 265.171  1.00  0.00     0.000 C 
BRANCH   3   4
ATOM      4  C   UNL     1      35.046 105.225 265.779  1.00  0.00     0.000 C 
BRANCH   4   5
ATOM      5  C   UNL     1      36.344 104.572 265.283  1.00  0.00     0.000 C 
BRANCH   5   6
ATOM      6  C   UNL     1      36.140 103.713 264.023  1.00  0.00     0.000 C 
BRANCH   6   7
ATOM      7  C   UNL     1      35.091 104.243 263.022  1.00  0.00     0.000 C 
BRANCH   7   8
ATOM      8  C   UNL     1      35.607 104.531 261.597  1.00  0.00     0.000 C 
BRANCH   8   9
ATOM      9  C   UNL     1      35.944 106.014 261.321  1.00  0.00     0.000 C 
BRANCH   9  10
ATOM     10  C   UNL     1      36.613 106.263 259.956  1.00  0.00     0.000 C 
BRANCH  10  11
ATOM     11  C   UNL     1      37.927 105.497 259.731  1.00  0.00     0.000 C 
BRANCH  11  12
ATOM     12  C   UNL     1      39.005 105.842 260.776  1.00  0.00     0.006 C 
BRANCH  12  13
ATOM     13  C   UNL     1      38.451 106.701 261.921  1.00  0.00     0.053 C 
BRANCH  13  14
ATOM     14  C   UNL     1      39.544 107.381 262.691  1.00  0.00     0.041 C 
ATOM     15  O   UNL     1      40.233 106.730 263.522  1.00  0.00    -0.550 OA
ATOM     16  O   UNL     1      39.813 108.728 262.481  1.00  0.00    -0.550 OA
ENDBRANCH  13  14
ENDBRANCH  12  13
ENDBRANCH  11  12
ENDBRANCH  10  11
ENDBRANCH   9  10
ENDBRANCH   8   9
ENDBRANCH   7   8
ENDBRANCH   6   7
ENDBRANCH   5   6
ENDBRANCH   4   5
ENDBRANCH   3   4
ENDBRANCH   2   3
ENDBRANCH   1   2
BRANCH   1  17
ATOM     17  C   UNL     1      34.894 108.773 266.905  1.00  0.00     0.000 C 
BRANCH  17  18
ATOM     18  C   UNL     1      34.919 108.480 268.417  1.00  0.00     0.000 C 
BRANCH  18  19
ATOM     19  C   UNL     1      35.091 106.993 268.789  1.00  0.00     0.000 C 
BRANCH  19  20
ATOM     20  C   UNL     1      36.086 106.718 269.934  1.00  0.00     0.000 C 
BRANCH  20  21
ATOM     21  C   UNL     1      37.056 107.872 270.245  1.00  0.00     0.000 C 
BRANCH  21  22
ATOM     22  C   UNL     1      38.173 107.467 271.220  1.00  0.00    -0.000 C 
BRANCH  22  23
ATOM     23  C   UNL     1      38.380 105.948 271.227  1.00  0.00    -0.000 C 
BRANCH  23  24
ATOM     24  C   UNL     1      38.612 105.430 272.652  1.00  0.00    -0.000 C 
BRANCH  24  25
ATOM     25  C   UNL     1      38.408 103.909 272.725  1.00  0.00    -0.000 C 
BRANCH  25  26
ATOM     26  C   UNL     1      39.140 103.269 273.917  1.00  0.00    -0.000 C 
BRANCH  26  27
ATOM     27  C   UNL     1      40.411 102.517 273.499  1.00  0.00    -0.000 C 
BRANCH  27  28
ATOM     28  C   UNL     1      41.419 103.468 272.836  1.00  0.00    -0.000 C 
BRANCH  28  29
ATOM     29  C   UNL     1      42.618 103.787 273.744  1.00  0.00    -0.003 C 
ATOM     30  C   UNL     1      43.857 104.214 272.956  1.00  0.00     0.004 C 
ENDBRANCH  28  29
ENDBRANCH  27  28
ENDBRANCH  26  27
ENDBRANCH  25  26
ENDBRANCH  24  25
ENDBRANCH  23  24
ENDBRANCH  22  23
ENDBRANCH  21  22
ENDBRANCH  20  21
ENDBRANCH  19  20
ENDBRANCH  18  19
ENDBRANCH  17  18
ENDBRANCH   1  17
TORSDOF 26
ENDMDL
MODEL 9
REMARK VINA RESULT:     9.030      1.473      3.322
REMARK INTER + INTRA:          22.505
REMARK INTER:                  20.675
REMARK INTRA:                   1.830
REMARK UNBOUND:                -0.250
REMARK SMILES CCCCCCCCCCCCCCCCCCCCCCCCCCCC(=O)[O-]
REMARK SMILES IDX 15 1 16 2 17 3 18 4 19 5 20 6 21 7 22 8 23 9 24 10 25 11
REMARK SMILES IDX 26 12 27 13 28 14 29 15 30 16 14 17 13 18 12 19 11 20 10 21
REMARK SMILES IDX 9 22 8 23 7 24 6 25 5 26 4 27 3 28 2 29 1 30
REMARK H PARENT
REMARK Flexibility Score: inf
ROOT
ATOM      1  C   UNL     1      35.990 107.797 265.746  1.00  0.00     0.000 C 
ENDROOT
BRANCH   1   2
ATOM      2  C   UNL     1      35.557 108.749 266.884  1.00  0.00     0.000 C 
BRANCH   2   3
ATOM      3  C   UNL     1      35.033 107.996 268.115  1.00  0.00     0.000 C 
BRANCH   3   4
ATOM      4  C   UNL     1      35.147 106.477 267.930  1.00  0.00     0.000 C 
BRANCH   4   5
ATOM      5  C   UNL     1      34.875 105.748 269.255  1.00  0.00     0.000 C 
BRANCH   5   6
ATOM      6  C   UNL     1      34.875 106.692 270.469  1.00  0.00     0.000 C 
BRANCH   6   7
ATOM      7  C   UNL     1      35.910 107.837 270.420  1.00  0.00     0.000 C 
BRANCH   7   8
ATOM      8  C   UNL     1      37.078 107.730 271.421  1.00  0.00     0.000 C 
BRANCH   8   9
ATOM      9  C   UNL     1      38.399 107.203 270.818  1.00  0.00     0.000 C 
BRANCH   9  10
ATOM     10  C   UNL     1      39.297 106.458 271.823  1.00  0.00     0.000 C 
BRANCH  10  11
ATOM     11  C   UNL     1      39.044 104.945 271.918  1.00  0.00     0.000 C 
BRANCH  11  12
ATOM     12  C   UNL     1      40.221 104.182 272.555  1.00  0.00     0.006 C 
BRANCH  12  13
ATOM     13  C   UNL     1      39.870 103.624 273.941  1.00  0.00     0.053 C 
BRANCH  13  14
ATOM     14  C   UNL     1      38.387 103.524 274.145  1.00  0.00     0.041 C 
ATOM     15  O   UNL     1      37.616 103.422 273.153  1.00  0.00    -0.550 OA
ATOM     16  O   UNL     1      37.856 103.528 275.429  1.00  0.00    -0.550 OA
ENDBRANCH  13  14
ENDBRANCH  12  13
ENDBRANCH  11  12
ENDBRANCH  10  11
ENDBRANCH   9  10
ENDBRANCH   8   9
ENDBRANCH   7   8
ENDBRANCH   6   7
ENDBRANCH   5   6
ENDBRANCH   4   5
ENDBRANCH   3   4
ENDBRANCH   2   3
ENDBRANCH   1   2
BRANCH   1  17
ATOM     17  C   UNL     1      35.327 108.104 264.389  1.00  0.00     0.000 C 
BRANCH  17  18
ATOM     18  C   UNL     1      35.136 106.889 263.463  1.00  0.00     0.000 C 
BRANCH  18  19
ATOM     19  C   UNL     1      35.539 105.533 264.078  1.00  0.00     0.000 C 
BRANCH  19  20
ATOM     20  C   UNL     1      34.991 104.294 263.341  1.00  0.00     0.000 C 
BRANCH  20  21
ATOM     21  C   UNL     1      35.669 103.986 261.993  1.00  0.00     0.000 C 
BRANCH  21  22
ATOM     22  C   UNL     1      35.296 104.991 260.893  1.00  0.00    -0.000 C 
BRANCH  22  23
ATOM     23  C   UNL     1      36.346 106.103 260.778  1.00  0.00    -0.000 C 
BRANCH  23  24
ATOM     24  C   UNL     1      36.425 106.638 259.342  1.00  0.00    -0.000 C 
BRANCH  24  25
ATOM     25  C   UNL     1      37.526 105.921 258.547  1.00  0.00    -0.000 C 
BRANCH  25  26
ATOM     26  C   UNL     1      38.806 105.704 259.371  1.00  0.00    -0.000 C 
BRANCH  26  27
ATOM     27  C   UNL     1      38.940 106.697 260.534  1.00  0.00    -0.000 C 
BRANCH  27  28
ATOM     28  C   UNL     1      39.996 106.221 261.543  1.00  0.00    -0.000 C 
BRANCH  28  29
ATOM     29  C   UNL     1      39.869 106.917 262.907  1.00  0.00    -0.003 C 
ATOM     30  C   UNL     1      38.534 107.643 263.078  1.00  0.00     0.004 C 
ENDBRANCH  28  29
ENDBRANCH  27  28
ENDBRANCH  26  27
ENDBRANCH  25  26
ENDBRANCH  24  25
ENDBRANCH  23  24
ENDBRANCH  22  23
ENDBRANCH  21  22
ENDBRANCH  20  21
ENDBRANCH  19  20
ENDBRANCH  18  19
ENDBRANCH  17  18
ENDBRANCH   1  17
TORSDOF 26
ENDMDL
