MODEL 1
REMARK VINA RESULT:    -3.579      0.000      0.000
REMARK INTER + INTRA:          -3.579
REMARK INTER:                  -3.579
REMARK INTRA:                   0.000
REMARK UNBOUND:                 0.000
REMARK SMILES CC1(C)O[C@]2(C)CC[C@H]1CC2
REMARK SMILES IDX 1 1 2 2 9 3 10 4 11 5 5 6 4 7 7 8 8 9 6 10 3 11
REMARK H PARENT
REMARK Flexibility Score: inf
ROOT
ATOM      1  C   UNL     1      -3.002   2.645  -6.335  1.00  0.00     0.042 C 
ATOM      2  C   UNL     1      -2.082   3.485  -5.422  1.00  0.00     0.066 C 
ATOM      3  C   UNL     1      -1.175   4.449  -6.281  1.00  0.00     0.021 C 
ATOM      4  C   UNL     1      -0.241   5.226  -5.322  1.00  0.00     0.009 C 
ATOM      5  C   UNL     1       0.487   4.220  -4.397  1.00  0.00     0.035 C 
ATOM      6  C   UNL     1       0.109   2.765  -4.799  1.00  0.00     0.066 C 
ATOM      7  O   UNL     1      -1.298   2.582  -4.629  1.00  0.00    -0.369 OA
ATOM      8  C   UNL     1       0.476   2.542  -6.295  1.00  0.00     0.035 C 
ATOM      9  C   UNL     1      -0.252   3.588  -7.174  1.00  0.00     0.009 C 
ATOM     10  C   UNL     1       0.849   1.758  -3.913  1.00  0.00     0.042 C 
ATOM     11  C   UNL     1      -2.992   4.293  -4.471  1.00  0.00     0.042 C 
ENDROOT
TORSDOF 0
ENDMDL
MODEL 2
REMARK VINA RESULT:    -3.512     12.596     14.074
REMARK INTER + INTRA:          -3.512
REMARK INTER:                  -3.512
REMARK INTRA:                   0.000
REMARK UNBOUND:                 0.000
REMARK SMILES CC1(C)O[C@]2(C)CC[C@H]1CC2
REMARK SMILES IDX 1 1 2 2 9 3 10 4 11 5 5 6 4 7 7 8 8 9 6 10 3 11
REMARK H PARENT
REMARK Flexibility Score: inf
ROOT
ATOM      1  C   UNL     1      -3.072   2.446   6.826  1.00  0.00     0.042 C 
ATOM      2  C   UNL     1      -1.795   1.680   7.230  1.00  0.00     0.066 C 
ATOM      3  C   UNL     1      -2.088   0.705   8.436  1.00  0.00     0.021 C 
ATOM      4  C   UNL     1      -0.766   0.005   8.832  1.00  0.00     0.009 C 
ATOM      5  C   UNL     1       0.331   1.075   9.049  1.00  0.00     0.035 C 
ATOM      6  C   UNL     1      -0.281   2.497   8.889  1.00  0.00     0.066 C 
ATOM      7  O   UNL     1      -0.783   2.643   7.559  1.00  0.00    -0.369 OA
ATOM      8  C   UNL     1      -1.453   2.660   9.898  1.00  0.00     0.035 C 
ATOM      9  C   UNL     1      -2.508   1.552   9.660  1.00  0.00     0.009 C 
ATOM     10  C   UNL     1       0.787   3.567   9.134  1.00  0.00     0.042 C 
ATOM     11  C   UNL     1      -1.321   0.890   5.991  1.00  0.00     0.042 C 
ENDROOT
TORSDOF 0
ENDMDL
MODEL 3
REMARK VINA RESULT:    -3.412      1.486      3.445
REMARK INTER + INTRA:          -3.412
REMARK INTER:                  -3.412
REMARK INTRA:                   0.000
REMARK UNBOUND:                 0.000
REMARK SMILES CC1(C)O[C@]2(C)CC[C@H]1CC2
REMARK SMILES IDX 1 1 2 2 9 3 10 4 11 5 5 6 4 7 7 8 8 9 6 10 3 11
REMARK H PARENT
REMARK Flexibility Score: inf
ROOT
ATOM      1  C   UNL     1       2.798   2.648  -4.441  1.00  0.00     0.042 C 
ATOM      2  C   UNL     1       1.266   2.785  -4.577  1.00  0.00     0.066 C 
ATOM      3  C   UNL     1       0.829   2.672  -6.089  1.00  0.00     0.021 C 
ATOM      4  C   UNL     1      -0.704   2.868  -6.171  1.00  0.00     0.009 C 
ATOM      5  C   UNL     1      -1.092   4.168  -5.425  1.00  0.00     0.035 C 
ATOM      6  C   UNL     1       0.192   4.890  -4.924  1.00  0.00     0.066 C 
ATOM      7  O   UNL     1       0.878   4.041  -4.002  1.00  0.00    -0.369 OA
ATOM      8  C   UNL     1       1.119   5.178  -6.140  1.00  0.00     0.035 C 
ATOM      9  C   UNL     1       1.453   3.854  -6.869  1.00  0.00     0.009 C 
ATOM     10  C   UNL     1      -0.175   6.196  -4.212  1.00  0.00     0.042 C 
ATOM     11  C   UNL     1       0.628   1.656  -3.738  1.00  0.00     0.042 C 
ENDROOT
TORSDOF 0
ENDMDL
MODEL 4
REMARK VINA RESULT:    -3.375     12.216     13.815
REMARK INTER + INTRA:          -3.375
REMARK INTER:                  -3.375
REMARK INTRA:                   0.000
REMARK UNBOUND:                 0.000
REMARK SMILES CC1(C)O[C@]2(C)CC[C@H]1CC2
REMARK SMILES IDX 1 1 2 2 9 3 10 4 11 5 5 6 4 7 7 8 8 9 6 10 3 11
REMARK H PARENT
REMARK Flexibility Score: inf
ROOT
ATOM      1  C   UNL     1       0.332   0.385   9.786  1.00  0.00     0.042 C 
ATOM      2  C   UNL     1      -0.369   1.356   8.812  1.00  0.00     0.066 C 
ATOM      3  C   UNL     1      -1.931   1.341   9.039  1.00  0.00     0.021 C 
ATOM      4  C   UNL     1      -2.585   2.290   8.005  1.00  0.00     0.009 C 
ATOM      5  C   UNL     1      -2.081   1.922   6.589  1.00  0.00     0.035 C 
ATOM      6  C   UNL     1      -1.161   0.669   6.665  1.00  0.00     0.066 C 
ATOM      7  O   UNL     1      -0.022   0.972   7.474  1.00  0.00    -0.369 OA
ATOM      8  C   UNL     1      -1.953  -0.501   7.317  1.00  0.00     0.035 C 
ATOM      9  C   UNL     1      -2.460  -0.076   8.716  1.00  0.00     0.009 C 
ATOM     10  C   UNL     1      -0.681   0.274   5.265  1.00  0.00     0.042 C 
ATOM     11  C   UNL     1       0.207   2.765   9.072  1.00  0.00     0.042 C 
ENDROOT
TORSDOF 0
ENDMDL
MODEL 5
REMARK VINA RESULT:    -3.330      1.184      3.237
REMARK INTER + INTRA:          -3.330
REMARK INTER:                  -3.330
REMARK INTRA:                   0.000
REMARK UNBOUND:                 0.000
REMARK SMILES CC1(C)O[C@]2(C)CC[C@H]1CC2
REMARK SMILES IDX 1 1 2 2 9 3 10 4 11 5 5 6 4 7 7 8 8 9 6 10 3 11
REMARK H PARENT
REMARK Flexibility Score: inf
ROOT
ATOM      1  C   UNL     1       0.375   1.762  -3.853  1.00  0.00     0.042 C 
ATOM      2  C   UNL     1       0.501   2.910  -4.878  1.00  0.00     0.066 C 
ATOM      3  C   UNL     1      -0.263   4.195  -4.371  1.00  0.00     0.021 C 
ATOM      4  C   UNL     1      -0.147   5.292  -5.456  1.00  0.00     0.009 C 
ATOM      5  C   UNL     1      -0.590   4.707  -6.820  1.00  0.00     0.035 C 
ATOM      6  C   UNL     1      -1.089   3.246  -6.629  1.00  0.00     0.066 C 
ATOM      7  O   UNL     1      -0.014   2.445  -6.134  1.00  0.00    -0.369 OA
ATOM      8  C   UNL     1      -2.251   3.238  -5.594  1.00  0.00     0.035 C 
ATOM      9  C   UNL     1      -1.769   3.858  -4.260  1.00  0.00     0.009 C 
ATOM     10  C   UNL     1      -1.561   2.666  -7.966  1.00  0.00     0.042 C 
ATOM     11  C   UNL     1       2.006   3.204  -5.056  1.00  0.00     0.042 C 
ENDROOT
TORSDOF 0
ENDMDL
MODEL 6
REMARK VINA RESULT:    -3.230      1.322      2.990
REMARK INTER + INTRA:          -3.230
REMARK INTER:                  -3.230
REMARK INTRA:                   0.000
REMARK UNBOUND:                 0.000
REMARK SMILES CC1(C)O[C@]2(C)CC[C@H]1CC2
REMARK SMILES IDX 1 1 2 2 9 3 10 4 11 5 5 6 4 7 7 8 8 9 6 10 3 11
REMARK H PARENT
REMARK Flexibility Score: inf
ROOT
ATOM      1  C   UNL     1       0.736   5.851  -6.698  1.00  0.00     0.042 C 
ATOM      2  C   UNL     1       0.489   4.801  -5.593  1.00  0.00     0.066 C 
ATOM      3  C   UNL     1       1.439   3.556  -5.786  1.00  0.00     0.021 C 
ATOM      4  C   UNL     1       1.113   2.517  -4.686  1.00  0.00     0.009 C 
ATOM      5  C   UNL     1      -0.411   2.241  -4.683  1.00  0.00     0.035 C 
ATOM      6  C   UNL     1      -1.091   3.026  -5.842  1.00  0.00     0.066 C 
ATOM      7  O   UNL     1      -0.896   4.427  -5.636  1.00  0.00    -0.369 OA
ATOM      8  C   UNL     1      -0.433   2.611  -7.189  1.00  0.00     0.035 C 
ATOM      9  C   UNL     1       1.091   2.878  -7.132  1.00  0.00     0.009 C 
ATOM     10  C   UNL     1      -2.595   2.736  -5.870  1.00  0.00     0.042 C 
ATOM     11  C   UNL     1       0.758   5.489  -4.237  1.00  0.00     0.042 C 
ENDROOT
TORSDOF 0
ENDMDL
MODEL 7
REMARK VINA RESULT:    -3.212      1.158      2.834
REMARK INTER + INTRA:          -3.212
REMARK INTER:                  -3.212
REMARK INTRA:                   0.000
REMARK UNBOUND:                 0.000
REMARK SMILES CC1(C)O[C@]2(C)CC[C@H]1CC2
REMARK SMILES IDX 1 1 2 2 9 3 10 4 11 5 5 6 4 7 7 8 8 9 6 10 3 11
REMARK H PARENT
REMARK Flexibility Score: inf
ROOT
ATOM      1  C   UNL     1       1.443   3.933  -7.766  1.00  0.00     0.042 C 
ATOM      2  C   UNL     1       0.197   3.233  -7.181  1.00  0.00     0.066 C 
ATOM      3  C   UNL     1      -0.863   4.296  -6.694  1.00  0.00     0.021 C 
ATOM      4  C   UNL     1      -2.063   3.541  -6.072  1.00  0.00     0.009 C 
ATOM      5  C   UNL     1      -1.540   2.539  -5.014  1.00  0.00     0.035 C 
ATOM      6  C   UNL     1       0.001   2.689  -4.863  1.00  0.00     0.066 C 
ATOM      7  O   UNL     1       0.627   2.380  -6.110  1.00  0.00    -0.369 OA
ATOM      8  C   UNL     1       0.331   4.160  -4.476  1.00  0.00     0.035 C 
ATOM      9  C   UNL     1      -0.236   5.123  -5.547  1.00  0.00     0.009 C 
ATOM     10  C   UNL     1       0.527   1.726  -3.794  1.00  0.00     0.042 C 
ATOM     11  C   UNL     1      -0.395   2.342  -8.295  1.00  0.00     0.042 C 
ENDROOT
TORSDOF 0
ENDMDL
MODEL 8
REMARK VINA RESULT:    -3.176      1.343      2.530
REMARK INTER + INTRA:          -3.176
REMARK INTER:                  -3.176
REMARK INTRA:                   0.000
REMARK UNBOUND:                 0.000
REMARK SMILES CC1(C)O[C@]2(C)CC[C@H]1CC2
REMARK SMILES IDX 1 1 2 2 9 3 10 4 11 5 5 6 4 7 7 8 8 9 6 10 3 11
REMARK H PARENT
REMARK Flexibility Score: inf
ROOT
ATOM      1  C   UNL     1      -1.589   5.538  -4.495  1.00  0.00     0.042 C 
ATOM      2  C   UNL     1      -0.771   4.821  -5.590  1.00  0.00     0.066 C 
ATOM      3  C   UNL     1      -1.615   3.658  -6.244  1.00  0.00     0.021 C 
ATOM      4  C   UNL     1      -0.731   2.943  -7.295  1.00  0.00     0.009 C 
ATOM      5  C   UNL     1       0.615   2.548  -6.642  1.00  0.00     0.035 C 
ATOM      6  C   UNL     1       0.596   2.916  -5.130  1.00  0.00     0.066 C 
ATOM      7  O   UNL     1       0.439   4.330  -4.994  1.00  0.00    -0.369 OA
ATOM      8  C   UNL     1      -0.606   2.200  -4.449  1.00  0.00     0.035 C 
ATOM      9  C   UNL     1      -1.923   2.604  -5.155  1.00  0.00     0.009 C 
ATOM     10  C   UNL     1       1.912   2.500  -4.464  1.00  0.00     0.042 C 
ATOM     11  C   UNL     1      -0.390   5.880  -6.647  1.00  0.00     0.042 C 
ENDROOT
TORSDOF 0
ENDMDL
MODEL 9
REMARK VINA RESULT:    -3.175      1.383      3.057
REMARK INTER + INTRA:          -3.175
REMARK INTER:                  -3.175
REMARK INTRA:                   0.000
REMARK UNBOUND:                 0.000
REMARK SMILES CC1(C)O[C@]2(C)CC[C@H]1CC2
REMARK SMILES IDX 1 1 2 2 9 3 10 4 11 5 5 6 4 7 7 8 8 9 6 10 3 11
REMARK H PARENT
REMARK Flexibility Score: inf
ROOT
ATOM      1  C   UNL     1       0.754   5.588  -4.318  1.00  0.00     0.042 C 
ATOM      2  C   UNL     1      -0.425   4.957  -5.089  1.00  0.00     0.066 C 
ATOM      3  C   UNL     1      -1.057   3.769  -4.265  1.00  0.00     0.021 C 
ATOM      4  C   UNL     1      -2.196   3.142  -5.105  1.00  0.00     0.009 C 
ATOM      5  C   UNL     1      -1.660   2.806  -6.517  1.00  0.00     0.035 C 
ATOM      6  C   UNL     1      -0.138   3.122  -6.593  1.00  0.00     0.066 C 
ATOM      7  O   UNL     1       0.061   4.519  -6.366  1.00  0.00    -0.369 OA
ATOM      8  C   UNL     1       0.603   2.315  -5.488  1.00  0.00     0.035 C 
ATOM      9  C   UNL     1       0.012   2.663  -4.100  1.00  0.00     0.009 C 
ATOM     10  C   UNL     1       0.413   2.763  -7.976  1.00  0.00     0.042 C 
ATOM     11  C   UNL     1      -1.467   6.071  -5.328  1.00  0.00     0.042 C 
ENDROOT
TORSDOF 0
ENDMDL
