MODEL 1
REMARK VINA RESULT:     0.842      0.000      0.000
REMARK INTER + INTRA:           0.866
REMARK INTER:                   0.866
REMARK INTRA:                   0.000
REMARK UNBOUND:                 0.000
REMARK SMILES O=c1ccc2ccc(O)cc2o1
REMARK SMILES IDX 6 1 7 2 8 3 10 4 11 5 5 6 4 7 3 8 2 9 1 10 12 11 9 12
REMARK H PARENT 9 13
REMARK Flexibility Score: inf
ROOT
ATOM      1  C   UNL     1      -7.585  -4.891  18.701  1.00  0.00     0.016 A 
ATOM      2  C   UNL     1      -6.848  -3.728  18.950  1.00  0.00     0.047 A 
ATOM      3  C   UNL     1      -6.523  -3.364  20.263  1.00  0.00     0.119 A 
ATOM      4  C   UNL     1      -6.936  -4.169  21.334  1.00  0.00     0.094 A 
ATOM      5  C   UNL     1      -7.672  -5.334  21.095  1.00  0.00     0.142 A 
ATOM      6  C   UNL     1      -7.999  -5.698  19.770  1.00  0.00     0.018 A 
ATOM      7  C   UNL     1      -8.736  -6.868  19.562  1.00  0.00     0.019 A 
ATOM      8  C   UNL     1      -9.125  -7.635  20.660  1.00  0.00     0.094 A 
ATOM      9  C   UNL     1      -8.766  -7.214  21.944  1.00  0.00     0.336 A 
ATOM     10  O   UNL     1      -9.107  -7.893  22.947  1.00  0.00    -0.246 OA
ATOM     11  O   UNL     1      -8.063  -6.096  22.114  1.00  0.00    -0.423 OA
ENDROOT
BRANCH   3  12
ATOM     12  O   UNL     1      -5.788  -2.202  20.490  1.00  0.00    -0.508 OA
ATOM     13  H   UNL     1      -5.449  -1.632  19.724  1.00  0.00     0.293 HD
ENDBRANCH   3  12
TORSDOF 1
ENDMDL
MODEL 2
REMARK VINA RESULT:     2.149      0.791      4.225
REMARK INTER + INTRA:           2.212
REMARK INTER:                   2.212
REMARK INTRA:                   0.000
REMARK UNBOUND:                 0.000
REMARK SMILES O=c1ccc2ccc(O)cc2o1
REMARK SMILES IDX 6 1 7 2 8 3 10 4 11 5 5 6 4 7 3 8 2 9 1 10 12 11 9 12
REMARK H PARENT 9 13
REMARK Flexibility Score: inf
ROOT
ATOM      1  C   UNL     1      -8.761  -6.792  19.503  1.00  0.00     0.016 A 
ATOM      2  C   UNL     1      -9.123  -7.625  20.567  1.00  0.00     0.047 A 
ATOM      3  C   UNL     1      -8.747  -7.303  21.877  1.00  0.00     0.119 A 
ATOM      4  C   UNL     1      -8.005  -6.139  22.126  1.00  0.00     0.094 A 
ATOM      5  C   UNL     1      -7.639  -5.300  21.069  1.00  0.00     0.142 A 
ATOM      6  C   UNL     1      -8.019  -5.628  19.749  1.00  0.00     0.018 A 
ATOM      7  C   UNL     1      -7.639  -4.770  18.712  1.00  0.00     0.019 A 
ATOM      8  C   UNL     1      -6.901  -3.624  19.009  1.00  0.00     0.094 A 
ATOM      9  C   UNL     1      -6.559  -3.363  20.340  1.00  0.00     0.336 A 
ATOM     10  O   UNL     1      -5.894  -2.334  20.628  1.00  0.00    -0.246 OA
ATOM     11  O   UNL     1      -6.935  -4.197  21.308  1.00  0.00    -0.423 OA
ENDROOT
BRANCH   3  12
ATOM     12  O   UNL     1      -9.117  -8.146  22.924  1.00  0.00    -0.508 OA
ATOM     13  H   UNL     1      -8.848  -9.123  22.937  1.00  0.00     0.293 HD
ENDBRANCH   3  12
TORSDOF 1
ENDMDL
