MODEL 1
REMARK VINA RESULT:    -4.665      0.000      0.000
REMARK INTER + INTRA:          -5.608
REMARK INTER:                  -5.483
REMARK INTRA:                  -0.125
REMARK UNBOUND:                -0.125
REMARK SMILES O=C([O-])C=Cc1ccc(O)c(O)c1
REMARK SMILES IDX 6 1 13 2 7 3 11 4 8 5 9 6 5 7 4 8 2 9 1 10 3 11 12 12 10 14
REMARK H PARENT 12 13 10 15
REMARK Flexibility Score: inf
ROOT
ATOM      1  C   UNL     1      37.576 -47.120  30.159  1.00  0.00    -0.022 A 
ATOM      2  C   UNL     1      36.265 -47.359  29.714  1.00  0.00     0.058 A 
ATOM      3  C   UNL     1      38.029 -47.774  31.322  1.00  0.00     0.012 A 
ATOM      4  C   UNL     1      35.411 -48.213  30.427  1.00  0.00     0.157 A 
ATOM      5  C   UNL     1      37.178 -48.626  32.031  1.00  0.00     0.051 A 
ATOM      6  C   UNL     1      35.867 -48.846  31.589  1.00  0.00     0.157 A 
ENDROOT
BRANCH   1   7
ATOM      7  C   UNL     1      38.442 -46.215  29.362  1.00  0.00     0.010 C 
ATOM      8  C   UNL     1      38.373 -44.878  29.417  1.00  0.00     0.025 C 
BRANCH   8   9
ATOM      9  C   UNL     1      39.244 -44.021  28.600  1.00  0.00     0.064 C 
ATOM     10  O   UNL     1      38.739 -43.089  27.920  1.00  0.00    -0.545 OA
ATOM     11  O   UNL     1      40.620 -44.219  28.566  1.00  0.00    -0.545 OA
ENDBRANCH   8   9
ENDBRANCH   1   7
BRANCH   4  12
ATOM     12  O   UNL     1      34.108 -48.438  29.986  1.00  0.00    -0.504 OA
ATOM     13  H   UNL     1      33.902 -49.123  29.268  1.00  0.00     0.293 HD
ENDBRANCH   4  12
BRANCH   6  14
ATOM     14  O   UNL     1      35.017 -49.694  32.296  1.00  0.00    -0.504 OA
ATOM     15  H   UNL     1      34.039 -49.792  32.047  1.00  0.00     0.293 HD
ENDBRANCH   6  14
TORSDOF 4
ENDMDL
MODEL 2
REMARK VINA RESULT:    -4.659      0.882      2.128
REMARK INTER + INTRA:          -5.601
REMARK INTER:                  -5.473
REMARK INTRA:                  -0.128
REMARK UNBOUND:                -0.125
REMARK SMILES O=C([O-])C=Cc1ccc(O)c(O)c1
REMARK SMILES IDX 6 1 13 2 7 3 11 4 8 5 9 6 5 7 4 8 2 9 1 10 3 11 12 12 10 14
REMARK H PARENT 12 13 10 15
REMARK Flexibility Score: inf
ROOT
ATOM      1  C   UNL     1      37.495 -47.187  30.237  1.00  0.00    -0.022 A 
ATOM      2  C   UNL     1      37.917 -47.611  31.508  1.00  0.00     0.058 A 
ATOM      3  C   UNL     1      36.249 -47.633  29.750  1.00  0.00     0.012 A 
ATOM      4  C   UNL     1      37.127 -48.484  32.272  1.00  0.00     0.157 A 
ATOM      5  C   UNL     1      35.462 -48.501  30.512  1.00  0.00     0.051 A 
ATOM      6  C   UNL     1      35.899 -48.931  31.772  1.00  0.00     0.157 A 
ENDROOT
BRANCH   1   7
ATOM      7  C   UNL     1      38.363 -46.256  29.474  1.00  0.00     0.010 C 
ATOM      8  C   UNL     1      38.151 -44.935  29.398  1.00  0.00     0.025 C 
BRANCH   8   9
ATOM      9  C   UNL     1      39.031 -44.050  28.619  1.00  0.00     0.064 C 
ATOM     10  O   UNL     1      40.274 -44.250  28.624  1.00  0.00    -0.545 OA
ATOM     11  O   UNL     1      38.514 -42.996  27.875  1.00  0.00    -0.545 OA
ENDBRANCH   8   9
ENDBRANCH   1   7
BRANCH   4  12
ATOM     12  O   UNL     1      37.557 -48.908  33.527  1.00  0.00    -0.504 OA
ATOM     13  H   UNL     1      37.381 -49.850  33.858  1.00  0.00     0.293 HD
ENDBRANCH   4  12
BRANCH   6  14
ATOM     14  O   UNL     1      35.117 -49.798  32.532  1.00  0.00    -0.504 OA
ATOM     15  H   UNL     1      35.246 -49.890  33.533  1.00  0.00     0.293 HD
ENDBRANCH   6  14
TORSDOF 4
ENDMDL
MODEL 3
REMARK VINA RESULT:    -4.628     13.447     14.404
REMARK INTER + INTRA:          -5.565
REMARK INTER:                  -5.432
REMARK INTRA:                  -0.133
REMARK UNBOUND:                -0.125
REMARK SMILES O=C([O-])C=Cc1ccc(O)c(O)c1
REMARK SMILES IDX 6 1 13 2 7 3 11 4 8 5 9 6 5 7 4 8 2 9 1 10 3 11 12 12 10 14
REMARK H PARENT 12 13 10 15
REMARK Flexibility Score: inf
ROOT
ATOM      1  C   UNL     1      32.522 -45.247  42.610  1.00  0.00    -0.022 A 
ATOM      2  C   UNL     1      32.867 -44.034  43.231  1.00  0.00     0.058 A 
ATOM      3  C   UNL     1      31.430 -45.269  41.719  1.00  0.00     0.012 A 
ATOM      4  C   UNL     1      32.123 -42.870  42.990  1.00  0.00     0.157 A 
ATOM      5  C   UNL     1      30.691 -44.108  41.478  1.00  0.00     0.051 A 
ATOM      6  C   UNL     1      31.032 -42.907  42.114  1.00  0.00     0.157 A 
ENDROOT
BRANCH   1   7
ATOM      7  C   UNL     1      33.348 -46.448  42.891  1.00  0.00     0.010 C 
ATOM      8  C   UNL     1      34.627 -46.396  43.288  1.00  0.00     0.025 C 
BRANCH   8   9
ATOM      9  C   UNL     1      35.411 -47.614  43.542  1.00  0.00     0.064 C 
ATOM     10  O   UNL     1      35.306 -48.596  42.762  1.00  0.00    -0.545 OA
ATOM     11  O   UNL     1      36.271 -47.700  44.632  1.00  0.00    -0.545 OA
ENDBRANCH   8   9
ENDBRANCH   1   7
BRANCH   4  12
ATOM     12  O   UNL     1      32.464 -41.673  43.616  1.00  0.00    -0.504 OA
ATOM     13  H   UNL     1      31.944 -40.819  43.449  1.00  0.00     0.293 HD
ENDBRANCH   4  12
BRANCH   6  14
ATOM     14  O   UNL     1      30.294 -41.749  41.877  1.00  0.00    -0.504 OA
ATOM     15  H   UNL     1      30.668 -40.830  42.084  1.00  0.00     0.293 HD
ENDBRANCH   6  14
TORSDOF 4
ENDMDL
MODEL 4
REMARK VINA RESULT:    -4.548     10.721     11.351
REMARK INTER + INTRA:          -5.470
REMARK INTER:                  -5.336
REMARK INTRA:                  -0.135
REMARK UNBOUND:                -0.125
REMARK SMILES O=C([O-])C=Cc1ccc(O)c(O)c1
REMARK SMILES IDX 6 1 13 2 7 3 11 4 8 5 9 6 5 7 4 8 2 9 1 10 3 11 12 12 10 14
REMARK H PARENT 12 13 10 15
REMARK Flexibility Score: inf
ROOT
ATOM      1  C   UNL     1      30.798 -37.570  32.572  1.00  0.00    -0.022 A 
ATOM      2  C   UNL     1      31.763 -38.570  32.778  1.00  0.00     0.058 A 
ATOM      3  C   UNL     1      29.609 -37.606  33.328  1.00  0.00     0.012 A 
ATOM      4  C   UNL     1      31.540 -39.603  33.700  1.00  0.00     0.157 A 
ATOM      5  C   UNL     1      29.388 -38.635  34.249  1.00  0.00     0.051 A 
ATOM      6  C   UNL     1      30.349 -39.636  34.435  1.00  0.00     0.157 A 
ENDROOT
BRANCH   1   7
ATOM      7  C   UNL     1      31.088 -36.494  31.591  1.00  0.00     0.010 C 
ATOM      8  C   UNL     1      32.325 -36.143  31.215  1.00  0.00     0.025 C 
BRANCH   8   9
ATOM      9  C   UNL     1      32.566 -35.061  30.248  1.00  0.00     0.064 C 
ATOM     10  O   UNL     1      31.638 -34.257  29.971  1.00  0.00    -0.545 OA
ATOM     11  O   UNL     1      33.804 -34.908  29.635  1.00  0.00    -0.545 OA
ENDBRANCH   8   9
ENDBRANCH   1   7
BRANCH   4  12
ATOM     12  O   UNL     1      32.497 -40.597  33.892  1.00  0.00    -0.504 OA
ATOM     13  H   UNL     1      32.907 -40.770  34.803  1.00  0.00     0.293 HD
ENDBRANCH   4  12
BRANCH   6  14
ATOM     14  O   UNL     1      30.129 -40.664  35.351  1.00  0.00    -0.504 OA
ATOM     15  H   UNL     1      30.690 -41.508  35.345  1.00  0.00     0.293 HD
ENDBRANCH   6  14
TORSDOF 4
ENDMDL
MODEL 5
REMARK VINA RESULT:    -4.540     10.385     11.016
REMARK INTER + INTRA:          -5.461
REMARK INTER:                  -5.327
REMARK INTRA:                  -0.135
REMARK UNBOUND:                -0.125
REMARK SMILES O=C([O-])C=Cc1ccc(O)c(O)c1
REMARK SMILES IDX 6 1 13 2 7 3 11 4 8 5 9 6 5 7 4 8 2 9 1 10 3 11 12 12 10 14
REMARK H PARENT 12 13 10 15
REMARK Flexibility Score: inf
ROOT
ATOM      1  C   UNL     1      31.417 -38.291  32.950  1.00  0.00    -0.022 A 
ATOM      2  C   UNL     1      31.398 -39.385  33.833  1.00  0.00     0.058 A 
ATOM      3  C   UNL     1      30.244 -37.524  32.793  1.00  0.00     0.012 A 
ATOM      4  C   UNL     1      30.228 -39.726  34.526  1.00  0.00     0.157 A 
ATOM      5  C   UNL     1      29.079 -37.864  33.486  1.00  0.00     0.051 A 
ATOM      6  C   UNL     1      29.066 -38.966  34.351  1.00  0.00     0.157 A 
ENDROOT
BRANCH   1   7
ATOM      7  C   UNL     1      32.683 -37.966  32.248  1.00  0.00     0.010 C 
ATOM      8  C   UNL     1      32.864 -36.860  31.513  1.00  0.00     0.025 C 
BRANCH   8   9
ATOM      9  C   UNL     1      34.134 -36.585  30.824  1.00  0.00     0.064 C 
ATOM     10  O   UNL     1      34.950 -35.767  31.327  1.00  0.00    -0.545 OA
ATOM     11  O   UNL     1      34.452 -37.214  29.626  1.00  0.00    -0.545 OA
ENDBRANCH   8   9
ENDBRANCH   1   7
BRANCH   4  12
ATOM     12  O   UNL     1      30.214 -40.818  35.392  1.00  0.00    -0.504 OA
ATOM     13  H   UNL     1      30.807 -40.851  36.213  1.00  0.00     0.293 HD
ENDBRANCH   4  12
BRANCH   6  14
ATOM     14  O   UNL     1      27.904 -39.307  35.041  1.00  0.00    -0.504 OA
ATOM     15  H   UNL     1      27.086 -38.710  35.031  1.00  0.00     0.293 HD
ENDBRANCH   6  14
TORSDOF 4
ENDMDL
MODEL 6
REMARK VINA RESULT:    -4.461     13.130     14.392
REMARK INTER + INTRA:          -5.369
REMARK INTER:                  -5.230
REMARK INTRA:                  -0.139
REMARK UNBOUND:                -0.125
REMARK SMILES O=C([O-])C=Cc1ccc(O)c(O)c1
REMARK SMILES IDX 6 1 13 2 7 3 11 4 8 5 9 6 5 7 4 8 2 9 1 10 3 11 12 12 10 14
REMARK H PARENT 12 13 10 15
REMARK Flexibility Score: inf
ROOT
ATOM      1  C   UNL     1      31.702 -46.215  42.079  1.00  0.00    -0.022 A 
ATOM      2  C   UNL     1      30.775 -45.182  41.860  1.00  0.00     0.058 A 
ATOM      3  C   UNL     1      32.893 -45.924  42.777  1.00  0.00     0.012 A 
ATOM      4  C   UNL     1      31.039 -43.877  42.303  1.00  0.00     0.157 A 
ATOM      5  C   UNL     1      33.153 -44.624  43.219  1.00  0.00     0.051 A 
ATOM      6  C   UNL     1      32.230 -43.598  42.982  1.00  0.00     0.157 A 
ENDROOT
BRANCH   1   7
ATOM      7  C   UNL     1      31.371 -47.580  41.599  1.00  0.00     0.010 C 
ATOM      8  C   UNL     1      31.787 -48.702  42.203  1.00  0.00     0.025 C 
BRANCH   8   9
ATOM      9  C   UNL     1      31.444 -50.035  41.684  1.00  0.00     0.064 C 
ATOM     10  O   UNL     1      31.780 -50.352  40.513  1.00  0.00    -0.545 OA
ATOM     11  O   UNL     1      30.756 -50.955  42.467  1.00  0.00    -0.545 OA
ENDBRANCH   8   9
ENDBRANCH   1   7
BRANCH   4  12
ATOM     12  O   UNL     1      30.120 -42.855  42.073  1.00  0.00    -0.504 OA
ATOM     13  H   UNL     1      30.265 -42.163  41.347  1.00  0.00     0.293 HD
ENDBRANCH   4  12
BRANCH   6  14
ATOM     14  O   UNL     1      32.489 -42.300  43.420  1.00  0.00    -0.504 OA
ATOM     15  H   UNL     1      32.816 -41.581  42.786  1.00  0.00     0.293 HD
ENDBRANCH   6  14
TORSDOF 4
ENDMDL
MODEL 7
REMARK VINA RESULT:    -4.425     13.866     15.230
REMARK INTER + INTRA:          -5.327
REMARK INTER:                  -5.198
REMARK INTRA:                  -0.129
REMARK UNBOUND:                -0.125
REMARK SMILES O=C([O-])C=Cc1ccc(O)c(O)c1
REMARK SMILES IDX 6 1 13 2 7 3 11 4 8 5 9 6 5 7 4 8 2 9 1 10 3 11 12 12 10 14
REMARK H PARENT 12 13 10 15
REMARK Flexibility Score: inf
ROOT
ATOM      1  C   UNL     1      32.500 -34.454  36.181  1.00  0.00    -0.022 A 
ATOM      2  C   UNL     1      32.448 -34.458  37.586  1.00  0.00     0.058 A 
ATOM      3  C   UNL     1      32.726 -33.233  35.512  1.00  0.00     0.012 A 
ATOM      4  C   UNL     1      32.592 -33.266  38.311  1.00  0.00     0.157 A 
ATOM      5  C   UNL     1      32.870 -32.047  36.236  1.00  0.00     0.051 A 
ATOM      6  C   UNL     1      32.801 -32.058  37.635  1.00  0.00     0.157 A 
ENDROOT
BRANCH   1   7
ATOM      7  C   UNL     1      32.353 -35.743  35.461  1.00  0.00     0.010 C 
ATOM      8  C   UNL     1      33.313 -36.676  35.400  1.00  0.00     0.025 C 
BRANCH   8   9
ATOM      9  C   UNL     1      33.128 -37.935  34.663  1.00  0.00     0.064 C 
ATOM     10  O   UNL     1      31.969 -38.408  34.523  1.00  0.00    -0.545 OA
ATOM     11  O   UNL     1      34.211 -38.614  34.116  1.00  0.00    -0.545 OA
ENDBRANCH   8   9
ENDBRANCH   1   7
BRANCH   4  12
ATOM     12  O   UNL     1      32.529 -33.276  39.703  1.00  0.00    -0.504 OA
ATOM     13  H   UNL     1      31.719 -33.634  40.195  1.00  0.00     0.293 HD
ENDBRANCH   4  12
BRANCH   6  14
ATOM     14  O   UNL     1      32.943 -30.876  38.359  1.00  0.00    -0.504 OA
ATOM     15  H   UNL     1      33.856 -30.501  38.589  1.00  0.00     0.293 HD
ENDBRANCH   6  14
TORSDOF 4
ENDMDL
MODEL 8
REMARK VINA RESULT:    -4.406     10.745     11.355
REMARK INTER + INTRA:          -5.304
REMARK INTER:                  -5.173
REMARK INTRA:                  -0.131
REMARK UNBOUND:                -0.125
REMARK SMILES O=C([O-])C=Cc1ccc(O)c(O)c1
REMARK SMILES IDX 6 1 13 2 7 3 11 4 8 5 9 6 5 7 4 8 2 9 1 10 3 11 12 12 10 14
REMARK H PARENT 12 13 10 15
REMARK Flexibility Score: inf
ROOT
ATOM      1  C   UNL     1      30.644 -38.328  33.758  1.00  0.00    -0.022 A 
ATOM      2  C   UNL     1      30.179 -39.536  34.304  1.00  0.00     0.058 A 
ATOM      3  C   UNL     1      29.704 -37.363  33.342  1.00  0.00     0.012 A 
ATOM      4  C   UNL     1      28.804 -39.793  34.409  1.00  0.00     0.157 A 
ATOM      5  C   UNL     1      28.334 -37.619  33.448  1.00  0.00     0.051 A 
ATOM      6  C   UNL     1      27.880 -38.834  33.979  1.00  0.00     0.157 A 
ENDROOT
BRANCH   1   7
ATOM      7  C   UNL     1      32.109 -38.101  33.679  1.00  0.00     0.010 C 
ATOM      8  C   UNL     1      33.012 -39.088  33.601  1.00  0.00     0.025 C 
BRANCH   8   9
ATOM      9  C   UNL     1      34.456 -38.817  33.537  1.00  0.00     0.064 C 
ATOM     10  O   UNL     1      35.265 -39.626  34.063  1.00  0.00    -0.545 OA
ATOM     11  O   UNL     1      34.945 -37.681  32.902  1.00  0.00    -0.545 OA
ENDBRANCH   8   9
ENDBRANCH   1   7
BRANCH   4  12
ATOM     12  O   UNL     1      28.350 -40.997  34.942  1.00  0.00    -0.504 OA
ATOM     13  H   UNL     1      28.937 -41.823  34.963  1.00  0.00     0.293 HD
ENDBRANCH   4  12
BRANCH   6  14
ATOM     14  O   UNL     1      26.515 -39.091  34.084  1.00  0.00    -0.504 OA
ATOM     15  H   UNL     1      26.075 -39.267  34.980  1.00  0.00     0.293 HD
ENDBRANCH   6  14
TORSDOF 4
ENDMDL
MODEL 9
REMARK VINA RESULT:    -4.263     11.107     12.972
REMARK INTER + INTRA:          -5.136
REMARK INTER:                  -5.010
REMARK INTRA:                  -0.126
REMARK UNBOUND:                -0.125
REMARK SMILES O=C([O-])C=Cc1ccc(O)c(O)c1
REMARK SMILES IDX 6 1 13 2 7 3 11 4 8 5 9 6 5 7 4 8 2 9 1 10 3 11 12 12 10 14
REMARK H PARENT 12 13 10 15
REMARK Flexibility Score: inf
ROOT
ATOM      1  C   UNL     1      32.971 -46.241  41.895  1.00  0.00    -0.022 A 
ATOM      2  C   UNL     1      33.179 -45.033  42.581  1.00  0.00     0.058 A 
ATOM      3  C   UNL     1      31.654 -46.611  41.553  1.00  0.00     0.012 A 
ATOM      4  C   UNL     1      32.095 -44.220  42.945  1.00  0.00     0.157 A 
ATOM      5  C   UNL     1      30.576 -45.799  41.914  1.00  0.00     0.051 A 
ATOM      6  C   UNL     1      30.792 -44.605  42.612  1.00  0.00     0.157 A 
ENDROOT
BRANCH   1   7
ATOM      7  C   UNL     1      34.152 -47.060  41.524  1.00  0.00     0.010 C 
ATOM      8  C   UNL     1      35.074 -46.676  40.631  1.00  0.00     0.025 C 
BRANCH   8   9
ATOM      9  C   UNL     1      36.223 -47.526  40.285  1.00  0.00     0.064 C 
ATOM     10  O   UNL     1      37.121 -47.737  41.142  1.00  0.00    -0.545 OA
ATOM     11  O   UNL     1      36.335 -48.105  39.026  1.00  0.00    -0.545 OA
ENDBRANCH   8   9
ENDBRANCH   1   7
BRANCH   4  12
ATOM     12  O   UNL     1      32.308 -43.028  43.634  1.00  0.00    -0.504 OA
ATOM     13  H   UNL     1      31.643 -42.683  44.317  1.00  0.00     0.293 HD
ENDBRANCH   4  12
BRANCH   6  14
ATOM     14  O   UNL     1      29.717 -43.795  42.975  1.00  0.00    -0.504 OA
ATOM     15  H   UNL     1      29.232 -43.920  43.856  1.00  0.00     0.293 HD
ENDBRANCH   6  14
TORSDOF 4
ENDMDL
