MODEL 1
REMARK VINA RESULT:    57.641      0.000      0.000
REMARK INTER + INTRA:          63.161
REMARK INTER:                  62.696
REMARK INTRA:                   0.465
REMARK UNBOUND:                 0.465
REMARK SMILES C[C@H]1[C@H](C)CC[C@]2(C(=O)[O-])CC[C@@]3(C)C(=CC[C@@H]4[C@@]5(C)CC[C@H](O)C(C)(C)[C@@H]5CC[C@@]43C)[C@@H]12
REMARK SMILES IDX 7 1 6 2 11 3 33 4 5 5 12 6 15 7 2 8 3 9 13 10 16 11 1 12
REMARK SMILES IDX 4 13 14 14 31 15 17 16 18 17 30 18 32 19 19 20 29 21 28 22
REMARK SMILES IDX 21 23 20 24 25 25 22 26 23 27 26 28 27 29 8 30 9 31 10 32
REMARK SMILES IDX 24 33
REMARK H PARENT 24 34
REMARK Flexibility Score: inf
ROOT
ATOM      1  C   UNL     1      35.037 -29.239   0.379  1.00  0.00     0.017 C 
ATOM      2  C   UNL     1      35.390 -28.645   1.793  1.00  0.00     0.014 C 
ATOM      3  C   UNL     1      35.875 -30.512   0.157  1.00  0.00     0.014 C 
ATOM      4  C   UNL     1      35.415 -28.226  -0.734  1.00  0.00     0.030 C 
ATOM      5  C   UNL     1      35.523 -27.109   1.822  1.00  0.00     0.004 C 
ATOM      6  C   UNL     1      35.514 -31.218  -1.149  1.00  0.00     0.013 C 
ATOM      7  C   UNL     1      35.495 -28.808  -2.158  1.00  0.00    -0.063 C 
ATOM      8  C   UNL     1      34.633 -26.866  -0.573  1.00  0.00    -0.003 C 
ATOM      9  C   UNL     1      34.479 -26.430   0.920  1.00  0.00    -0.011 C 
ATOM     10  C   UNL     1      35.591 -30.338  -2.459  1.00  0.00    -0.006 C 
ATOM     11  C   UNL     1      35.790 -27.951  -3.156  1.00  0.00    -0.027 C 
ATOM     12  C   UNL     1      33.258 -26.842  -1.274  1.00  0.00     0.008 C 
ATOM     13  C   UNL     1      34.583 -24.899   1.056  1.00  0.00     0.008 C 
ATOM     14  C   UNL     1      34.327 -30.740  -3.280  1.00  0.00     0.017 C 
ATOM     15  C   UNL     1      36.963 -30.601  -3.288  1.00  0.00    -0.020 C 
ATOM     16  C   UNL     1      36.096 -28.413  -4.539  1.00  0.00     0.032 C 
ATOM     17  C   UNL     1      37.126 -29.568  -4.516  1.00  0.00     0.006 C 
ATOM     18  C   UNL     1      37.071 -32.101  -3.753  1.00  0.00     0.008 C 
ATOM     19  C   UNL     1      38.181 -30.384  -2.329  1.00  0.00     0.012 C 
ATOM     20  C   UNL     1      37.417 -30.197  -5.944  1.00  0.00    -0.025 C 
ATOM     21  C   UNL     1      38.120 -32.426  -4.848  1.00  0.00     0.005 C 
ATOM     22  C   UNL     1      38.573 -31.240  -5.735  1.00  0.00     0.003 C 
ATOM     23  C   UNL     1      37.900 -29.059  -6.901  1.00  0.00     0.010 C 
ATOM     24  C   UNL     1      36.128 -30.821  -6.562  1.00  0.00     0.012 C 
ATOM     25  C   UNL     1      39.447 -31.664  -7.001  1.00  0.00    -0.006 C 
ATOM     26  C   UNL     1      38.540 -29.582  -8.188  1.00  0.00     0.033 C 
ATOM     27  C   UNL     1      39.783 -30.404  -7.865  1.00  0.00     0.120 C 
ATOM     28  C   UNL     1      38.796 -32.763  -7.893  1.00  0.00     0.014 C 
ATOM     29  C   UNL     1      40.794 -32.249  -6.501  1.00  0.00     0.014 C 
ENDROOT
BRANCH   1  30
ATOM     30  C   UNL     1      33.541 -29.528   0.351  1.00  0.00     0.048 C 
ATOM     31  O   UNL     1      33.010 -30.546   0.889  1.00  0.00    -0.550 OA
ATOM     32  O   UNL     1      33.080 -30.693   0.936  1.00  0.00    -0.550 OA
ENDBRANCH   1  30
BRANCH  27  33
ATOM     33  O   UNL     1      40.406 -30.762  -9.077  1.00  0.00    -0.393 OA
ATOM     34  H   UNL     1      39.715 -31.155  -9.662  1.00  0.00     0.210 HD
ENDBRANCH  27  33
TORSDOF 2
ENDMDL
MODEL 2
REMARK VINA RESULT:    58.176      2.777      4.018
REMARK INTER + INTRA:          63.743
REMARK INTER:                  63.327
REMARK INTRA:                   0.417
REMARK UNBOUND:                 0.465
REMARK SMILES C[C@H]1[C@H](C)CC[C@]2(C(=O)[O-])CC[C@@]3(C)C(=CC[C@@H]4[C@@]5(C)CC[C@H](O)C(C)(C)[C@@H]5CC[C@@]43C)[C@@H]12
REMARK SMILES IDX 7 1 6 2 11 3 33 4 5 5 12 6 15 7 2 8 3 9 13 10 16 11 1 12
REMARK SMILES IDX 4 13 14 14 31 15 17 16 18 17 30 18 32 19 19 20 29 21 28 22
REMARK SMILES IDX 21 23 20 24 25 25 22 26 23 27 26 28 27 29 8 30 9 31 10 32
REMARK SMILES IDX 24 33
REMARK H PARENT 24 34
REMARK Flexibility Score: inf
ROOT
ATOM      1  C   UNL     1      37.498 -31.064  -0.741  1.00  0.00     0.017 C 
ATOM      2  C   UNL     1      38.683 -30.847   0.271  1.00  0.00     0.014 C 
ATOM      3  C   UNL     1      38.081 -31.532  -2.088  1.00  0.00     0.014 C 
ATOM      4  C   UNL     1      36.757 -29.724  -0.989  1.00  0.00     0.030 C 
ATOM      5  C   UNL     1      38.547 -29.586   1.148  1.00  0.00     0.004 C 
ATOM      6  C   UNL     1      36.990 -31.875  -3.099  1.00  0.00     0.013 C 
ATOM      7  C   UNL     1      35.844 -29.694  -2.230  1.00  0.00    -0.063 C 
ATOM      8  C   UNL     1      36.150 -29.139   0.344  1.00  0.00    -0.003 C 
ATOM      9  C   UNL     1      37.089 -29.345   1.576  1.00  0.00    -0.011 C 
ATOM     10  C   UNL     1      35.927 -30.741  -3.386  1.00  0.00    -0.006 C 
ATOM     11  C   UNL     1      35.158 -28.556  -2.460  1.00  0.00    -0.027 C 
ATOM     12  C   UNL     1      34.732 -29.651   0.671  1.00  0.00     0.008 C 
ATOM     13  C   UNL     1      37.014 -28.137   2.529  1.00  0.00     0.008 C 
ATOM     14  C   UNL     1      34.559 -31.489  -3.448  1.00  0.00     0.017 C 
ATOM     15  C   UNL     1      36.246 -29.943  -4.764  1.00  0.00    -0.020 C 
ATOM     16  C   UNL     1      34.404 -28.322  -3.724  1.00  0.00     0.032 C 
ATOM     17  C   UNL     1      35.275 -28.669  -4.955  1.00  0.00     0.006 C 
ATOM     18  C   UNL     1      36.210 -30.910  -6.006  1.00  0.00     0.008 C 
ATOM     19  C   UNL     1      37.716 -29.408  -4.709  1.00  0.00     0.012 C 
ATOM     20  C   UNL     1      34.505 -28.560  -6.338  1.00  0.00    -0.025 C 
ATOM     21  C   UNL     1      36.131 -30.254  -7.409  1.00  0.00     0.005 C 
ATOM     22  C   UNL     1      35.578 -28.808  -7.457  1.00  0.00     0.003 C 
ATOM     23  C   UNL     1      33.927 -27.113  -6.474  1.00  0.00     0.010 C 
ATOM     24  C   UNL     1      33.306 -29.556  -6.400  1.00  0.00     0.012 C 
ATOM     25  C   UNL     1      35.274 -28.272  -8.929  1.00  0.00    -0.006 C 
ATOM     26  C   UNL     1      33.471 -26.774  -7.894  1.00  0.00     0.033 C 
ATOM     27  C   UNL     1      34.651 -26.839  -8.858  1.00  0.00     0.120 C 
ATOM     28  C   UNL     1      34.363 -29.207  -9.779  1.00  0.00     0.014 C 
ATOM     29  C   UNL     1      36.614 -28.149  -9.700  1.00  0.00     0.014 C 
ENDROOT
BRANCH   1  30
ATOM     30  C   UNL     1      36.550 -32.095  -0.140  1.00  0.00     0.048 C 
ATOM     31  O   UNL     1      36.792 -33.339  -0.107  1.00  0.00    -0.550 OA
ATOM     32  O   UNL     1      36.900 -33.432  -0.199  1.00  0.00    -0.550 OA
ENDBRANCH   1  30
BRANCH  27  33
ATOM     33  O   UNL     1      34.213 -26.404 -10.125  1.00  0.00    -0.393 OA
ATOM     34  H   UNL     1      33.729 -25.553  -9.996  1.00  0.00     0.210 HD
ENDBRANCH  27  33
TORSDOF 2
ENDMDL
MODEL 3
REMARK VINA RESULT:    59.099      2.312      8.546
REMARK INTER + INTRA:          64.747
REMARK INTER:                  63.618
REMARK INTRA:                   1.129
REMARK UNBOUND:                 0.465
REMARK SMILES C[C@H]1[C@H](C)CC[C@]2(C(=O)[O-])CC[C@@]3(C)C(=CC[C@@H]4[C@@]5(C)CC[C@H](O)C(C)(C)[C@@H]5CC[C@@]43C)[C@@H]12
REMARK SMILES IDX 7 1 6 2 11 3 33 4 5 5 12 6 15 7 2 8 3 9 13 10 16 11 1 12
REMARK SMILES IDX 4 13 14 14 31 15 17 16 18 17 30 18 32 19 19 20 29 21 28 22
REMARK SMILES IDX 21 23 20 24 25 25 22 26 23 27 26 28 27 29 8 30 9 31 10 32
REMARK SMILES IDX 24 33
REMARK H PARENT 24 34
REMARK Flexibility Score: inf
ROOT
ATOM      1  C   UNL     1      38.983 -30.036  -8.469  1.00  0.00     0.017 C 
ATOM      2  C   UNL     1      40.243 -29.817  -9.385  1.00  0.00     0.014 C 
ATOM      3  C   UNL     1      38.862 -28.842  -7.503  1.00  0.00     0.014 C 
ATOM      4  C   UNL     1      39.162 -31.318  -7.613  1.00  0.00     0.030 C 
ATOM      5  C   UNL     1      41.083 -31.088  -9.625  1.00  0.00     0.004 C 
ATOM      6  C   UNL     1      37.598 -28.917  -6.649  1.00  0.00     0.013 C 
ATOM      7  C   UNL     1      38.210 -31.446  -6.408  1.00  0.00    -0.063 C 
ATOM      8  C   UNL     1      39.331 -32.601  -8.514  1.00  0.00    -0.003 C 
ATOM      9  C   UNL     1      40.195 -32.334  -9.789  1.00  0.00    -0.011 C 
ATOM     10  C   UNL     1      37.398 -30.248  -5.820  1.00  0.00    -0.006 C 
ATOM     11  C   UNL     1      38.315 -32.562  -5.659  1.00  0.00    -0.027 C 
ATOM     12  C   UNL     1      38.000 -33.273  -8.912  1.00  0.00     0.008 C 
ATOM     13  C   UNL     1      41.066 -33.559 -10.125  1.00  0.00     0.008 C 
ATOM     14  C   UNL     1      35.881 -30.583  -5.972  1.00  0.00     0.017 C 
ATOM     15  C   UNL     1      37.827 -30.066  -4.265  1.00  0.00    -0.020 C 
ATOM     16  C   UNL     1      37.603 -32.719  -4.360  1.00  0.00     0.032 C 
ATOM     17  C   UNL     1      37.802 -31.469  -3.470  1.00  0.00     0.006 C 
ATOM     18  C   UNL     1      36.953 -28.965  -3.556  1.00  0.00     0.008 C 
ATOM     19  C   UNL     1      39.293 -29.520  -4.206  1.00  0.00     0.012 C 
ATOM     20  C   UNL     1      36.977 -31.507  -2.115  1.00  0.00    -0.025 C 
ATOM     21  C   UNL     1      36.985 -28.929  -2.006  1.00  0.00     0.005 C 
ATOM     22  C   UNL     1      37.416 -30.238  -1.300  1.00  0.00     0.003 C 
ATOM     23  C   UNL     1      37.371 -32.800  -1.328  1.00  0.00     0.010 C 
ATOM     24  C   UNL     1      35.442 -31.566  -2.386  1.00  0.00     0.012 C 
ATOM     25  C   UNL     1      37.187 -30.237   0.279  1.00  0.00    -0.006 C 
ATOM     26  C   UNL     1      36.918 -32.781   0.133  1.00  0.00     0.033 C 
ATOM     27  C   UNL     1      37.582 -31.628   0.877  1.00  0.00     0.120 C 
ATOM     28  C   UNL     1      35.742 -29.858   0.720  1.00  0.00     0.014 C 
ATOM     29  C   UNL     1      38.129 -29.182   0.916  1.00  0.00     0.014 C 
ENDROOT
BRANCH   1  30
ATOM     30  C   UNL     1      37.762 -30.164  -9.373  1.00  0.00     0.048 C 
ATOM     31  O   UNL     1      36.835 -29.301  -9.430  1.00  0.00    -0.550 OA
ATOM     32  O   UNL     1      36.792 -29.180  -9.320  1.00  0.00    -0.550 OA
ENDBRANCH   1  30
BRANCH  27  33
ATOM     33  O   UNL     1      37.234 -31.720   2.240  1.00  0.00    -0.393 OA
ATOM     34  H   UNL     1      36.248 -31.734   2.294  1.00  0.00     0.210 HD
ENDBRANCH  27  33
TORSDOF 2
ENDMDL
MODEL 4
REMARK VINA RESULT:    60.376      2.048      3.892
REMARK INTER + INTRA:          66.136
REMARK INTER:                  63.198
REMARK INTRA:                   2.938
REMARK UNBOUND:                 0.465
REMARK SMILES C[C@H]1[C@H](C)CC[C@]2(C(=O)[O-])CC[C@@]3(C)C(=CC[C@@H]4[C@@]5(C)CC[C@H](O)C(C)(C)[C@@H]5CC[C@@]43C)[C@@H]12
REMARK SMILES IDX 7 1 6 2 11 3 33 4 5 5 12 6 15 7 2 8 3 9 13 10 16 11 1 12
REMARK SMILES IDX 4 13 14 14 31 15 17 16 18 17 30 18 32 19 19 20 29 21 28 22
REMARK SMILES IDX 21 23 20 24 25 25 22 26 23 27 26 28 27 29 8 30 9 31 10 32
REMARK SMILES IDX 24 33
REMARK H PARENT 24 34
REMARK Flexibility Score: inf
ROOT
ATOM      1  C   UNL     1      35.776 -29.085  -1.047  1.00  0.00     0.017 C 
ATOM      2  C   UNL     1      34.384 -28.541  -0.555  1.00  0.00     0.014 C 
ATOM      3  C   UNL     1      36.237 -28.241  -2.251  1.00  0.00     0.014 C 
ATOM      4  C   UNL     1      35.636 -30.554  -1.528  1.00  0.00     0.030 C 
ATOM      5  C   UNL     1      33.371 -29.640  -0.176  1.00  0.00     0.004 C 
ATOM      6  C   UNL     1      37.637 -28.629  -2.724  1.00  0.00     0.013 C 
ATOM      7  C   UNL     1      36.801 -31.082  -2.387  1.00  0.00    -0.063 C 
ATOM      8  C   UNL     1      35.131 -31.499  -0.371  1.00  0.00    -0.003 C 
ATOM      9  C   UNL     1      34.053 -30.822   0.535  1.00  0.00    -0.011 C 
ATOM     10  C   UNL     1      37.853 -30.155  -3.076  1.00  0.00    -0.006 C 
ATOM     11  C   UNL     1      36.729 -32.364  -2.797  1.00  0.00    -0.027 C 
ATOM     12  C   UNL     1      36.259 -32.086   0.503  1.00  0.00     0.008 C 
ATOM     13  C   UNL     1      32.994 -31.847   0.983  1.00  0.00     0.008 C 
ATOM     14  C   UNL     1      39.253 -30.502  -2.481  1.00  0.00     0.017 C 
ATOM     15  C   UNL     1      37.789 -30.424  -4.676  1.00  0.00    -0.020 C 
ATOM     16  C   UNL     1      37.678 -32.936  -3.793  1.00  0.00     0.032 C 
ATOM     17  C   UNL     1      37.819 -32.001  -5.017  1.00  0.00     0.006 C 
ATOM     18  C   UNL     1      38.915 -29.629  -5.435  1.00  0.00     0.008 C 
ATOM     19  C   UNL     1      36.442 -29.851  -5.231  1.00  0.00     0.012 C 
ATOM     20  C   UNL     1      38.903 -32.482  -6.072  1.00  0.00    -0.025 C 
ATOM     21  C   UNL     1      39.218 -30.056  -6.895  1.00  0.00     0.005 C 
ATOM     22  C   UNL     1      38.798 -31.494  -7.288  1.00  0.00     0.003 C 
ATOM     23  C   UNL     1      38.538 -33.930  -6.536  1.00  0.00     0.010 C 
ATOM     24  C   UNL     1      40.327 -32.532  -5.438  1.00  0.00     0.012 C 
ATOM     25  C   UNL     1      39.356 -31.975  -8.704  1.00  0.00    -0.006 C 
ATOM     26  C   UNL     1      39.291 -34.369  -7.793  1.00  0.00     0.033 C 
ATOM     27  C   UNL     1      38.939 -33.460  -8.965  1.00  0.00     0.120 C 
ATOM     28  C   UNL     1      40.895 -31.816  -8.877  1.00  0.00     0.014 C 
ATOM     29  C   UNL     1      38.700 -31.114  -9.815  1.00  0.00     0.014 C 
ENDROOT
BRANCH   1  30
ATOM     30  C   UNL     1      36.754 -28.997   0.120  1.00  0.00     0.048 C 
ATOM     31  O   UNL     1      37.781 -29.731   0.235  1.00  0.00    -0.550 OA
ATOM     32  O   UNL     1      37.817 -29.880   0.161  1.00  0.00    -0.550 OA
ENDBRANCH   1  30
BRANCH  27  33
ATOM     33  O   UNL     1      39.556 -33.972 -10.125  1.00  0.00    -0.393 OA
ATOM     34  H   UNL     1      40.532 -33.912  -9.992  1.00  0.00     0.210 HD
ENDBRANCH  27  33
TORSDOF 2
ENDMDL
