MODEL 1
REMARK VINA RESULT:    -0.509      0.000      0.000
REMARK INTER + INTRA:          -1.570
REMARK INTER:                  -0.985
REMARK INTRA:                  -0.585
REMARK UNBOUND:                -0.585
REMARK SMILES CCCCCCCCCCCCCCCCCC(=O)[O-]
REMARK SMILES IDX 10 1 11 2 12 3 13 4 14 5 15 6 16 7 17 8 18 9 19 10 20 11
REMARK SMILES IDX 9 12 8 13 7 14 6 15 5 16 4 17 3 18 2 19 1 20
REMARK H PARENT
REMARK Flexibility Score: inf
ROOT
ATOM      1  C   UNL     1      24.994  35.025  18.175  1.00  0.00     0.000 C 
ENDROOT
BRANCH   1   2
ATOM      2  C   UNL     1      23.572  35.402  18.622  1.00  0.00     0.000 C 
BRANCH   2   3
ATOM      3  C   UNL     1      23.259  34.929  20.051  1.00  0.00     0.000 C 
BRANCH   3   4
ATOM      4  C   UNL     1      22.399  35.933  20.835  1.00  0.00     0.000 C 
BRANCH   4   5
ATOM      5  C   UNL     1      23.131  37.269  21.003  1.00  0.00     0.000 C 
BRANCH   5   6
ATOM      6  C   UNL     1      22.196  38.340  21.585  1.00  0.00     0.000 C 
BRANCH   6   7
ATOM      7  C   UNL     1      22.701  38.910  22.923  1.00  0.00     0.006 C 
BRANCH   7   8
ATOM      8  C   UNL     1      22.552  37.951  24.116  1.00  0.00     0.053 C 
BRANCH   8   9
ATOM      9  C   UNL     1      23.300  38.434  25.319  1.00  0.00     0.041 C 
ATOM     10  O   UNL     1      24.544  38.629  25.257  1.00  0.00    -0.550 OA
ATOM     11  O   UNL     1      22.631  38.640  26.519  1.00  0.00    -0.550 OA
ENDBRANCH   8   9
ENDBRANCH   7   8
ENDBRANCH   6   7
ENDBRANCH   5   6
ENDBRANCH   4   5
ENDBRANCH   3   4
ENDBRANCH   2   3
ENDBRANCH   1   2
BRANCH   1  12
ATOM     12  C   UNL     1      25.909  36.248  17.982  1.00  0.00     0.000 C 
BRANCH  12  13
ATOM     13  C   UNL     1      27.396  36.023  18.321  1.00  0.00    -0.000 C 
BRANCH  13  14
ATOM     14  C   UNL     1      28.284  37.279  18.250  1.00  0.00    -0.000 C 
BRANCH  14  15
ATOM     15  C   UNL     1      28.807  37.723  19.627  1.00  0.00    -0.000 C 
BRANCH  15  16
ATOM     16  C   UNL     1      29.795  36.707  20.238  1.00  0.00    -0.000 C 
BRANCH  16  17
ATOM     17  C   UNL     1      31.272  37.108  20.087  1.00  0.00    -0.000 C 
BRANCH  17  18
ATOM     18  C   UNL     1      31.669  37.405  18.632  1.00  0.00    -0.000 C 
BRANCH  18  19
ATOM     19  C   UNL     1      32.122  36.148  17.875  1.00  0.00    -0.003 C 
ATOM     20  C   UNL     1      31.330  34.903  18.275  1.00  0.00     0.004 C 
ENDBRANCH  18  19
ENDBRANCH  17  18
ENDBRANCH  16  17
ENDBRANCH  15  16
ENDBRANCH  14  15
ENDBRANCH  13  14
ENDBRANCH  12  13
ENDBRANCH   1  12
TORSDOF 16
ENDMDL
MODEL 2
REMARK VINA RESULT:    -0.321      3.384      8.151
REMARK INTER + INTRA:          -1.206
REMARK INTER:                  -0.391
REMARK INTRA:                  -0.815
REMARK UNBOUND:                -0.585
REMARK SMILES CCCCCCCCCCCCCCCCCC(=O)[O-]
REMARK SMILES IDX 10 1 11 2 12 3 13 4 14 5 15 6 16 7 17 8 18 9 19 10 20 11
REMARK SMILES IDX 9 12 8 13 7 14 6 15 5 16 4 17 3 18 2 19 1 20
REMARK H PARENT
REMARK Flexibility Score: inf
ROOT
ATOM      1  C   UNL     1      23.856  36.052  18.250  1.00  0.00     0.000 C 
ENDROOT
BRANCH   1   2
ATOM      2  C   UNL     1      25.340  36.251  17.899  1.00  0.00     0.000 C 
BRANCH   2   3
ATOM      3  C   UNL     1      26.187  35.003  18.195  1.00  0.00     0.000 C 
BRANCH   3   4
ATOM      4  C   UNL     1      27.684  35.222  17.928  1.00  0.00     0.000 C 
BRANCH   4   5
ATOM      5  C   UNL     1      28.019  36.718  17.876  1.00  0.00     0.000 C 
BRANCH   5   6
ATOM      6  C   UNL     1      28.994  37.102  18.999  1.00  0.00     0.000 C 
BRANCH   6   7
ATOM      7  C   UNL     1      30.101  38.062  18.526  1.00  0.00     0.006 C 
BRANCH   7   8
ATOM      8  C   UNL     1      31.511  37.449  18.527  1.00  0.00     0.053 C 
BRANCH   8   9
ATOM      9  C   UNL     1      31.525  36.074  19.119  1.00  0.00     0.041 C 
ATOM     10  O   UNL     1      31.315  35.068  18.391  1.00  0.00    -0.550 OA
ATOM     11  O   UNL     1      31.737  35.905  20.482  1.00  0.00    -0.550 OA
ENDBRANCH   8   9
ENDBRANCH   7   8
ENDBRANCH   6   7
ENDBRANCH   5   6
ENDBRANCH   4   5
ENDBRANCH   3   4
ENDBRANCH   2   3
ENDBRANCH   1   2
BRANCH   1  12
ATOM     12  C   UNL     1      23.646  35.326  19.591  1.00  0.00     0.000 C 
BRANCH  12  13
ATOM     13  C   UNL     1      22.682  36.018  20.575  1.00  0.00    -0.000 C 
BRANCH  13  14
ATOM     14  C   UNL     1      22.937  37.519  20.801  1.00  0.00    -0.000 C 
BRANCH  14  15
ATOM     15  C   UNL     1      23.193  37.868  22.277  1.00  0.00    -0.000 C 
BRANCH  15  16
ATOM     16  C   UNL     1      23.440  39.377  22.492  1.00  0.00    -0.000 C 
BRANCH  16  17
ATOM     17  C   UNL     1      23.834  39.744  23.933  1.00  0.00    -0.000 C 
BRANCH  17  18
ATOM     18  C   UNL     1      23.983  38.517  24.847  1.00  0.00    -0.000 C 
BRANCH  18  19
ATOM     19  C   UNL     1      23.501  38.785  26.280  1.00  0.00    -0.003 C 
ATOM     20  C   UNL     1      22.146  38.142  26.575  1.00  0.00     0.004 C 
ENDBRANCH  18  19
ENDBRANCH  17  18
ENDBRANCH  16  17
ENDBRANCH  15  16
ENDBRANCH  14  15
ENDBRANCH  13  14
ENDBRANCH  12  13
ENDBRANCH   1  12
TORSDOF 16
ENDMDL
MODEL 3
REMARK VINA RESULT:     0.421      1.376      2.862
REMARK INTER + INTRA:           0.231
REMARK INTER:                   0.568
REMARK INTRA:                  -0.338
REMARK UNBOUND:                -0.585
REMARK SMILES CCCCCCCCCCCCCCCCCC(=O)[O-]
REMARK SMILES IDX 10 1 11 2 12 3 13 4 14 5 15 6 16 7 17 8 18 9 19 10 20 11
REMARK SMILES IDX 9 12 8 13 7 14 6 15 5 16 4 17 3 18 2 19 1 20
REMARK H PARENT
REMARK Flexibility Score: inf
ROOT
ATOM      1  C   UNL     1      23.106  36.284  19.803  1.00  0.00     0.000 C 
ENDROOT
BRANCH   1   2
ATOM      2  C   UNL     1      22.408  36.466  21.161  1.00  0.00     0.000 C 
BRANCH   2   3
ATOM      3  C   UNL     1      22.241  37.946  21.543  1.00  0.00     0.000 C 
BRANCH   3   4
ATOM      4  C   UNL     1      22.097  38.157  23.058  1.00  0.00     0.000 C 
BRANCH   4   5
ATOM      5  C   UNL     1      22.277  36.836  23.815  1.00  0.00     0.000 C 
BRANCH   5   6
ATOM      6  C   UNL     1      23.175  37.027  25.048  1.00  0.00     0.000 C 
BRANCH   6   7
ATOM      7  C   UNL     1      23.282  38.499  25.486  1.00  0.00     0.006 C 
BRANCH   7   8
ATOM      8  C   UNL     1      24.517  39.234  24.940  1.00  0.00     0.053 C 
BRANCH   8   9
ATOM      9  C   UNL     1      24.148  40.273  23.928  1.00  0.00     0.041 C 
ATOM     10  O   UNL     1      23.320  41.177  24.219  1.00  0.00    -0.550 OA
ATOM     11  O   UNL     1      24.695  40.227  22.651  1.00  0.00    -0.550 OA
ENDBRANCH   8   9
ENDBRANCH   7   8
ENDBRANCH   6   7
ENDBRANCH   5   6
ENDBRANCH   4   5
ENDBRANCH   3   4
ENDBRANCH   2   3
ENDBRANCH   1   2
BRANCH   1  12
ATOM     12  C   UNL     1      23.768  34.903  19.647  1.00  0.00     0.000 C 
BRANCH  12  13
ATOM     13  C   UNL     1      25.059  34.878  18.803  1.00  0.00    -0.000 C 
BRANCH  13  14
ATOM     14  C   UNL     1      25.525  36.247  18.274  1.00  0.00    -0.000 C 
BRANCH  14  15
ATOM     15  C   UNL     1      27.010  36.261  17.875  1.00  0.00    -0.000 C 
BRANCH  15  16
ATOM     16  C   UNL     1      27.845  37.226  18.744  1.00  0.00    -0.000 C 
BRANCH  16  17
ATOM     17  C   UNL     1      29.053  36.563  19.427  1.00  0.00    -0.000 C 
BRANCH  17  18
ATOM     18  C   UNL     1      30.323  37.426  19.374  1.00  0.00    -0.000 C 
BRANCH  18  19
ATOM     19  C   UNL     1      31.200  37.112  18.153  1.00  0.00    -0.003 C 
ATOM     20  C   UNL     1      32.121  35.913  18.383  1.00  0.00     0.004 C 
ENDBRANCH  18  19
ENDBRANCH  17  18
ENDBRANCH  16  17
ENDBRANCH  15  16
ENDBRANCH  14  15
ENDBRANCH  13  14
ENDBRANCH  12  13
ENDBRANCH   1  12
TORSDOF 16
ENDMDL
MODEL 4
REMARK VINA RESULT:     0.708      1.243      1.956
REMARK INTER + INTRA:           0.786
REMARK INTER:                   0.680
REMARK INTRA:                   0.106
REMARK UNBOUND:                -0.585
REMARK SMILES CCCCCCCCCCCCCCCCCC(=O)[O-]
REMARK SMILES IDX 10 1 11 2 12 3 13 4 14 5 15 6 16 7 17 8 18 9 19 10 20 11
REMARK SMILES IDX 9 12 8 13 7 14 6 15 5 16 4 17 3 18 2 19 1 20
REMARK H PARENT
REMARK Flexibility Score: inf
ROOT
ATOM      1  C   UNL     1      23.414  35.340  18.295  1.00  0.00     0.000 C 
ENDROOT
BRANCH   1   2
ATOM      2  C   UNL     1      23.203  35.387  19.818  1.00  0.00     0.000 C 
BRANCH   2   3
ATOM      3  C   UNL     1      23.486  36.777  20.409  1.00  0.00     0.000 C 
BRANCH   3   4
ATOM      4  C   UNL     1      22.308  37.327  21.228  1.00  0.00     0.000 C 
BRANCH   4   5
ATOM      5  C   UNL     1      22.757  37.716  22.641  1.00  0.00     0.000 C 
BRANCH   5   6
ATOM      6  C   UNL     1      22.967  39.234  22.753  1.00  0.00     0.000 C 
BRANCH   6   7
ATOM      7  C   UNL     1      23.864  39.627  23.940  1.00  0.00     0.006 C 
BRANCH   7   8
ATOM      8  C   UNL     1      24.089  38.502  24.963  1.00  0.00     0.053 C 
BRANCH   8   9
ATOM      9  C   UNL     1      22.976  38.422  25.962  1.00  0.00     0.041 C 
ATOM     10  O   UNL     1      21.934  37.765  25.700  1.00  0.00    -0.550 OA
ATOM     11  O   UNL     1      23.076  39.102  27.170  1.00  0.00    -0.550 OA
ENDBRANCH   8   9
ENDBRANCH   7   8
ENDBRANCH   6   7
ENDBRANCH   5   6
ENDBRANCH   4   5
ENDBRANCH   3   4
ENDBRANCH   2   3
ENDBRANCH   1   2
BRANCH   1  12
ATOM     12  C   UNL     1      24.857  35.676  17.877  1.00  0.00     0.000 C 
BRANCH  12  13
ATOM     13  C   UNL     1      25.960  35.137  18.810  1.00  0.00    -0.000 C 
BRANCH  13  14
ATOM     14  C   UNL     1      27.347  35.782  18.632  1.00  0.00    -0.000 C 
BRANCH  14  15
ATOM     15  C   UNL     1      28.338  34.875  17.882  1.00  0.00    -0.000 C 
BRANCH  15  16
ATOM     16  C   UNL     1      29.809  35.250  18.163  1.00  0.00    -0.000 C 
BRANCH  16  17
ATOM     17  C   UNL     1      30.129  36.735  17.924  1.00  0.00    -0.000 C 
BRANCH  17  18
ATOM     18  C   UNL     1      31.484  37.160  18.514  1.00  0.00    -0.000 C 
BRANCH  18  19
ATOM     19  C   UNL     1      31.745  36.546  19.896  1.00  0.00    -0.003 C 
ATOM     20  C   UNL     1      30.481  36.464  20.752  1.00  0.00     0.004 C 
ENDBRANCH  18  19
ENDBRANCH  17  18
ENDBRANCH  16  17
ENDBRANCH  15  16
ENDBRANCH  14  15
ENDBRANCH  13  14
ENDBRANCH  12  13
ENDBRANCH   1  12
TORSDOF 16
ENDMDL
MODEL 5
REMARK VINA RESULT:     2.034      3.174      7.879
REMARK INTER + INTRA:           3.351
REMARK INTER:                   4.380
REMARK INTRA:                  -1.029
REMARK UNBOUND:                -0.585
REMARK SMILES CCCCCCCCCCCCCCCCCC(=O)[O-]
REMARK SMILES IDX 10 1 11 2 12 3 13 4 14 5 15 6 16 7 17 8 18 9 19 10 20 11
REMARK SMILES IDX 9 12 8 13 7 14 6 15 5 16 4 17 3 18 2 19 1 20
REMARK H PARENT
REMARK Flexibility Score: inf
ROOT
ATOM      1  C   UNL     1      23.864  37.299  20.353  1.00  0.00     0.000 C 
ENDROOT
BRANCH   1   2
ATOM      2  C   UNL     1      23.508  36.070  19.500  1.00  0.00     0.000 C 
BRANCH   2   3
ATOM      3  C   UNL     1      24.209  36.080  18.132  1.00  0.00     0.000 C 
BRANCH   3   4
ATOM      4  C   UNL     1      25.261  34.969  17.994  1.00  0.00     0.000 C 
BRANCH   4   5
ATOM      5  C   UNL     1      26.671  35.560  17.879  1.00  0.00     0.000 C 
BRANCH   5   6
ATOM      6  C   UNL     1      27.623  34.914  18.897  1.00  0.00     0.000 C 
BRANCH   6   7
ATOM      7  C   UNL     1      29.083  34.877  18.410  1.00  0.00     0.006 C 
BRANCH   7   8
ATOM      8  C   UNL     1      30.124  35.130  19.513  1.00  0.00     0.053 C 
BRANCH   8   9
ATOM      9  C   UNL     1      30.672  36.522  19.457  1.00  0.00     0.041 C 
ATOM     10  O   UNL     1      30.674  37.245  20.488  1.00  0.00    -0.550 OA
ATOM     11  O   UNL     1      31.151  37.033  18.257  1.00  0.00    -0.550 OA
ENDBRANCH   8   9
ENDBRANCH   7   8
ENDBRANCH   6   7
ENDBRANCH   5   6
ENDBRANCH   4   5
ENDBRANCH   3   4
ENDBRANCH   2   3
ENDBRANCH   1   2
BRANCH   1  12
ATOM     12  C   UNL     1      22.672  37.831  21.169  1.00  0.00     0.000 C 
BRANCH  12  13
ATOM     13  C   UNL     1      21.845  36.761  21.909  1.00  0.00    -0.000 C 
BRANCH  13  14
ATOM     14  C   UNL     1      22.653  35.821  22.823  1.00  0.00    -0.000 C 
BRANCH  14  15
ATOM     15  C   UNL     1      22.431  36.102  24.319  1.00  0.00    -0.000 C 
BRANCH  15  16
ATOM     16  C   UNL     1      23.412  37.157  24.873  1.00  0.00    -0.000 C 
BRANCH  16  17
ATOM     17  C   UNL     1      22.796  38.558  25.027  1.00  0.00    -0.000 C 
BRANCH  17  18
ATOM     18  C   UNL     1      23.804  39.690  24.770  1.00  0.00    -0.000 C 
BRANCH  18  19
ATOM     19  C   UNL     1      23.843  40.123  23.297  1.00  0.00    -0.003 C 
ATOM     20  C   UNL     1      24.889  41.205  23.030  1.00  0.00     0.004 C 
ENDBRANCH  18  19
ENDBRANCH  17  18
ENDBRANCH  16  17
ENDBRANCH  15  16
ENDBRANCH  14  15
ENDBRANCH  13  14
ENDBRANCH  12  13
ENDBRANCH   1  12
TORSDOF 16
ENDMDL
MODEL 6
REMARK VINA RESULT:     2.438      1.550      3.666
REMARK INTER + INTRA:           4.133
REMARK INTER:                   5.135
REMARK INTRA:                  -1.002
REMARK UNBOUND:                -0.585
REMARK SMILES CCCCCCCCCCCCCCCCCC(=O)[O-]
REMARK SMILES IDX 10 1 11 2 12 3 13 4 14 5 15 6 16 7 17 8 18 9 19 10 20 11
REMARK SMILES IDX 9 12 8 13 7 14 6 15 5 16 4 17 3 18 2 19 1 20
REMARK H PARENT
REMARK Flexibility Score: inf
ROOT
ATOM      1  C   UNL     1      22.730  36.692  20.571  1.00  0.00     0.000 C 
ENDROOT
BRANCH   1   2
ATOM      2  C   UNL     1      22.925  36.771  22.095  1.00  0.00     0.000 C 
BRANCH   2   3
ATOM      3  C   UNL     1      21.874  37.662  22.777  1.00  0.00     0.000 C 
BRANCH   3   4
ATOM      4  C   UNL     1      21.607  37.256  24.235  1.00  0.00     0.000 C 
BRANCH   4   5
ATOM      5  C   UNL     1      22.919  37.117  25.015  1.00  0.00     0.000 C 
BRANCH   5   6
ATOM      6  C   UNL     1      23.080  38.260  26.030  1.00  0.00     0.000 C 
BRANCH   6   7
ATOM      7  C   UNL     1      24.190  39.253  25.641  1.00  0.00     0.006 C 
BRANCH   7   8
ATOM      8  C   UNL     1      23.704  40.455  24.815  1.00  0.00     0.053 C 
BRANCH   8   9
ATOM      9  C   UNL     1      24.330  40.490  23.456  1.00  0.00     0.041 C 
ATOM     10  O   UNL     1      24.580  39.418  22.843  1.00  0.00    -0.550 OA
ATOM     11  O   UNL     1      24.669  41.708  22.877  1.00  0.00    -0.550 OA
ENDBRANCH   8   9
ENDBRANCH   7   8
ENDBRANCH   6   7
ENDBRANCH   5   6
ENDBRANCH   4   5
ENDBRANCH   3   4
ENDBRANCH   2   3
ENDBRANCH   1   2
BRANCH   1  12
ATOM     12  C   UNL     1      22.855  35.260  20.022  1.00  0.00     0.000 C 
BRANCH  12  13
ATOM     13  C   UNL     1      24.247  34.878  19.478  1.00  0.00    -0.000 C 
BRANCH  13  14
ATOM     14  C   UNL     1      24.584  35.436  18.083  1.00  0.00    -0.000 C 
BRANCH  14  15
ATOM     15  C   UNL     1      26.092  35.660  17.876  1.00  0.00    -0.000 C 
BRANCH  15  16
ATOM     16  C   UNL     1      26.495  37.142  18.033  1.00  0.00    -0.000 C 
BRANCH  16  17
ATOM     17  C   UNL     1      28.006  37.359  18.222  1.00  0.00    -0.000 C 
BRANCH  17  18
ATOM     18  C   UNL     1      28.690  36.206  18.975  1.00  0.00    -0.000 C 
BRANCH  18  19
ATOM     19  C   UNL     1      29.794  36.694  19.925  1.00  0.00    -0.003 C 
ATOM     20  C   UNL     1      31.177  36.677  19.275  1.00  0.00     0.004 C 
ENDBRANCH  18  19
ENDBRANCH  17  18
ENDBRANCH  16  17
ENDBRANCH  15  16
ENDBRANCH  14  15
ENDBRANCH  13  14
ENDBRANCH  12  13
ENDBRANCH   1  12
TORSDOF 16
ENDMDL
