MODEL 1
REMARK VINA RESULT:    -5.023      0.000      0.000
REMARK INTER + INTRA:         -12.497
REMARK INTER:                  -9.722
REMARK INTRA:                  -2.775
REMARK UNBOUND:                -2.775
REMARK SMILES CCCCCCCCCCCCCCCCCC(=O)[O-]
REMARK SMILES IDX 10 1 11 2 12 3 13 4 14 5 15 6 16 7 17 8 18 9 19 10 20 11
REMARK SMILES IDX 9 12 8 13 7 14 6 15 5 16 4 17 3 18 2 19 1 20
REMARK H PARENT
REMARK Flexibility Score: inf
ROOT
ATOM      1  C   UNL     1      21.398  -3.949  18.913  1.00  0.00     0.000 C 
ENDROOT
BRANCH   1   2
ATOM      2  C   UNL     1      20.598  -3.402  17.721  1.00  0.00     0.000 C 
BRANCH   2   3
ATOM      3  C   UNL     1      20.012  -2.006  17.995  1.00  0.00     0.000 C 
BRANCH   3   4
ATOM      4  C   UNL     1      18.681  -1.769  17.263  1.00  0.00     0.000 C 
BRANCH   4   5
ATOM      5  C   UNL     1      17.767  -0.781  18.004  1.00  0.00     0.000 C 
BRANCH   5   6
ATOM      6  C   UNL     1      18.331  -0.450  19.394  1.00  0.00     0.000 C 
BRANCH   6   7
ATOM      7  C   UNL     1      17.369   0.405  20.240  1.00  0.00     0.006 C 
BRANCH   7   8
ATOM      8  C   UNL     1      16.791  -0.316  21.468  1.00  0.00     0.053 C 
BRANCH   8   9
ATOM      9  C   UNL     1      15.361  -0.712  21.264  1.00  0.00     0.041 C 
ATOM     10  O   UNL     1      14.551  -0.684  22.228  1.00  0.00    -0.550 OA
ATOM     11  O   UNL     1      14.914  -1.079  20.000  1.00  0.00    -0.550 OA
ENDBRANCH   8   9
ENDBRANCH   7   8
ENDBRANCH   6   7
ENDBRANCH   5   6
ENDBRANCH   4   5
ENDBRANCH   3   4
ENDBRANCH   2   3
ENDBRANCH   1   2
BRANCH   1  12
ATOM     12  C   UNL     1      21.635  -2.887  20.001  1.00  0.00     0.000 C 
BRANCH  12  13
ATOM     13  C   UNL     1      21.136  -3.338  21.383  1.00  0.00    -0.000 C 
BRANCH  13  14
ATOM     14  C   UNL     1      19.648  -3.016  21.607  1.00  0.00    -0.000 C 
BRANCH  14  15
ATOM     15  C   UNL     1      18.730  -4.188  21.229  1.00  0.00    -0.000 C 
BRANCH  15  16
ATOM     16  C   UNL     1      17.451  -3.729  20.506  1.00  0.00    -0.000 C 
BRANCH  16  17
ATOM     17  C   UNL     1      17.263  -4.433  19.145  1.00  0.00    -0.000 C 
BRANCH  17  18
ATOM     18  C   UNL     1      15.855  -4.257  18.547  1.00  0.00    -0.000 C 
BRANCH  18  19
ATOM     19  C   UNL     1      15.631  -4.976  17.207  1.00  0.00    -0.003 C 
ATOM     20  C   UNL     1      14.371  -5.843  17.201  1.00  0.00     0.004 C 
ENDBRANCH  18  19
ENDBRANCH  17  18
ENDBRANCH  16  17
ENDBRANCH  15  16
ENDBRANCH  14  15
ENDBRANCH  13  14
ENDBRANCH  12  13
ENDBRANCH   1  12
TORSDOF 16
ENDMDL
MODEL 2
REMARK VINA RESULT:    -4.982      2.235      4.433
REMARK INTER + INTRA:         -12.416
REMARK INTER:                  -9.314
REMARK INTRA:                  -3.102
REMARK UNBOUND:                -2.775
REMARK SMILES CCCCCCCCCCCCCCCCCC(=O)[O-]
REMARK SMILES IDX 10 1 11 2 12 3 13 4 14 5 15 6 16 7 17 8 18 9 19 10 20 11
REMARK SMILES IDX 9 12 8 13 7 14 6 15 5 16 4 17 3 18 2 19 1 20
REMARK H PARENT
REMARK Flexibility Score: inf
ROOT
ATOM      1  C   UNL     1      21.078  -3.144  22.401  1.00  0.00     0.000 C 
ENDROOT
BRANCH   1   2
ATOM      2  C   UNL     1      22.031  -2.977  21.208  1.00  0.00     0.000 C 
BRANCH   2   3
ATOM      3  C   UNL     1      21.285  -2.854  19.868  1.00  0.00     0.000 C 
BRANCH   3   4
ATOM      4  C   UNL     1      21.296  -4.164  19.063  1.00  0.00     0.000 C 
BRANCH   4   5
ATOM      5  C   UNL     1      20.048  -4.327  18.182  1.00  0.00     0.000 C 
BRANCH   5   6
ATOM      6  C   UNL     1      19.644  -2.986  17.551  1.00  0.00     0.000 C 
BRANCH   6   7
ATOM      7  C   UNL     1      18.128  -2.873  17.309  1.00  0.00     0.006 C 
BRANCH   7   8
ATOM      8  C   UNL     1      17.374  -4.211  17.367  1.00  0.00     0.053 C 
BRANCH   8   9
ATOM      9  C   UNL     1      15.889  -4.018  17.398  1.00  0.00     0.041 C 
ATOM     10  O   UNL     1      15.401  -2.901  17.714  1.00  0.00    -0.550 OA
ATOM     11  O   UNL     1      15.044  -5.063  17.044  1.00  0.00    -0.550 OA
ENDBRANCH   8   9
ENDBRANCH   7   8
ENDBRANCH   6   7
ENDBRANCH   5   6
ENDBRANCH   4   5
ENDBRANCH   3   4
ENDBRANCH   2   3
ENDBRANCH   1   2
BRANCH   1  12
ATOM     12  C   UNL     1      21.171  -1.977  23.398  1.00  0.00     0.000 C 
BRANCH  12  13
ATOM     13  C   UNL     1      22.211  -0.925  22.979  1.00  0.00    -0.000 C 
BRANCH  13  14
ATOM     14  C   UNL     1      21.597   0.477  22.813  1.00  0.00    -0.000 C 
BRANCH  14  15
ATOM     15  C   UNL     1      20.148   0.428  22.305  1.00  0.00    -0.000 C 
BRANCH  15  16
ATOM     16  C   UNL     1      20.057   0.459  20.769  1.00  0.00    -0.000 C 
BRANCH  16  17
ATOM     17  C   UNL     1      18.824  -0.306  20.240  1.00  0.00    -0.000 C 
BRANCH  17  18
ATOM     18  C   UNL     1      18.094  -1.123  21.322  1.00  0.00    -0.000 C 
BRANCH  18  19
ATOM     19  C   UNL     1      17.206  -2.256  20.782  1.00  0.00    -0.003 C 
ATOM     20  C   UNL     1      17.782  -3.645  21.059  1.00  0.00     0.004 C 
ENDBRANCH  18  19
ENDBRANCH  17  18
ENDBRANCH  16  17
ENDBRANCH  15  16
ENDBRANCH  14  15
ENDBRANCH  13  14
ENDBRANCH  12  13
ENDBRANCH   1  12
TORSDOF 16
ENDMDL
MODEL 3
REMARK VINA RESULT:    -4.982      2.283      5.016
REMARK INTER + INTRA:         -12.416
REMARK INTER:                  -9.555
REMARK INTRA:                  -2.861
REMARK UNBOUND:                -2.775
REMARK SMILES CCCCCCCCCCCCCCCCCC(=O)[O-]
REMARK SMILES IDX 10 1 11 2 12 3 13 4 14 5 15 6 16 7 17 8 18 9 19 10 20 11
REMARK SMILES IDX 9 12 8 13 7 14 6 15 5 16 4 17 3 18 2 19 1 20
REMARK H PARENT
REMARK Flexibility Score: inf
ROOT
ATOM      1  C   UNL     1      20.304  -2.907  17.779  1.00  0.00     0.000 C 
ENDROOT
BRANCH   1   2
ATOM      2  C   UNL     1      20.448  -3.870  18.968  1.00  0.00     0.000 C 
BRANCH   2   3
ATOM      3  C   UNL     1      19.279  -4.866  19.065  1.00  0.00     0.000 C 
BRANCH   3   4
ATOM      4  C   UNL     1      18.584  -4.830  20.436  1.00  0.00     0.000 C 
BRANCH   4   5
ATOM      5  C   UNL     1      18.136  -3.416  20.834  1.00  0.00     0.000 C 
BRANCH   5   6
ATOM      6  C   UNL     1      16.647  -3.206  20.525  1.00  0.00     0.000 C 
BRANCH   6   7
ATOM      7  C   UNL     1      16.382  -1.932  19.701  1.00  0.00     0.006 C 
BRANCH   7   8
ATOM      8  C   UNL     1      15.510  -2.151  18.455  1.00  0.00     0.053 C 
BRANCH   8   9
ATOM      9  C   UNL     1      15.842  -3.435  17.758  1.00  0.00     0.041 C 
ATOM     10  O   UNL     1      16.903  -3.537  17.088  1.00  0.00    -0.550 OA
ATOM     11  O   UNL     1      14.994  -4.530  17.876  1.00  0.00    -0.550 OA
ENDBRANCH   8   9
ENDBRANCH   7   8
ENDBRANCH   6   7
ENDBRANCH   5   6
ENDBRANCH   4   5
ENDBRANCH   3   4
ENDBRANCH   2   3
ENDBRANCH   1   2
BRANCH   1  12
ATOM     12  C   UNL     1      19.807  -1.515  18.206  1.00  0.00     0.000 C 
BRANCH  12  13
ATOM     13  C   UNL     1      20.597  -0.946  19.395  1.00  0.00    -0.000 C 
BRANCH  13  14
ATOM     14  C   UNL     1      19.688  -0.274  20.439  1.00  0.00    -0.000 C 
BRANCH  14  15
ATOM     15  C   UNL     1      20.409   0.836  21.219  1.00  0.00    -0.000 C 
BRANCH  15  16
ATOM     16  C   UNL     1      20.974   0.345  22.564  1.00  0.00    -0.000 C 
BRANCH  16  17
ATOM     17  C   UNL     1      20.142  -0.813  23.158  1.00  0.00    -0.000 C 
BRANCH  17  18
ATOM     18  C   UNL     1      20.995  -1.998  23.649  1.00  0.00    -0.000 C 
BRANCH  18  19
ATOM     19  C   UNL     1      21.223  -3.103  22.605  1.00  0.00    -0.003 C 
ATOM     20  C   UNL     1      22.545  -2.946  21.854  1.00  0.00     0.004 C 
ENDBRANCH  18  19
ENDBRANCH  17  18
ENDBRANCH  16  17
ENDBRANCH  15  16
ENDBRANCH  14  15
ENDBRANCH  13  14
ENDBRANCH  12  13
ENDBRANCH   1  12
TORSDOF 16
ENDMDL
MODEL 4
REMARK VINA RESULT:    -4.954      3.010      5.332
REMARK INTER + INTRA:         -12.363
REMARK INTER:                  -9.438
REMARK INTRA:                  -2.925
REMARK UNBOUND:                -2.775
REMARK SMILES CCCCCCCCCCCCCCCCCC(=O)[O-]
REMARK SMILES IDX 10 1 11 2 12 3 13 4 14 5 15 6 16 7 17 8 18 9 19 10 20 11
REMARK SMILES IDX 9 12 8 13 7 14 6 15 5 16 4 17 3 18 2 19 1 20
REMARK H PARENT
REMARK Flexibility Score: inf
ROOT
ATOM      1  C   UNL     1      21.933   0.180  20.848  1.00  0.00     0.000 C 
ENDROOT
BRANCH   1   2
ATOM      2  C   UNL     1      22.508  -0.969  21.690  1.00  0.00     0.000 C 
BRANCH   2   3
ATOM      3  C   UNL     1      21.957  -0.981  23.126  1.00  0.00     0.000 C 
BRANCH   3   4
ATOM      4  C   UNL     1      21.043  -2.186  23.399  1.00  0.00     0.000 C 
BRANCH   4   5
ATOM      5  C   UNL     1      21.249  -3.325  22.389  1.00  0.00     0.000 C 
BRANCH   5   6
ATOM      6  C   UNL     1      19.913  -3.746  21.759  1.00  0.00     0.000 C 
BRANCH   6   7
ATOM      7  C   UNL     1      19.941  -3.713  20.220  1.00  0.00     0.006 C 
BRANCH   7   8
ATOM      8  C   UNL     1      21.332  -3.939  19.605  1.00  0.00     0.053 C 
BRANCH   8   9
ATOM      9  C   UNL     1      21.253  -4.620  18.274  1.00  0.00     0.041 C 
ATOM     10  O   UNL     1      22.164  -4.453  17.421  1.00  0.00    -0.550 OA
ATOM     11  O   UNL     1      20.188  -5.466  17.987  1.00  0.00    -0.550 OA
ENDBRANCH   8   9
ENDBRANCH   7   8
ENDBRANCH   6   7
ENDBRANCH   5   6
ENDBRANCH   4   5
ENDBRANCH   3   4
ENDBRANCH   2   3
ENDBRANCH   1   2
BRANCH   1  12
ATOM     12  C   UNL     1      20.554  -0.158  20.255  1.00  0.00     0.000 C 
BRANCH  12  13
ATOM     13  C   UNL     1      19.412   0.604  20.947  1.00  0.00    -0.000 C 
BRANCH  13  14
ATOM     14  C   UNL     1      18.300  -0.332  21.452  1.00  0.00    -0.000 C 
BRANCH  14  15
ATOM     15  C   UNL     1      17.667  -1.157  20.321  1.00  0.00    -0.000 C 
BRANCH  15  16
ATOM     16  C   UNL     1      16.860  -0.291  19.337  1.00  0.00    -0.000 C 
BRANCH  16  17
ATOM     17  C   UNL     1      17.406  -0.381  17.896  1.00  0.00    -0.000 C 
BRANCH  17  18
ATOM     18  C   UNL     1      18.653  -1.276  17.762  1.00  0.00    -0.000 C 
BRANCH  18  19
ATOM     19  C   UNL     1      18.447  -2.544  16.917  1.00  0.00    -0.003 C 
ATOM     20  C   UNL     1      17.227  -3.356  17.352  1.00  0.00     0.004 C 
ENDBRANCH  18  19
ENDBRANCH  17  18
ENDBRANCH  16  17
ENDBRANCH  15  16
ENDBRANCH  14  15
ENDBRANCH  13  14
ENDBRANCH  12  13
ENDBRANCH   1  12
TORSDOF 16
ENDMDL
MODEL 5
REMARK VINA RESULT:    -4.944      2.306      4.917
REMARK INTER + INTRA:         -12.344
REMARK INTER:                  -9.442
REMARK INTRA:                  -2.903
REMARK UNBOUND:                -2.775
REMARK SMILES CCCCCCCCCCCCCCCCCC(=O)[O-]
REMARK SMILES IDX 10 1 11 2 12 3 13 4 14 5 15 6 16 7 17 8 18 9 19 10 20 11
REMARK SMILES IDX 9 12 8 13 7 14 6 15 5 16 4 17 3 18 2 19 1 20
REMARK H PARENT
REMARK Flexibility Score: inf
ROOT
ATOM      1  C   UNL     1      22.132  -2.860  20.916  1.00  0.00     0.000 C 
ENDROOT
BRANCH   1   2
ATOM      2  C   UNL     1      21.651  -3.599  19.658  1.00  0.00     0.000 C 
BRANCH   2   3
ATOM      3  C   UNL     1      20.204  -3.237  19.279  1.00  0.00     0.000 C 
BRANCH   3   4
ATOM      4  C   UNL     1      19.356  -4.473  18.935  1.00  0.00     0.000 C 
BRANCH   4   5
ATOM      5  C   UNL     1      18.522  -4.967  20.127  1.00  0.00     0.000 C 
BRANCH   5   6
ATOM      6  C   UNL     1      17.930  -3.785  20.909  1.00  0.00     0.000 C 
BRANCH   6   7
ATOM      7  C   UNL     1      16.596  -3.289  20.320  1.00  0.00     0.006 C 
BRANCH   7   8
ATOM      8  C   UNL     1      16.263  -1.825  20.647  1.00  0.00     0.053 C 
BRANCH   8   9
ATOM      9  C   UNL     1      16.122  -0.993  19.410  1.00  0.00     0.041 C 
ATOM     10  O   UNL     1      16.769   0.081  19.291  1.00  0.00    -0.550 OA
ATOM     11  O   UNL     1      15.300  -1.420  18.374  1.00  0.00    -0.550 OA
ENDBRANCH   8   9
ENDBRANCH   7   8
ENDBRANCH   6   7
ENDBRANCH   5   6
ENDBRANCH   4   5
ENDBRANCH   3   4
ENDBRANCH   2   3
ENDBRANCH   1   2
BRANCH   1  12
ATOM     12  C   UNL     1      21.828  -3.637  22.208  1.00  0.00     0.000 C 
BRANCH  12  13
ATOM     13  C   UNL     1      20.757  -2.950  23.071  1.00  0.00    -0.000 C 
BRANCH  13  14
ATOM     14  C   UNL     1      21.239  -1.610  23.654  1.00  0.00    -0.000 C 
BRANCH  14  15
ATOM     15  C   UNL     1      20.210  -0.484  23.470  1.00  0.00    -0.000 C 
BRANCH  15  16
ATOM     16  C   UNL     1      19.349  -0.670  22.208  1.00  0.00    -0.000 C 
BRANCH  16  17
ATOM     17  C   UNL     1      19.918   0.095  20.993  1.00  0.00    -0.000 C 
BRANCH  17  18
ATOM     18  C   UNL     1      21.058   1.066  21.353  1.00  0.00    -0.000 C 
BRANCH  18  19
ATOM     19  C   UNL     1      22.396   0.776  20.653  1.00  0.00    -0.003 C 
ATOM     20  C   UNL     1      23.551   0.581  21.637  1.00  0.00     0.004 C 
ENDBRANCH  18  19
ENDBRANCH  17  18
ENDBRANCH  16  17
ENDBRANCH  15  16
ENDBRANCH  14  15
ENDBRANCH  13  14
ENDBRANCH  12  13
ENDBRANCH   1  12
TORSDOF 16
ENDMDL
MODEL 6
REMARK VINA RESULT:    -4.913      3.286      6.029
REMARK INTER + INTRA:         -12.285
REMARK INTER:                  -9.376
REMARK INTRA:                  -2.908
REMARK UNBOUND:                -2.775
REMARK SMILES CCCCCCCCCCCCCCCCCC(=O)[O-]
REMARK SMILES IDX 10 1 11 2 12 3 13 4 14 5 15 6 16 7 17 8 18 9 19 10 20 11
REMARK SMILES IDX 9 12 8 13 7 14 6 15 5 16 4 17 3 18 2 19 1 20
REMARK H PARENT
REMARK Flexibility Score: inf
ROOT
ATOM      1  C   UNL     1      17.643  -0.509  18.191  1.00  0.00     0.000 C 
ENDROOT
BRANCH   1   2
ATOM      2  C   UNL     1      16.586  -1.624  18.234  1.00  0.00     0.000 C 
BRANCH   2   3
ATOM      3  C   UNL     1      16.132  -1.951  19.667  1.00  0.00     0.000 C 
BRANCH   3   4
ATOM      4  C   UNL     1      16.481  -3.390  20.084  1.00  0.00     0.000 C 
BRANCH   4   5
ATOM      5  C   UNL     1      17.743  -3.462  20.957  1.00  0.00     0.000 C 
BRANCH   5   6
ATOM      6  C   UNL     1      18.704  -4.543  20.440  1.00  0.00     0.000 C 
BRANCH   6   7
ATOM      7  C   UNL     1      18.421  -4.946  18.981  1.00  0.00     0.006 C 
BRANCH   7   8
ATOM      8  C   UNL     1      19.443  -4.413  17.965  1.00  0.00     0.053 C 
BRANCH   8   9
ATOM      9  C   UNL     1      20.659  -5.285  17.884  1.00  0.00     0.041 C 
ATOM     10  O   UNL     1      21.678  -5.018  18.575  1.00  0.00    -0.550 OA
ATOM     11  O   UNL     1      20.654  -6.411  17.070  1.00  0.00    -0.550 OA
ENDBRANCH   8   9
ENDBRANCH   7   8
ENDBRANCH   6   7
ENDBRANCH   5   6
ENDBRANCH   4   5
ENDBRANCH   3   4
ENDBRANCH   2   3
ENDBRANCH   1   2
BRANCH   1  12
ATOM     12  C   UNL     1      19.079  -1.060  18.177  1.00  0.00     0.000 C 
BRANCH  12  13
ATOM     13  C   UNL     1      19.816  -0.823  19.505  1.00  0.00    -0.000 C 
BRANCH  13  14
ATOM     14  C   UNL     1      19.122   0.233  20.383  1.00  0.00    -0.000 C 
BRANCH  14  15
ATOM     15  C   UNL     1      19.773   0.367  21.768  1.00  0.00    -0.000 C 
BRANCH  15  16
ATOM     16  C   UNL     1      19.483  -0.840  22.678  1.00  0.00    -0.000 C 
BRANCH  16  17
ATOM     17  C   UNL     1      20.751  -1.347  23.398  1.00  0.00    -0.000 C 
BRANCH  17  18
ATOM     18  C   UNL     1      21.034  -2.844  23.172  1.00  0.00    -0.000 C 
BRANCH  18  19
ATOM     19  C   UNL     1      21.761  -3.170  21.858  1.00  0.00    -0.003 C 
ATOM     20  C   UNL     1      22.851  -2.155  21.514  1.00  0.00     0.004 C 
ENDBRANCH  18  19
ENDBRANCH  17  18
ENDBRANCH  16  17
ENDBRANCH  15  16
ENDBRANCH  14  15
ENDBRANCH  13  14
ENDBRANCH  12  13
ENDBRANCH   1  12
TORSDOF 16
ENDMDL
MODEL 7
REMARK VINA RESULT:    -4.872      1.995      5.289
REMARK INTER + INTRA:         -12.205
REMARK INTER:                  -9.100
REMARK INTRA:                  -3.105
REMARK UNBOUND:                -2.775
REMARK SMILES CCCCCCCCCCCCCCCCCC(=O)[O-]
REMARK SMILES IDX 10 1 11 2 12 3 13 4 14 5 15 6 16 7 17 8 18 9 19 10 20 11
REMARK SMILES IDX 9 12 8 13 7 14 6 15 5 16 4 17 3 18 2 19 1 20
REMARK H PARENT
REMARK Flexibility Score: inf
ROOT
ATOM      1  C   UNL     1      19.736  -2.500  17.650  1.00  0.00     0.000 C 
ENDROOT
BRANCH   1   2
ATOM      2  C   UNL     1      20.954  -3.047  18.409  1.00  0.00     0.000 C 
BRANCH   2   3
ATOM      3  C   UNL     1      20.595  -4.230  19.326  1.00  0.00     0.000 C 
BRANCH   3   4
ATOM      4  C   UNL     1      20.198  -3.781  20.742  1.00  0.00     0.000 C 
BRANCH   4   5
ATOM      5  C   UNL     1      18.778  -4.224  21.126  1.00  0.00     0.000 C 
BRANCH   5   6
ATOM      6  C   UNL     1      17.762  -3.106  20.849  1.00  0.00     0.000 C 
BRANCH   6   7
ATOM      7  C   UNL     1      16.550  -3.590  20.030  1.00  0.00     0.006 C 
BRANCH   7   8
ATOM      8  C   UNL     1      16.905  -4.523  18.862  1.00  0.00     0.053 C 
BRANCH   8   9
ATOM      9  C   UNL     1      15.918  -4.417  17.740  1.00  0.00     0.041 C 
ATOM     10  O   UNL     1      15.569  -5.445  17.103  1.00  0.00    -0.550 OA
ATOM     11  O   UNL     1      15.358  -3.186  17.420  1.00  0.00    -0.550 OA
ENDBRANCH   8   9
ENDBRANCH   7   8
ENDBRANCH   6   7
ENDBRANCH   5   6
ENDBRANCH   4   5
ENDBRANCH   3   4
ENDBRANCH   2   3
ENDBRANCH   1   2
BRANCH   1  12
ATOM     12  C   UNL     1      19.288  -1.122  18.169  1.00  0.00     0.000 C 
BRANCH  12  13
ATOM     13  C   UNL     1      17.837  -0.791  17.786  1.00  0.00    -0.000 C 
BRANCH  13  14
ATOM     14  C   UNL     1      17.096  -0.021  18.893  1.00  0.00    -0.000 C 
BRANCH  14  15
ATOM     15  C   UNL     1      18.057   0.630  19.900  1.00  0.00    -0.000 C 
BRANCH  15  16
ATOM     16  C   UNL     1      17.678   0.327  21.361  1.00  0.00    -0.000 C 
BRANCH  16  17
ATOM     17  C   UNL     1      18.915   0.247  22.281  1.00  0.00    -0.000 C 
BRANCH  17  18
ATOM     18  C   UNL     1      20.212  -0.132  21.542  1.00  0.00    -0.000 C 
BRANCH  18  19
ATOM     19  C   UNL     1      21.301  -0.755  22.431  1.00  0.00    -0.003 C 
ATOM     20  C   UNL     1      20.730  -1.473  23.654  1.00  0.00     0.004 C 
ENDBRANCH  18  19
ENDBRANCH  17  18
ENDBRANCH  16  17
ENDBRANCH  15  16
ENDBRANCH  14  15
ENDBRANCH  13  14
ENDBRANCH  12  13
ENDBRANCH   1  12
TORSDOF 16
ENDMDL
MODEL 8
REMARK VINA RESULT:    -4.835      2.035      4.287
REMARK INTER + INTRA:         -12.132
REMARK INTER:                  -9.468
REMARK INTRA:                  -2.664
REMARK UNBOUND:                -2.775
REMARK SMILES CCCCCCCCCCCCCCCCCC(=O)[O-]
REMARK SMILES IDX 10 1 11 2 12 3 13 4 14 5 15 6 16 7 17 8 18 9 19 10 20 11
REMARK SMILES IDX 9 12 8 13 7 14 6 15 5 16 4 17 3 18 2 19 1 20
REMARK H PARENT
REMARK Flexibility Score: inf
ROOT
ATOM      1  C   UNL     1      18.945  -3.921  21.540  1.00  0.00     0.000 C 
ENDROOT
BRANCH   1   2
ATOM      2  C   UNL     1      18.421  -4.215  20.126  1.00  0.00     0.000 C 
BRANCH   2   3
ATOM      3  C   UNL     1      19.548  -4.580  19.143  1.00  0.00     0.000 C 
BRANCH   3   4
ATOM      4  C   UNL     1      19.543  -3.698  17.884  1.00  0.00     0.000 C 
BRANCH   4   5
ATOM      5  C   UNL     1      20.334  -2.395  18.071  1.00  0.00     0.000 C 
BRANCH   5   6
ATOM      6  C   UNL     1      19.395  -1.179  18.077  1.00  0.00     0.000 C 
BRANCH   6   7
ATOM      7  C   UNL     1      17.963  -1.530  17.631  1.00  0.00     0.006 C 
BRANCH   7   8
ATOM      8  C   UNL     1      16.873  -0.630  18.232  1.00  0.00     0.053 C 
BRANCH   8   9
ATOM      9  C   UNL     1      15.568  -1.351  18.379  1.00  0.00     0.041 C 
ATOM     10  O   UNL     1      15.421  -2.501  17.888  1.00  0.00    -0.550 OA
ATOM     11  O   UNL     1      14.525  -0.766  19.087  1.00  0.00    -0.550 OA
ENDBRANCH   8   9
ENDBRANCH   7   8
ENDBRANCH   6   7
ENDBRANCH   5   6
ENDBRANCH   4   5
ENDBRANCH   3   4
ENDBRANCH   2   3
ENDBRANCH   1   2
BRANCH   1  12
ATOM     12  C   UNL     1      20.387  -3.382  21.533  1.00  0.00     0.000 C 
BRANCH  12  13
ATOM     13  C   UNL     1      21.018  -3.371  22.935  1.00  0.00    -0.000 C 
BRANCH  13  14
ATOM     14  C   UNL     1      21.006  -1.972  23.575  1.00  0.00    -0.000 C 
BRANCH  14  15
ATOM     15  C   UNL     1      21.972  -1.000  22.882  1.00  0.00    -0.000 C 
BRANCH  15  16
ATOM     16  C   UNL     1      21.315   0.352  22.549  1.00  0.00    -0.000 C 
BRANCH  16  17
ATOM     17  C   UNL     1      20.618   0.339  21.171  1.00  0.00    -0.000 C 
BRANCH  17  18
ATOM     18  C   UNL     1      19.123   0.704  21.231  1.00  0.00    -0.000 C 
BRANCH  18  19
ATOM     19  C   UNL     1      18.212  -0.399  21.795  1.00  0.00    -0.003 C 
ATOM     20  C   UNL     1      16.745   0.022  21.869  1.00  0.00     0.004 C 
ENDBRANCH  18  19
ENDBRANCH  17  18
ENDBRANCH  16  17
ENDBRANCH  15  16
ENDBRANCH  14  15
ENDBRANCH  13  14
ENDBRANCH  12  13
ENDBRANCH   1  12
TORSDOF 16
ENDMDL
MODEL 9
REMARK VINA RESULT:    -4.824      2.139      3.433
REMARK INTER + INTRA:         -12.112
REMARK INTER:                  -9.129
REMARK INTRA:                  -2.983
REMARK UNBOUND:                -2.775
REMARK SMILES CCCCCCCCCCCCCCCCCC(=O)[O-]
REMARK SMILES IDX 10 1 11 2 12 3 13 4 14 5 15 6 16 7 17 8 18 9 19 10 20 11
REMARK SMILES IDX 9 12 8 13 7 14 6 15 5 16 4 17 3 18 2 19 1 20
REMARK H PARENT
REMARK Flexibility Score: inf
ROOT
ATOM      1  C   UNL     1      21.370  -1.456  20.533  1.00  0.00     0.000 C 
ENDROOT
BRANCH   1   2
ATOM      2  C   UNL     1      21.969  -0.063  20.781  1.00  0.00     0.000 C 
BRANCH   2   3
ATOM      3  C   UNL     1      20.936   0.933  21.336  1.00  0.00     0.000 C 
BRANCH   3   4
ATOM      4  C   UNL     1      19.493   0.561  20.957  1.00  0.00     0.000 C 
BRANCH   4   5
ATOM      5  C   UNL     1      18.604   0.315  22.186  1.00  0.00     0.000 C 
BRANCH   5   6
ATOM      6  C   UNL     1      17.153   0.043  21.766  1.00  0.00     0.000 C 
BRANCH   6   7
ATOM      7  C   UNL     1      17.018  -0.297  20.270  1.00  0.00     0.006 C 
BRANCH   7   8
ATOM      8  C   UNL     1      16.032  -1.435  19.963  1.00  0.00     0.053 C 
BRANCH   8   9
ATOM      9  C   UNL     1      15.526  -1.374  18.555  1.00  0.00     0.041 C 
ATOM     10  O   UNL     1      15.389  -2.430  17.883  1.00  0.00    -0.550 OA
ATOM     11  O   UNL     1      15.172  -0.152  17.995  1.00  0.00    -0.550 OA
ENDBRANCH   8   9
ENDBRANCH   7   8
ENDBRANCH   6   7
ENDBRANCH   5   6
ENDBRANCH   4   5
ENDBRANCH   3   4
ENDBRANCH   2   3
ENDBRANCH   1   2
BRANCH   1  12
ATOM     12  C   UNL     1      21.666  -2.437  21.681  1.00  0.00     0.000 C 
BRANCH  12  13
ATOM     13  C   UNL     1      20.399  -3.129  22.207  1.00  0.00    -0.000 C 
BRANCH  13  14
ATOM     14  C   UNL     1      19.246  -3.102  21.188  1.00  0.00    -0.000 C 
BRANCH  14  15
ATOM     15  C   UNL     1      18.717  -4.507  20.862  1.00  0.00    -0.000 C 
BRANCH  15  16
ATOM     16  C   UNL     1      18.834  -4.851  19.366  1.00  0.00    -0.000 C 
BRANCH  16  17
ATOM     17  C   UNL     1      20.228  -4.513  18.796  1.00  0.00    -0.000 C 
BRANCH  17  18
ATOM     18  C   UNL     1      20.181  -3.696  17.491  1.00  0.00    -0.000 C 
BRANCH  18  19
ATOM     19  C   UNL     1      18.928  -2.822  17.323  1.00  0.00    -0.003 C 
ATOM     20  C   UNL     1      19.178  -1.353  17.669  1.00  0.00     0.004 C 
ENDBRANCH  18  19
ENDBRANCH  17  18
ENDBRANCH  16  17
ENDBRANCH  15  16
ENDBRANCH  14  15
ENDBRANCH  13  14
ENDBRANCH  12  13
ENDBRANCH   1  12
TORSDOF 16
ENDMDL
