MODEL 1
REMARK VINA RESULT:    -3.926      0.000      0.000
REMARK INTER + INTRA:          -8.688
REMARK INTER:                  -7.599
REMARK INTRA:                  -1.089
REMARK UNBOUND:                -1.089
REMARK SMILES CCCCCCCCCCCCCCCCCC(=O)[O-]
REMARK SMILES IDX 10 1 11 2 12 3 13 4 14 5 15 6 16 7 17 8 18 9 19 10 20 11
REMARK SMILES IDX 9 12 8 13 7 14 6 15 5 16 4 17 3 18 2 19 1 20
REMARK H PARENT
REMARK Flexibility Score: inf
ROOT
ATOM      1  C   UNL     1     168.593 163.278 151.934  1.00  0.00     0.000 C 
ENDROOT
BRANCH   1   2
ATOM      2  C   UNL     1     168.907 163.581 150.460  1.00  0.00     0.000 C 
BRANCH   2   3
ATOM      3  C   UNL     1     167.965 162.849 149.489  1.00  0.00     0.000 C 
BRANCH   3   4
ATOM      4  C   UNL     1     167.896 163.519 148.105  1.00  0.00     0.000 C 
BRANCH   4   5
ATOM      5  C   UNL     1     166.515 164.083 147.727  1.00  0.00     0.000 C 
BRANCH   5   6
ATOM      6  C   UNL     1     165.668 164.461 148.955  1.00  0.00     0.000 C 
BRANCH   6   7
ATOM      7  C   UNL     1     165.582 165.982 149.172  1.00  0.00     0.006 C 
BRANCH   7   8
ATOM      8  C   UNL     1     164.622 166.702 148.210  1.00  0.00     0.053 C 
BRANCH   8   9
ATOM      9  C   UNL     1     165.153 168.034 147.781  1.00  0.00     0.041 C 
ATOM     10  O   UNL     1     165.770 168.766 148.601  1.00  0.00    -0.550 OA
ATOM     11  O   UNL     1     164.941 168.483 146.484  1.00  0.00    -0.550 OA
ENDBRANCH   8   9
ENDBRANCH   7   8
ENDBRANCH   6   7
ENDBRANCH   5   6
ENDBRANCH   4   5
ENDBRANCH   3   4
ENDBRANCH   2   3
ENDBRANCH   1   2
BRANCH   1  12
ATOM     12  C   UNL     1     167.264 163.904 152.392  1.00  0.00     0.000 C 
BRANCH  12  13
ATOM     13  C   UNL     1     167.085 163.860 153.918  1.00  0.00    -0.000 C 
BRANCH  13  14
ATOM     14  C   UNL     1     166.434 162.550 154.399  1.00  0.00    -0.000 C 
BRANCH  14  15
ATOM     15  C   UNL     1     167.151 161.953 155.620  1.00  0.00    -0.000 C 
BRANCH  15  16
ATOM     16  C   UNL     1     166.247 161.018 156.442  1.00  0.00    -0.000 C 
BRANCH  16  17
ATOM     17  C   UNL     1     167.046 160.157 157.440  1.00  0.00    -0.000 C 
BRANCH  17  18
ATOM     18  C   UNL     1     167.580 160.937 158.657  1.00  0.00    -0.000 C 
BRANCH  18  19
ATOM     19  C   UNL     1     166.657 162.081 159.125  1.00  0.00    -0.003 C 
ATOM     20  C   UNL     1     167.346 163.445 159.078  1.00  0.00     0.004 C 
ENDBRANCH  18  19
ENDBRANCH  17  18
ENDBRANCH  16  17
ENDBRANCH  15  16
ENDBRANCH  14  15
ENDBRANCH  13  14
ENDBRANCH  12  13
ENDBRANCH   1  12
TORSDOF 16
ENDMDL
MODEL 2
REMARK VINA RESULT:    -3.719      3.568      8.091
REMARK INTER + INTRA:          -8.287
REMARK INTER:                  -7.015
REMARK INTRA:                  -1.273
REMARK UNBOUND:                -1.089
REMARK SMILES CCCCCCCCCCCCCCCCCC(=O)[O-]
REMARK SMILES IDX 10 1 11 2 12 3 13 4 14 5 15 6 16 7 17 8 18 9 19 10 20 11
REMARK SMILES IDX 9 12 8 13 7 14 6 15 5 16 4 17 3 18 2 19 1 20
REMARK H PARENT
REMARK Flexibility Score: inf
ROOT
ATOM      1  C   UNL     1     169.621 163.057 150.113  1.00  0.00     0.000 C 
ENDROOT
BRANCH   1   2
ATOM      2  C   UNL     1     169.276 163.185 151.605  1.00  0.00     0.000 C 
BRANCH   2   3
ATOM      3  C   UNL     1     168.010 164.023 151.851  1.00  0.00     0.000 C 
BRANCH   3   4
ATOM      4  C   UNL     1     167.018 163.338 152.809  1.00  0.00     0.000 C 
BRANCH   4   5
ATOM      5  C   UNL     1     166.943 163.959 154.215  1.00  0.00     0.000 C 
BRANCH   5   6
ATOM      6  C   UNL     1     167.112 165.487 154.203  1.00  0.00     0.000 C 
BRANCH   6   7
ATOM      7  C   UNL     1     167.097 166.099 155.615  1.00  0.00     0.006 C 
BRANCH   7   8
ATOM      8  C   UNL     1     166.145 167.296 155.772  1.00  0.00     0.053 C 
BRANCH   8   9
ATOM      9  C   UNL     1     166.884 168.563 156.073  1.00  0.00     0.041 C 
ATOM     10  O   UNL     1     166.881 169.037 157.241  1.00  0.00    -0.550 OA
ATOM     11  O   UNL     1     167.549 169.239 155.058  1.00  0.00    -0.550 OA
ENDBRANCH   8   9
ENDBRANCH   7   8
ENDBRANCH   6   7
ENDBRANCH   5   6
ENDBRANCH   4   5
ENDBRANCH   3   4
ENDBRANCH   2   3
ENDBRANCH   1   2
BRANCH   1  12
ATOM     12  C   UNL     1     168.436 162.540 149.278  1.00  0.00     0.000 C 
BRANCH  12  13
ATOM     13  C   UNL     1     168.284 163.287 147.943  1.00  0.00    -0.000 C 
BRANCH  13  14
ATOM     14  C   UNL     1     166.852 163.802 147.713  1.00  0.00    -0.000 C 
BRANCH  14  15
ATOM     15  C   UNL     1     165.995 163.739 148.987  1.00  0.00    -0.000 C 
BRANCH  15  16
ATOM     16  C   UNL     1     165.298 165.075 149.301  1.00  0.00    -0.000 C 
BRANCH  16  17
ATOM     17  C   UNL     1     165.610 166.160 148.251  1.00  0.00    -0.000 C 
BRANCH  17  18
ATOM     18  C   UNL     1     164.608 167.331 148.238  1.00  0.00    -0.000 C 
BRANCH  18  19
ATOM     19  C   UNL     1     165.219 168.676 147.795  1.00  0.00    -0.003 C 
ATOM     20  C   UNL     1     164.894 169.017 146.341  1.00  0.00     0.004 C 
ENDBRANCH  18  19
ENDBRANCH  17  18
ENDBRANCH  16  17
ENDBRANCH  15  16
ENDBRANCH  14  15
ENDBRANCH  13  14
ENDBRANCH  12  13
ENDBRANCH   1  12
TORSDOF 16
ENDMDL
MODEL 3
REMARK VINA RESULT:    -3.612      2.647      3.634
REMARK INTER + INTRA:          -8.079
REMARK INTER:                  -6.703
REMARK INTRA:                  -1.376
REMARK UNBOUND:                -1.089
REMARK SMILES CCCCCCCCCCCCCCCCCC(=O)[O-]
REMARK SMILES IDX 10 1 11 2 12 3 13 4 14 5 15 6 16 7 17 8 18 9 19 10 20 11
REMARK SMILES IDX 9 12 8 13 7 14 6 15 5 16 4 17 3 18 2 19 1 20
REMARK H PARENT
REMARK Flexibility Score: inf
ROOT
ATOM      1  C   UNL     1     169.823 162.935 150.205  1.00  0.00     0.000 C 
ENDROOT
BRANCH   1   2
ATOM      2  C   UNL     1     168.627 162.553 149.319  1.00  0.00     0.000 C 
BRANCH   2   3
ATOM      3  C   UNL     1     168.365 163.576 148.201  1.00  0.00     0.000 C 
BRANCH   3   4
ATOM      4  C   UNL     1     166.876 163.677 147.821  1.00  0.00     0.000 C 
BRANCH   4   5
ATOM      5  C   UNL     1     165.903 163.679 149.014  1.00  0.00     0.000 C 
BRANCH   5   6
ATOM      6  C   UNL     1     165.351 165.079 149.332  1.00  0.00     0.000 C 
BRANCH   6   7
ATOM      7  C   UNL     1     165.529 166.067 148.166  1.00  0.00     0.006 C 
BRANCH   7   8
ATOM      8  C   UNL     1     164.537 167.242 148.179  1.00  0.00     0.053 C 
BRANCH   8   9
ATOM      9  C   UNL     1     165.174 168.518 147.722  1.00  0.00     0.041 C 
ATOM     10  O   UNL     1     165.033 168.906 146.532  1.00  0.00    -0.550 OA
ATOM     11  O   UNL     1     165.948 169.264 148.602  1.00  0.00    -0.550 OA
ENDBRANCH   8   9
ENDBRANCH   7   8
ENDBRANCH   6   7
ENDBRANCH   5   6
ENDBRANCH   4   5
ENDBRANCH   3   4
ENDBRANCH   2   3
ENDBRANCH   1   2
BRANCH   1  12
ATOM     12  C   UNL     1     169.414 163.192 151.666  1.00  0.00     0.000 C 
BRANCH  12  13
ATOM     13  C   UNL     1     168.159 164.073 151.782  1.00  0.00    -0.000 C 
BRANCH  13  14
ATOM     14  C   UNL     1     167.079 163.448 152.684  1.00  0.00    -0.000 C 
BRANCH  14  15
ATOM     15  C   UNL     1     167.041 164.087 154.081  1.00  0.00    -0.000 C 
BRANCH  15  16
ATOM     16  C   UNL     1     167.101 165.624 154.033  1.00  0.00    -0.000 C 
BRANCH  16  17
ATOM     17  C   UNL     1     167.240 166.249 155.435  1.00  0.00    -0.000 C 
BRANCH  17  18
ATOM     18  C   UNL     1     166.033 167.105 155.865  1.00  0.00    -0.000 C 
BRANCH  18  19
ATOM     19  C   UNL     1     166.359 168.601 156.053  1.00  0.00    -0.003 C 
ATOM     20  C   UNL     1     167.544 169.055 155.200  1.00  0.00     0.004 C 
ENDBRANCH  18  19
ENDBRANCH  17  18
ENDBRANCH  16  17
ENDBRANCH  15  16
ENDBRANCH  14  15
ENDBRANCH  13  14
ENDBRANCH  12  13
ENDBRANCH   1  12
TORSDOF 16
ENDMDL
MODEL 4
REMARK VINA RESULT:    -3.515      0.837      1.720
REMARK INTER + INTRA:          -7.891
REMARK INTER:                  -6.887
REMARK INTRA:                  -1.004
REMARK UNBOUND:                -1.089
REMARK SMILES CCCCCCCCCCCCCCCCCC(=O)[O-]
REMARK SMILES IDX 10 1 11 2 12 3 13 4 14 5 15 6 16 7 17 8 18 9 19 10 20 11
REMARK SMILES IDX 9 12 8 13 7 14 6 15 5 16 4 17 3 18 2 19 1 20
REMARK H PARENT
REMARK Flexibility Score: inf
ROOT
ATOM      1  C   UNL     1     168.734 163.396 151.592  1.00  0.00     0.000 C 
ENDROOT
BRANCH   1   2
ATOM      2  C   UNL     1     169.085 163.032 150.140  1.00  0.00     0.000 C 
BRANCH   2   3
ATOM      3  C   UNL     1     167.839 162.868 149.252  1.00  0.00     0.000 C 
BRANCH   3   4
ATOM      4  C   UNL     1     167.998 163.534 147.873  1.00  0.00     0.000 C 
BRANCH   4   5
ATOM      5  C   UNL     1     166.726 164.214 147.334  1.00  0.00     0.000 C 
BRANCH   5   6
ATOM      6  C   UNL     1     165.650 164.411 148.415  1.00  0.00     0.000 C 
BRANCH   6   7
ATOM      7  C   UNL     1     165.601 165.854 148.948  1.00  0.00     0.006 C 
BRANCH   7   8
ATOM      8  C   UNL     1     164.544 166.740 148.269  1.00  0.00     0.053 C 
BRANCH   8   9
ATOM      9  C   UNL     1     165.122 168.036 147.792  1.00  0.00     0.041 C 
ATOM     10  O   UNL     1     164.930 168.418 146.607  1.00  0.00    -0.550 OA
ATOM     11  O   UNL     1     165.898 168.808 148.646  1.00  0.00    -0.550 OA
ENDBRANCH   8   9
ENDBRANCH   7   8
ENDBRANCH   6   7
ENDBRANCH   5   6
ENDBRANCH   4   5
ENDBRANCH   3   4
ENDBRANCH   2   3
ENDBRANCH   1   2
BRANCH   1  12
ATOM     12  C   UNL     1     167.474 164.275 151.688  1.00  0.00     0.000 C 
BRANCH  12  13
ATOM     13  C   UNL     1     166.935 164.378 153.124  1.00  0.00    -0.000 C 
BRANCH  13  14
ATOM     14  C   UNL     1     166.859 163.010 153.827  1.00  0.00    -0.000 C 
BRANCH  14  15
ATOM     15  C   UNL     1     167.301 163.081 155.296  1.00  0.00    -0.000 C 
BRANCH  15  16
ATOM     16  C   UNL     1     167.081 161.755 156.047  1.00  0.00    -0.000 C 
BRANCH  16  17
ATOM     17  C   UNL     1     167.339 161.889 157.561  1.00  0.00    -0.000 C 
BRANCH  17  18
ATOM     18  C   UNL     1     167.356 160.547 158.318  1.00  0.00    -0.000 C 
BRANCH  18  19
ATOM     19  C   UNL     1     166.483 159.450 157.675  1.00  0.00    -0.003 C 
ATOM     20  C   UNL     1     167.301 158.468 156.835  1.00  0.00     0.004 C 
ENDBRANCH  18  19
ENDBRANCH  17  18
ENDBRANCH  16  17
ENDBRANCH  15  16
ENDBRANCH  14  15
ENDBRANCH  13  14
ENDBRANCH  12  13
ENDBRANCH   1  12
TORSDOF 16
ENDMDL
MODEL 5
REMARK VINA RESULT:    -2.988      4.169      9.285
REMARK INTER + INTRA:          -6.872
REMARK INTER:                  -5.937
REMARK INTRA:                  -0.935
REMARK UNBOUND:                -1.089
REMARK SMILES CCCCCCCCCCCCCCCCCC(=O)[O-]
REMARK SMILES IDX 10 1 11 2 12 3 13 4 14 5 15 6 16 7 17 8 18 9 19 10 20 11
REMARK SMILES IDX 9 12 8 13 7 14 6 15 5 16 4 17 3 18 2 19 1 20
REMARK H PARENT
REMARK Flexibility Score: inf
ROOT
ATOM      1  C   UNL     1     169.281 163.464 151.433  1.00  0.00     0.000 C 
ENDROOT
BRANCH   1   2
ATOM      2  C   UNL     1     167.855 163.347 151.995  1.00  0.00     0.000 C 
BRANCH   2   3
ATOM      3  C   UNL     1     167.494 164.505 152.941  1.00  0.00     0.000 C 
BRANCH   3   4
ATOM      4  C   UNL     1     166.782 164.030 154.220  1.00  0.00     0.000 C 
BRANCH   4   5
ATOM      5  C   UNL     1     167.012 162.550 154.577  1.00  0.00     0.000 C 
BRANCH   5   6
ATOM      6  C   UNL     1     167.100 162.308 156.093  1.00  0.00     0.000 C 
BRANCH   6   7
ATOM      7  C   UNL     1     166.406 161.005 156.528  1.00  0.00     0.006 C 
BRANCH   7   8
ATOM      8  C   UNL     1     166.490 160.721 158.037  1.00  0.00     0.053 C 
BRANCH   8   9
ATOM      9  C   UNL     1     167.063 161.879 158.794  1.00  0.00     0.041 C 
ATOM     10  O   UNL     1     166.330 162.853 159.113  1.00  0.00    -0.550 OA
ATOM     11  O   UNL     1     168.412 161.897 159.122  1.00  0.00    -0.550 OA
ENDBRANCH   8   9
ENDBRANCH   7   8
ENDBRANCH   6   7
ENDBRANCH   5   6
ENDBRANCH   4   5
ENDBRANCH   3   4
ENDBRANCH   2   3
ENDBRANCH   1   2
BRANCH   1  12
ATOM     12  C   UNL     1     169.365 163.045 149.954  1.00  0.00     0.000 C 
BRANCH  12  13
ATOM     13  C   UNL     1     167.980 162.840 149.319  1.00  0.00    -0.000 C 
BRANCH  13  14
ATOM     14  C   UNL     1     167.812 163.622 148.003  1.00  0.00    -0.000 C 
BRANCH  14  15
ATOM     15  C   UNL     1     166.377 164.134 147.805  1.00  0.00    -0.000 C 
BRANCH  15  16
ATOM     16  C   UNL     1     165.654 164.407 149.136  1.00  0.00    -0.000 C 
BRANCH  16  17
ATOM     17  C   UNL     1     165.098 165.842 149.218  1.00  0.00    -0.000 C 
BRANCH  17  18
ATOM     18  C   UNL     1     165.020 166.566 147.859  1.00  0.00    -0.000 C 
BRANCH  18  19
ATOM     19  C   UNL     1     165.347 168.071 147.929  1.00  0.00    -0.003 C 
ATOM     20  C   UNL     1     164.929 168.821 146.663  1.00  0.00     0.004 C 
ENDBRANCH  18  19
ENDBRANCH  17  18
ENDBRANCH  16  17
ENDBRANCH  15  16
ENDBRANCH  14  15
ENDBRANCH  13  14
ENDBRANCH  12  13
ENDBRANCH   1  12
TORSDOF 16
ENDMDL
MODEL 6
REMARK VINA RESULT:    -2.415      4.484      9.355
REMARK INTER + INTRA:          -5.762
REMARK INTER:                  -4.691
REMARK INTRA:                  -1.071
REMARK UNBOUND:                -1.089
REMARK SMILES CCCCCCCCCCCCCCCCCC(=O)[O-]
REMARK SMILES IDX 10 1 11 2 12 3 13 4 14 5 15 6 16 7 17 8 18 9 19 10 20 11
REMARK SMILES IDX 9 12 8 13 7 14 6 15 5 16 4 17 3 18 2 19 1 20
REMARK H PARENT
REMARK Flexibility Score: inf
ROOT
ATOM      1  C   UNL     1     167.525 163.283 151.524  1.00  0.00     0.000 C 
ENDROOT
BRANCH   1   2
ATOM      2  C   UNL     1     167.120 164.278 152.623  1.00  0.00     0.000 C 
BRANCH   2   3
ATOM      3  C   UNL     1     167.182 163.664 154.032  1.00  0.00     0.000 C 
BRANCH   3   4
ATOM      4  C   UNL     1     166.075 162.623 154.279  1.00  0.00     0.000 C 
BRANCH   4   5
ATOM      5  C   UNL     1     166.374 161.617 155.405  1.00  0.00     0.000 C 
BRANCH   5   6
ATOM      6  C   UNL     1     167.206 162.227 156.546  1.00  0.00     0.000 C 
BRANCH   6   7
ATOM      7  C   UNL     1     167.120 161.410 157.847  1.00  0.00     0.006 C 
BRANCH   7   8
ATOM      8  C   UNL     1     166.471 160.026 157.680  1.00  0.00     0.053 C 
BRANCH   8   9
ATOM      9  C   UNL     1     167.431 159.019 157.126  1.00  0.00     0.041 C 
ATOM     10  O   UNL     1     168.672 159.227 157.187  1.00  0.00    -0.550 OA
ATOM     11  O   UNL     1     166.956 157.867 156.515  1.00  0.00    -0.550 OA
ENDBRANCH   8   9
ENDBRANCH   7   8
ENDBRANCH   6   7
ENDBRANCH   5   6
ENDBRANCH   4   5
ENDBRANCH   3   4
ENDBRANCH   2   3
ENDBRANCH   1   2
BRANCH   1  12
ATOM     12  C   UNL     1     168.985 163.469 151.074  1.00  0.00     0.000 C 
BRANCH  12  13
ATOM     13  C   UNL     1     169.183 163.180 149.577  1.00  0.00    -0.000 C 
BRANCH  13  14
ATOM     14  C   UNL     1     167.857 162.891 148.850  1.00  0.00    -0.000 C 
BRANCH  14  15
ATOM     15  C   UNL     1     167.771 163.594 147.487  1.00  0.00    -0.000 C 
BRANCH  15  16
ATOM     16  C   UNL     1     166.422 164.301 147.267  1.00  0.00    -0.000 C 
BRANCH  16  17
ATOM     17  C   UNL     1     165.648 164.509 148.584  1.00  0.00    -0.000 C 
BRANCH  17  18
ATOM     18  C   UNL     1     165.567 165.979 149.041  1.00  0.00    -0.000 C 
BRANCH  18  19
ATOM     19  C   UNL     1     164.613 166.848 148.197  1.00  0.00    -0.003 C 
ATOM     20  C   UNL     1     165.191 168.232 147.898  1.00  0.00     0.004 C 
ENDBRANCH  18  19
ENDBRANCH  17  18
ENDBRANCH  16  17
ENDBRANCH  15  16
ENDBRANCH  14  15
ENDBRANCH  13  14
ENDBRANCH  12  13
ENDBRANCH   1  12
TORSDOF 16
ENDMDL
MODEL 7
REMARK VINA RESULT:    -2.080     11.939     14.904
REMARK INTER + INTRA:          -5.114
REMARK INTER:                  -4.012
REMARK INTRA:                  -1.102
REMARK UNBOUND:                -1.089
REMARK SMILES CCCCCCCCCCCCCCCCCC(=O)[O-]
REMARK SMILES IDX 10 1 11 2 12 3 13 4 14 5 15 6 16 7 17 8 18 9 19 10 20 11
REMARK SMILES IDX 9 12 8 13 7 14 6 15 5 16 4 17 3 18 2 19 1 20
REMARK H PARENT
REMARK Flexibility Score: inf
ROOT
ATOM      1  C   UNL     1     156.769 164.024 155.031  1.00  0.00     0.000 C 
ENDROOT
BRANCH   1   2
ATOM      2  C   UNL     1     156.663 162.920 156.096  1.00  0.00     0.000 C 
BRANCH   2   3
ATOM      3  C   UNL     1     155.834 163.353 157.318  1.00  0.00     0.000 C 
BRANCH   3   4
ATOM      4  C   UNL     1     154.572 162.494 157.517  1.00  0.00     0.000 C 
BRANCH   4   5
ATOM      5  C   UNL     1     154.768 160.988 157.265  1.00  0.00     0.000 C 
BRANCH   5   6
ATOM      6  C   UNL     1     153.614 160.361 156.465  1.00  0.00     0.000 C 
BRANCH   6   7
ATOM      7  C   UNL     1     153.990 160.078 155.000  1.00  0.00     0.006 C 
BRANCH   7   8
ATOM      8  C   UNL     1     153.229 158.900 154.371  1.00  0.00     0.053 C 
BRANCH   8   9
ATOM      9  C   UNL     1     153.747 157.578 154.850  1.00  0.00     0.041 C 
ATOM     10  O   UNL     1     154.717 157.027 154.265  1.00  0.00    -0.550 OA
ATOM     11  O   UNL     1     153.138 156.940 155.923  1.00  0.00    -0.550 OA
ENDBRANCH   8   9
ENDBRANCH   7   8
ENDBRANCH   6   7
ENDBRANCH   5   6
ENDBRANCH   4   5
ENDBRANCH   3   4
ENDBRANCH   2   3
ENDBRANCH   1   2
BRANCH   1  12
ATOM     12  C   UNL     1     155.981 165.288 155.416  1.00  0.00     0.000 C 
BRANCH  12  13
ATOM     13  C   UNL     1     155.849 166.280 154.248  1.00  0.00    -0.000 C 
BRANCH  13  14
ATOM     14  C   UNL     1     156.209 167.721 154.653  1.00  0.00    -0.000 C 
BRANCH  14  15
ATOM     15  C   UNL     1     155.418 168.769 153.855  1.00  0.00    -0.000 C 
BRANCH  15  16
ATOM     16  C   UNL     1     154.272 168.150 153.035  1.00  0.00    -0.000 C 
BRANCH  16  17
ATOM     17  C   UNL     1     154.222 168.696 151.594  1.00  0.00    -0.000 C 
BRANCH  17  18
ATOM     18  C   UNL     1     155.549 168.559 150.822  1.00  0.00    -0.000 C 
BRANCH  18  19
ATOM     19  C   UNL     1     156.050 169.876 150.195  1.00  0.00    -0.003 C 
ATOM     20  C   UNL     1     157.573 169.924 150.072  1.00  0.00     0.004 C 
ENDBRANCH  18  19
ENDBRANCH  17  18
ENDBRANCH  16  17
ENDBRANCH  15  16
ENDBRANCH  14  15
ENDBRANCH  13  14
ENDBRANCH  12  13
ENDBRANCH   1  12
TORSDOF 16
ENDMDL
MODEL 8
REMARK VINA RESULT:    -1.971      1.175      2.261
REMARK INTER + INTRA:          -4.903
REMARK INTER:                  -3.783
REMARK INTRA:                  -1.120
REMARK UNBOUND:                -1.089
REMARK SMILES CCCCCCCCCCCCCCCCCC(=O)[O-]
REMARK SMILES IDX 10 1 11 2 12 3 13 4 14 5 15 6 16 7 17 8 18 9 19 10 20 11
REMARK SMILES IDX 9 12 8 13 7 14 6 15 5 16 4 17 3 18 2 19 1 20
REMARK H PARENT
REMARK Flexibility Score: inf
ROOT
ATOM      1  C   UNL     1     167.584 163.449 153.368  1.00  0.00     0.000 C 
ENDROOT
BRANCH   1   2
ATOM      2  C   UNL     1     167.768 164.095 151.985  1.00  0.00     0.000 C 
BRANCH   2   3
ATOM      3  C   UNL     1     169.014 163.575 151.248  1.00  0.00     0.000 C 
BRANCH   3   4
ATOM      4  C   UNL     1     168.727 163.200 149.783  1.00  0.00     0.000 C 
BRANCH   4   5
ATOM      5  C   UNL     1     167.258 162.854 149.479  1.00  0.00     0.000 C 
BRANCH   5   6
ATOM      6  C   UNL     1     166.650 163.741 148.380  1.00  0.00     0.000 C 
BRANCH   6   7
ATOM      7  C   UNL     1     165.651 164.772 148.933  1.00  0.00     0.006 C 
BRANCH   7   8
ATOM      8  C   UNL     1     166.025 166.233 148.636  1.00  0.00     0.053 C 
BRANCH   8   9
ATOM      9  C   UNL     1     164.826 167.060 148.289  1.00  0.00     0.041 C 
ATOM     10  O   UNL     1     164.952 168.097 147.584  1.00  0.00    -0.550 OA
ATOM     11  O   UNL     1     163.572 166.703 148.769  1.00  0.00    -0.550 OA
ENDBRANCH   8   9
ENDBRANCH   7   8
ENDBRANCH   6   7
ENDBRANCH   5   6
ENDBRANCH   4   5
ENDBRANCH   3   4
ENDBRANCH   2   3
ENDBRANCH   1   2
BRANCH   1  12
ATOM     12  C   UNL     1     166.177 162.854 153.555  1.00  0.00     0.000 C 
BRANCH  12  13
ATOM     13  C   UNL     1     166.025 162.107 154.890  1.00  0.00    -0.000 C 
BRANCH  13  14
ATOM     14  C   UNL     1     167.314 162.130 155.731  1.00  0.00    -0.000 C 
BRANCH  14  15
ATOM     15  C   UNL     1     167.149 162.926 157.035  1.00  0.00    -0.000 C 
BRANCH  15  16
ATOM     16  C   UNL     1     167.443 162.082 158.288  1.00  0.00    -0.000 C 
BRANCH  16  17
ATOM     17  C   UNL     1     166.179 161.395 158.841  1.00  0.00    -0.000 C 
BRANCH  17  18
ATOM     18  C   UNL     1     166.265 159.857 158.883  1.00  0.00    -0.000 C 
BRANCH  18  19
ATOM     19  C   UNL     1     166.438 159.199 157.499  1.00  0.00    -0.003 C 
ATOM     20  C   UNL     1     167.907 159.018 157.115  1.00  0.00     0.004 C 
ENDBRANCH  18  19
ENDBRANCH  17  18
ENDBRANCH  16  17
ENDBRANCH  15  16
ENDBRANCH  14  15
ENDBRANCH  13  14
ENDBRANCH  12  13
ENDBRANCH   1  12
TORSDOF 16
ENDMDL
MODEL 9
REMARK VINA RESULT:    -1.947      1.583      2.681
REMARK INTER + INTRA:          -4.858
REMARK INTER:                  -3.752
REMARK INTRA:                  -1.105
REMARK UNBOUND:                -1.089
REMARK SMILES CCCCCCCCCCCCCCCCCC(=O)[O-]
REMARK SMILES IDX 10 1 11 2 12 3 13 4 14 5 15 6 16 7 17 8 18 9 19 10 20 11
REMARK SMILES IDX 9 12 8 13 7 14 6 15 5 16 4 17 3 18 2 19 1 20
REMARK H PARENT
REMARK Flexibility Score: inf
ROOT
ATOM      1  C   UNL     1     166.817 163.980 153.860  1.00  0.00     0.000 C 
ENDROOT
BRANCH   1   2
ATOM      2  C   UNL     1     167.373 163.198 152.659  1.00  0.00     0.000 C 
BRANCH   2   3
ATOM      3  C   UNL     1     168.238 164.070 151.733  1.00  0.00     0.000 C 
BRANCH   3   4
ATOM      4  C   UNL     1     168.144 163.645 150.255  1.00  0.00     0.000 C 
BRANCH   4   5
ATOM      5  C   UNL     1     166.711 163.513 149.710  1.00  0.00     0.000 C 
BRANCH   5   6
ATOM      6  C   UNL     1     166.641 163.633 148.179  1.00  0.00     0.000 C 
BRANCH   6   7
ATOM      7  C   UNL     1     166.042 164.973 147.715  1.00  0.00     0.006 C 
BRANCH   7   8
ATOM      8  C   UNL     1     165.553 165.874 148.860  1.00  0.00     0.053 C 
BRANCH   8   9
ATOM      9  C   UNL     1     164.579 166.907 148.384  1.00  0.00     0.041 C 
ATOM     10  O   UNL     1     163.360 166.816 148.686  1.00  0.00    -0.550 OA
ATOM     11  O   UNL     1     165.012 167.954 147.581  1.00  0.00    -0.550 OA
ENDBRANCH   8   9
ENDBRANCH   7   8
ENDBRANCH   6   7
ENDBRANCH   5   6
ENDBRANCH   4   5
ENDBRANCH   3   4
ENDBRANCH   2   3
ENDBRANCH   1   2
BRANCH   1  12
ATOM     12  C   UNL     1     167.181 165.474 153.807  1.00  0.00     0.000 C 
BRANCH  12  13
ATOM     13  C   UNL     1     166.730 166.237 155.063  1.00  0.00    -0.000 C 
BRANCH  13  14
ATOM     14  C   UNL     1     167.809 166.260 156.160  1.00  0.00    -0.000 C 
BRANCH  14  15
ATOM     15  C   UNL     1     167.338 165.591 157.460  1.00  0.00    -0.000 C 
BRANCH  15  16
ATOM     16  C   UNL     1     167.647 164.084 157.498  1.00  0.00    -0.000 C 
BRANCH  16  17
ATOM     17  C   UNL     1     167.460 163.482 158.905  1.00  0.00    -0.000 C 
BRANCH  17  18
ATOM     18  C   UNL     1     167.223 161.959 158.912  1.00  0.00    -0.000 C 
BRANCH  18  19
ATOM     19  C   UNL     1     167.010 161.349 157.512  1.00  0.00    -0.003 C 
ATOM     20  C   UNL     1     167.223 159.835 157.493  1.00  0.00     0.004 C 
ENDBRANCH  18  19
ENDBRANCH  17  18
ENDBRANCH  16  17
ENDBRANCH  15  16
ENDBRANCH  14  15
ENDBRANCH  13  14
ENDBRANCH  12  13
ENDBRANCH   1  12
TORSDOF 16
ENDMDL
