MODEL 1
REMARK VINA RESULT:    -7.155      0.000      0.000
REMARK INTER + INTRA:          -9.032
REMARK INTER:                  -8.619
REMARK INTRA:                  -0.413
REMARK UNBOUND:                -0.413
REMARK SMILES O=c1c(O)c(-c2ccc(O)cc2O)oc2cc(O)cc(O)c12
REMARK SMILES IDX 5 1 3 2 2 3 1 4 22 5 20 6 19 7 17 8 16 9 15 10 14 11 6 12
REMARK SMILES IDX 8 13 7 14 9 15 11 16 12 17 10 18 13 20 4 22 21 24 18 26
REMARK H PARENT 10 19 13 21 4 23 21 25 18 27
REMARK Flexibility Score: inf
ROOT
ATOM      1  C   UNL     1      19.691  -4.052  22.096  1.00  0.00     0.184 A 
ATOM      2  C   UNL     1      21.027  -4.454  22.278  1.00  0.00     0.208 A 
ATOM      3  C   UNL     1      21.302  -5.811  22.503  1.00  0.00     0.238 A 
ATOM      4  O   UNL     1      22.495  -6.183  22.670  1.00  0.00    -0.285 OA
ATOM      5  C   UNL     1      20.242  -6.740  22.533  1.00  0.00     0.111 A 
ATOM      6  C   UNL     1      20.433  -8.126  22.752  1.00  0.00     0.134 A 
ATOM      7  C   UNL     1      19.326  -8.987  22.765  1.00  0.00     0.093 A 
ATOM      8  C   UNL     1      18.034  -8.492  22.565  1.00  0.00     0.123 A 
ATOM      9  C   UNL     1      17.839  -7.124  22.350  1.00  0.00     0.094 A 
ATOM     10  C   UNL     1      18.929  -6.249  22.334  1.00  0.00     0.146 A 
ATOM     11  O   UNL     1      18.715  -4.954  22.129  1.00  0.00    -0.451 OA
ENDROOT
BRANCH   1  12
ATOM     12  C   UNL     1      19.338  -2.634  21.873  1.00  0.00     0.063 A 
ATOM     13  C   UNL     1      18.553  -0.514  22.777  1.00  0.00     0.047 A 
ATOM     14  C   UNL     1      18.945  -1.841  22.967  1.00  0.00     0.020 A 
ATOM     15  C   UNL     1      18.542   0.038  21.492  1.00  0.00     0.119 A 
ATOM     16  C   UNL     1      18.930  -0.741  20.398  1.00  0.00     0.093 A 
ATOM     17  C   UNL     1      19.334  -2.070  20.576  1.00  0.00     0.130 A 
BRANCH  15  18
ATOM     18  O   UNL     1      18.149   1.359  21.289  1.00  0.00    -0.508 OA
ATOM     19  H   UNL     1      18.339   2.079  21.976  1.00  0.00     0.293 HD
ENDBRANCH  15  18
BRANCH  17  20
ATOM     20  O   UNL     1      19.744  -2.791  19.453  1.00  0.00    -0.507 OA
ATOM     21  H   UNL     1      19.883  -2.366  18.545  1.00  0.00     0.293 HD
ENDBRANCH  17  20
ENDBRANCH   1  12
BRANCH   2  22
ATOM     22  O   UNL     1      22.056  -3.510  22.217  1.00  0.00    -0.502 OA
ATOM     23  H   UNL     1      22.994  -3.711  22.543  1.00  0.00     0.293 HD
ENDBRANCH   2  22
BRANCH   6  24
ATOM     24  O   UNL     1      21.709  -8.652  22.954  1.00  0.00    -0.507 OA
ATOM     25  H   UNL     1      22.227  -9.098  22.205  1.00  0.00     0.293 HD
ENDBRANCH   6  24
BRANCH   8  26
ATOM     26  O   UNL     1      16.952  -9.369  22.583  1.00  0.00    -0.508 OA
ATOM     27  H   UNL     1      16.325  -9.421  23.377  1.00  0.00     0.293 HD
ENDBRANCH   8  26
TORSDOF 6
ENDMDL
MODEL 2
REMARK VINA RESULT:    -7.032      1.624      6.922
REMARK INTER + INTRA:          -8.884
REMARK INTER:                  -8.505
REMARK INTRA:                  -0.379
REMARK UNBOUND:                -0.413
REMARK SMILES O=c1c(O)c(-c2ccc(O)cc2O)oc2cc(O)cc(O)c12
REMARK SMILES IDX 5 1 3 2 2 3 1 4 22 5 20 6 19 7 17 8 16 9 15 10 14 11 6 12
REMARK SMILES IDX 8 13 7 14 9 15 11 16 12 17 10 18 13 20 4 22 21 24 18 26
REMARK H PARENT 10 19 13 21 4 23 21 25 18 27
REMARK Flexibility Score: inf
ROOT
ATOM      1  C   UNL     1      19.549  -3.077  22.271  1.00  0.00     0.184 A 
ATOM      2  C   UNL     1      19.464  -2.433  21.024  1.00  0.00     0.208 A 
ATOM      3  C   UNL     1      18.884  -1.157  20.959  1.00  0.00     0.238 A 
ATOM      4  O   UNL     1      18.799  -0.570  19.846  1.00  0.00    -0.285 OA
ATOM      5  C   UNL     1      18.410  -0.547  22.138  1.00  0.00     0.111 A 
ATOM      6  C   UNL     1      17.816   0.738  22.161  1.00  0.00     0.134 A 
ATOM      7  C   UNL     1      17.371   1.278  23.377  1.00  0.00     0.093 A 
ATOM      8  C   UNL     1      17.508   0.560  24.568  1.00  0.00     0.123 A 
ATOM      9  C   UNL     1      18.094  -0.709  24.552  1.00  0.00     0.094 A 
ATOM     10  C   UNL     1      18.543  -1.265  23.351  1.00  0.00     0.146 A 
ATOM     11  O   UNL     1      19.094  -2.474  23.364  1.00  0.00    -0.451 OA
ENDROOT
BRANCH   1  12
ATOM     12  C   UNL     1      20.132  -4.430  22.399  1.00  0.00     0.063 A 
ATOM     13  C   UNL     1      22.104  -5.859  22.408  1.00  0.00     0.047 A 
ATOM     14  C   UNL     1      21.529  -4.587  22.346  1.00  0.00     0.020 A 
ATOM     15  C   UNL     1      21.291  -6.991  22.518  1.00  0.00     0.119 A 
ATOM     16  C   UNL     1      19.902  -6.847  22.570  1.00  0.00     0.093 A 
ATOM     17  C   UNL     1      19.314  -5.577  22.518  1.00  0.00     0.130 A 
BRANCH  15  18
ATOM     18  O   UNL     1      21.853  -8.265  22.576  1.00  0.00    -0.508 OA
ATOM     19  H   UNL     1      21.849  -8.883  21.773  1.00  0.00     0.293 HD
ENDBRANCH  15  18
BRANCH  17  20
ATOM     20  O   UNL     1      17.923  -5.490  22.609  1.00  0.00    -0.507 OA
ATOM     21  H   UNL     1      17.347  -5.089  21.881  1.00  0.00     0.293 HD
ENDBRANCH  17  20
ENDBRANCH   1  12
BRANCH   2  22
ATOM     22  O   UNL     1      19.966  -3.056  19.878  1.00  0.00    -0.502 OA
ATOM     23  H   UNL     1      20.782  -2.710  19.389  1.00  0.00     0.293 HD
ENDBRANCH   2  22
BRANCH   6  24
ATOM     24  O   UNL     1      17.664   1.480  20.989  1.00  0.00    -0.507 OA
ATOM     25  H   UNL     1      18.456   1.909  20.524  1.00  0.00     0.293 HD
ENDBRANCH   6  24
BRANCH   8  26
ATOM     26  O   UNL     1      17.058   1.120  25.762  1.00  0.00    -0.508 OA
ATOM     27  H   UNL     1      17.399   0.797  26.660  1.00  0.00     0.293 HD
ENDBRANCH   8  26
TORSDOF 6
ENDMDL
MODEL 3
REMARK VINA RESULT:    -6.795     12.313     14.340
REMARK INTER + INTRA:          -8.598
REMARK INTER:                  -8.587
REMARK INTRA:                  -0.010
REMARK UNBOUND:                -0.413
REMARK SMILES O=c1c(O)c(-c2ccc(O)cc2O)oc2cc(O)cc(O)c12
REMARK SMILES IDX 5 1 3 2 2 3 1 4 22 5 20 6 19 7 17 8 16 9 15 10 14 11 6 12
REMARK SMILES IDX 8 13 7 14 9 15 11 16 12 17 10 18 13 20 4 22 21 24 18 26
REMARK H PARENT 10 19 13 21 4 23 21 25 18 27
REMARK Flexibility Score: inf
ROOT
ATOM      1  C   UNL     1      22.812   6.530  14.520  1.00  0.00     0.184 A 
ATOM      2  C   UNL     1      22.465   7.441  13.506  1.00  0.00     0.208 A 
ATOM      3  C   UNL     1      21.701   6.987  12.420  1.00  0.00     0.238 A 
ATOM      4  O   UNL     1      21.385   7.794  11.504  1.00  0.00    -0.285 OA
ATOM      5  C   UNL     1      21.293   5.639  12.372  1.00  0.00     0.111 A 
ATOM      6  C   UNL     1      20.519   5.102  11.315  1.00  0.00     0.134 A 
ATOM      7  C   UNL     1      20.150   3.748  11.340  1.00  0.00     0.093 A 
ATOM      8  C   UNL     1      20.539   2.923  12.399  1.00  0.00     0.123 A 
ATOM      9  C   UNL     1      21.304   3.448  13.446  1.00  0.00     0.094 A 
ATOM     10  C   UNL     1      21.682   4.793  13.439  1.00  0.00     0.146 A 
ATOM     11  O   UNL     1      22.411   5.266  14.444  1.00  0.00    -0.451 OA
ENDROOT
BRANCH   1  12
ATOM     12  C   UNL     1      23.631   6.945  15.679  1.00  0.00     0.063 A 
ATOM     13  C   UNL     1      24.196   8.640  17.333  1.00  0.00     0.047 A 
ATOM     14  C   UNL     1      23.401   8.200  16.272  1.00  0.00     0.020 A 
ATOM     15  C   UNL     1      25.237   7.837  17.810  1.00  0.00     0.119 A 
ATOM     16  C   UNL     1      25.475   6.590  17.227  1.00  0.00     0.093 A 
ATOM     17  C   UNL     1      24.679   6.132  16.170  1.00  0.00     0.130 A 
BRANCH  15  18
ATOM     18  O   UNL     1      26.040   8.268  18.865  1.00  0.00    -0.508 OA
ATOM     19  H   UNL     1      25.827   9.113  19.381  1.00  0.00     0.293 HD
ENDBRANCH  15  18
BRANCH  17  20
ATOM     20  O   UNL     1      24.940   4.864  15.648  1.00  0.00    -0.507 OA
ATOM     21  H   UNL     1      25.873   4.539  15.428  1.00  0.00     0.293 HD
ENDBRANCH  17  20
ENDBRANCH   1  12
BRANCH   2  22
ATOM     22  O   UNL     1      22.865   8.777  13.598  1.00  0.00    -0.502 OA
ATOM     23  H   UNL     1      23.377   9.240  12.857  1.00  0.00     0.293 HD
ENDBRANCH   2  22
BRANCH   6  24
ATOM     24  O   UNL     1      20.114   5.899  10.243  1.00  0.00    -0.507 OA
ATOM     25  H   UNL     1      19.932   5.508   9.327  1.00  0.00     0.293 HD
ENDBRANCH   6  24
BRANCH   8  26
ATOM     26  O   UNL     1      20.158   1.583  12.401  1.00  0.00    -0.508 OA
ATOM     27  H   UNL     1      20.752   0.865  12.797  1.00  0.00     0.293 HD
ENDBRANCH   8  26
TORSDOF 6
ENDMDL
MODEL 4
REMARK VINA RESULT:    -6.553     10.531     12.836
REMARK INTER + INTRA:          -8.306
REMARK INTER:                  -8.012
REMARK INTRA:                  -0.294
REMARK UNBOUND:                -0.413
REMARK SMILES O=c1c(O)c(-c2ccc(O)cc2O)oc2cc(O)cc(O)c12
REMARK SMILES IDX 5 1 3 2 2 3 1 4 22 5 20 6 19 7 17 8 16 9 15 10 14 11 6 12
REMARK SMILES IDX 8 13 7 14 9 15 11 16 12 17 10 18 13 20 4 22 21 24 18 26
REMARK H PARENT 10 19 13 21 4 23 21 25 18 27
REMARK Flexibility Score: inf
ROOT
ATOM      1  C   UNL     1      24.023  -0.534  12.619  1.00  0.00     0.184 A 
ATOM      2  C   UNL     1      22.682  -0.589  12.200  1.00  0.00     0.208 A 
ATOM      3  C   UNL     1      21.784   0.380  12.673  1.00  0.00     0.238 A 
ATOM      4  O   UNL     1      20.578   0.340  12.306  1.00  0.00    -0.285 OA
ATOM      5  C   UNL     1      22.244   1.387  13.546  1.00  0.00     0.111 A 
ATOM      6  C   UNL     1      21.405   2.402  14.066  1.00  0.00     0.134 A 
ATOM      7  C   UNL     1      21.938   3.371  14.929  1.00  0.00     0.093 A 
ATOM      8  C   UNL     1      23.290   3.346  15.281  1.00  0.00     0.123 A 
ATOM      9  C   UNL     1      24.123   2.345  14.771  1.00  0.00     0.094 A 
ATOM     10  C   UNL     1      23.611   1.370  13.911  1.00  0.00     0.146 A 
ATOM     11  O   UNL     1      24.424   0.429  13.443  1.00  0.00    -0.451 OA
ENDROOT
BRANCH   1  12
ATOM     12  C   UNL     1      25.011  -1.538  12.170  1.00  0.00     0.063 A 
ATOM     13  C   UNL     1      26.945  -2.092  10.799  1.00  0.00     0.047 A 
ATOM     14  C   UNL     1      26.032  -1.152  11.283  1.00  0.00     0.020 A 
ATOM     15  C   UNL     1      26.846  -3.432  11.188  1.00  0.00     0.119 A 
ATOM     16  C   UNL     1      25.835  -3.826  12.068  1.00  0.00     0.093 A 
ATOM     17  C   UNL     1      24.919  -2.892  12.568  1.00  0.00     0.130 A 
BRANCH  15  18
ATOM     18  O   UNL     1      27.749  -4.379  10.708  1.00  0.00    -0.508 OA
ATOM     19  H   UNL     1      28.598  -4.605  11.213  1.00  0.00     0.293 HD
ENDBRANCH  15  18
BRANCH  17  20
ATOM     20  O   UNL     1      23.951  -3.336  13.470  1.00  0.00    -0.507 OA
ATOM     21  H   UNL     1      24.176  -3.703  14.385  1.00  0.00     0.293 HD
ENDBRANCH  17  20
ENDBRANCH   1  12
BRANCH   2  22
ATOM     22  O   UNL     1      22.266  -1.586  11.314  1.00  0.00    -0.502 OA
ATOM     23  H   UNL     1      22.546  -1.596  10.341  1.00  0.00     0.293 HD
ENDBRANCH   2  22
BRANCH   6  24
ATOM     24  O   UNL     1      20.051   2.456  13.733  1.00  0.00    -0.507 OA
ATOM     25  H   UNL     1      19.562   1.653  13.356  1.00  0.00     0.293 HD
ENDBRANCH   6  24
BRANCH   8  26
ATOM     26  O   UNL     1      23.795   4.321  16.139  1.00  0.00    -0.508 OA
ATOM     27  H   UNL     1      23.538   4.348  17.119  1.00  0.00     0.293 HD
ENDBRANCH   8  26
TORSDOF 6
ENDMDL
MODEL 5
REMARK VINA RESULT:    -6.475     12.727     15.529
REMARK INTER + INTRA:          -8.212
REMARK INTER:                  -7.821
REMARK INTRA:                  -0.392
REMARK UNBOUND:                -0.413
REMARK SMILES O=c1c(O)c(-c2ccc(O)cc2O)oc2cc(O)cc(O)c12
REMARK SMILES IDX 5 1 3 2 2 3 1 4 22 5 20 6 19 7 17 8 16 9 15 10 14 11 6 12
REMARK SMILES IDX 8 13 7 14 9 15 11 16 12 17 10 18 13 20 4 22 21 24 18 26
REMARK H PARENT 10 19 13 21 4 23 21 25 18 27
REMARK Flexibility Score: inf
ROOT
ATOM      1  C   UNL     1      21.317   6.953  12.480  1.00  0.00     0.184 A 
ATOM      2  C   UNL     1      21.243   5.577  12.761  1.00  0.00     0.208 A 
ATOM      3  C   UNL     1      21.988   5.063  13.834  1.00  0.00     0.238 A 
ATOM      4  O   UNL     1      21.931   3.830  14.094  1.00  0.00    -0.285 OA
ATOM      5  C   UNL     1      22.783   5.932  14.607  1.00  0.00     0.111 A 
ATOM      6  C   UNL     1      23.562   5.496  15.706  1.00  0.00     0.134 A 
ATOM      7  C   UNL     1      24.327   6.424  16.429  1.00  0.00     0.093 A 
ATOM      8  C   UNL     1      24.329   7.776  16.076  1.00  0.00     0.123 A 
ATOM      9  C   UNL     1      23.562   8.212  14.991  1.00  0.00     0.094 A 
ATOM     10  C   UNL     1      22.794   7.304  14.257  1.00  0.00     0.146 A 
ATOM     11  O   UNL     1      22.077   7.745  13.230  1.00  0.00    -0.451 OA
ENDROOT
BRANCH   1  12
ATOM     12  C   UNL     1      20.570   7.548  11.352  1.00  0.00     0.063 A 
ATOM     13  C   UNL     1      20.468   8.117   8.987  1.00  0.00     0.047 A 
ATOM     14  C   UNL     1      21.127   7.513  10.060  1.00  0.00     0.020 A 
ATOM     15  C   UNL     1      19.248   8.770   9.189  1.00  0.00     0.119 A 
ATOM     16  C   UNL     1      18.687   8.812  10.468  1.00  0.00     0.093 A 
ATOM     17  C   UNL     1      19.332   8.202  11.551  1.00  0.00     0.130 A 
BRANCH  15  18
ATOM     18  O   UNL     1      18.584   9.380   8.127  1.00  0.00    -0.508 OA
ATOM     19  H   UNL     1      18.961  10.201   7.668  1.00  0.00     0.293 HD
ENDBRANCH  15  18
BRANCH  17  20
ATOM     20  O   UNL     1      18.709   8.245  12.800  1.00  0.00    -0.507 OA
ATOM     21  H   UNL     1      18.062   7.535  13.119  1.00  0.00     0.293 HD
ENDBRANCH  17  20
ENDBRANCH   1  12
BRANCH   2  22
ATOM     22  O   UNL     1      20.425   4.748  11.989  1.00  0.00    -0.502 OA
ATOM     23  H   UNL     1      20.042   3.881  12.347  1.00  0.00     0.293 HD
ENDBRANCH   2  22
BRANCH   6  24
ATOM     24  O   UNL     1      23.582   4.153  16.085  1.00  0.00    -0.507 OA
ATOM     25  H   UNL     1      24.219   3.489  15.662  1.00  0.00     0.293 HD
ENDBRANCH   6  24
BRANCH   8  26
ATOM     26  O   UNL     1      25.096   8.677  16.811  1.00  0.00    -0.508 OA
ATOM     27  H   UNL     1      24.723   9.149  17.625  1.00  0.00     0.293 HD
ENDBRANCH   8  26
TORSDOF 6
ENDMDL
MODEL 6
REMARK VINA RESULT:    -6.455     10.924     14.146
REMARK INTER + INTRA:          -8.188
REMARK INTER:                  -7.971
REMARK INTRA:                  -0.217
REMARK UNBOUND:                -0.413
REMARK SMILES O=c1c(O)c(-c2ccc(O)cc2O)oc2cc(O)cc(O)c12
REMARK SMILES IDX 5 1 3 2 2 3 1 4 22 5 20 6 19 7 17 8 16 9 15 10 14 11 6 12
REMARK SMILES IDX 8 13 7 14 9 15 11 16 12 17 10 18 13 20 4 22 21 24 18 26
REMARK H PARENT 10 19 13 21 4 23 21 25 18 27
REMARK Flexibility Score: inf
ROOT
ATOM      1  C   UNL     1      22.751   3.976  13.842  1.00  0.00     0.184 A 
ATOM      2  C   UNL     1      22.016   4.976  13.180  1.00  0.00     0.208 A 
ATOM      3  C   UNL     1      22.186   6.313  13.571  1.00  0.00     0.238 A 
ATOM      4  O   UNL     1      21.530   7.218  12.987  1.00  0.00    -0.285 OA
ATOM      5  C   UNL     1      23.091   6.626  14.606  1.00  0.00     0.111 A 
ATOM      6  C   UNL     1      23.324   7.947  15.058  1.00  0.00     0.134 A 
ATOM      7  C   UNL     1      24.243   8.177  16.092  1.00  0.00     0.093 A 
ATOM      8  C   UNL     1      24.933   7.115  16.682  1.00  0.00     0.123 A 
ATOM      9  C   UNL     1      24.707   5.808  16.240  1.00  0.00     0.094 A 
ATOM     10  C   UNL     1      23.795   5.557  15.211  1.00  0.00     0.146 A 
ATOM     11  O   UNL     1      23.598   4.305  14.813  1.00  0.00    -0.451 OA
ENDROOT
BRANCH   1  12
ATOM     12  C   UNL     1      22.601   2.549  13.487  1.00  0.00     0.063 A 
ATOM     13  C   UNL     1      23.578   0.510  12.584  1.00  0.00     0.047 A 
ATOM     14  C   UNL     1      23.707   1.844  12.979  1.00  0.00     0.020 A 
ATOM     15  C   UNL     1      22.341  -0.135  12.684  1.00  0.00     0.119 A 
ATOM     16  C   UNL     1      21.236   0.557  13.186  1.00  0.00     0.093 A 
ATOM     17  C   UNL     1      21.354   1.891  13.594  1.00  0.00     0.130 A 
BRANCH  15  18
ATOM     18  O   UNL     1      22.200  -1.464  12.289  1.00  0.00    -0.508 OA
ATOM     19  H   UNL     1      21.287  -1.879  12.144  1.00  0.00     0.293 HD
ENDBRANCH  15  18
BRANCH  17  20
ATOM     20  O   UNL     1      20.224   2.522  14.120  1.00  0.00    -0.507 OA
ATOM     21  H   UNL     1      20.049   2.602  15.113  1.00  0.00     0.293 HD
ENDBRANCH  17  20
ENDBRANCH   1  12
BRANCH   2  22
ATOM     22  O   UNL     1      21.145   4.633  12.142  1.00  0.00    -0.502 OA
ATOM     23  H   UNL     1      21.311   3.838  11.538  1.00  0.00     0.293 HD
ENDBRANCH   2  22
BRANCH   6  24
ATOM     24  O   UNL     1      22.651   9.030  14.489  1.00  0.00    -0.507 OA
ATOM     25  H   UNL     1      22.198   9.735  15.058  1.00  0.00     0.293 HD
ENDBRANCH   6  24
BRANCH   8  26
ATOM     26  O   UNL     1      25.842   7.371  17.707  1.00  0.00    -0.508 OA
ATOM     27  H   UNL     1      26.337   8.253  17.767  1.00  0.00     0.293 HD
ENDBRANCH   8  26
TORSDOF 6
ENDMDL
MODEL 7
REMARK VINA RESULT:    -6.427     11.056     15.169
REMARK INTER + INTRA:          -8.154
REMARK INTER:                  -7.863
REMARK INTRA:                  -0.291
REMARK UNBOUND:                -0.413
REMARK SMILES O=c1c(O)c(-c2ccc(O)cc2O)oc2cc(O)cc(O)c12
REMARK SMILES IDX 5 1 3 2 2 3 1 4 22 5 20 6 19 7 17 8 16 9 15 10 14 11 6 12
REMARK SMILES IDX 8 13 7 14 9 15 11 16 12 17 10 18 13 20 4 22 21 24 18 26
REMARK H PARENT 10 19 13 21 4 23 21 25 18 27
REMARK Flexibility Score: inf
ROOT
ATOM      1  C   UNL     1      21.950   4.726  12.984  1.00  0.00     0.184 A 
ATOM      2  C   UNL     1      20.945   5.183  12.113  1.00  0.00     0.208 A 
ATOM      3  C   UNL     1      20.591   6.541  12.140  1.00  0.00     0.238 A 
ATOM      4  O   UNL     1      19.689   6.962  11.366  1.00  0.00    -0.285 OA
ATOM      5  C   UNL     1      21.252   7.414  13.027  1.00  0.00     0.111 A 
ATOM      6  C   UNL     1      20.958   8.797  13.115  1.00  0.00     0.134 A 
ATOM      7  C   UNL     1      21.663   9.602  14.022  1.00  0.00     0.093 A 
ATOM      8  C   UNL     1      22.653   9.054  14.841  1.00  0.00     0.123 A 
ATOM      9  C   UNL     1      22.948   7.690  14.759  1.00  0.00     0.094 A 
ATOM     10  C   UNL     1      22.257   6.870  13.863  1.00  0.00     0.146 A 
ATOM     11  O   UNL     1      22.555   5.577  13.807  1.00  0.00    -0.451 OA
ENDROOT
BRANCH   1  12
ATOM     12  C   UNL     1      22.353   3.304  13.014  1.00  0.00     0.063 A 
ATOM     13  C   UNL     1      24.010   1.594  12.506  1.00  0.00     0.047 A 
ATOM     14  C   UNL     1      23.626   2.937  12.541  1.00  0.00     0.020 A 
ATOM     15  C   UNL     1      23.127   0.599  12.938  1.00  0.00     0.119 A 
ATOM     16  C   UNL     1      21.859   0.953  13.409  1.00  0.00     0.093 A 
ATOM     17  C   UNL     1      21.465   2.296  13.457  1.00  0.00     0.130 A 
BRANCH  15  18
ATOM     18  O   UNL     1      23.498  -0.743  12.904  1.00  0.00    -0.508 OA
ATOM     19  H   UNL     1      22.810  -1.480  12.806  1.00  0.00     0.293 HD
ENDBRANCH  15  18
BRANCH  17  20
ATOM     20  O   UNL     1      20.201   2.594  13.970  1.00  0.00    -0.507 OA
ATOM     21  H   UNL     1      19.791   3.518  13.924  1.00  0.00     0.293 HD
ENDBRANCH  17  20
ENDBRANCH   1  12
BRANCH   2  22
ATOM     22  O   UNL     1      20.327   4.294  11.229  1.00  0.00    -0.502 OA
ATOM     23  H   UNL     1      20.104   4.549  10.275  1.00  0.00     0.293 HD
ENDBRANCH   2  22
BRANCH   6  24
ATOM     24  O   UNL     1      19.975   9.375  12.310  1.00  0.00    -0.507 OA
ATOM     25  H   UNL     1      19.012   9.061  12.337  1.00  0.00     0.293 HD
ENDBRANCH   6  24
BRANCH   8  26
ATOM     26  O   UNL     1      23.339   9.876  15.733  1.00  0.00    -0.508 OA
ATOM     27  H   UNL     1      23.669   9.529  16.626  1.00  0.00     0.293 HD
ENDBRANCH   8  26
TORSDOF 6
ENDMDL
MODEL 8
REMARK VINA RESULT:    -6.425     11.267     14.354
REMARK INTER + INTRA:          -8.152
REMARK INTER:                  -7.784
REMARK INTRA:                  -0.368
REMARK UNBOUND:                -0.413
REMARK SMILES O=c1c(O)c(-c2ccc(O)cc2O)oc2cc(O)cc(O)c12
REMARK SMILES IDX 5 1 3 2 2 3 1 4 22 5 20 6 19 7 17 8 16 9 15 10 14 11 6 12
REMARK SMILES IDX 8 13 7 14 9 15 11 16 12 17 10 18 13 20 4 22 21 24 18 26
REMARK H PARENT 10 19 13 21 4 23 21 25 18 27
REMARK Flexibility Score: inf
ROOT
ATOM      1  C   UNL     1      23.034   5.044  14.619  1.00  0.00     0.184 A 
ATOM      2  C   UNL     1      22.476   6.203  14.051  1.00  0.00     0.208 A 
ATOM      3  C   UNL     1      22.754   7.447  14.638  1.00  0.00     0.238 A 
ATOM      4  O   UNL     1      22.256   8.493  14.139  1.00  0.00    -0.285 OA
ATOM      5  C   UNL     1      23.587   7.510  15.773  1.00  0.00     0.111 A 
ATOM      6  C   UNL     1      23.919   8.723  16.423  1.00  0.00     0.134 A 
ATOM      7  C   UNL     1      24.758   8.703  17.547  1.00  0.00     0.093 A 
ATOM      8  C   UNL     1      25.272   7.497  18.033  1.00  0.00     0.123 A 
ATOM      9  C   UNL     1      24.947   6.296  17.395  1.00  0.00     0.094 A 
ATOM     10  C   UNL     1      24.112   6.294  16.274  1.00  0.00     0.146 A 
ATOM     11  O   UNL     1      23.818   5.139  15.689  1.00  0.00    -0.451 OA
ENDROOT
BRANCH   1  12
ATOM     12  C   UNL     1      22.763   3.704  14.056  1.00  0.00     0.063 A 
ATOM     13  C   UNL     1      21.183   1.901  13.634  1.00  0.00     0.047 A 
ATOM     14  C   UNL     1      21.456   3.186  14.108  1.00  0.00     0.020 A 
ATOM     15  C   UNL     1      22.212   1.113  13.107  1.00  0.00     0.119 A 
ATOM     16  C   UNL     1      23.514   1.618  13.052  1.00  0.00     0.093 A 
ATOM     17  C   UNL     1      23.799   2.909  13.515  1.00  0.00     0.130 A 
BRANCH  15  18
ATOM     18  O   UNL     1      21.953  -0.172  12.635  1.00  0.00    -0.508 OA
ATOM     19  H   UNL     1      22.190  -0.447  11.689  1.00  0.00     0.293 HD
ENDBRANCH  15  18
BRANCH  17  20
ATOM     20  O   UNL     1      25.111   3.375  13.404  1.00  0.00    -0.507 OA
ATOM     21  H   UNL     1      25.404   4.283  13.737  1.00  0.00     0.293 HD
ENDBRANCH  17  20
ENDBRANCH   1  12
BRANCH   2  22
ATOM     22  O   UNL     1      21.673   6.107  12.911  1.00  0.00    -0.502 OA
ATOM     23  H   UNL     1      20.681   6.310  12.930  1.00  0.00     0.293 HD
ENDBRANCH   2  22
BRANCH   6  24
ATOM     24  O   UNL     1      23.424   9.944  15.963  1.00  0.00    -0.507 OA
ATOM     25  H   UNL     1      23.167  10.083  14.993  1.00  0.00     0.293 HD
ENDBRANCH   6  24
BRANCH   8  26
ATOM     26  O   UNL     1      26.104   7.506  19.150  1.00  0.00    -0.508 OA
ATOM     27  H   UNL     1      26.305   8.361  19.654  1.00  0.00     0.293 HD
ENDBRANCH   8  26
TORSDOF 6
ENDMDL
MODEL 9
REMARK VINA RESULT:    -6.339      8.961     11.964
REMARK INTER + INTRA:          -8.049
REMARK INTER:                  -7.632
REMARK INTRA:                  -0.418
REMARK UNBOUND:                -0.413
REMARK SMILES O=c1c(O)c(-c2ccc(O)cc2O)oc2cc(O)cc(O)c12
REMARK SMILES IDX 5 1 3 2 2 3 1 4 22 5 20 6 19 7 17 8 16 9 15 10 14 11 6 12
REMARK SMILES IDX 8 13 7 14 9 15 11 16 12 17 10 18 13 20 4 22 21 24 18 26
REMARK H PARENT 10 19 13 21 4 23 21 25 18 27
REMARK Flexibility Score: inf
ROOT
ATOM      1  C   UNL     1      23.868  -1.500  13.539  1.00  0.00     0.184 A 
ATOM      2  C   UNL     1      24.907  -0.687  14.024  1.00  0.00     0.208 A 
ATOM      3  C   UNL     1      24.702   0.699  14.107  1.00  0.00     0.238 A 
ATOM      4  O   UNL     1      25.628   1.438  14.538  1.00  0.00    -0.285 OA
ATOM      5  C   UNL     1      23.463   1.243  13.711  1.00  0.00     0.111 A 
ATOM      6  C   UNL     1      23.173   2.628  13.765  1.00  0.00     0.134 A 
ATOM      7  C   UNL     1      21.915   3.092  13.355  1.00  0.00     0.093 A 
ATOM      8  C   UNL     1      20.942   2.202  12.894  1.00  0.00     0.123 A 
ATOM      9  C   UNL     1      21.222   0.833  12.838  1.00  0.00     0.094 A 
ATOM     10  C   UNL     1      22.471   0.350  13.241  1.00  0.00     0.146 A 
ATOM     11  O   UNL     1      22.711  -0.955  13.175  1.00  0.00    -0.451 OA
ENDROOT
BRANCH   1  12
ATOM     12  C   UNL     1      24.032  -2.964  13.412  1.00  0.00     0.063 A 
ATOM     13  C   UNL     1      24.620  -4.885  12.037  1.00  0.00     0.047 A 
ATOM     14  C   UNL     1      24.508  -3.502  12.203  1.00  0.00     0.020 A 
ATOM     15  C   UNL     1      24.251  -5.748  13.073  1.00  0.00     0.119 A 
ATOM     16  C   UNL     1      23.775  -5.224  14.278  1.00  0.00     0.093 A 
ATOM     17  C   UNL     1      23.668  -3.840  14.461  1.00  0.00     0.130 A 
BRANCH  15  18
ATOM     18  O   UNL     1      24.354  -7.129  12.917  1.00  0.00    -0.508 OA
ATOM     19  H   UNL     1      24.786  -7.539  12.098  1.00  0.00     0.293 HD
ENDBRANCH  15  18
BRANCH  17  20
ATOM     20  O   UNL     1      23.219  -3.370  15.697  1.00  0.00    -0.507 OA
ATOM     21  H   UNL     1      23.544  -3.743  16.579  1.00  0.00     0.293 HD
ENDBRANCH  17  20
ENDBRANCH   1  12
BRANCH   2  22
ATOM     22  O   UNL     1      26.114  -1.262  14.431  1.00  0.00    -0.502 OA
ATOM     23  H   UNL     1      26.149  -2.106  14.990  1.00  0.00     0.293 HD
ENDBRANCH   2  22
BRANCH   6  24
ATOM     24  O   UNL     1      24.123   3.544  14.221  1.00  0.00    -0.507 OA
ATOM     25  H   UNL     1      25.112   3.422  14.038  1.00  0.00     0.293 HD
ENDBRANCH   6  24
BRANCH   8  26
ATOM     26  O   UNL     1      19.699   2.689  12.494  1.00  0.00    -0.508 OA
ATOM     27  H   UNL     1      19.108   3.213  13.127  1.00  0.00     0.293 HD
ENDBRANCH   8  26
TORSDOF 6
ENDMDL
