MODEL 1
REMARK VINA RESULT:    -4.974      0.000      0.000
REMARK INTER + INTRA:          -6.108
REMARK INTER:                  -5.847
REMARK INTRA:                  -0.261
REMARK UNBOUND:                -0.261
REMARK SMILES O=C([O-])C=Cc1ccc(O)c(O)c1
REMARK SMILES IDX 6 1 13 2 7 3 11 4 8 5 9 6 5 7 4 8 2 9 1 10 3 11 12 12 10 14
REMARK H PARENT 12 13 10 15
REMARK Flexibility Score: inf
ROOT
ATOM      1  C   UNL     1     -29.609  70.383  34.795  1.00  0.00    -0.022 A 
ATOM      2  C   UNL     1     -30.833  69.941  35.326  1.00  0.00     0.058 A 
ATOM      3  C   UNL     1     -29.572  71.566  34.045  1.00  0.00     0.012 A 
ATOM      4  C   UNL     1     -31.997  70.703  35.153  1.00  0.00     0.157 A 
ATOM      5  C   UNL     1     -30.731  72.327  33.872  1.00  0.00     0.051 A 
ATOM      6  C   UNL     1     -31.945  71.905  34.425  1.00  0.00     0.157 A 
ENDROOT
BRANCH   1   7
ATOM      7  C   UNL     1     -28.381  69.569  34.922  1.00  0.00     0.010 C 
ATOM      8  C   UNL     1     -28.029  68.561  34.109  1.00  0.00     0.025 C 
BRANCH   8   9
ATOM      9  C   UNL     1     -28.875  67.965  33.057  1.00  0.00     0.064 C 
ATOM     10  O   UNL     1     -29.576  66.940  33.276  1.00  0.00    -0.545 OA
ATOM     11  O   UNL     1     -28.847  68.505  31.778  1.00  0.00    -0.545 OA
ENDBRANCH   8   9
ENDBRANCH   1   7
BRANCH   4  12
ATOM     12  O   UNL     1     -33.206  70.268  35.695  1.00  0.00    -0.504 OA
ATOM     13  H   UNL     1     -33.885  69.760  35.139  1.00  0.00     0.293 HD
ENDBRANCH   4  12
BRANCH   6  14
ATOM     14  O   UNL     1     -33.084  72.686  34.238  1.00  0.00    -0.504 OA
ATOM     15  H   UNL     1     -33.621  72.658  33.380  1.00  0.00     0.293 HD
ENDBRANCH   6  14
TORSDOF 4
ENDMDL
MODEL 2
REMARK VINA RESULT:    -4.933     18.209     19.115
REMARK INTER + INTRA:          -6.060
REMARK INTER:                  -5.813
REMARK INTRA:                  -0.246
REMARK UNBOUND:                -0.261
REMARK SMILES O=C([O-])C=Cc1ccc(O)c(O)c1
REMARK SMILES IDX 6 1 13 2 7 3 11 4 8 5 9 6 5 7 4 8 2 9 1 10 3 11 12 12 10 14
REMARK H PARENT 12 13 10 15
REMARK Flexibility Score: inf
ROOT
ATOM      1  C   UNL     1     -41.352  60.751  21.824  1.00  0.00    -0.022 A 
ATOM      2  C   UNL     1     -41.166  62.121  22.078  1.00  0.00     0.058 A 
ATOM      3  C   UNL     1     -42.472  60.334  21.092  1.00  0.00     0.012 A 
ATOM      4  C   UNL     1     -42.062  63.067  21.560  1.00  0.00     0.157 A 
ATOM      5  C   UNL     1     -43.366  61.276  20.574  1.00  0.00     0.051 A 
ATOM      6  C   UNL     1     -43.166  62.641  20.800  1.00  0.00     0.157 A 
ENDROOT
BRANCH   1   7
ATOM      7  C   UNL     1     -40.449  59.735  22.404  1.00  0.00     0.010 C 
ATOM      8  C   UNL     1     -40.617  59.134  23.592  1.00  0.00     0.025 C 
BRANCH   8   9
ATOM      9  C   UNL     1     -41.621  59.498  24.610  1.00  0.00     0.064 C 
ATOM     10  O   UNL     1     -41.294  60.072  25.683  1.00  0.00    -0.545 OA
ATOM     11  O   UNL     1     -42.948  59.140  24.411  1.00  0.00    -0.545 OA
ENDBRANCH   8   9
ENDBRANCH   1   7
BRANCH   4  12
ATOM     12  O   UNL     1     -41.864  64.426  21.802  1.00  0.00    -0.504 OA
ATOM     13  H   UNL     1     -41.070  64.924  21.414  1.00  0.00     0.293 HD
ENDBRANCH   4  12
BRANCH   6  14
ATOM     14  O   UNL     1     -44.072  63.558  20.268  1.00  0.00    -0.504 OA
ATOM     15  H   UNL     1     -43.940  63.978  19.356  1.00  0.00     0.293 HD
ENDBRANCH   6  14
TORSDOF 4
ENDMDL
MODEL 3
REMARK VINA RESULT:    -4.906     16.401     17.687
REMARK INTER + INTRA:          -6.027
REMARK INTER:                  -5.942
REMARK INTRA:                  -0.085
REMARK UNBOUND:                -0.261
REMARK SMILES O=C([O-])C=Cc1ccc(O)c(O)c1
REMARK SMILES IDX 6 1 13 2 7 3 11 4 8 5 9 6 5 7 4 8 2 9 1 10 3 11 12 12 10 14
REMARK H PARENT 12 13 10 15
REMARK Flexibility Score: inf
ROOT
ATOM      1  C   UNL     1     -40.145  57.204  29.171  1.00  0.00    -0.022 A 
ATOM      2  C   UNL     1     -40.494  56.332  28.127  1.00  0.00     0.058 A 
ATOM      3  C   UNL     1     -40.467  58.564  29.067  1.00  0.00     0.012 A 
ATOM      4  C   UNL     1     -41.204  56.805  27.014  1.00  0.00     0.157 A 
ATOM      5  C   UNL     1     -41.175  59.038  27.959  1.00  0.00     0.051 A 
ATOM      6  C   UNL     1     -41.550  58.166  26.933  1.00  0.00     0.157 A 
ENDROOT
BRANCH   1   7
ATOM      7  C   UNL     1     -39.352  56.736  30.328  1.00  0.00     0.010 C 
ATOM      8  C   UNL     1     -39.801  56.634  31.588  1.00  0.00     0.025 C 
BRANCH   8   9
ATOM      9  C   UNL     1     -41.097  57.133  32.086  1.00  0.00     0.064 C 
ATOM     10  O   UNL     1     -42.084  56.364  32.241  1.00  0.00    -0.545 OA
ATOM     11  O   UNL     1     -41.253  58.492  32.326  1.00  0.00    -0.545 OA
ENDBRANCH   8   9
ENDBRANCH   1   7
BRANCH   4  12
ATOM     12  O   UNL     1     -41.561  55.932  25.987  1.00  0.00    -0.504 OA
ATOM     13  H   UNL     1     -41.252  56.080  25.033  1.00  0.00     0.293 HD
ENDBRANCH   4  12
BRANCH   6  14
ATOM     14  O   UNL     1     -42.258  58.666  25.841  1.00  0.00    -0.504 OA
ATOM     15  H   UNL     1     -42.904  59.442  25.928  1.00  0.00     0.293 HD
ENDBRANCH   6  14
TORSDOF 4
ENDMDL
MODEL 4
REMARK VINA RESULT:    -4.889      1.856      2.561
REMARK INTER + INTRA:          -6.007
REMARK INTER:                  -5.770
REMARK INTRA:                  -0.237
REMARK UNBOUND:                -0.261
REMARK SMILES O=C([O-])C=Cc1ccc(O)c(O)c1
REMARK SMILES IDX 6 1 13 2 7 3 11 4 8 5 9 6 5 7 4 8 2 9 1 10 3 11 12 12 10 14
REMARK H PARENT 12 13 10 15
REMARK Flexibility Score: inf
ROOT
ATOM      1  C   UNL     1     -30.809  69.344  33.555  1.00  0.00    -0.022 A 
ATOM      2  C   UNL     1     -31.048  70.216  32.479  1.00  0.00     0.058 A 
ATOM      3  C   UNL     1     -31.227  69.711  34.841  1.00  0.00     0.012 A 
ATOM      4  C   UNL     1     -31.743  71.417  32.679  1.00  0.00     0.157 A 
ATOM      5  C   UNL     1     -31.921  70.907  35.043  1.00  0.00     0.051 A 
ATOM      6  C   UNL     1     -32.185  71.762  33.969  1.00  0.00     0.157 A 
ENDROOT
BRANCH   1   7
ATOM      7  C   UNL     1     -30.033  68.099  33.374  1.00  0.00     0.010 C 
ATOM      8  C   UNL     1     -28.759  67.915  33.755  1.00  0.00     0.025 C 
BRANCH   8   9
ATOM      9  C   UNL     1     -27.848  68.962  34.257  1.00  0.00     0.064 C 
ATOM     10  O   UNL     1     -27.635  69.115  35.489  1.00  0.00    -0.545 OA
ATOM     11  O   UNL     1     -27.265  69.841  33.354  1.00  0.00    -0.545 OA
ENDBRANCH   8   9
ENDBRANCH   1   7
BRANCH   4  12
ATOM     12  O   UNL     1     -31.990  72.272  31.605  1.00  0.00    -0.504 OA
ATOM     13  H   UNL     1     -32.502  71.960  30.787  1.00  0.00     0.293 HD
ENDBRANCH   4  12
BRANCH   6  14
ATOM     14  O   UNL     1     -32.882  72.947  34.199  1.00  0.00    -0.504 OA
ATOM     15  H   UNL     1     -33.004  73.649  33.479  1.00  0.00     0.293 HD
ENDBRANCH   6  14
TORSDOF 4
ENDMDL
MODEL 5
REMARK VINA RESULT:    -4.849      2.227      4.505
REMARK INTER + INTRA:          -5.960
REMARK INTER:                  -5.692
REMARK INTRA:                  -0.268
REMARK UNBOUND:                -0.261
REMARK SMILES O=C([O-])C=Cc1ccc(O)c(O)c1
REMARK SMILES IDX 6 1 13 2 7 3 11 4 8 5 9 6 5 7 4 8 2 9 1 10 3 11 12 12 10 14
REMARK H PARENT 12 13 10 15
REMARK Flexibility Score: inf
ROOT
ATOM      1  C   UNL     1     -31.164  69.891  33.800  1.00  0.00    -0.022 A 
ATOM      2  C   UNL     1     -30.299  68.798  33.618  1.00  0.00     0.058 A 
ATOM      3  C   UNL     1     -31.228  70.887  32.816  1.00  0.00     0.012 A 
ATOM      4  C   UNL     1     -29.546  68.677  32.441  1.00  0.00     0.157 A 
ATOM      5  C   UNL     1     -30.479  70.768  31.642  1.00  0.00     0.051 A 
ATOM      6  C   UNL     1     -29.641  69.666  31.446  1.00  0.00     0.157 A 
ENDROOT
BRANCH   1   7
ATOM      7  C   UNL     1     -31.926  70.064  35.055  1.00  0.00     0.010 C 
ATOM      8  C   UNL     1     -31.513  70.760  36.125  1.00  0.00     0.025 C 
BRANCH   8   9
ATOM      9  C   UNL     1     -30.165  71.328  36.318  1.00  0.00     0.064 C 
ATOM     10  O   UNL     1     -29.950  72.566  36.220  1.00  0.00    -0.545 OA
ATOM     11  O   UNL     1     -29.096  70.471  36.548  1.00  0.00    -0.545 OA
ENDBRANCH   8   9
ENDBRANCH   1   7
BRANCH   4  12
ATOM     12  O   UNL     1     -28.701  67.583  32.259  1.00  0.00    -0.504 OA
ATOM     13  H   UNL     1     -27.841  67.483  32.787  1.00  0.00     0.293 HD
ENDBRANCH   4  12
BRANCH   6  14
ATOM     14  O   UNL     1     -28.908  69.572  30.264  1.00  0.00    -0.504 OA
ATOM     15  H   UNL     1     -28.605  70.392  29.752  1.00  0.00     0.293 HD
ENDBRANCH   6  14
TORSDOF 4
ENDMDL
MODEL 6
REMARK VINA RESULT:    -4.762     16.587     17.815
REMARK INTER + INTRA:          -5.858
REMARK INTER:                  -5.809
REMARK INTRA:                  -0.048
REMARK UNBOUND:                -0.261
REMARK SMILES O=C([O-])C=Cc1ccc(O)c(O)c1
REMARK SMILES IDX 6 1 13 2 7 3 11 4 8 5 9 6 5 7 4 8 2 9 1 10 3 11 12 12 10 14
REMARK H PARENT 12 13 10 15
REMARK Flexibility Score: inf
ROOT
ATOM      1  C   UNL     1     -41.604  58.678  28.177  1.00  0.00    -0.022 A 
ATOM      2  C   UNL     1     -42.105  57.514  27.568  1.00  0.00     0.058 A 
ATOM      3  C   UNL     1     -40.980  59.652  27.387  1.00  0.00     0.012 A 
ATOM      4  C   UNL     1     -42.028  57.352  26.177  1.00  0.00     0.157 A 
ATOM      5  C   UNL     1     -40.904  59.493  26.001  1.00  0.00     0.051 A 
ATOM      6  C   UNL     1     -41.428  58.350  25.389  1.00  0.00     0.157 A 
ENDROOT
BRANCH   1   7
ATOM      7  C   UNL     1     -41.628  58.844  29.646  1.00  0.00     0.010 C 
ATOM      8  C   UNL     1     -40.856  58.175  30.517  1.00  0.00     0.025 C 
BRANCH   8   9
ATOM      9  C   UNL     1     -39.978  57.034  30.192  1.00  0.00     0.064 C 
ATOM     10  O   UNL     1     -40.119  55.914  30.752  1.00  0.00    -0.545 OA
ATOM     11  O   UNL     1     -38.930  57.218  29.300  1.00  0.00    -0.545 OA
ENDBRANCH   8   9
ENDBRANCH   1   7
BRANCH   4  12
ATOM     12  O   UNL     1     -42.541  56.203  25.577  1.00  0.00    -0.504 OA
ATOM     13  H   UNL     1     -42.102  55.789  24.762  1.00  0.00     0.293 HD
ENDBRANCH   4  12
BRANCH   6  14
ATOM     14  O   UNL     1     -41.341  58.220  24.004  1.00  0.00    -0.504 OA
ATOM     15  H   UNL     1     -40.958  58.952  23.418  1.00  0.00     0.293 HD
ENDBRANCH   6  14
TORSDOF 4
ENDMDL
MODEL 7
REMARK VINA RESULT:    -4.752      1.807      2.128
REMARK INTER + INTRA:          -5.847
REMARK INTER:                  -5.555
REMARK INTRA:                  -0.291
REMARK UNBOUND:                -0.261
REMARK SMILES O=C([O-])C=Cc1ccc(O)c(O)c1
REMARK SMILES IDX 6 1 13 2 7 3 11 4 8 5 9 6 5 7 4 8 2 9 1 10 3 11 12 12 10 14
REMARK H PARENT 12 13 10 15
REMARK Flexibility Score: inf
ROOT
ATOM      1  C   UNL     1     -30.369  68.928  33.101  1.00  0.00    -0.022 A 
ATOM      2  C   UNL     1     -31.160  69.352  34.183  1.00  0.00     0.058 A 
ATOM      3  C   UNL     1     -30.224  69.765  31.987  1.00  0.00     0.012 A 
ATOM      4  C   UNL     1     -31.756  70.622  34.171  1.00  0.00     0.157 A 
ATOM      5  C   UNL     1     -30.815  71.031  31.974  1.00  0.00     0.051 A 
ATOM      6  C   UNL     1     -31.578  71.467  33.062  1.00  0.00     0.157 A 
ENDROOT
BRANCH   1   7
ATOM      7  C   UNL     1     -29.777  67.574  33.070  1.00  0.00     0.010 C 
ATOM      8  C   UNL     1     -28.560  67.247  33.534  1.00  0.00     0.025 C 
BRANCH   8   9
ATOM      9  C   UNL     1     -27.527  68.196  33.993  1.00  0.00     0.064 C 
ATOM     10  O   UNL     1     -27.382  68.473  35.214  1.00  0.00    -0.545 OA
ATOM     11  O   UNL     1     -26.742  68.848  33.052  1.00  0.00    -0.545 OA
ENDBRANCH   8   9
ENDBRANCH   1   7
BRANCH   4  12
ATOM     12  O   UNL     1     -32.527  71.043  35.254  1.00  0.00    -0.504 OA
ATOM     13  H   UNL     1     -33.132  70.403  35.756  1.00  0.00     0.293 HD
ENDBRANCH   4  12
BRANCH   6  14
ATOM     14  O   UNL     1     -32.154  72.736  33.023  1.00  0.00    -0.504 OA
ATOM     15  H   UNL     1     -33.113  72.883  32.732  1.00  0.00     0.293 HD
ENDBRANCH   6  14
TORSDOF 4
ENDMDL
MODEL 8
REMARK VINA RESULT:    -4.750     17.449     18.677
REMARK INTER + INTRA:          -5.844
REMARK INTER:                  -5.614
REMARK INTRA:                  -0.230
REMARK UNBOUND:                -0.261
REMARK SMILES O=C([O-])C=Cc1ccc(O)c(O)c1
REMARK SMILES IDX 6 1 13 2 7 3 11 4 8 5 9 6 5 7 4 8 2 9 1 10 3 11 12 12 10 14
REMARK H PARENT 12 13 10 15
REMARK Flexibility Score: inf
ROOT
ATOM      1  C   UNL     1     -42.177  59.528  23.708  1.00  0.00    -0.022 A 
ATOM      2  C   UNL     1     -40.821  59.195  23.867  1.00  0.00     0.058 A 
ATOM      3  C   UNL     1     -42.977  59.714  24.843  1.00  0.00     0.012 A 
ATOM      4  C   UNL     1     -40.260  59.101  25.149  1.00  0.00     0.157 A 
ATOM      5  C   UNL     1     -42.419  59.622  26.121  1.00  0.00     0.051 A 
ATOM      6  C   UNL     1     -41.063  59.320  26.281  1.00  0.00     0.157 A 
ENDROOT
BRANCH   1   7
ATOM      7  C   UNL     1     -42.801  59.581  22.368  1.00  0.00     0.010 C 
ATOM      8  C   UNL     1     -42.879  60.672  21.590  1.00  0.00     0.025 C 
BRANCH   8   9
ATOM      9  C   UNL     1     -42.525  62.047  21.991  1.00  0.00     0.064 C 
ATOM     10  O   UNL     1     -43.400  62.945  22.109  1.00  0.00    -0.545 OA
ATOM     11  O   UNL     1     -41.189  62.374  22.178  1.00  0.00    -0.545 OA
ENDBRANCH   8   9
ENDBRANCH   1   7
BRANCH   4  12
ATOM     12  O   UNL     1     -38.910  58.786  25.300  1.00  0.00    -0.504 OA
ATOM     13  H   UNL     1     -38.316  59.292  25.948  1.00  0.00     0.293 HD
ENDBRANCH   4  12
BRANCH   6  14
ATOM     14  O   UNL     1     -40.533  59.238  27.568  1.00  0.00    -0.504 OA
ATOM     15  H   UNL     1     -40.232  58.358  27.971  1.00  0.00     0.293 HD
ENDBRANCH   6  14
TORSDOF 4
ENDMDL
MODEL 9
REMARK VINA RESULT:    -4.740     20.913     21.678
REMARK INTER + INTRA:          -5.832
REMARK INTER:                  -5.576
REMARK INTRA:                  -0.256
REMARK UNBOUND:                -0.261
REMARK SMILES O=C([O-])C=Cc1ccc(O)c(O)c1
REMARK SMILES IDX 6 1 13 2 7 3 11 4 8 5 9 6 5 7 4 8 2 9 1 10 3 11 12 12 10 14
REMARK H PARENT 12 13 10 15
REMARK Flexibility Score: inf
ROOT
ATOM      1  C   UNL     1     -45.084  63.071  20.579  1.00  0.00    -0.022 A 
ATOM      2  C   UNL     1     -43.745  63.050  21.005  1.00  0.00     0.058 A 
ATOM      3  C   UNL     1     -46.026  62.267  21.234  1.00  0.00     0.012 A 
ATOM      4  C   UNL     1     -43.364  62.273  22.109  1.00  0.00     0.157 A 
ATOM      5  C   UNL     1     -45.649  61.493  22.335  1.00  0.00     0.051 A 
ATOM      6  C   UNL     1     -44.323  61.494  22.780  1.00  0.00     0.157 A 
ENDROOT
BRANCH   1   7
ATOM      7  C   UNL     1     -45.496  63.842  19.386  1.00  0.00     0.010 C 
ATOM      8  C   UNL     1     -45.645  63.340  18.150  1.00  0.00     0.025 C 
BRANCH   8   9
ATOM      9  C   UNL     1     -45.260  61.983  17.716  1.00  0.00     0.064 C 
ATOM     10  O   UNL     1     -44.192  61.773  17.081  1.00  0.00    -0.545 OA
ATOM     11  O   UNL     1     -46.125  60.924  17.955  1.00  0.00    -0.545 OA
ENDBRANCH   8   9
ENDBRANCH   1   7
BRANCH   4  12
ATOM     12  O   UNL     1     -42.037  62.269  22.538  1.00  0.00    -0.504 OA
ATOM     13  H   UNL     1     -41.284  61.963  21.930  1.00  0.00     0.293 HD
ENDBRANCH   4  12
BRANCH   6  14
ATOM     14  O   UNL     1     -43.976  60.715  23.882  1.00  0.00    -0.504 OA
ATOM     15  H   UNL     1     -43.249  60.011  23.836  1.00  0.00     0.293 HD
ENDBRANCH   6  14
TORSDOF 4
ENDMDL
