MODEL 1
REMARK VINA RESULT:    -7.549      0.000      0.000
REMARK INTER + INTRA:          -9.190
REMARK INTER:                  -8.873
REMARK INTRA:                  -0.318
REMARK UNBOUND:                -0.318
REMARK SMILES O=c1cc(-c2ccc(O)c(O)c2)oc2cc(O)cc(O)c12
REMARK SMILES IDX 4 1 3 2 2 3 1 4 21 5 19 6 18 7 16 8 15 9 14 10 13 11 5 12
REMARK SMILES IDX 6 13 7 14 8 15 12 16 10 17 9 18 11 20 20 22 17 24
REMARK H PARENT 9 19 11 21 20 23 17 25
REMARK Flexibility Score: inf
ROOT
ATOM      1  C   UNL     1      10.503  -2.518  19.472  1.00  0.00     0.138 A 
ATOM      2  C   UNL     1      11.812  -2.009  19.437  1.00  0.00     0.100 A 
ATOM      3  C   UNL     1      12.011  -0.634  19.300  1.00  0.00     0.197 A 
ATOM      4  O   UNL     1      13.190  -0.187  19.271  1.00  0.00    -0.289 OA
ATOM      5  C   UNL     1      10.897   0.224  19.203  1.00  0.00     0.107 A 
ATOM      6  C   UNL     1      11.011   1.627  19.061  1.00  0.00     0.134 A 
ATOM      7  C   UNL     1       9.851   2.413  18.976  1.00  0.00     0.093 A 
ATOM      8  C   UNL     1       8.583   1.822  19.031  1.00  0.00     0.123 A 
ATOM      9  C   UNL     1       8.468   0.437  19.171  1.00  0.00     0.094 A 
ATOM     10  C   UNL     1       9.610  -0.363  19.256  1.00  0.00     0.146 A 
ATOM     11  O   UNL     1       9.473  -1.679  19.388  1.00  0.00    -0.456 OA
ENDROOT
BRANCH   1  12
ATOM     12  C   UNL     1      10.231  -3.970  19.618  1.00  0.00     0.021 A 
ATOM     13  C   UNL     1      11.303  -4.877  19.619  1.00  0.00     0.016 A 
ATOM     14  C   UNL     1      11.075  -6.249  19.761  1.00  0.00     0.051 A 
ATOM     15  C   UNL     1       9.771  -6.734  19.916  1.00  0.00     0.157 A 
ATOM     16  C   UNL     1       8.922  -4.465  19.787  1.00  0.00     0.062 A 
ATOM     17  C   UNL     1       8.694  -5.841  19.932  1.00  0.00     0.158 A 
BRANCH  15  18
ATOM     18  O   UNL     1       9.539  -8.101  20.057  1.00  0.00    -0.504 OA
ATOM     19  H   UNL     1      10.302  -8.759  20.170  1.00  0.00     0.293 HD
ENDBRANCH  15  18
BRANCH  17  20
ATOM     20  O   UNL     1       7.398  -6.327  20.096  1.00  0.00    -0.504 OA
ATOM     21  H   UNL     1       6.956  -6.909  19.394  1.00  0.00     0.293 HD
ENDBRANCH  17  20
ENDBRANCH   1  12
BRANCH   6  22
ATOM     22  O   UNL     1      12.261   2.244  19.003  1.00  0.00    -0.507 OA
ATOM     23  H   UNL     1      13.109   1.752  19.262  1.00  0.00     0.293 HD
ENDBRANCH   6  22
BRANCH   8  24
ATOM     24  O   UNL     1       7.432   2.602  18.947  1.00  0.00    -0.508 OA
ATOM     25  H   UNL     1       6.528   2.191  18.748  1.00  0.00     0.293 HD
ENDBRANCH   8  24
TORSDOF 5
ENDMDL
MODEL 2
REMARK VINA RESULT:    -7.359      1.039      2.732
REMARK INTER + INTRA:          -8.967
REMARK INTER:                  -8.671
REMARK INTRA:                  -0.297
REMARK UNBOUND:                -0.318
REMARK SMILES O=c1cc(-c2ccc(O)c(O)c2)oc2cc(O)cc(O)c12
REMARK SMILES IDX 4 1 3 2 2 3 1 4 21 5 19 6 18 7 16 8 15 9 14 10 13 11 5 12
REMARK SMILES IDX 6 13 7 14 8 15 12 16 10 17 9 18 11 20 20 22 17 24
REMARK H PARENT 9 19 11 21 20 23 17 25
REMARK Flexibility Score: inf
ROOT
ATOM      1  C   UNL     1       9.063  -2.580  19.429  1.00  0.00     0.138 A 
ATOM      2  C   UNL     1       7.817  -1.933  19.395  1.00  0.00     0.100 A 
ATOM      3  C   UNL     1       7.768  -0.542  19.287  1.00  0.00     0.197 A 
ATOM      4  O   UNL     1       6.644   0.029  19.256  1.00  0.00    -0.289 OA
ATOM      5  C   UNL     1       8.967   0.193  19.210  1.00  0.00     0.107 A 
ATOM      6  C   UNL     1       9.006   1.603  19.102  1.00  0.00     0.134 A 
ATOM      7  C   UNL     1      10.244   2.260  19.025  1.00  0.00     0.093 A 
ATOM      8  C   UNL     1      11.440   1.534  19.055  1.00  0.00     0.123 A 
ATOM      9  C   UNL     1      11.405   0.142  19.163  1.00  0.00     0.094 A 
ATOM     10  C   UNL     1      10.183  -0.531  19.241  1.00  0.00     0.146 A 
ATOM     11  O   UNL     1      10.177  -1.857  19.345  1.00  0.00    -0.456 OA
ENDROOT
BRANCH   1  12
ATOM     12  C   UNL     1       9.177  -4.055  19.541  1.00  0.00     0.021 A 
ATOM     13  C   UNL     1      10.448  -4.646  19.641  1.00  0.00     0.016 A 
ATOM     14  C   UNL     1      10.582  -6.032  19.755  1.00  0.00     0.051 A 
ATOM     15  C   UNL     1       9.447  -6.850  19.780  1.00  0.00     0.157 A 
ATOM     16  C   UNL     1       8.039  -4.886  19.580  1.00  0.00     0.062 A 
ATOM     17  C   UNL     1       8.173  -6.276  19.696  1.00  0.00     0.158 A 
BRANCH  15  18
ATOM     18  O   UNL     1       9.576  -8.234  19.892  1.00  0.00    -0.504 OA
ATOM     19  H   UNL     1       9.070  -8.865  19.281  1.00  0.00     0.293 HD
ENDBRANCH  15  18
BRANCH  17  20
ATOM     20  O   UNL     1       7.045  -7.094  19.732  1.00  0.00    -0.504 OA
ATOM     21  H   UNL     1       7.121  -8.099  19.841  1.00  0.00     0.293 HD
ENDBRANCH  17  20
ENDBRANCH   1  12
BRANCH   6  22
ATOM     22  O   UNL     1       7.830   2.353  19.069  1.00  0.00    -0.507 OA
ATOM     23  H   UNL     1       7.351   2.555  18.199  1.00  0.00     0.293 HD
ENDBRANCH   6  22
BRANCH   8  24
ATOM     24  O   UNL     1      12.669   2.186  18.978  1.00  0.00    -0.508 OA
ATOM     25  H   UNL     1      12.767   3.161  19.234  1.00  0.00     0.293 HD
ENDBRANCH   8  24
TORSDOF 5
ENDMDL
MODEL 3
REMARK VINA RESULT:    -7.089      1.572      7.503
REMARK INTER + INTRA:          -8.651
REMARK INTER:                  -8.334
REMARK INTRA:                  -0.316
REMARK UNBOUND:                -0.318
REMARK SMILES O=c1cc(-c2ccc(O)c(O)c2)oc2cc(O)cc(O)c12
REMARK SMILES IDX 4 1 3 2 2 3 1 4 21 5 19 6 18 7 16 8 15 9 14 10 13 11 5 12
REMARK SMILES IDX 6 13 7 14 8 15 12 16 10 17 9 18 11 20 20 22 17 24
REMARK H PARENT 9 19 11 21 20 23 17 25
REMARK Flexibility Score: inf
ROOT
ATOM      1  C   UNL     1       8.249  -1.927  19.374  1.00  0.00     0.138 A 
ATOM      2  C   UNL     1       7.015  -2.589  19.483  1.00  0.00     0.100 A 
ATOM      3  C   UNL     1       6.993  -3.969  19.694  1.00  0.00     0.197 A 
ATOM      4  O   UNL     1       5.880  -4.554  19.793  1.00  0.00    -0.289 OA
ATOM      5  C   UNL     1       8.206  -4.677  19.799  1.00  0.00     0.107 A 
ATOM      6  C   UNL     1       8.272  -6.075  20.011  1.00  0.00     0.134 A 
ATOM      7  C   UNL     1       9.522  -6.704  20.109  1.00  0.00     0.093 A 
ATOM      8  C   UNL     1      10.705  -5.963  19.999  1.00  0.00     0.123 A 
ATOM      9  C   UNL     1      10.643  -4.584  19.789  1.00  0.00     0.094 A 
ATOM     10  C   UNL     1       9.408  -3.938  19.688  1.00  0.00     0.146 A 
ATOM     11  O   UNL     1       9.377  -2.624  19.487  1.00  0.00    -0.456 OA
ENDROOT
BRANCH   1  12
ATOM     12  C   UNL     1       8.335  -0.462  19.150  1.00  0.00     0.021 A 
ATOM     13  C   UNL     1       7.173   0.256  18.821  1.00  0.00     0.016 A 
ATOM     14  C   UNL     1       7.224   1.637  18.613  1.00  0.00     0.051 A 
ATOM     15  C   UNL     1       8.437   2.324  18.740  1.00  0.00     0.157 A 
ATOM     16  C   UNL     1       9.549   0.240  19.289  1.00  0.00     0.062 A 
ATOM     17  C   UNL     1       9.600   1.625  19.083  1.00  0.00     0.158 A 
BRANCH  15  18
ATOM     18  O   UNL     1       8.493   3.701  18.532  1.00  0.00    -0.504 OA
ATOM     19  H   UNL     1       8.091   4.129  17.706  1.00  0.00     0.293 HD
ENDBRANCH  15  18
BRANCH  17  20
ATOM     20  O   UNL     1      10.804   2.315  19.219  1.00  0.00    -0.504 OA
ATOM     21  H   UNL     1      11.364   2.570  18.413  1.00  0.00     0.293 HD
ENDBRANCH  17  20
ENDBRANCH   1  12
BRANCH   6  22
ATOM     22  O   UNL     1       7.110  -6.838  20.125  1.00  0.00    -0.507 OA
ATOM     23  H   UNL     1       6.831  -7.255  21.006  1.00  0.00     0.293 HD
ENDBRANCH   6  22
BRANCH   8  24
ATOM     24  O   UNL     1      11.946  -6.588  20.097  1.00  0.00    -0.508 OA
ATOM     25  H   UNL     1      12.554  -6.435  20.892  1.00  0.00     0.293 HD
ENDBRANCH   8  24
TORSDOF 5
ENDMDL
MODEL 4
REMARK VINA RESULT:    -7.025      1.117      1.981
REMARK INTER + INTRA:          -8.575
REMARK INTER:                  -8.280
REMARK INTRA:                  -0.295
REMARK UNBOUND:                -0.318
REMARK SMILES O=c1cc(-c2ccc(O)c(O)c2)oc2cc(O)cc(O)c12
REMARK SMILES IDX 4 1 3 2 2 3 1 4 21 5 19 6 18 7 16 8 15 9 14 10 13 11 5 12
REMARK SMILES IDX 6 13 7 14 8 15 12 16 10 17 9 18 11 20 20 22 17 24
REMARK H PARENT 9 19 11 21 20 23 17 25
REMARK Flexibility Score: inf
ROOT
ATOM      1  C   UNL     1       9.850  -2.897  19.721  1.00  0.00     0.138 A 
ATOM      2  C   UNL     1      11.239  -2.958  19.920  1.00  0.00     0.100 A 
ATOM      3  C   UNL     1      11.995  -1.787  19.847  1.00  0.00     0.197 A 
ATOM      4  O   UNL     1      13.241  -1.852  20.028  1.00  0.00    -0.289 OA
ATOM      5  C   UNL     1      11.355  -0.561  19.578  1.00  0.00     0.107 A 
ATOM      6  C   UNL     1      12.047   0.670  19.486  1.00  0.00     0.134 A 
ATOM      7  C   UNL     1      11.334   1.849  19.220  1.00  0.00     0.093 A 
ATOM      8  C   UNL     1       9.945   1.820  19.046  1.00  0.00     0.123 A 
ATOM      9  C   UNL     1       9.260   0.606  19.136  1.00  0.00     0.094 A 
ATOM     10  C   UNL     1       9.951  -0.579  19.399  1.00  0.00     0.146 A 
ATOM     11  O   UNL     1       9.275  -1.721  19.479  1.00  0.00    -0.456 OA
ENDROOT
BRANCH   1  12
ATOM     12  C   UNL     1       8.995  -4.109  19.788  1.00  0.00     0.021 A 
ATOM     13  C   UNL     1       7.599  -3.967  19.863  1.00  0.00     0.016 A 
ATOM     14  C   UNL     1       6.771  -5.091  19.920  1.00  0.00     0.051 A 
ATOM     15  C   UNL     1       7.325  -6.377  19.893  1.00  0.00     0.157 A 
ATOM     16  C   UNL     1       9.544  -5.406  19.749  1.00  0.00     0.062 A 
ATOM     17  C   UNL     1       8.713  -6.534  19.803  1.00  0.00     0.158 A 
BRANCH  15  18
ATOM     18  O   UNL     1       6.504  -7.501  19.951  1.00  0.00    -0.504 OA
ATOM     19  H   UNL     1       6.719  -8.343  19.428  1.00  0.00     0.293 HD
ENDBRANCH  15  18
BRANCH  17  20
ATOM     20  O   UNL     1       9.261  -7.816  19.767  1.00  0.00    -0.504 OA
ATOM     21  H   UNL     1       9.364  -8.324  18.896  1.00  0.00     0.293 HD
ENDBRANCH  17  20
ENDBRANCH   1  12
BRANCH   6  22
ATOM     22  O   UNL     1      13.430   0.730  19.655  1.00  0.00    -0.507 OA
ATOM     23  H   UNL     1      13.921   1.615  19.724  1.00  0.00     0.293 HD
ENDBRANCH   6  22
BRANCH   8  24
ATOM     24  O   UNL     1       9.237   2.990  18.783  1.00  0.00    -0.508 OA
ATOM     25  H   UNL     1       9.642   3.742  18.237  1.00  0.00     0.293 HD
ENDBRANCH   8  24
TORSDOF 5
ENDMDL
MODEL 5
REMARK VINA RESULT:    -5.519      1.746      7.214
REMARK INTER + INTRA:          -6.805
REMARK INTER:                  -6.487
REMARK INTRA:                  -0.318
REMARK UNBOUND:                -0.318
REMARK SMILES O=c1cc(-c2ccc(O)c(O)c2)oc2cc(O)cc(O)c12
REMARK SMILES IDX 4 1 3 2 2 3 1 4 21 5 19 6 18 7 16 8 15 9 14 10 13 11 5 12
REMARK SMILES IDX 6 13 7 14 8 15 12 16 10 17 9 18 11 20 20 22 17 24
REMARK H PARENT 9 19 11 21 20 23 17 25
REMARK Flexibility Score: inf
ROOT
ATOM      1  C   UNL     1       9.622  -1.861  19.975  1.00  0.00     0.138 A 
ATOM      2  C   UNL     1       8.225  -1.719  20.005  1.00  0.00     0.100 A 
ATOM      3  C   UNL     1       7.418  -2.857  20.014  1.00  0.00     0.197 A 
ATOM      4  O   UNL     1       6.165  -2.719  20.042  1.00  0.00    -0.289 OA
ATOM      5  C   UNL     1       8.015  -4.133  19.997  1.00  0.00     0.107 A 
ATOM      6  C   UNL     1       7.271  -5.337  20.002  1.00  0.00     0.134 A 
ATOM      7  C   UNL     1       7.944  -6.569  19.989  1.00  0.00     0.093 A 
ATOM      8  C   UNL     1       9.343  -6.618  19.970  1.00  0.00     0.123 A 
ATOM      9  C   UNL     1      10.079  -5.432  19.964  1.00  0.00     0.094 A 
ATOM     10  C   UNL     1       9.429  -4.195  19.977  1.00  0.00     0.146 A 
ATOM     11  O   UNL     1      10.154  -3.081  19.969  1.00  0.00    -0.456 OA
ENDROOT
BRANCH   1  12
ATOM     12  C   UNL     1      10.529  -0.686  19.966  1.00  0.00     0.021 A 
ATOM     13  C   UNL     1       9.983   0.609  19.944  1.00  0.00     0.016 A 
ATOM     14  C   UNL     1      10.814   1.732  19.942  1.00  0.00     0.051 A 
ATOM     15  C   UNL     1      12.206   1.579  19.973  1.00  0.00     0.157 A 
ATOM     16  C   UNL     1      11.930  -0.831  20.011  1.00  0.00     0.062 A 
ATOM     17  C   UNL     1      12.764   0.296  20.012  1.00  0.00     0.158 A 
BRANCH  15  18
ATOM     18  O   UNL     1      13.039   2.696  19.971  1.00  0.00    -0.504 OA
ATOM     19  H   UNL     1      13.993   2.645  19.632  1.00  0.00     0.293 HD
ENDBRANCH  15  18
BRANCH  17  20
ATOM     20  O   UNL     1      14.150   0.148  20.054  1.00  0.00    -0.504 OA
ATOM     21  H   UNL     1      14.734   0.771  20.599  1.00  0.00     0.293 HD
ENDBRANCH  17  20
ENDBRANCH   1  12
BRANCH   6  22
ATOM     22  O   UNL     1       5.877  -5.319  20.021  1.00  0.00    -0.507 OA
ATOM     23  H   UNL     1       5.330  -6.147  19.814  1.00  0.00     0.293 HD
ENDBRANCH   6  22
BRANCH   8  24
ATOM     24  O   UNL     1      10.010  -7.841  19.958  1.00  0.00    -0.508 OA
ATOM     25  H   UNL     1      10.416  -8.214  19.108  1.00  0.00     0.293 HD
ENDBRANCH   8  24
TORSDOF 5
ENDMDL
