MODEL 1
REMARK VINA RESULT:    -7.784      0.000      0.000
REMARK INTER + INTRA:          -9.441
REMARK INTER:                  -9.149
REMARK INTRA:                  -0.291
REMARK UNBOUND:                -0.291
REMARK SMILES O=c1cc(-c2ccc(O)c(O)c2)oc2cc(O)cc(O)c12
REMARK SMILES IDX 4 1 3 2 2 3 1 4 21 5 19 6 18 7 16 8 15 9 14 10 13 11 5 12
REMARK SMILES IDX 6 13 7 14 8 15 12 16 10 17 9 18 11 20 20 22 17 24
REMARK H PARENT 9 19 11 21 20 23 17 25
REMARK Flexibility Score: inf
ROOT
ATOM      1  C   UNL     1       9.702  13.117  23.173  1.00  0.00     0.138 A 
ATOM      2  C   UNL     1       9.200  13.829  24.270  1.00  0.00     0.100 A 
ATOM      3  C   UNL     1       8.824  13.141  25.425  1.00  0.00     0.197 A 
ATOM      4  O   UNL     1       8.320  13.800  26.371  1.00  0.00    -0.289 OA
ATOM      5  C   UNL     1       8.980  11.736  25.490  1.00  0.00     0.107 A 
ATOM      6  C   UNL     1       8.668  10.935  26.628  1.00  0.00     0.134 A 
ATOM      7  C   UNL     1       8.753   9.541  26.536  1.00  0.00     0.093 A 
ATOM      8  C   UNL     1       9.197   8.922  25.368  1.00  0.00     0.123 A 
ATOM      9  C   UNL     1       9.556   9.698  24.265  1.00  0.00     0.094 A 
ATOM     10  C   UNL     1       9.449  11.090  24.315  1.00  0.00     0.146 A 
ATOM     11  O   UNL     1       9.787  11.792  23.239  1.00  0.00    -0.456 OA
ENDROOT
BRANCH   1  12
ATOM     12  C   UNL     1      10.118  13.799  21.921  1.00  0.00     0.021 A 
ATOM     13  C   UNL     1      10.213  13.108  20.699  1.00  0.00     0.016 A 
ATOM     14  C   UNL     1      10.597  13.778  19.536  1.00  0.00     0.051 A 
ATOM     15  C   UNL     1      10.888  15.145  19.561  1.00  0.00     0.157 A 
ATOM     16  C   UNL     1      10.398  15.176  21.942  1.00  0.00     0.062 A 
ATOM     17  C   UNL     1      10.785  15.855  20.779  1.00  0.00     0.158 A 
BRANCH  15  18
ATOM     18  O   UNL     1      11.269  15.753  18.362  1.00  0.00    -0.504 OA
ATOM     19  H   UNL     1      11.704  16.663  18.304  1.00  0.00     0.293 HD
ENDBRANCH  15  18
BRANCH  17  20
ATOM     20  O   UNL     1      11.054  17.221  20.882  1.00  0.00    -0.504 OA
ATOM     21  H   UNL     1      10.641  17.925  20.287  1.00  0.00     0.293 HD
ENDBRANCH  17  20
ENDBRANCH   1  12
BRANCH   6  22
ATOM     22  O   UNL     1       8.296  11.456  27.871  1.00  0.00    -0.507 OA
ATOM     23  H   UNL     1       8.507  11.032  28.761  1.00  0.00     0.293 HD
ENDBRANCH   6  22
BRANCH   8  24
ATOM     24  O   UNL     1       9.284   7.532  25.317  1.00  0.00    -0.508 OA
ATOM     25  H   UNL     1       9.640   6.994  26.097  1.00  0.00     0.293 HD
ENDBRANCH   8  24
TORSDOF 5
ENDMDL
MODEL 2
REMARK VINA RESULT:    -7.018      1.511      6.911
REMARK INTER + INTRA:          -8.540
REMARK INTER:                  -8.224
REMARK INTRA:                  -0.316
REMARK UNBOUND:                -0.291
REMARK SMILES O=c1cc(-c2ccc(O)c(O)c2)oc2cc(O)cc(O)c12
REMARK SMILES IDX 4 1 3 2 2 3 1 4 21 5 19 6 18 7 16 8 15 9 14 10 13 11 5 12
REMARK SMILES IDX 6 13 7 14 8 15 12 16 10 17 9 18 11 20 20 22 17 24
REMARK H PARENT 9 19 11 21 20 23 17 25
REMARK Flexibility Score: inf
ROOT
ATOM      1  C   UNL     1       9.821  13.190  24.151  1.00  0.00     0.138 A 
ATOM      2  C   UNL     1      10.072  14.343  24.906  1.00  0.00     0.100 A 
ATOM      3  C   UNL     1      10.446  15.522  24.260  1.00  0.00     0.197 A 
ATOM      4  O   UNL     1      10.725  16.524  24.969  1.00  0.00    -0.289 OA
ATOM      5  C   UNL     1      10.539  15.553  22.849  1.00  0.00     0.107 A 
ATOM      6  C   UNL     1      10.872  16.708  22.081  1.00  0.00     0.134 A 
ATOM      7  C   UNL     1      11.048  16.591  20.697  1.00  0.00     0.093 A 
ATOM      8  C   UNL     1      10.842  15.375  20.045  1.00  0.00     0.123 A 
ATOM      9  C   UNL     1      10.464  14.250  20.779  1.00  0.00     0.094 A 
ATOM     10  C   UNL     1      10.315  14.328  22.166  1.00  0.00     0.146 A 
ATOM     11  O   UNL     1       9.967  13.231  22.830  1.00  0.00    -0.456 OA
ENDROOT
BRANCH   1  12
ATOM     12  C   UNL     1       9.418  11.910  24.786  1.00  0.00     0.021 A 
ATOM     13  C   UNL     1       8.988  11.851  26.124  1.00  0.00     0.016 A 
ATOM     14  C   UNL     1       8.605  10.635  26.691  1.00  0.00     0.051 A 
ATOM     15  C   UNL     1       8.635   9.454  25.942  1.00  0.00     0.157 A 
ATOM     16  C   UNL     1       9.433  10.725  24.029  1.00  0.00     0.062 A 
ATOM     17  C   UNL     1       9.052   9.500  24.591  1.00  0.00     0.158 A 
BRANCH  15  18
ATOM     18  O   UNL     1       8.241   8.271  26.571  1.00  0.00    -0.504 OA
ATOM     19  H   UNL     1       7.411   7.751  26.326  1.00  0.00     0.293 HD
ENDBRANCH  15  18
BRANCH  17  20
ATOM     20  O   UNL     1       9.103   8.366  23.778  1.00  0.00    -0.504 OA
ATOM     21  H   UNL     1       9.828   7.666  23.831  1.00  0.00     0.293 HD
ENDBRANCH  17  20
ENDBRANCH   1  12
BRANCH   6  22
ATOM     22  O   UNL     1      11.016  17.990  22.621  1.00  0.00    -0.507 OA
ATOM     23  H   UNL     1      10.597  18.303  23.483  1.00  0.00     0.293 HD
ENDBRANCH   6  22
BRANCH   8  24
ATOM     24  O   UNL     1      11.011  15.298  18.664  1.00  0.00    -0.508 OA
ATOM     25  H   UNL     1      11.792  14.800  18.253  1.00  0.00     0.293 HD
ENDBRANCH   8  24
TORSDOF 5
ENDMDL
MODEL 3
REMARK VINA RESULT:    -6.731      1.639      7.344
REMARK INTER + INTRA:          -8.203
REMARK INTER:                  -7.911
REMARK INTRA:                  -0.292
REMARK UNBOUND:                -0.291
REMARK SMILES O=c1cc(-c2ccc(O)c(O)c2)oc2cc(O)cc(O)c12
REMARK SMILES IDX 4 1 3 2 2 3 1 4 21 5 19 6 18 7 16 8 15 9 14 10 13 11 5 12
REMARK SMILES IDX 6 13 7 14 8 15 12 16 10 17 9 18 11 20 20 22 17 24
REMARK H PARENT 9 19 11 21 20 23 17 25
REMARK Flexibility Score: inf
ROOT
ATOM      1  C   UNL     1       9.809  12.799  23.693  1.00  0.00     0.138 A 
ATOM      2  C   UNL     1       9.880  12.556  22.315  1.00  0.00     0.100 A 
ATOM      3  C   UNL     1      10.213  13.598  21.448  1.00  0.00     0.197 A 
ATOM      4  O   UNL     1      10.208  13.365  20.211  1.00  0.00    -0.289 OA
ATOM      5  C   UNL     1      10.505  14.881  21.967  1.00  0.00     0.107 A 
ATOM      6  C   UNL     1      10.894  16.007  21.183  1.00  0.00     0.134 A 
ATOM      7  C   UNL     1      11.045  17.257  21.795  1.00  0.00     0.093 A 
ATOM      8  C   UNL     1      10.881  17.409  23.171  1.00  0.00     0.123 A 
ATOM      9  C   UNL     1      10.552  16.304  23.957  1.00  0.00     0.094 A 
ATOM     10  C   UNL     1      10.361  15.050  23.371  1.00  0.00     0.146 A 
ATOM     11  O   UNL     1      10.035  14.026  24.152  1.00  0.00    -0.456 OA
ENDROOT
BRANCH   1  12
ATOM     12  C   UNL     1       9.462  11.727  24.661  1.00  0.00     0.021 A 
ATOM     13  C   UNL     1       9.011  12.021  25.960  1.00  0.00     0.016 A 
ATOM     14  C   UNL     1       8.682  10.993  26.844  1.00  0.00     0.051 A 
ATOM     15  C   UNL     1       8.787   9.654  26.456  1.00  0.00     0.157 A 
ATOM     16  C   UNL     1       9.554  10.381  24.267  1.00  0.00     0.062 A 
ATOM     17  C   UNL     1       9.226   9.343  25.148  1.00  0.00     0.158 A 
BRANCH  15  18
ATOM     18  O   UNL     1       8.444   8.674  27.390  1.00  0.00    -0.504 OA
ATOM     19  H   UNL     1       9.098   8.008  27.775  1.00  0.00     0.293 HD
ENDBRANCH  15  18
BRANCH  17  20
ATOM     20  O   UNL     1       9.352   8.032  24.686  1.00  0.00    -0.504 OA
ATOM     21  H   UNL     1       9.502   7.786  23.718  1.00  0.00     0.293 HD
ENDBRANCH  17  20
ENDBRANCH   1  12
BRANCH   6  22
ATOM     22  O   UNL     1      11.167  15.947  19.812  1.00  0.00    -0.507 OA
ATOM     23  H   UNL     1      12.006  15.560  19.408  1.00  0.00     0.293 HD
ENDBRANCH   6  22
BRANCH   8  24
ATOM     24  O   UNL     1      11.053  18.665  23.749  1.00  0.00    -0.508 OA
ATOM     25  H   UNL     1      10.263  19.221  24.054  1.00  0.00     0.293 HD
ENDBRANCH   8  24
TORSDOF 5
ENDMDL
MODEL 4
REMARK VINA RESULT:    -6.411      1.515      3.310
REMARK INTER + INTRA:          -7.827
REMARK INTER:                  -7.532
REMARK INTRA:                  -0.295
REMARK UNBOUND:                -0.291
REMARK SMILES O=c1cc(-c2ccc(O)c(O)c2)oc2cc(O)cc(O)c12
REMARK SMILES IDX 4 1 3 2 2 3 1 4 21 5 19 6 18 7 16 8 15 9 14 10 13 11 5 12
REMARK SMILES IDX 6 13 7 14 8 15 12 16 10 17 9 18 11 20 20 22 17 24
REMARK H PARENT 9 19 11 21 20 23 17 25
REMARK Flexibility Score: inf
ROOT
ATOM      1  C   UNL     1       9.717  12.228  24.360  1.00  0.00     0.138 A 
ATOM      2  C   UNL     1       9.714  11.008  23.671  1.00  0.00     0.100 A 
ATOM      3  C   UNL     1       9.339   9.840  24.337  1.00  0.00     0.197 A 
ATOM      4  O   UNL     1       9.405   8.751  23.710  1.00  0.00    -0.289 OA
ATOM      5  C   UNL     1       8.937   9.901  25.692  1.00  0.00     0.107 A 
ATOM      6  C   UNL     1       8.496   8.783  26.461  1.00  0.00     0.134 A 
ATOM      7  C   UNL     1       8.234   8.944  27.827  1.00  0.00     0.093 A 
ATOM      8  C   UNL     1       8.336  10.193  28.438  1.00  0.00     0.123 A 
ATOM      9  C   UNL     1       8.715  11.305  27.684  1.00  0.00     0.094 A 
ATOM     10  C   UNL     1       9.017  11.170  26.327  1.00  0.00     0.146 A 
ATOM     11  O   UNL     1       9.387  12.250  25.648  1.00  0.00    -0.456 OA
ENDROOT
BRANCH   1  12
ATOM     12  C   UNL     1      10.105  13.500  23.699  1.00  0.00     0.021 A 
ATOM     13  C   UNL     1      10.080  14.727  24.386  1.00  0.00     0.016 A 
ATOM     14  C   UNL     1      10.460  15.905  23.742  1.00  0.00     0.051 A 
ATOM     15  C   UNL     1      10.879  15.889  22.408  1.00  0.00     0.157 A 
ATOM     16  C   UNL     1      10.539  13.482  22.363  1.00  0.00     0.062 A 
ATOM     17  C   UNL     1      10.922  14.660  21.709  1.00  0.00     0.158 A 
BRANCH  15  18
ATOM     18  O   UNL     1      11.243  17.104  21.822  1.00  0.00    -0.504 OA
ATOM     19  H   UNL     1      10.758  17.523  21.042  1.00  0.00     0.293 HD
ENDBRANCH  15  18
BRANCH  17  20
ATOM     20  O   UNL     1      11.333  14.563  20.378  1.00  0.00    -0.504 OA
ATOM     21  H   UNL     1      10.844  14.987  19.603  1.00  0.00     0.293 HD
ENDBRANCH  17  20
ENDBRANCH   1  12
BRANCH   6  22
ATOM     22  O   UNL     1       8.279   7.508  25.930  1.00  0.00    -0.507 OA
ATOM     23  H   UNL     1       8.772   7.120  25.141  1.00  0.00     0.293 HD
ENDBRANCH   6  22
BRANCH   8  24
ATOM     24  O   UNL     1       8.054  10.319  29.797  1.00  0.00    -0.508 OA
ATOM     25  H   UNL     1       7.143  10.083  30.173  1.00  0.00     0.293 HD
ENDBRANCH   8  24
TORSDOF 5
ENDMDL
MODEL 5
REMARK VINA RESULT:    -6.293      1.133      2.674
REMARK INTER + INTRA:          -7.688
REMARK INTER:                  -7.375
REMARK INTRA:                  -0.313
REMARK UNBOUND:                -0.291
REMARK SMILES O=c1cc(-c2ccc(O)c(O)c2)oc2cc(O)cc(O)c12
REMARK SMILES IDX 4 1 3 2 2 3 1 4 21 5 19 6 18 7 16 8 15 9 14 10 13 11 5 12
REMARK SMILES IDX 6 13 7 14 8 15 12 16 10 17 9 18 11 20 20 22 17 24
REMARK H PARENT 9 19 11 21 20 23 17 25
REMARK Flexibility Score: inf
ROOT
ATOM      1  C   UNL     1       9.975  12.538  22.938  1.00  0.00     0.138 A 
ATOM      2  C   UNL     1      10.180  11.152  22.963  1.00  0.00     0.100 A 
ATOM      3  C   UNL     1       9.851  10.427  24.109  1.00  0.00     0.197 A 
ATOM      4  O   UNL     1      10.104   9.194  24.125  1.00  0.00    -0.289 OA
ATOM      5  C   UNL     1       9.284  11.090  25.223  1.00  0.00     0.107 A 
ATOM      6  C   UNL     1       8.872  10.448  26.428  1.00  0.00     0.134 A 
ATOM      7  C   UNL     1       8.433  11.223  27.509  1.00  0.00     0.093 A 
ATOM      8  C   UNL     1       8.331  12.610  27.406  1.00  0.00     0.123 A 
ATOM      9  C   UNL     1       8.681  13.245  26.213  1.00  0.00     0.094 A 
ATOM     10  C   UNL     1       9.157  12.502  25.130  1.00  0.00     0.146 A 
ATOM     11  O   UNL     1       9.492  13.146  24.017  1.00  0.00    -0.456 OA
ENDROOT
BRANCH   1  12
ATOM     12  C   UNL     1      10.306  13.357  21.744  1.00  0.00     0.021 A 
ATOM     13  C   UNL     1      10.434  12.785  20.466  1.00  0.00     0.016 A 
ATOM     14  C   UNL     1      10.735  13.582  19.361  1.00  0.00     0.051 A 
ATOM     15  C   UNL     1      10.910  14.962  19.500  1.00  0.00     0.157 A 
ATOM     16  C   UNL     1      10.468  14.747  21.881  1.00  0.00     0.062 A 
ATOM     17  C   UNL     1      10.771  15.554  20.777  1.00  0.00     0.158 A 
BRANCH  15  18
ATOM     18  O   UNL     1      11.213  15.701  18.354  1.00  0.00    -0.504 OA
ATOM     19  H   UNL     1      10.652  16.469  18.013  1.00  0.00     0.293 HD
ENDBRANCH  15  18
BRANCH  17  20
ATOM     20  O   UNL     1      10.926  16.925  20.994  1.00  0.00    -0.504 OA
ATOM     21  H   UNL     1      10.158  17.562  21.150  1.00  0.00     0.293 HD
ENDBRANCH  17  20
ENDBRANCH   1  12
BRANCH   6  22
ATOM     22  O   UNL     1       8.852   9.061  26.607  1.00  0.00    -0.507 OA
ATOM     23  H   UNL     1       9.333   8.568  27.343  1.00  0.00     0.293 HD
ENDBRANCH   6  22
BRANCH   8  24
ATOM     24  O   UNL     1       7.876  13.349  28.496  1.00  0.00    -0.508 OA
ATOM     25  H   UNL     1       6.981  13.155  28.931  1.00  0.00     0.293 HD
ENDBRANCH   8  24
TORSDOF 5
ENDMDL
MODEL 6
REMARK VINA RESULT:    -6.141      3.561      6.925
REMARK INTER + INTRA:          -7.510
REMARK INTER:                  -7.219
REMARK INTRA:                  -0.290
REMARK UNBOUND:                -0.291
REMARK SMILES O=c1cc(-c2ccc(O)c(O)c2)oc2cc(O)cc(O)c12
REMARK SMILES IDX 4 1 3 2 2 3 1 4 21 5 19 6 18 7 16 8 15 9 14 10 13 11 5 12
REMARK SMILES IDX 6 13 7 14 8 15 12 16 10 17 9 18 11 20 20 22 17 24
REMARK H PARENT 9 19 11 21 20 23 17 25
REMARK Flexibility Score: inf
ROOT
ATOM      1  C   UNL     1      10.131  16.409  24.271  1.00  0.00     0.138 A 
ATOM      2  C   UNL     1       9.891  15.070  24.609  1.00  0.00     0.100 A 
ATOM      3  C   UNL     1      10.000  14.082  23.629  1.00  0.00     0.197 A 
ATOM      4  O   UNL     1       9.719  12.897  23.947  1.00  0.00    -0.289 OA
ATOM      5  C   UNL     1      10.382  14.434  22.313  1.00  0.00     0.107 A 
ATOM      6  C   UNL     1      10.565  13.508  21.244  1.00  0.00     0.134 A 
ATOM      7  C   UNL     1      10.830  13.984  19.954  1.00  0.00     0.093 A 
ATOM      8  C   UNL     1      10.981  15.348  19.707  1.00  0.00     0.123 A 
ATOM      9  C   UNL     1      10.857  16.261  20.756  1.00  0.00     0.094 A 
ATOM     10  C   UNL     1      10.558  15.819  22.047  1.00  0.00     0.146 A 
ATOM     11  O   UNL     1      10.435  16.720  23.015  1.00  0.00    -0.456 OA
ENDROOT
BRANCH   1  12
ATOM     12  C   UNL     1      10.030  17.500  25.274  1.00  0.00     0.021 A 
ATOM     13  C   UNL     1       9.804  18.835  24.894  1.00  0.00     0.016 A 
ATOM     14  C   UNL     1       9.702  19.837  25.859  1.00  0.00     0.051 A 
ATOM     15  C   UNL     1       9.817  19.535  27.220  1.00  0.00     0.157 A 
ATOM     16  C   UNL     1      10.131  17.195  26.642  1.00  0.00     0.062 A 
ATOM     17  C   UNL     1      10.032  18.196  27.617  1.00  0.00     0.158 A 
BRANCH  15  18
ATOM     18  O   UNL     1       9.710  20.586  28.133  1.00  0.00    -0.504 OA
ATOM     19  H   UNL     1      10.452  20.872  28.756  1.00  0.00     0.293 HD
ENDBRANCH  15  18
BRANCH  17  20
ATOM     20  O   UNL     1      10.152  17.815  28.955  1.00  0.00    -0.504 OA
ATOM     21  H   UNL     1       9.367  17.664  29.572  1.00  0.00     0.293 HD
ENDBRANCH  17  20
ENDBRANCH   1  12
BRANCH   6  22
ATOM     22  O   UNL     1      10.520  12.118  21.398  1.00  0.00    -0.507 OA
ATOM     23  H   UNL     1      10.971  11.606  22.141  1.00  0.00     0.293 HD
ENDBRANCH   6  22
BRANCH   8  24
ATOM     24  O   UNL     1      11.259  15.786  18.414  1.00  0.00    -0.508 OA
ATOM     25  H   UNL     1      11.198  15.162  17.618  1.00  0.00     0.293 HD
ENDBRANCH   8  24
TORSDOF 5
ENDMDL
MODEL 7
REMARK VINA RESULT:    -6.013      2.579      7.337
REMARK INTER + INTRA:          -7.359
REMARK INTER:                  -7.080
REMARK INTRA:                  -0.280
REMARK UNBOUND:                -0.291
REMARK SMILES O=c1cc(-c2ccc(O)c(O)c2)oc2cc(O)cc(O)c12
REMARK SMILES IDX 4 1 3 2 2 3 1 4 21 5 19 6 18 7 16 8 15 9 14 10 13 11 5 12
REMARK SMILES IDX 6 13 7 14 8 15 12 16 10 17 9 18 11 20 20 22 17 24
REMARK H PARENT 9 19 11 21 20 23 17 25
REMARK Flexibility Score: inf
ROOT
ATOM      1  C   UNL     1       9.422  14.242  24.003  1.00  0.00     0.138 A 
ATOM      2  C   UNL     1       9.184  14.428  22.634  1.00  0.00     0.100 A 
ATOM      3  C   UNL     1       9.284  15.708  22.086  1.00  0.00     0.197 A 
ATOM      4  O   UNL     1       9.005  15.854  20.867  1.00  0.00    -0.289 OA
ATOM      5  C   UNL     1       9.654  16.799  22.907  1.00  0.00     0.107 A 
ATOM      6  C   UNL     1       9.825  18.139  22.450  1.00  0.00     0.134 A 
ATOM      7  C   UNL     1      10.078  19.159  23.376  1.00  0.00     0.093 A 
ATOM      8  C   UNL     1      10.227  18.878  24.733  1.00  0.00     0.123 A 
ATOM      9  C   UNL     1      10.114  17.562  25.186  1.00  0.00     0.094 A 
ATOM     10  C   UNL     1       9.827  16.528  24.291  1.00  0.00     0.146 A 
ATOM     11  O   UNL     1       9.714  15.292  24.764  1.00  0.00    -0.456 OA
ENDROOT
BRANCH   1  12
ATOM     12  C   UNL     1       9.331  12.902  24.638  1.00  0.00     0.021 A 
ATOM     13  C   UNL     1       8.744  12.722  25.903  1.00  0.00     0.016 A 
ATOM     14  C   UNL     1       8.663  11.449  26.470  1.00  0.00     0.051 A 
ATOM     15  C   UNL     1       9.157  10.331  25.792  1.00  0.00     0.157 A 
ATOM     16  C   UNL     1       9.815  11.775  23.951  1.00  0.00     0.062 A 
ATOM     17  C   UNL     1       9.738  10.495  24.514  1.00  0.00     0.158 A 
BRANCH  15  18
ATOM     18  O   UNL     1       9.047   9.087  26.418  1.00  0.00    -0.504 OA
ATOM     19  H   UNL     1       9.821   8.600  26.847  1.00  0.00     0.293 HD
ENDBRANCH  15  18
BRANCH  17  20
ATOM     20  O   UNL     1      10.248   9.426  23.774  1.00  0.00    -0.504 OA
ATOM     21  H   UNL     1      11.231   9.209  23.700  1.00  0.00     0.293 HD
ENDBRANCH  17  20
ENDBRANCH   1  12
BRANCH   6  22
ATOM     22  O   UNL     1       9.781  18.516  21.103  1.00  0.00    -0.507 OA
ATOM     23  H   UNL     1       9.323  17.994  20.373  1.00  0.00     0.293 HD
ENDBRANCH   6  22
BRANCH   8  24
ATOM     24  O   UNL     1      10.493  19.915  25.625  1.00  0.00    -0.508 OA
ATOM     25  H   UNL     1       9.759  20.527  25.960  1.00  0.00     0.293 HD
ENDBRANCH   8  24
TORSDOF 5
ENDMDL
MODEL 8
REMARK VINA RESULT:    -5.805      2.053      7.044
REMARK INTER + INTRA:          -7.114
REMARK INTER:                  -6.797
REMARK INTRA:                  -0.317
REMARK UNBOUND:                -0.291
REMARK SMILES O=c1cc(-c2ccc(O)c(O)c2)oc2cc(O)cc(O)c12
REMARK SMILES IDX 4 1 3 2 2 3 1 4 21 5 19 6 18 7 16 8 15 9 14 10 13 11 5 12
REMARK SMILES IDX 6 13 7 14 8 15 12 16 10 17 9 18 11 20 20 22 17 24
REMARK H PARENT 9 19 11 21 20 23 17 25
REMARK Flexibility Score: inf
ROOT
ATOM      1  C   UNL     1       9.843  12.767  24.400  1.00  0.00     0.138 A 
ATOM      2  C   UNL     1      10.492  13.035  23.187  1.00  0.00     0.100 A 
ATOM      3  C   UNL     1      10.768  14.356  22.830  1.00  0.00     0.197 A 
ATOM      4  O   UNL     1      11.296  14.569  21.708  1.00  0.00    -0.289 OA
ATOM      5  C   UNL     1      10.421  15.410  23.708  1.00  0.00     0.107 A 
ATOM      6  C   UNL     1      10.689  16.790  23.467  1.00  0.00     0.134 A 
ATOM      7  C   UNL     1      10.194  17.755  24.353  1.00  0.00     0.093 A 
ATOM      8  C   UNL     1       9.494  17.387  25.502  1.00  0.00     0.123 A 
ATOM      9  C   UNL     1       9.271  16.036  25.775  1.00  0.00     0.094 A 
ATOM     10  C   UNL     1       9.722  15.052  24.892  1.00  0.00     0.146 A 
ATOM     11  O   UNL     1       9.478  13.778  25.181  1.00  0.00    -0.456 OA
ENDROOT
BRANCH   1  12
ATOM     12  C   UNL     1       9.526  11.381  24.829  1.00  0.00     0.021 A 
ATOM     13  C   UNL     1       9.757  10.276  23.991  1.00  0.00     0.016 A 
ATOM     14  C   UNL     1       9.460   8.984  24.425  1.00  0.00     0.051 A 
ATOM     15  C   UNL     1       8.933   8.761  25.702  1.00  0.00     0.157 A 
ATOM     16  C   UNL     1       9.010  11.155  26.117  1.00  0.00     0.062 A 
ATOM     17  C   UNL     1       8.708   9.862  26.561  1.00  0.00     0.158 A 
BRANCH  15  18
ATOM     18  O   UNL     1       8.655   7.444  26.073  1.00  0.00    -0.504 OA
ATOM     19  H   UNL     1       8.630   7.120  27.030  1.00  0.00     0.293 HD
ENDBRANCH  15  18
BRANCH  17  20
ATOM     20  O   UNL     1       8.190   9.719  27.850  1.00  0.00    -0.504 OA
ATOM     21  H   UNL     1       8.210   8.857  28.374  1.00  0.00     0.293 HD
ENDBRANCH  17  20
ENDBRANCH   1  12
BRANCH   6  22
ATOM     22  O   UNL     1      11.453  17.261  22.395  1.00  0.00    -0.507 OA
ATOM     23  H   UNL     1      11.670  18.231  22.224  1.00  0.00     0.293 HD
ENDBRANCH   6  22
BRANCH   8  24
ATOM     24  O   UNL     1       9.029  18.373  26.369  1.00  0.00    -0.508 OA
ATOM     25  H   UNL     1       9.478  19.279  26.431  1.00  0.00     0.293 HD
ENDBRANCH   8  24
TORSDOF 5
ENDMDL
MODEL 9
REMARK VINA RESULT:    -5.793      2.414      3.932
REMARK INTER + INTRA:          -7.100
REMARK INTER:                  -6.804
REMARK INTRA:                  -0.295
REMARK UNBOUND:                -0.291
REMARK SMILES O=c1cc(-c2ccc(O)c(O)c2)oc2cc(O)cc(O)c12
REMARK SMILES IDX 4 1 3 2 2 3 1 4 21 5 19 6 18 7 16 8 15 9 14 10 13 11 5 12
REMARK SMILES IDX 6 13 7 14 8 15 12 16 10 17 9 18 11 20 20 22 17 24
REMARK H PARENT 9 19 11 21 20 23 17 25
REMARK Flexibility Score: inf
ROOT
ATOM      1  C   UNL     1       9.884  15.088  23.506  1.00  0.00     0.138 A 
ATOM      2  C   UNL     1      10.434  14.166  22.606  1.00  0.00     0.100 A 
ATOM      3  C   UNL     1      10.385  12.802  22.900  1.00  0.00     0.197 A 
ATOM      4  O   UNL     1      10.942  12.003  22.103  1.00  0.00    -0.289 OA
ATOM      5  C   UNL     1       9.754  12.360  24.086  1.00  0.00     0.107 A 
ATOM      6  C   UNL     1       9.609  10.994  24.470  1.00  0.00     0.134 A 
ATOM      7  C   UNL     1       9.070  10.681  25.724  1.00  0.00     0.093 A 
ATOM      8  C   UNL     1       8.614  11.682  26.581  1.00  0.00     0.123 A 
ATOM      9  C   UNL     1       8.702  13.020  26.195  1.00  0.00     0.094 A 
ATOM     10  C   UNL     1       9.267  13.365  24.964  1.00  0.00     0.146 A 
ATOM     11  O   UNL     1       9.345  14.651  24.640  1.00  0.00    -0.456 OA
ENDROOT
BRANCH   1  12
ATOM     12  C   UNL     1       9.907  16.549  23.242  1.00  0.00     0.021 A 
ATOM     13  C   UNL     1       9.585  17.078  21.980  1.00  0.00     0.016 A 
ATOM     14  C   UNL     1       9.605  18.457  21.764  1.00  0.00     0.051 A 
ATOM     15  C   UNL     1       9.938  19.338  22.797  1.00  0.00     0.157 A 
ATOM     16  C   UNL     1      10.228  17.437  24.284  1.00  0.00     0.062 A 
ATOM     17  C   UNL     1      10.252  18.822  24.075  1.00  0.00     0.158 A 
BRANCH  15  18
ATOM     18  O   UNL     1       9.942  20.706  22.513  1.00  0.00    -0.504 OA
ATOM     19  H   UNL     1       9.123  21.295  22.564  1.00  0.00     0.293 HD
ENDBRANCH  15  18
BRANCH  17  20
ATOM     20  O   UNL     1      10.589  19.638  25.157  1.00  0.00    -0.504 OA
ATOM     21  H   UNL     1      10.613  20.646  25.118  1.00  0.00     0.293 HD
ENDBRANCH  17  20
ENDBRANCH   1  12
BRANCH   6  22
ATOM     22  O   UNL     1       9.954   9.913  23.652  1.00  0.00    -0.507 OA
ATOM     23  H   UNL     1      10.886   9.541  23.551  1.00  0.00     0.293 HD
ENDBRANCH   6  22
BRANCH   8  24
ATOM     24  O   UNL     1       8.069  11.334  27.816  1.00  0.00    -0.508 OA
ATOM     25  H   UNL     1       8.554  10.713  28.453  1.00  0.00     0.293 HD
ENDBRANCH   8  24
TORSDOF 5
ENDMDL
