MODEL 1
REMARK VINA RESULT:    16.409      0.000      0.000
REMARK INTER + INTRA:          42.200
REMARK INTER:                  43.268
REMARK INTRA:                  -1.068
REMARK UNBOUND:                -1.068
REMARK SMILES CCCCCCCCCCCCCCCCCCCCCCCCCCCCCC(=O)[O-]
REMARK SMILES IDX 16 1 17 2 18 3 19 4 20 5 21 6 22 7 23 8 24 9 25 10 26 11
REMARK SMILES IDX 27 12 28 13 29 14 30 15 31 16 32 17 15 18 14 19 13 20 12 21
REMARK SMILES IDX 11 22 10 23 9 24 8 25 7 26 6 27 5 28 4 29 3 30 2 31 1 32
REMARK H PARENT
REMARK Flexibility Score: inf
ROOT
ATOM      1  C   UNL     1      -2.588  -3.474  -6.886  1.00  0.00     0.000 C 
ENDROOT
BRANCH   1   2
ATOM      2  C   UNL     1      -3.222  -3.091  -5.534  1.00  0.00     0.000 C 
BRANCH   2   3
ATOM      3  C   UNL     1      -3.227  -4.262  -4.529  1.00  0.00     0.000 C 
BRANCH   3   4
ATOM      4  C   UNL     1      -3.838  -3.909  -3.157  1.00  0.00     0.000 C 
BRANCH   4   5
ATOM      5  C   UNL     1      -2.942  -4.216  -1.946  1.00  0.00     0.000 C 
BRANCH   5   6
ATOM      6  C   UNL     1      -3.523  -3.687  -0.624  1.00  0.00     0.000 C 
BRANCH   6   7
ATOM      7  C   UNL     1      -3.322  -4.700   0.517  1.00  0.00     0.000 C 
BRANCH   7   8
ATOM      8  C   UNL     1      -4.500  -5.684   0.667  1.00  0.00     0.000 C 
BRANCH   8   9
ATOM      9  C   UNL     1      -4.260  -7.074   0.043  1.00  0.00     0.000 C 
BRANCH   9  10
ATOM     10  C   UNL     1      -5.492  -7.758  -0.580  1.00  0.00     0.000 C 
BRANCH  10  11
ATOM     11  C   UNL     1      -5.316  -9.250  -0.923  1.00  0.00     0.000 C 
BRANCH  11  12
ATOM     12  C   UNL     1      -6.244  -9.726  -2.051  1.00  0.00     0.000 C 
BRANCH  12  13
ATOM     13  C   UNL     1      -7.718  -9.505  -1.676  1.00  0.00     0.006 C 
BRANCH  13  14
ATOM     14  C   UNL     1      -8.302  -8.229  -2.299  1.00  0.00     0.053 C 
BRANCH  14  15
ATOM     15  C   UNL     1      -9.687  -7.934  -1.806  1.00  0.00     0.041 C 
ATOM     16  O   UNL     1      -9.871  -7.104  -0.876  1.00  0.00    -0.550 OA
ATOM     17  O   UNL     1     -10.777  -8.595  -2.360  1.00  0.00    -0.550 OA
ENDBRANCH  14  15
ENDBRANCH  13  14
ENDBRANCH  12  13
ENDBRANCH  11  12
ENDBRANCH  10  11
ENDBRANCH   9  10
ENDBRANCH   8   9
ENDBRANCH   7   8
ENDBRANCH   6   7
ENDBRANCH   5   6
ENDBRANCH   4   5
ENDBRANCH   3   4
ENDBRANCH   2   3
ENDBRANCH   1   2
BRANCH   1  18
ATOM     18  C   UNL     1      -2.312  -2.256  -7.780  1.00  0.00     0.000 C 
BRANCH  18  19
ATOM     19  C   UNL     1      -2.349  -2.600  -9.280  1.00  0.00     0.000 C 
BRANCH  19  20
ATOM     20  C   UNL     1      -1.935  -4.053  -9.553  1.00  0.00     0.000 C 
BRANCH  20  21
ATOM     21  C   UNL     1      -0.796  -4.163 -10.583  1.00  0.00     0.000 C 
BRANCH  21  22
ATOM     22  C   UNL     1      -1.320  -4.402 -12.008  1.00  0.00     0.000 C 
BRANCH  22  23
ATOM     23  C   UNL     1      -1.969  -5.789 -12.163  1.00  0.00     0.000 C 
BRANCH  23  24
ATOM     24  C   UNL     1      -3.048  -5.819 -13.257  1.00  0.00    -0.000 C 
BRANCH  24  25
ATOM     25  C   UNL     1      -3.032  -7.130 -14.064  1.00  0.00    -0.000 C 
BRANCH  25  26
ATOM     26  C   UNL     1      -4.407  -7.814 -14.125  1.00  0.00    -0.000 C 
BRANCH  26  27
ATOM     27  C   UNL     1      -4.698  -8.737 -12.921  1.00  0.00    -0.000 C 
BRANCH  27  28
ATOM     28  C   UNL     1      -5.475 -10.014 -13.292  1.00  0.00    -0.000 C 
BRANCH  28  29
ATOM     29  C   UNL     1      -6.934 -10.003 -12.788  1.00  0.00    -0.000 C 
BRANCH  29  30
ATOM     30  C   UNL     1      -7.309 -11.317 -12.084  1.00  0.00    -0.000 C 
BRANCH  30  31
ATOM     31  C   UNL     1      -8.680 -11.211 -11.404  1.00  0.00    -0.003 C 
ATOM     32  C   UNL     1      -9.704 -10.556 -12.327  1.00  0.00     0.004 C 
ENDBRANCH  30  31
ENDBRANCH  29  30
ENDBRANCH  28  29
ENDBRANCH  27  28
ENDBRANCH  26  27
ENDBRANCH  25  26
ENDBRANCH  24  25
ENDBRANCH  23  24
ENDBRANCH  22  23
ENDBRANCH  21  22
ENDBRANCH  20  21
ENDBRANCH  19  20
ENDBRANCH  18  19
ENDBRANCH   1  18
TORSDOF 28
ENDMDL
MODEL 2
REMARK VINA RESULT:    16.963      2.502      4.581
REMARK INTER + INTRA:          43.661
REMARK INTER:                  43.653
REMARK INTRA:                   0.008
REMARK UNBOUND:                -1.068
REMARK SMILES CCCCCCCCCCCCCCCCCCCCCCCCCCCCCC(=O)[O-]
REMARK SMILES IDX 16 1 17 2 18 3 19 4 20 5 21 6 22 7 23 8 24 9 25 10 26 11
REMARK SMILES IDX 27 12 28 13 29 14 30 15 31 16 32 17 15 18 14 19 13 20 12 21
REMARK SMILES IDX 11 22 10 23 9 24 8 25 7 26 6 27 5 28 4 29 3 30 2 31 1 32
REMARK H PARENT
REMARK Flexibility Score: inf
ROOT
ATOM      1  C   UNL     1      -3.290  -3.480  -4.499  1.00  0.00     0.000 C 
ENDROOT
BRANCH   1   2
ATOM      2  C   UNL     1      -3.659  -4.639  -3.552  1.00  0.00     0.000 C 
BRANCH   2   3
ATOM      3  C   UNL     1      -5.184  -4.839  -3.428  1.00  0.00     0.000 C 
BRANCH   3   4
ATOM      4  C   UNL     1      -5.728  -6.036  -4.235  1.00  0.00     0.000 C 
BRANCH   4   5
ATOM      5  C   UNL     1      -7.172  -6.445  -3.902  1.00  0.00     0.000 C 
BRANCH   5   6
ATOM      6  C   UNL     1      -7.417  -7.954  -4.065  1.00  0.00     0.000 C 
BRANCH   6   7
ATOM      7  C   UNL     1      -8.625  -8.415  -3.231  1.00  0.00     0.000 C 
BRANCH   7   8
ATOM      8  C   UNL     1      -9.630  -7.280  -2.944  1.00  0.00     0.000 C 
BRANCH   8   9
ATOM      9  C   UNL     1     -10.913  -7.727  -2.214  1.00  0.00     0.000 C 
BRANCH   9  10
ATOM     10  C   UNL     1     -10.764  -8.925  -1.256  1.00  0.00     0.000 C 
BRANCH  10  11
ATOM     11  C   UNL     1     -10.112  -8.606   0.103  1.00  0.00     0.000 C 
BRANCH  11  12
ATOM     12  C   UNL     1      -8.900  -7.670  -0.011  1.00  0.00     0.000 C 
BRANCH  12  13
ATOM     13  C   UNL     1      -7.587  -8.452   0.154  1.00  0.00     0.006 C 
BRANCH  13  14
ATOM     14  C   UNL     1      -6.799  -8.568  -1.159  1.00  0.00     0.053 C 
BRANCH  14  15
ATOM     15  C   UNL     1      -5.375  -8.983  -0.936  1.00  0.00     0.041 C 
ATOM     16  O   UNL     1      -5.050 -10.199  -0.982  1.00  0.00    -0.550 OA
ATOM     17  O   UNL     1      -4.408  -8.025  -0.655  1.00  0.00    -0.550 OA
ENDBRANCH  14  15
ENDBRANCH  13  14
ENDBRANCH  12  13
ENDBRANCH  11  12
ENDBRANCH  10  11
ENDBRANCH   9  10
ENDBRANCH   8   9
ENDBRANCH   7   8
ENDBRANCH   6   7
ENDBRANCH   5   6
ENDBRANCH   4   5
ENDBRANCH   3   4
ENDBRANCH   2   3
ENDBRANCH   1   2
BRANCH   1  18
ATOM     18  C   UNL     1      -2.749  -3.967  -5.852  1.00  0.00     0.000 C 
BRANCH  18  19
ATOM     19  C   UNL     1      -2.206  -2.819  -6.723  1.00  0.00     0.000 C 
BRANCH  19  20
ATOM     20  C   UNL     1      -3.214  -2.378  -7.795  1.00  0.00     0.000 C 
BRANCH  20  21
ATOM     21  C   UNL     1      -3.105  -3.205  -9.088  1.00  0.00     0.000 C 
BRANCH  21  22
ATOM     22  C   UNL     1      -1.808  -4.029  -9.146  1.00  0.00     0.000 C 
BRANCH  22  23
ATOM     23  C   UNL     1      -0.642  -3.234  -9.760  1.00  0.00     0.000 C 
BRANCH  23  24
ATOM     24  C   UNL     1      -0.903  -2.832 -11.221  1.00  0.00    -0.000 C 
BRANCH  24  25
ATOM     25  C   UNL     1      -0.848  -4.033 -12.181  1.00  0.00    -0.000 C 
BRANCH  25  26
ATOM     26  C   UNL     1      -1.353  -3.696 -13.593  1.00  0.00    -0.000 C 
BRANCH  26  27
ATOM     27  C   UNL     1      -2.421  -4.677 -14.124  1.00  0.00    -0.000 C 
BRANCH  27  28
ATOM     28  C   UNL     1      -2.435  -6.033 -13.394  1.00  0.00    -0.000 C 
BRANCH  28  29
ATOM     29  C   UNL     1      -3.780  -6.780 -13.529  1.00  0.00    -0.000 C 
BRANCH  29  30
ATOM     30  C   UNL     1      -3.920  -7.906 -12.493  1.00  0.00    -0.000 C 
BRANCH  30  31
ATOM     31  C   UNL     1      -5.164  -8.761 -12.766  1.00  0.00    -0.003 C 
ATOM     32  C   UNL     1      -5.777  -8.425 -14.122  1.00  0.00     0.004 C 
ENDBRANCH  30  31
ENDBRANCH  29  30
ENDBRANCH  28  29
ENDBRANCH  27  28
ENDBRANCH  26  27
ENDBRANCH  25  26
ENDBRANCH  24  25
ENDBRANCH  23  24
ENDBRANCH  22  23
ENDBRANCH  21  22
ENDBRANCH  20  21
ENDBRANCH  19  20
ENDBRANCH  18  19
ENDBRANCH   1  18
TORSDOF 28
ENDMDL
MODEL 3
REMARK VINA RESULT:    16.966      3.866      7.724
REMARK INTER + INTRA:          43.670
REMARK INTER:                  44.422
REMARK INTRA:                  -0.752
REMARK UNBOUND:                -1.068
REMARK SMILES CCCCCCCCCCCCCCCCCCCCCCCCCCCCCC(=O)[O-]
REMARK SMILES IDX 16 1 17 2 18 3 19 4 20 5 21 6 22 7 23 8 24 9 25 10 26 11
REMARK SMILES IDX 27 12 28 13 29 14 30 15 31 16 32 17 15 18 14 19 13 20 12 21
REMARK SMILES IDX 11 22 10 23 9 24 8 25 7 26 6 27 5 28 4 29 3 30 2 31 1 32
REMARK H PARENT
REMARK Flexibility Score: inf
ROOT
ATOM      1  C   UNL     1      -4.721  -4.839   2.869  1.00  0.00     0.000 C 
ENDROOT
BRANCH   1   2
ATOM      2  C   UNL     1      -3.997  -4.991   4.222  1.00  0.00     0.000 C 
BRANCH   2   3
ATOM      3  C   UNL     1      -4.838  -5.764   5.260  1.00  0.00     0.000 C 
BRANCH   3   4
ATOM      4  C   UNL     1      -5.768  -4.871   6.105  1.00  0.00     0.000 C 
BRANCH   4   5
ATOM      5  C   UNL     1      -7.228  -4.813   5.627  1.00  0.00     0.000 C 
BRANCH   5   6
ATOM      6  C   UNL     1      -7.352  -4.563   4.115  1.00  0.00     0.000 C 
BRANCH   6   7
ATOM      7  C   UNL     1      -7.742  -5.849   3.368  1.00  0.00     0.000 C 
BRANCH   7   8
ATOM      8  C   UNL     1      -7.812  -5.662   1.838  1.00  0.00     0.000 C 
BRANCH   8   9
ATOM      9  C   UNL     1      -7.534  -6.940   1.021  1.00  0.00     0.000 C 
BRANCH   9  10
ATOM     10  C   UNL     1      -8.774  -7.694   0.502  1.00  0.00     0.000 C 
BRANCH  10  11
ATOM     11  C   UNL     1      -9.646  -6.916  -0.503  1.00  0.00     0.000 C 
BRANCH  11  12
ATOM     12  C   UNL     1     -10.379  -7.827  -1.501  1.00  0.00     0.000 C 
BRANCH  12  13
ATOM     13  C   UNL     1      -9.536  -9.069  -1.828  1.00  0.00     0.006 C 
BRANCH  13  14
ATOM     14  C   UNL     1      -8.762  -8.928  -3.148  1.00  0.00     0.053 C 
BRANCH  14  15
ATOM     15  C   UNL     1      -7.430  -8.267  -2.961  1.00  0.00     0.041 C 
ATOM     16  O   UNL     1      -6.707  -8.555  -1.970  1.00  0.00    -0.550 OA
ATOM     17  O   UNL     1      -6.994  -7.313  -3.873  1.00  0.00    -0.550 OA
ENDBRANCH  14  15
ENDBRANCH  13  14
ENDBRANCH  12  13
ENDBRANCH  11  12
ENDBRANCH  10  11
ENDBRANCH   9  10
ENDBRANCH   8   9
ENDBRANCH   7   8
ENDBRANCH   6   7
ENDBRANCH   5   6
ENDBRANCH   4   5
ENDBRANCH   3   4
ENDBRANCH   2   3
ENDBRANCH   1   2
BRANCH   1  18
ATOM     18  C   UNL     1      -3.894  -5.373   1.689  1.00  0.00     0.000 C 
BRANCH  18  19
ATOM     19  C   UNL     1      -3.683  -4.319   0.587  1.00  0.00     0.000 C 
BRANCH  19  20
ATOM     20  C   UNL     1      -3.673  -4.941  -0.817  1.00  0.00     0.000 C 
BRANCH  20  21
ATOM     21  C   UNL     1      -2.998  -4.036  -1.863  1.00  0.00     0.000 C 
BRANCH  21  22
ATOM     22  C   UNL     1      -3.612  -4.202  -3.262  1.00  0.00     0.000 C 
BRANCH  22  23
ATOM     23  C   UNL     1      -2.546  -4.172  -4.371  1.00  0.00     0.000 C 
BRANCH  23  24
ATOM     24  C   UNL     1      -3.142  -3.883  -5.759  1.00  0.00    -0.000 C 
BRANCH  24  25
ATOM     25  C   UNL     1      -2.186  -3.073  -6.653  1.00  0.00    -0.000 C 
BRANCH  25  26
ATOM     26  C   UNL     1      -2.902  -2.386  -7.827  1.00  0.00    -0.000 C 
BRANCH  26  27
ATOM     27  C   UNL     1      -2.754  -3.133  -9.171  1.00  0.00    -0.000 C 
BRANCH  27  28
ATOM     28  C   UNL     1      -1.312  -3.160  -9.711  1.00  0.00    -0.000 C 
BRANCH  28  29
ATOM     29  C   UNL     1      -1.155  -4.032 -10.976  1.00  0.00    -0.000 C 
BRANCH  29  30
ATOM     30  C   UNL     1      -0.511  -3.254 -12.134  1.00  0.00    -0.000 C 
BRANCH  30  31
ATOM     31  C   UNL     1      -0.366  -4.135 -13.382  1.00  0.00    -0.003 C 
ATOM     32  C   UNL     1      -1.730  -4.529 -13.940  1.00  0.00     0.004 C 
ENDBRANCH  30  31
ENDBRANCH  29  30
ENDBRANCH  28  29
ENDBRANCH  27  28
ENDBRANCH  26  27
ENDBRANCH  25  26
ENDBRANCH  24  25
ENDBRANCH  23  24
ENDBRANCH  22  23
ENDBRANCH  21  22
ENDBRANCH  20  21
ENDBRANCH  19  20
ENDBRANCH  18  19
ENDBRANCH   1  18
TORSDOF 28
ENDMDL
MODEL 4
REMARK VINA RESULT:    17.206      4.002      6.625
REMARK INTER + INTRA:          44.303
REMARK INTER:                  44.039
REMARK INTRA:                   0.264
REMARK UNBOUND:                -1.068
REMARK SMILES CCCCCCCCCCCCCCCCCCCCCCCCCCCCCC(=O)[O-]
REMARK SMILES IDX 16 1 17 2 18 3 19 4 20 5 21 6 22 7 23 8 24 9 25 10 26 11
REMARK SMILES IDX 27 12 28 13 29 14 30 15 31 16 32 17 15 18 14 19 13 20 12 21
REMARK SMILES IDX 11 22 10 23 9 24 8 25 7 26 6 27 5 28 4 29 3 30 2 31 1 32
REMARK H PARENT
REMARK Flexibility Score: inf
ROOT
ATOM      1  C   UNL     1      -2.280  -4.507  -5.160  1.00  0.00     0.000 C 
ENDROOT
BRANCH   1   2
ATOM      2  C   UNL     1      -3.397  -4.121  -4.171  1.00  0.00     0.000 C 
BRANCH   2   3
ATOM      3  C   UNL     1      -2.886  -3.995  -2.720  1.00  0.00     0.000 C 
BRANCH   3   4
ATOM      4  C   UNL     1      -3.892  -4.477  -1.655  1.00  0.00     0.000 C 
BRANCH   4   5
ATOM      5  C   UNL     1      -3.409  -5.649  -0.785  1.00  0.00     0.000 C 
BRANCH   5   6
ATOM      6  C   UNL     1      -4.487  -6.152   0.190  1.00  0.00     0.000 C 
BRANCH   6   7
ATOM      7  C   UNL     1      -5.403  -7.190  -0.481  1.00  0.00     0.000 C 
BRANCH   7   8
ATOM      8  C   UNL     1      -4.876  -8.634  -0.355  1.00  0.00     0.000 C 
BRANCH   8   9
ATOM      9  C   UNL     1      -5.263  -9.564  -1.522  1.00  0.00     0.000 C 
BRANCH   9  10
ATOM     10  C   UNL     1      -6.489  -9.134  -2.351  1.00  0.00     0.000 C 
BRANCH  10  11
ATOM     11  C   UNL     1      -7.376  -8.053  -1.704  1.00  0.00     0.000 C 
BRANCH  11  12
ATOM     12  C   UNL     1      -8.329  -8.610  -0.636  1.00  0.00     0.000 C 
BRANCH  12  13
ATOM     13  C   UNL     1      -9.739  -8.813  -1.213  1.00  0.00     0.006 C 
BRANCH  13  14
ATOM     14  C   UNL     1      -9.946  -8.073  -2.543  1.00  0.00     0.053 C 
BRANCH  14  15
ATOM     15  C   UNL     1     -10.593  -6.733  -2.357  1.00  0.00     0.041 C 
ATOM     16  O   UNL     1     -10.947  -6.051  -3.355  1.00  0.00    -0.550 OA
ATOM     17  O   UNL     1     -10.784  -6.226  -1.077  1.00  0.00    -0.550 OA
ENDBRANCH  14  15
ENDBRANCH  13  14
ENDBRANCH  12  13
ENDBRANCH  11  12
ENDBRANCH  10  11
ENDBRANCH   9  10
ENDBRANCH   8   9
ENDBRANCH   7   8
ENDBRANCH   6   7
ENDBRANCH   5   6
ENDBRANCH   4   5
ENDBRANCH   3   4
ENDBRANCH   2   3
ENDBRANCH   1   2
BRANCH   1  18
ATOM     18  C   UNL     1      -2.603  -4.107  -6.608  1.00  0.00     0.000 C 
BRANCH  18  19
ATOM     19  C   UNL     1      -1.864  -2.831  -7.050  1.00  0.00     0.000 C 
BRANCH  19  20
ATOM     20  C   UNL     1      -1.247  -2.972  -8.449  1.00  0.00     0.000 C 
BRANCH  20  21
ATOM     21  C   UNL     1      -2.244  -3.521  -9.485  1.00  0.00     0.000 C 
BRANCH  21  22
ATOM     22  C   UNL     1      -1.562  -4.405 -10.542  1.00  0.00     0.000 C 
BRANCH  22  23
ATOM     23  C   UNL     1      -1.022  -3.583 -11.726  1.00  0.00     0.000 C 
BRANCH  23  24
ATOM     24  C   UNL     1      -0.550  -4.465 -12.893  1.00  0.00    -0.000 C 
BRANCH  24  25
ATOM     25  C   UNL     1       0.039  -3.642 -14.052  1.00  0.00    -0.000 C 
BRANCH  25  26
ATOM     26  C   UNL     1       1.572  -3.721 -14.125  1.00  0.00    -0.000 C 
BRANCH  26  27
ATOM     27  C   UNL     1       2.292  -2.594 -13.351  1.00  0.00    -0.000 C 
BRANCH  27  28
ATOM     28  C   UNL     1       3.734  -2.337 -13.828  1.00  0.00    -0.000 C 
BRANCH  28  29
ATOM     29  C   UNL     1       4.801  -2.874 -12.849  1.00  0.00    -0.000 C 
BRANCH  29  30
ATOM     30  C   UNL     1       5.092  -4.365 -13.077  1.00  0.00    -0.000 C 
BRANCH  30  31
ATOM     31  C   UNL     1       6.527  -4.581 -13.575  1.00  0.00    -0.003 C 
ATOM     32  C   UNL     1       6.712  -5.993 -14.125  1.00  0.00     0.004 C 
ENDBRANCH  30  31
ENDBRANCH  29  30
ENDBRANCH  28  29
ENDBRANCH  27  28
ENDBRANCH  26  27
ENDBRANCH  25  26
ENDBRANCH  24  25
ENDBRANCH  23  24
ENDBRANCH  22  23
ENDBRANCH  21  22
ENDBRANCH  20  21
ENDBRANCH  19  20
ENDBRANCH  18  19
ENDBRANCH   1  18
TORSDOF 28
ENDMDL
MODEL 5
REMARK VINA RESULT:    17.589      2.200      3.592
REMARK INTER + INTRA:          45.311
REMARK INTER:                  46.540
REMARK INTRA:                  -1.229
REMARK UNBOUND:                -1.068
REMARK SMILES CCCCCCCCCCCCCCCCCCCCCCCCCCCCCC(=O)[O-]
REMARK SMILES IDX 16 1 17 2 18 3 19 4 20 5 21 6 22 7 23 8 24 9 25 10 26 11
REMARK SMILES IDX 27 12 28 13 29 14 30 15 31 16 32 17 15 18 14 19 13 20 12 21
REMARK SMILES IDX 11 22 10 23 9 24 8 25 7 26 6 27 5 28 4 29 3 30 2 31 1 32
REMARK H PARENT
REMARK Flexibility Score: inf
ROOT
ATOM      1  C   UNL     1      -2.371  -3.905  -5.902  1.00  0.00     0.000 C 
ENDROOT
BRANCH   1   2
ATOM      2  C   UNL     1      -3.399  -4.843  -5.241  1.00  0.00     0.000 C 
BRANCH   2   3
ATOM      3  C   UNL     1      -4.364  -4.094  -4.297  1.00  0.00     0.000 C 
BRANCH   3   4
ATOM      4  C   UNL     1      -5.151  -5.016  -3.343  1.00  0.00     0.000 C 
BRANCH   4   5
ATOM      5  C   UNL     1      -6.285  -5.819  -4.001  1.00  0.00     0.000 C 
BRANCH   5   6
ATOM      6  C   UNL     1      -7.681  -5.284  -3.642  1.00  0.00     0.000 C 
BRANCH   6   7
ATOM      7  C   UNL     1      -8.626  -6.425  -3.227  1.00  0.00     0.000 C 
BRANCH   7   8
ATOM      8  C   UNL     1     -10.097  -6.162  -3.610  1.00  0.00     0.000 C 
BRANCH   8   9
ATOM      9  C   UNL     1     -11.121  -7.049  -2.874  1.00  0.00     0.000 C 
BRANCH   9  10
ATOM     10  C   UNL     1     -10.887  -7.242  -1.363  1.00  0.00     0.000 C 
BRANCH  10  11
ATOM     11  C   UNL     1      -9.947  -8.403  -0.985  1.00  0.00     0.000 C 
BRANCH  11  12
ATOM     12  C   UNL     1      -8.626  -7.933  -0.357  1.00  0.00     0.000 C 
BRANCH  12  13
ATOM     13  C   UNL     1      -7.535  -9.004  -0.512  1.00  0.00     0.006 C 
BRANCH  13  14
ATOM     14  C   UNL     1      -6.152  -8.403  -0.807  1.00  0.00     0.053 C 
BRANCH  14  15
ATOM     15  C   UNL     1      -5.102  -9.454  -1.005  1.00  0.00     0.041 C 
ATOM     16  O   UNL     1      -4.324  -9.766  -0.065  1.00  0.00    -0.550 OA
ATOM     17  O   UNL     1      -4.966 -10.075  -2.241  1.00  0.00    -0.550 OA
ENDBRANCH  14  15
ENDBRANCH  13  14
ENDBRANCH  12  13
ENDBRANCH  11  12
ENDBRANCH  10  11
ENDBRANCH   9  10
ENDBRANCH   8   9
ENDBRANCH   7   8
ENDBRANCH   6   7
ENDBRANCH   5   6
ENDBRANCH   4   5
ENDBRANCH   3   4
ENDBRANCH   2   3
ENDBRANCH   1   2
BRANCH   1  18
ATOM     18  C   UNL     1      -2.982  -3.045  -7.019  1.00  0.00     0.000 C 
BRANCH  18  19
ATOM     19  C   UNL     1      -1.948  -2.126  -7.694  1.00  0.00     0.000 C 
BRANCH  19  20
ATOM     20  C   UNL     1      -1.939  -2.287  -9.222  1.00  0.00     0.000 C 
BRANCH  20  21
ATOM     21  C   UNL     1      -1.983  -3.761  -9.664  1.00  0.00     0.000 C 
BRANCH  21  22
ATOM     22  C   UNL     1      -1.130  -4.019 -10.917  1.00  0.00     0.000 C 
BRANCH  22  23
ATOM     23  C   UNL     1      -1.428  -5.391 -11.549  1.00  0.00     0.000 C 
BRANCH  23  24
ATOM     24  C   UNL     1      -2.474  -5.310 -12.673  1.00  0.00    -0.000 C 
BRANCH  24  25
ATOM     25  C   UNL     1      -2.622  -6.638 -13.436  1.00  0.00    -0.000 C 
BRANCH  25  26
ATOM     26  C   UNL     1      -4.029  -6.839 -14.023  1.00  0.00    -0.000 C 
BRANCH  26  27
ATOM     27  C   UNL     1      -4.815  -8.000 -13.374  1.00  0.00    -0.000 C 
BRANCH  27  28
ATOM     28  C   UNL     1      -4.099  -9.360 -13.463  1.00  0.00    -0.000 C 
BRANCH  28  29
ATOM     29  C   UNL     1      -5.030 -10.506 -13.916  1.00  0.00    -0.000 C 
BRANCH  29  30
ATOM     30  C   UNL     1      -6.500 -10.064 -13.975  1.00  0.00    -0.000 C 
BRANCH  30  31
ATOM     31  C   UNL     1      -7.415 -11.081 -13.280  1.00  0.00    -0.003 C 
ATOM     32  C   UNL     1      -8.716 -10.428 -12.821  1.00  0.00     0.004 C 
ENDBRANCH  30  31
ENDBRANCH  29  30
ENDBRANCH  28  29
ENDBRANCH  27  28
ENDBRANCH  26  27
ENDBRANCH  25  26
ENDBRANCH  24  25
ENDBRANCH  23  24
ENDBRANCH  22  23
ENDBRANCH  21  22
ENDBRANCH  20  21
ENDBRANCH  19  20
ENDBRANCH  18  19
ENDBRANCH   1  18
TORSDOF 28
ENDMDL
MODEL 6
REMARK VINA RESULT:    17.595      4.404      7.210
REMARK INTER + INTRA:          45.328
REMARK INTER:                  43.458
REMARK INTRA:                   1.871
REMARK UNBOUND:                -1.068
REMARK SMILES CCCCCCCCCCCCCCCCCCCCCCCCCCCCCC(=O)[O-]
REMARK SMILES IDX 16 1 17 2 18 3 19 4 20 5 21 6 22 7 23 8 24 9 25 10 26 11
REMARK SMILES IDX 27 12 28 13 29 14 30 15 31 16 32 17 15 18 14 19 13 20 12 21
REMARK SMILES IDX 11 22 10 23 9 24 8 25 7 26 6 27 5 28 4 29 3 30 2 31 1 32
REMARK H PARENT
REMARK Flexibility Score: inf
ROOT
ATOM      1  C   UNL     1      -3.120  -3.711  -4.457  1.00  0.00     0.000 C 
ENDROOT
BRANCH   1   2
ATOM      2  C   UNL     1      -3.839  -4.705  -3.524  1.00  0.00     0.000 C 
BRANCH   2   3
ATOM      3  C   UNL     1      -5.337  -4.860  -3.862  1.00  0.00     0.000 C 
BRANCH   3   4
ATOM      4  C   UNL     1      -5.718  -6.256  -4.396  1.00  0.00     0.000 C 
BRANCH   4   5
ATOM      5  C   UNL     1      -7.117  -6.748  -3.991  1.00  0.00     0.000 C 
BRANCH   5   6
ATOM      6  C   UNL     1      -7.247  -8.279  -4.033  1.00  0.00     0.000 C 
BRANCH   6   7
ATOM      7  C   UNL     1      -8.250  -8.783  -2.982  1.00  0.00     0.000 C 
BRANCH   7   8
ATOM      8  C   UNL     1      -9.671  -8.987  -3.550  1.00  0.00     0.000 C 
BRANCH   8   9
ATOM      9  C   UNL     1     -10.767  -9.187  -2.484  1.00  0.00     0.000 C 
BRANCH   9  10
ATOM     10  C   UNL     1     -11.001  -8.005  -1.525  1.00  0.00     0.000 C 
BRANCH  10  11
ATOM     11  C   UNL     1      -9.726  -7.307  -1.014  1.00  0.00     0.000 C 
BRANCH  11  12
ATOM     12  C   UNL     1      -9.089  -8.016   0.192  1.00  0.00     0.000 C 
BRANCH  12  13
ATOM     13  C   UNL     1      -7.556  -7.977   0.102  1.00  0.00     0.006 C 
BRANCH  13  14
ATOM     14  C   UNL     1      -7.013  -8.767  -1.098  1.00  0.00     0.053 C 
BRANCH  14  15
ATOM     15  C   UNL     1      -5.529  -8.970  -1.026  1.00  0.00     0.041 C 
ATOM     16  O   UNL     1      -4.763  -8.001  -0.775  1.00  0.00    -0.550 OA
ATOM     17  O   UNL     1      -4.988 -10.229  -1.258  1.00  0.00    -0.550 OA
ENDBRANCH  14  15
ENDBRANCH  13  14
ENDBRANCH  12  13
ENDBRANCH  11  12
ENDBRANCH  10  11
ENDBRANCH   9  10
ENDBRANCH   8   9
ENDBRANCH   7   8
ENDBRANCH   6   7
ENDBRANCH   5   6
ENDBRANCH   4   5
ENDBRANCH   3   4
ENDBRANCH   2   3
ENDBRANCH   1   2
BRANCH   1  18
ATOM     18  C   UNL     1      -2.935  -4.260  -5.880  1.00  0.00     0.000 C 
BRANCH  18  19
ATOM     19  C   UNL     1      -1.925  -3.442  -6.705  1.00  0.00     0.000 C 
BRANCH  19  20
ATOM     20  C   UNL     1      -2.607  -2.352  -7.544  1.00  0.00     0.000 C 
BRANCH  20  21
ATOM     21  C   UNL     1      -2.346  -2.514  -9.053  1.00  0.00     0.000 C 
BRANCH  21  22
ATOM     22  C   UNL     1      -1.699  -3.866  -9.391  1.00  0.00     0.000 C 
BRANCH  22  23
ATOM     23  C   UNL     1      -0.819  -3.790 -10.651  1.00  0.00     0.000 C 
BRANCH  23  24
ATOM     24  C   UNL     1      -1.402  -2.857 -11.725  1.00  0.00    -0.000 C 
BRANCH  24  25
ATOM     25  C   UNL     1      -0.564  -2.850 -13.016  1.00  0.00    -0.000 C 
BRANCH  25  26
ATOM     26  C   UNL     1       0.561  -3.897 -13.007  1.00  0.00    -0.000 C 
BRANCH  26  27
ATOM     27  C   UNL     1       1.791  -3.499 -13.853  1.00  0.00    -0.000 C 
BRANCH  27  28
ATOM     28  C   UNL     1       2.568  -2.295 -13.289  1.00  0.00    -0.000 C 
BRANCH  28  29
ATOM     29  C   UNL     1       3.823  -1.942 -14.117  1.00  0.00    -0.000 C 
BRANCH  29  30
ATOM     30  C   UNL     1       5.034  -2.800 -13.722  1.00  0.00    -0.000 C 
BRANCH  30  31
ATOM     31  C   UNL     1       4.817  -4.272 -14.096  1.00  0.00    -0.003 C 
ATOM     32  C   UNL     1       5.708  -5.189 -13.262  1.00  0.00     0.004 C 
ENDBRANCH  30  31
ENDBRANCH  29  30
ENDBRANCH  28  29
ENDBRANCH  27  28
ENDBRANCH  26  27
ENDBRANCH  25  26
ENDBRANCH  24  25
ENDBRANCH  23  24
ENDBRANCH  22  23
ENDBRANCH  21  22
ENDBRANCH  20  21
ENDBRANCH  19  20
ENDBRANCH  18  19
ENDBRANCH   1  18
TORSDOF 28
ENDMDL
MODEL 7
REMARK VINA RESULT:    17.723      2.236      3.367
REMARK INTER + INTRA:          45.666
REMARK INTER:                  45.057
REMARK INTRA:                   0.609
REMARK UNBOUND:                -1.068
REMARK SMILES CCCCCCCCCCCCCCCCCCCCCCCCCCCCCC(=O)[O-]
REMARK SMILES IDX 16 1 17 2 18 3 19 4 20 5 21 6 22 7 23 8 24 9 25 10 26 11
REMARK SMILES IDX 27 12 28 13 29 14 30 15 31 16 32 17 15 18 14 19 13 20 12 21
REMARK SMILES IDX 11 22 10 23 9 24 8 25 7 26 6 27 5 28 4 29 3 30 2 31 1 32
REMARK H PARENT
REMARK Flexibility Score: inf
ROOT
ATOM      1  C   UNL     1      -2.730  -3.895  -7.254  1.00  0.00     0.000 C 
ENDROOT
BRANCH   1   2
ATOM      2  C   UNL     1      -2.522  -3.388  -5.814  1.00  0.00     0.000 C 
BRANCH   2   3
ATOM      3  C   UNL     1      -3.139  -4.331  -4.759  1.00  0.00     0.000 C 
BRANCH   3   4
ATOM      4  C   UNL     1      -4.152  -5.341  -5.336  1.00  0.00     0.000 C 
BRANCH   4   5
ATOM      5  C   UNL     1      -5.175  -5.887  -4.326  1.00  0.00     0.000 C 
BRANCH   5   6
ATOM      6  C   UNL     1      -6.135  -6.916  -4.946  1.00  0.00     0.000 C 
BRANCH   6   7
ATOM      7  C   UNL     1      -6.861  -7.727  -3.858  1.00  0.00     0.000 C 
BRANCH   7   8
ATOM      8  C   UNL     1      -7.816  -6.870  -3.001  1.00  0.00     0.000 C 
BRANCH   8   9
ATOM      9  C   UNL     1      -9.278  -6.852  -3.491  1.00  0.00     0.000 C 
BRANCH   9  10
ATOM     10  C   UNL     1     -10.351  -7.163  -2.430  1.00  0.00     0.000 C 
BRANCH  10  11
ATOM     11  C   UNL     1      -9.854  -7.165  -0.971  1.00  0.00     0.000 C 
BRANCH  11  12
ATOM     12  C   UNL     1      -9.276  -8.518  -0.530  1.00  0.00     0.000 C 
BRANCH  12  13
ATOM     13  C   UNL     1      -7.917  -8.777  -1.200  1.00  0.00     0.006 C 
BRANCH  13  14
ATOM     14  C   UNL     1      -6.736  -8.575  -0.239  1.00  0.00     0.053 C 
BRANCH  14  15
ATOM     15  C   UNL     1      -5.424  -8.957  -0.857  1.00  0.00     0.041 C 
ATOM     16  O   UNL     1      -5.322 -10.013  -1.536  1.00  0.00    -0.550 OA
ATOM     17  O   UNL     1      -4.306  -8.155  -0.664  1.00  0.00    -0.550 OA
ENDBRANCH  14  15
ENDBRANCH  13  14
ENDBRANCH  12  13
ENDBRANCH  11  12
ENDBRANCH  10  11
ENDBRANCH   9  10
ENDBRANCH   8   9
ENDBRANCH   7   8
ENDBRANCH   6   7
ENDBRANCH   5   6
ENDBRANCH   4   5
ENDBRANCH   3   4
ENDBRANCH   2   3
ENDBRANCH   1   2
BRANCH   1  18
ATOM     18  C   UNL     1      -2.112  -2.964  -8.308  1.00  0.00     0.000 C 
BRANCH  18  19
ATOM     19  C   UNL     1      -2.377  -3.438  -9.748  1.00  0.00     0.000 C 
BRANCH  19  20
ATOM     20  C   UNL     1      -1.848  -4.858  -9.999  1.00  0.00     0.000 C 
BRANCH  20  21
ATOM     21  C   UNL     1      -1.324  -5.052 -11.433  1.00  0.00     0.000 C 
BRANCH  21  22
ATOM     22  C   UNL     1      -2.448  -4.975 -12.480  1.00  0.00     0.000 C 
BRANCH  22  23
ATOM     23  C   UNL     1      -2.443  -6.187 -13.428  1.00  0.00     0.000 C 
BRANCH  23  24
ATOM     24  C   UNL     1      -3.845  -6.784 -13.633  1.00  0.00    -0.000 C 
BRANCH  24  25
ATOM     25  C   UNL     1      -3.798  -8.264 -14.055  1.00  0.00    -0.000 C 
BRANCH  25  26
ATOM     26  C   UNL     1      -4.765  -9.148 -13.251  1.00  0.00    -0.000 C 
BRANCH  26  27
ATOM     27  C   UNL     1      -5.619 -10.093 -14.124  1.00  0.00    -0.000 C 
BRANCH  27  28
ATOM     28  C   UNL     1      -6.557 -11.007 -13.314  1.00  0.00    -0.000 C 
BRANCH  28  29
ATOM     29  C   UNL     1      -7.883 -11.314 -14.045  1.00  0.00    -0.000 C 
BRANCH  29  30
ATOM     30  C   UNL     1      -9.065 -11.425 -13.070  1.00  0.00    -0.000 C 
BRANCH  30  31
ATOM     31  C   UNL     1      -9.408 -10.062 -12.455  1.00  0.00    -0.003 C 
ATOM     32  C   UNL     1     -10.530 -10.187 -11.428  1.00  0.00     0.004 C 
ENDBRANCH  30  31
ENDBRANCH  29  30
ENDBRANCH  28  29
ENDBRANCH  27  28
ENDBRANCH  26  27
ENDBRANCH  25  26
ENDBRANCH  24  25
ENDBRANCH  23  24
ENDBRANCH  22  23
ENDBRANCH  21  22
ENDBRANCH  20  21
ENDBRANCH  19  20
ENDBRANCH  18  19
ENDBRANCH   1  18
TORSDOF 28
ENDMDL
MODEL 8
REMARK VINA RESULT:    17.746      1.189      2.227
REMARK INTER + INTRA:          45.726
REMARK INTER:                  44.522
REMARK INTRA:                   1.204
REMARK UNBOUND:                -1.068
REMARK SMILES CCCCCCCCCCCCCCCCCCCCCCCCCCCCCC(=O)[O-]
REMARK SMILES IDX 16 1 17 2 18 3 19 4 20 5 21 6 22 7 23 8 24 9 25 10 26 11
REMARK SMILES IDX 27 12 28 13 29 14 30 15 31 16 32 17 15 18 14 19 13 20 12 21
REMARK SMILES IDX 11 22 10 23 9 24 8 25 7 26 6 27 5 28 4 29 3 30 2 31 1 32
REMARK H PARENT
REMARK Flexibility Score: inf
ROOT
ATOM      1  C   UNL     1      -2.125  -3.136  -8.995  1.00  0.00     0.000 C 
ENDROOT
BRANCH   1   2
ATOM      2  C   UNL     1      -1.654  -2.337  -7.765  1.00  0.00     0.000 C 
BRANCH   2   3
ATOM      3  C   UNL     1      -2.391  -2.749  -6.473  1.00  0.00     0.000 C 
BRANCH   3   4
ATOM      4  C   UNL     1      -2.468  -4.274  -6.253  1.00  0.00     0.000 C 
BRANCH   4   5
ATOM      5  C   UNL     1      -3.391  -4.722  -5.109  1.00  0.00     0.000 C 
BRANCH   5   6
ATOM      6  C   UNL     1      -2.896  -4.262  -3.728  1.00  0.00     0.000 C 
BRANCH   6   7
ATOM      7  C   UNL     1      -3.986  -4.444  -2.657  1.00  0.00     0.000 C 
BRANCH   7   8
ATOM      8  C   UNL     1      -3.585  -5.441  -1.549  1.00  0.00     0.000 C 
BRANCH   8   9
ATOM      9  C   UNL     1      -4.768  -6.174  -0.886  1.00  0.00     0.000 C 
BRANCH   9  10
ATOM     10  C   UNL     1      -4.562  -7.676  -0.608  1.00  0.00     0.000 C 
BRANCH  10  11
ATOM     11  C   UNL     1      -5.533  -8.622  -1.340  1.00  0.00     0.000 C 
BRANCH  11  12
ATOM     12  C   UNL     1      -6.413  -7.903  -2.375  1.00  0.00     0.000 C 
BRANCH  12  13
ATOM     13  C   UNL     1      -7.602  -8.784  -2.788  1.00  0.00     0.006 C 
BRANCH  13  14
ATOM     14  C   UNL     1      -8.928  -8.313  -2.172  1.00  0.00     0.053 C 
BRANCH  14  15
ATOM     15  C   UNL     1      -8.792  -7.961  -0.721  1.00  0.00     0.041 C 
ATOM     16  O   UNL     1      -9.535  -7.086  -0.204  1.00  0.00    -0.550 OA
ATOM     17  O   UNL     1      -7.825  -8.586   0.057  1.00  0.00    -0.550 OA
ENDBRANCH  14  15
ENDBRANCH  13  14
ENDBRANCH  12  13
ENDBRANCH  11  12
ENDBRANCH  10  11
ENDBRANCH   9  10
ENDBRANCH   8   9
ENDBRANCH   7   8
ENDBRANCH   6   7
ENDBRANCH   5   6
ENDBRANCH   4   5
ENDBRANCH   3   4
ENDBRANCH   2   3
ENDBRANCH   1   2
BRANCH   1  18
ATOM     18  C   UNL     1      -0.961  -3.742  -9.793  1.00  0.00     0.000 C 
BRANCH  18  19
ATOM     19  C   UNL     1      -1.436  -4.569 -11.001  1.00  0.00     0.000 C 
BRANCH  19  20
ATOM     20  C   UNL     1      -1.778  -3.687 -12.211  1.00  0.00     0.000 C 
BRANCH  20  21
ATOM     21  C   UNL     1      -0.965  -4.055 -13.464  1.00  0.00     0.000 C 
BRANCH  21  22
ATOM     22  C   UNL     1      -1.432  -5.377 -14.095  1.00  0.00     0.000 C 
BRANCH  22  23
ATOM     23  C   UNL     1      -2.576  -6.029 -13.298  1.00  0.00     0.000 C 
BRANCH  23  24
ATOM     24  C   UNL     1      -3.189  -7.238 -14.022  1.00  0.00    -0.000 C 
BRANCH  24  25
ATOM     25  C   UNL     1      -4.644  -7.504 -13.596  1.00  0.00    -0.000 C 
BRANCH  25  26
ATOM     26  C   UNL     1      -5.061  -8.973 -13.770  1.00  0.00    -0.000 C 
BRANCH  26  27
ATOM     27  C   UNL     1      -6.574  -9.167 -14.013  1.00  0.00    -0.000 C 
BRANCH  27  28
ATOM     28  C   UNL     1      -7.004 -10.644 -14.100  1.00  0.00    -0.000 C 
BRANCH  28  29
ATOM     29  C   UNL     1      -7.197 -11.301 -12.716  1.00  0.00    -0.000 C 
BRANCH  29  30
ATOM     30  C   UNL     1      -8.505 -10.855 -12.045  1.00  0.00    -0.000 C 
BRANCH  30  31
ATOM     31  C   UNL     1      -9.721 -11.198 -12.916  1.00  0.00    -0.003 C 
ATOM     32  C   UNL     1      -9.823 -10.258 -14.114  1.00  0.00     0.004 C 
ENDBRANCH  30  31
ENDBRANCH  29  30
ENDBRANCH  28  29
ENDBRANCH  27  28
ENDBRANCH  26  27
ENDBRANCH  25  26
ENDBRANCH  24  25
ENDBRANCH  23  24
ENDBRANCH  22  23
ENDBRANCH  21  22
ENDBRANCH  20  21
ENDBRANCH  19  20
ENDBRANCH  18  19
ENDBRANCH   1  18
TORSDOF 28
ENDMDL
