MODEL 1
REMARK VINA RESULT:    -6.148      0.000      0.000
REMARK INTER + INTRA:         -10.270
REMARK INTER:                  -8.843
REMARK INTRA:                  -1.427
REMARK UNBOUND:                -1.427
REMARK SMILES O=c1c(O[C@@H]2O[C@@H](CO)[C@@H](O)[C@@H](O)[C@H]2O)c(-c2ccc(O)cc2)oc2cc(O)cc(O)c12
REMARK SMILES IDX 4 1 3 2 16 3 24 4 2 5 25 6 1 7 32 8 26 9 30 10 27 11 29 12
REMARK SMILES IDX 17 13 18 14 19 15 20 16 23 17 22 18 21 19 31 21 28 23 5 25
REMARK SMILES IDX 14 26 6 27 12 28 7 29 10 30 15 31 13 33 8 35 9 36 11 38
REMARK H PARENT 21 20 31 22 28 24 15 32 13 34 9 37 11 39
REMARK Flexibility Score: inf
ROOT
ATOM      1  O   UNL     1      17.940  -0.247 -12.055  1.00  0.00    -0.454 OA
ENDROOT
BRANCH   1   2
ATOM      2  C   UNL     1      18.201  -0.316 -13.441  1.00  0.00     0.214 A 
ATOM      3  C   UNL     1      17.317  -1.064 -14.245  1.00  0.00     0.180 A 
ATOM      4  O   UNL     1      17.483  -1.111 -15.562  1.00  0.00    -0.452 OA
ATOM      5  C   UNL     1      19.279   0.347 -14.074  1.00  0.00     0.239 A 
ATOM      6  C   UNL     1      18.478  -0.502 -16.193  1.00  0.00     0.146 A 
ATOM      7  O   UNL     1      20.094   1.028 -13.398  1.00  0.00    -0.285 OA
ATOM      8  C   UNL     1      19.432   0.251 -15.473  1.00  0.00     0.111 A 
ATOM      9  C   UNL     1      18.571  -0.618 -17.583  1.00  0.00     0.094 A 
ATOM     10  C   UNL     1      20.488   0.879 -16.182  1.00  0.00     0.134 A 
ATOM     11  C   UNL     1      19.610   0.004 -18.276  1.00  0.00     0.123 A 
ATOM     12  C   UNL     1      20.566   0.747 -17.576  1.00  0.00     0.093 A 
BRANCH   3  13
ATOM     13  C   UNL     1      16.166  -1.797 -13.669  1.00  0.00     0.021 A 
ATOM     14  C   UNL     1      16.150  -3.201 -13.609  1.00  0.00     0.016 A 
ATOM     15  C   UNL     1      15.048  -3.874 -13.075  1.00  0.00     0.047 A 
ATOM     16  C   UNL     1      13.941  -3.156 -12.613  1.00  0.00     0.115 A 
ATOM     17  C   UNL     1      15.042  -1.082 -13.223  1.00  0.00     0.016 A 
ATOM     18  C   UNL     1      13.939  -1.757 -12.692  1.00  0.00     0.047 A 
BRANCH  16  19
ATOM     19  O   UNL     1      12.848  -3.839 -12.086  1.00  0.00    -0.508 OA
ATOM     20  H   UNL     1      12.343  -4.530 -12.629  1.00  0.00     0.293 HD
ENDBRANCH  16  19
ENDBRANCH   3  13
BRANCH  10  21
ATOM     21  O   UNL     1      21.460   1.626 -15.513  1.00  0.00    -0.507 OA
ATOM     22  H   UNL     1      21.582   2.618 -15.684  1.00  0.00     0.293 HD
ENDBRANCH  10  21
BRANCH  11  23
ATOM     23  O   UNL     1      19.685  -0.125 -19.661  1.00  0.00    -0.508 OA
ATOM     24  H   UNL     1      20.161  -0.907 -20.096  1.00  0.00     0.293 HD
ENDBRANCH  11  23
ENDBRANCH   1   2
BRANCH   1  25
ATOM     25  C   UNL     1      18.718  -0.806 -10.992  1.00  0.00     0.339 C 
ATOM     26  C   UNL     1      18.778   0.179  -9.810  1.00  0.00     0.214 C 
ATOM     27  O   UNL     1      18.217  -2.072 -10.584  1.00  0.00    -0.332 OA
ATOM     28  C   UNL     1      17.394   0.285  -9.134  1.00  0.00     0.180 C 
ATOM     29  C   UNL     1      16.887  -1.979 -10.099  1.00  0.00     0.179 C 
ATOM     30  C   UNL     1      16.832  -1.112  -8.820  1.00  0.00     0.177 C 
BRANCH  26  31
ATOM     31  O   UNL     1      19.745  -0.266  -8.891  1.00  0.00    -0.384 OA
ATOM     32  H   UNL     1      20.629   0.017  -9.242  1.00  0.00     0.211 HD
ENDBRANCH  26  31
BRANCH  28  33
ATOM     33  O   UNL     1      17.470   1.048  -7.957  1.00  0.00    -0.387 OA
ATOM     34  H   UNL     1      16.597   0.951  -7.496  1.00  0.00     0.211 HD
ENDBRANCH  28  33
BRANCH  29  35
ATOM     35  C   UNL     1      16.360  -3.396  -9.845  1.00  0.00     0.191 C 
BRANCH  35  36
ATOM     36  O   UNL     1      17.249  -4.106  -9.026  1.00  0.00    -0.394 OA
ATOM     37  H   UNL     1      18.049  -4.289  -9.584  1.00  0.00     0.210 HD
ENDBRANCH  35  36
ENDBRANCH  29  35
BRANCH  30  38
ATOM     38  O   UNL     1      17.578  -1.723  -7.795  1.00  0.00    -0.387 OA
ATOM     39  H   UNL     1      17.940  -2.569  -8.165  1.00  0.00     0.211 HD
ENDBRANCH  30  38
ENDBRANCH   1  25
TORSDOF 11
ENDMDL
MODEL 2
REMARK VINA RESULT:    -6.071      2.666      4.324
REMARK INTER + INTRA:         -10.161
REMARK INTER:                  -8.728
REMARK INTRA:                  -1.432
REMARK UNBOUND:                -1.427
REMARK SMILES O=c1c(O[C@@H]2O[C@@H](CO)[C@@H](O)[C@@H](O)[C@H]2O)c(-c2ccc(O)cc2)oc2cc(O)cc(O)c12
REMARK SMILES IDX 4 1 3 2 16 3 24 4 2 5 25 6 1 7 32 8 26 9 30 10 27 11 29 12
REMARK SMILES IDX 17 13 18 14 19 15 20 16 23 17 22 18 21 19 31 21 28 23 5 25
REMARK SMILES IDX 14 26 6 27 12 28 7 29 10 30 15 31 13 33 8 35 9 36 11 38
REMARK H PARENT 21 20 31 22 28 24 15 32 13 34 9 37 11 39
REMARK Flexibility Score: inf
ROOT
ATOM      1  O   UNL     1      17.363  -3.119 -13.744  1.00  0.00    -0.454 OA
ENDROOT
BRANCH   1   2
ATOM      2  C   UNL     1      17.838  -2.780 -15.029  1.00  0.00     0.214 A 
ATOM      3  C   UNL     1      17.871  -3.791 -16.011  1.00  0.00     0.180 A 
ATOM      4  O   UNL     1      18.253  -3.510 -17.252  1.00  0.00    -0.452 OA
ATOM      5  C   UNL     1      18.251  -1.478 -15.398  1.00  0.00     0.239 A 
ATOM      6  C   UNL     1      18.645  -2.303 -17.638  1.00  0.00     0.146 A 
ATOM      7  O   UNL     1      18.237  -0.542 -14.556  1.00  0.00    -0.285 OA
ATOM      8  C   UNL     1      18.671  -1.228 -16.722  1.00  0.00     0.111 A 
ATOM      9  C   UNL     1      19.034  -2.110 -18.967  1.00  0.00     0.094 A 
ATOM     10  C   UNL     1      19.106   0.044 -17.169  1.00  0.00     0.134 A 
ATOM     11  C   UNL     1      19.459  -0.855 -19.403  1.00  0.00     0.123 A 
ATOM     12  C   UNL     1      19.497   0.218 -18.505  1.00  0.00     0.093 A 
BRANCH   3  13
ATOM     13  C   UNL     1      17.465  -5.184 -15.714  1.00  0.00     0.021 A 
ATOM     14  C   UNL     1      16.227  -5.692 -16.145  1.00  0.00     0.016 A 
ATOM     15  C   UNL     1      15.856  -7.004 -15.842  1.00  0.00     0.047 A 
ATOM     16  C   UNL     1      16.706  -7.820 -15.089  1.00  0.00     0.115 A 
ATOM     17  C   UNL     1      18.305  -6.001 -14.939  1.00  0.00     0.016 A 
ATOM     18  C   UNL     1      17.930  -7.313 -14.634  1.00  0.00     0.047 A 
BRANCH  16  19
ATOM     19  O   UNL     1      16.323  -9.125 -14.792  1.00  0.00    -0.508 OA
ATOM     20  H   UNL     1      16.987  -9.890 -14.813  1.00  0.00     0.293 HD
ENDBRANCH  16  19
ENDBRANCH   3  13
BRANCH  10  21
ATOM     21  O   UNL     1      19.158   1.135 -16.298  1.00  0.00    -0.507 OA
ATOM     22  H   UNL     1      19.154   2.090 -16.638  1.00  0.00     0.293 HD
ENDBRANCH  10  21
BRANCH  11  23
ATOM     23  O   UNL     1      19.844  -0.683 -20.730  1.00  0.00    -0.508 OA
ATOM     24  H   UNL     1      19.312  -1.086 -21.494  1.00  0.00     0.293 HD
ENDBRANCH  11  23
ENDBRANCH   1   2
BRANCH   1  25
ATOM     25  C   UNL     1      16.106  -2.768 -13.158  1.00  0.00     0.339 C 
ATOM     26  C   UNL     1      15.099  -3.919 -13.342  1.00  0.00     0.214 C 
ATOM     27  O   UNL     1      16.243  -2.418 -11.787  1.00  0.00    -0.332 OA
ATOM     28  C   UNL     1      15.502  -5.125 -12.466  1.00  0.00     0.180 C 
ATOM     29  C   UNL     1      16.754  -3.495 -11.018  1.00  0.00     0.179 C 
ATOM     30  C   UNL     1      15.762  -4.682 -11.015  1.00  0.00     0.177 C 
BRANCH  26  31
ATOM     31  O   UNL     1      13.814  -3.464 -12.997  1.00  0.00    -0.384 OA
ATOM     32  H   UNL     1      13.935  -2.704 -12.370  1.00  0.00     0.211 HD
ENDBRANCH  26  31
BRANCH  28  33
ATOM     33  O   UNL     1      14.509  -6.117 -12.494  1.00  0.00    -0.387 OA
ATOM     34  H   UNL     1      14.878  -6.906 -12.019  1.00  0.00     0.211 HD
ENDBRANCH  28  33
BRANCH  29  35
ATOM     35  C   UNL     1      17.037  -2.991  -9.599  1.00  0.00     0.191 C 
BRANCH  35  36
ATOM     36  O   UNL     1      17.182  -4.072  -8.719  1.00  0.00    -0.394 OA
ATOM     37  H   UNL     1      16.669  -3.833  -7.903  1.00  0.00     0.210 HD
ENDBRANCH  35  36
ENDBRANCH  29  35
BRANCH  30  38
ATOM     38  O   UNL     1      14.558  -4.298 -10.396  1.00  0.00    -0.387 OA
ATOM     39  H   UNL     1      14.297  -5.036  -9.787  1.00  0.00     0.211 HD
ENDBRANCH  30  38
ENDBRANCH   1  25
TORSDOF 11
ENDMDL
MODEL 3
REMARK VINA RESULT:    -5.921      1.688      2.750
REMARK INTER + INTRA:          -9.944
REMARK INTER:                  -8.238
REMARK INTRA:                  -1.707
REMARK UNBOUND:                -1.427
REMARK SMILES O=c1c(O[C@@H]2O[C@@H](CO)[C@@H](O)[C@@H](O)[C@H]2O)c(-c2ccc(O)cc2)oc2cc(O)cc(O)c12
REMARK SMILES IDX 4 1 3 2 16 3 24 4 2 5 25 6 1 7 32 8 26 9 30 10 27 11 29 12
REMARK SMILES IDX 17 13 18 14 19 15 20 16 23 17 22 18 21 19 31 21 28 23 5 25
REMARK SMILES IDX 14 26 6 27 12 28 7 29 10 30 15 31 13 33 8 35 9 36 11 38
REMARK H PARENT 21 20 31 22 28 24 15 32 13 34 9 37 11 39
REMARK Flexibility Score: inf
ROOT
ATOM      1  O   UNL     1      19.269   0.993 -13.799  1.00  0.00    -0.454 OA
ENDROOT
BRANCH   1   2
ATOM      2  C   UNL     1      19.333   0.595 -15.152  1.00  0.00     0.214 A 
ATOM      3  C   UNL     1      18.273  -0.180 -15.665  1.00  0.00     0.180 A 
ATOM      4  O   UNL     1      18.256  -0.529 -16.948  1.00  0.00    -0.452 OA
ATOM      5  C   UNL     1      20.381   0.957 -16.031  1.00  0.00     0.239 A 
ATOM      6  C   UNL     1      19.217  -0.208 -17.803  1.00  0.00     0.146 A 
ATOM      7  O   UNL     1      21.348   1.651 -15.619  1.00  0.00    -0.285 OA
ATOM      8  C   UNL     1      20.334   0.546 -17.380  1.00  0.00     0.111 A 
ATOM      9  C   UNL     1      19.110  -0.629 -19.132  1.00  0.00     0.094 A 
ATOM     10  C   UNL     1      21.347   0.861 -18.321  1.00  0.00     0.134 A 
ATOM     11  C   UNL     1      20.108  -0.314 -20.055  1.00  0.00     0.123 A 
ATOM     12  C   UNL     1      21.223   0.426 -19.649  1.00  0.00     0.093 A 
BRANCH   3  13
ATOM     13  C   UNL     1      17.138  -0.612 -14.819  1.00  0.00     0.021 A 
ATOM     14  C   UNL     1      16.059   0.248 -14.549  1.00  0.00     0.016 A 
ATOM     15  C   UNL     1      15.004  -0.174 -13.736  1.00  0.00     0.047 A 
ATOM     16  C   UNL     1      15.022  -1.450 -13.166  1.00  0.00     0.115 A 
ATOM     17  C   UNL     1      17.160  -1.885 -14.227  1.00  0.00     0.016 A 
ATOM     18  C   UNL     1      16.105  -2.305 -13.410  1.00  0.00     0.047 A 
BRANCH  16  19
ATOM     19  O   UNL     1      13.965  -1.857 -12.355  1.00  0.00    -0.508 OA
ATOM     20  H   UNL     1      14.002  -2.724 -11.833  1.00  0.00     0.293 HD
ENDBRANCH  16  19
ENDBRANCH   3  13
BRANCH  10  21
ATOM     21  O   UNL     1      22.474   1.596 -17.947  1.00  0.00    -0.507 OA
ATOM     22  H   UNL     1      22.949   2.212 -18.597  1.00  0.00     0.293 HD
ENDBRANCH  10  21
BRANCH  11  23
ATOM     23  O   UNL     1      19.983  -0.743 -21.374  1.00  0.00    -0.508 OA
ATOM     24  H   UNL     1      19.317  -0.318 -22.010  1.00  0.00     0.293 HD
ENDBRANCH  11  23
ENDBRANCH   1   2
BRANCH   1  25
ATOM     25  C   UNL     1      19.914   0.381 -12.679  1.00  0.00     0.339 C 
ATOM     26  C   UNL     1      20.776   1.419 -11.936  1.00  0.00     0.214 C 
ATOM     27  O   UNL     1      18.978  -0.234 -11.803  1.00  0.00    -0.332 OA
ATOM     28  C   UNL     1      19.873   2.450 -11.224  1.00  0.00     0.180 C 
ATOM     29  C   UNL     1      18.062   0.708 -11.269  1.00  0.00     0.179 C 
ATOM     30  C   UNL     1      18.796   1.743 -10.384  1.00  0.00     0.177 C 
BRANCH  26  31
ATOM     31  O   UNL     1      21.596   0.754 -11.007  1.00  0.00    -0.384 OA
ATOM     32  H   UNL     1      21.229  -0.163 -10.903  1.00  0.00     0.211 HD
ENDBRANCH  26  31
BRANCH  28  33
ATOM     33  O   UNL     1      20.636   3.302 -10.409  1.00  0.00    -0.387 OA
ATOM     34  H   UNL     1      20.042   3.599  -9.671  1.00  0.00     0.211 HD
ENDBRANCH  28  33
BRANCH  29  35
ATOM     35  C   UNL     1      16.987  -0.049 -10.481  1.00  0.00     0.191 C 
BRANCH  35  36
ATOM     36  O   UNL     1      17.518  -1.231  -9.947  1.00  0.00    -0.394 OA
ATOM     37  H   UNL     1      17.944  -1.708 -10.705  1.00  0.00     0.210 HD
ENDBRANCH  35  36
ENDBRANCH  29  35
BRANCH  30  38
ATOM     38  O   UNL     1      19.380   1.097  -9.278  1.00  0.00    -0.387 OA
ATOM     39  H   UNL     1      18.650   0.913  -8.632  1.00  0.00     0.211 HD
ENDBRANCH  30  38
ENDBRANCH   1  25
TORSDOF 11
ENDMDL
MODEL 4
REMARK VINA RESULT:    -5.779      2.883      6.774
REMARK INTER + INTRA:          -9.741
REMARK INTER:                  -8.930
REMARK INTRA:                  -0.811
REMARK UNBOUND:                -1.427
REMARK SMILES O=c1c(O[C@@H]2O[C@@H](CO)[C@@H](O)[C@@H](O)[C@H]2O)c(-c2ccc(O)cc2)oc2cc(O)cc(O)c12
REMARK SMILES IDX 4 1 3 2 16 3 24 4 2 5 25 6 1 7 32 8 26 9 30 10 27 11 29 12
REMARK SMILES IDX 17 13 18 14 19 15 20 16 23 17 22 18 21 19 31 21 28 23 5 25
REMARK SMILES IDX 14 26 6 27 12 28 7 29 10 30 15 31 13 33 8 35 9 36 11 38
REMARK H PARENT 21 20 31 22 28 24 15 32 13 34 9 37 11 39
REMARK Flexibility Score: inf
ROOT
ATOM      1  O   UNL     1      15.528  -3.349 -12.435  1.00  0.00    -0.454 OA
ENDROOT
BRANCH   1   2
ATOM      2  C   UNL     1      16.246  -2.563 -11.508  1.00  0.00     0.214 A 
ATOM      3  C   UNL     1      16.410  -1.192 -11.789  1.00  0.00     0.180 A 
ATOM      4  O   UNL     1      17.025  -0.397 -10.919  1.00  0.00    -0.452 OA
ATOM      5  C   UNL     1      16.781  -3.065 -10.298  1.00  0.00     0.239 A 
ATOM      6  C   UNL     1      17.538  -0.827  -9.775  1.00  0.00     0.146 A 
ATOM      7  O   UNL     1      16.657  -4.283 -10.002  1.00  0.00    -0.285 OA
ATOM      8  C   UNL     1      17.447  -2.190  -9.413  1.00  0.00     0.111 A 
ATOM      9  C   UNL     1      18.172   0.088  -8.930  1.00  0.00     0.094 A 
ATOM     10  C   UNL     1      18.016  -2.614  -8.186  1.00  0.00     0.134 A 
ATOM     11  C   UNL     1      18.729  -0.334  -7.721  1.00  0.00     0.123 A 
ATOM     12  C   UNL     1      18.653  -1.682  -7.354  1.00  0.00     0.093 A 
BRANCH   3  13
ATOM     13  C   UNL     1      15.891  -0.580 -13.033  1.00  0.00     0.021 A 
ATOM     14  C   UNL     1      16.733  -0.327 -14.130  1.00  0.00     0.016 A 
ATOM     15  C   UNL     1      16.226   0.264 -15.290  1.00  0.00     0.047 A 
ATOM     16  C   UNL     1      14.878   0.628 -15.363  1.00  0.00     0.115 A 
ATOM     17  C   UNL     1      14.542  -0.193 -13.105  1.00  0.00     0.016 A 
ATOM     18  C   UNL     1      14.037   0.401 -14.265  1.00  0.00     0.047 A 
BRANCH  16  19
ATOM     19  O   UNL     1      14.386   1.219 -16.524  1.00  0.00    -0.508 OA
ATOM     20  H   UNL     1      15.003   1.506 -17.274  1.00  0.00     0.293 HD
ENDBRANCH  16  19
ENDBRANCH   3  13
BRANCH  10  21
ATOM     21  O   UNL     1      17.960  -3.953  -7.791  1.00  0.00    -0.507 OA
ATOM     22  H   UNL     1      18.667  -4.363  -7.192  1.00  0.00     0.293 HD
ENDBRANCH  10  21
BRANCH  11  23
ATOM     23  O   UNL     1      19.358   0.593  -6.894  1.00  0.00    -0.508 OA
ATOM     24  H   UNL     1      19.143   1.582  -6.947  1.00  0.00     0.293 HD
ENDBRANCH  11  23
ENDBRANCH   1   2
BRANCH   1  25
ATOM     25  C   UNL     1      15.995  -3.869 -13.683  1.00  0.00     0.339 C 
ATOM     26  C   UNL     1      17.530  -3.994 -13.660  1.00  0.00     0.214 C 
ATOM     27  O   UNL     1      15.382  -5.112 -13.999  1.00  0.00    -0.332 OA
ATOM     28  C   UNL     1      17.959  -5.121 -12.697  1.00  0.00     0.180 C 
ATOM     29  C   UNL     1      15.668  -6.101 -13.023  1.00  0.00     0.179 C 
ATOM     30  C   UNL     1      17.182  -6.416 -12.992  1.00  0.00     0.177 C 
BRANCH  26  31
ATOM     31  O   UNL     1      17.989  -4.255 -14.964  1.00  0.00    -0.384 OA
ATOM     32  H   UNL     1      17.392  -4.950 -15.346  1.00  0.00     0.211 HD
ENDBRANCH  26  31
BRANCH  28  33
ATOM     33  O   UNL     1      19.340  -5.358 -12.789  1.00  0.00    -0.387 OA
ATOM     34  H   UNL     1      19.535  -5.551 -13.743  1.00  0.00     0.211 HD
ENDBRANCH  28  33
BRANCH  29  35
ATOM     35  C   UNL     1      14.837  -7.351 -13.337  1.00  0.00     0.191 C 
BRANCH  35  36
ATOM     36  O   UNL     1      14.666  -7.486 -14.721  1.00  0.00    -0.394 OA
ATOM     37  H   UNL     1      15.578  -7.572 -15.103  1.00  0.00     0.210 HD
ENDBRANCH  35  36
ENDBRANCH  29  35
BRANCH  30  38
ATOM     38  O   UNL     1      17.583  -6.959 -14.226  1.00  0.00    -0.387 OA
ATOM     39  H   UNL     1      16.953  -7.696 -14.437  1.00  0.00     0.211 HD
ENDBRANCH  30  38
ENDBRANCH   1  25
TORSDOF 11
ENDMDL
MODEL 5
REMARK VINA RESULT:    -5.672      3.035      6.384
REMARK INTER + INTRA:          -9.587
REMARK INTER:                  -8.255
REMARK INTRA:                  -1.331
REMARK UNBOUND:                -1.427
REMARK SMILES O=c1c(O[C@@H]2O[C@@H](CO)[C@@H](O)[C@@H](O)[C@H]2O)c(-c2ccc(O)cc2)oc2cc(O)cc(O)c12
REMARK SMILES IDX 4 1 3 2 16 3 24 4 2 5 25 6 1 7 32 8 26 9 30 10 27 11 29 12
REMARK SMILES IDX 17 13 18 14 19 15 20 16 23 17 22 18 21 19 31 21 28 23 5 25
REMARK SMILES IDX 14 26 6 27 12 28 7 29 10 30 15 31 13 33 8 35 9 36 11 38
REMARK H PARENT 21 20 31 22 28 24 15 32 13 34 9 37 11 39
REMARK Flexibility Score: inf
ROOT
ATOM      1  O   UNL     1      16.516  -1.495 -13.531  1.00  0.00    -0.454 OA
ENDROOT
BRANCH   1   2
ATOM      2  C   UNL     1      15.635  -0.452 -13.890  1.00  0.00     0.214 A 
ATOM      3  C   UNL     1      16.052   0.453 -14.887  1.00  0.00     0.180 A 
ATOM      4  O   UNL     1      15.236   1.416 -15.303  1.00  0.00    -0.452 OA
ATOM      5  C   UNL     1      14.347  -0.283 -13.331  1.00  0.00     0.239 A 
ATOM      6  C   UNL     1      14.021   1.607 -14.807  1.00  0.00     0.146 A 
ATOM      7  O   UNL     1      13.930  -1.068 -12.440  1.00  0.00    -0.285 OA
ATOM      8  C   UNL     1      13.521   0.767 -13.786  1.00  0.00     0.111 A 
ATOM      9  C   UNL     1      13.241   2.653 -15.308  1.00  0.00     0.094 A 
ATOM     10  C   UNL     1      12.222   1.009 -13.274  1.00  0.00     0.134 A 
ATOM     11  C   UNL     1      11.961   2.885 -14.802  1.00  0.00     0.123 A 
ATOM     12  C   UNL     1      11.456   2.067 -13.786  1.00  0.00     0.093 A 
BRANCH   3  13
ATOM     13  C   UNL     1      17.386   0.358 -15.523  1.00  0.00     0.021 A 
ATOM     14  C   UNL     1      18.448   1.186 -15.119  1.00  0.00     0.016 A 
ATOM     15  C   UNL     1      19.696   1.090 -15.742  1.00  0.00     0.047 A 
ATOM     16  C   UNL     1      19.893   0.183 -16.787  1.00  0.00     0.115 A 
ATOM     17  C   UNL     1      17.584  -0.537 -16.587  1.00  0.00     0.016 A 
ATOM     18  C   UNL     1      18.832  -0.629 -17.211  1.00  0.00     0.047 A 
BRANCH  16  19
ATOM     19  O   UNL     1      21.140   0.099 -17.400  1.00  0.00    -0.508 OA
ATOM     20  H   UNL     1      21.816  -0.606 -17.132  1.00  0.00     0.293 HD
ENDBRANCH  16  19
ENDBRANCH   3  13
BRANCH  10  21
ATOM     21  O   UNL     1      11.688   0.212 -12.259  1.00  0.00    -0.507 OA
ATOM     22  H   UNL     1      12.274  -0.381 -11.682  1.00  0.00     0.293 HD
ENDBRANCH  10  21
BRANCH  11  23
ATOM     23  O   UNL     1      11.201   3.934 -15.314  1.00  0.00    -0.508 OA
ATOM     24  H   UNL     1      11.448   4.394 -16.183  1.00  0.00     0.293 HD
ENDBRANCH  11  23
ENDBRANCH   1   2
BRANCH   1  25
ATOM     25  C   UNL     1      16.583  -2.811 -14.088  1.00  0.00     0.339 C 
ATOM     26  C   UNL     1      17.998  -3.390 -13.905  1.00  0.00     0.214 C 
ATOM     27  O   UNL     1      15.598  -3.670 -13.528  1.00  0.00    -0.332 OA
ATOM     28  C   UNL     1      18.262  -3.691 -12.414  1.00  0.00     0.180 C 
ATOM     29  C   UNL     1      15.768  -3.821 -12.128  1.00  0.00     0.179 C 
ATOM     30  C   UNL     1      17.112  -4.519 -11.813  1.00  0.00     0.177 C 
BRANCH  26  31
ATOM     31  O   UNL     1      18.119  -4.560 -14.675  1.00  0.00    -0.384 OA
ATOM     32  H   UNL     1      18.915  -5.047 -14.338  1.00  0.00     0.211 HD
ENDBRANCH  26  31
BRANCH  28  33
ATOM     33  O   UNL     1      19.480  -4.370 -12.250  1.00  0.00    -0.387 OA
ATOM     34  H   UNL     1      20.185  -3.795 -12.646  1.00  0.00     0.211 HD
ENDBRANCH  28  33
BRANCH  29  35
ATOM     35  C   UNL     1      14.578  -4.612 -11.574  1.00  0.00     0.191 C 
BRANCH  35  36
ATOM     36  O   UNL     1      13.373  -3.991 -11.930  1.00  0.00    -0.394 OA
ATOM     37  H   UNL     1      13.273  -4.128 -12.908  1.00  0.00     0.210 HD
ENDBRANCH  35  36
ENDBRANCH  29  35
BRANCH  30  38
ATOM     38  O   UNL     1      17.112  -5.820 -12.348  1.00  0.00    -0.387 OA
ATOM     39  H   UNL     1      16.189  -6.006 -12.658  1.00  0.00     0.211 HD
ENDBRANCH  30  38
ENDBRANCH   1  25
TORSDOF 11
ENDMDL
MODEL 6
REMARK VINA RESULT:    -5.646      2.521      6.695
REMARK INTER + INTRA:          -9.548
REMARK INTER:                  -8.067
REMARK INTRA:                  -1.481
REMARK UNBOUND:                -1.427
REMARK SMILES O=c1c(O[C@@H]2O[C@@H](CO)[C@@H](O)[C@@H](O)[C@H]2O)c(-c2ccc(O)cc2)oc2cc(O)cc(O)c12
REMARK SMILES IDX 4 1 3 2 16 3 24 4 2 5 25 6 1 7 32 8 26 9 30 10 27 11 29 12
REMARK SMILES IDX 17 13 18 14 19 15 20 16 23 17 22 18 21 19 31 21 28 23 5 25
REMARK SMILES IDX 14 26 6 27 12 28 7 29 10 30 15 31 13 33 8 35 9 36 11 38
REMARK H PARENT 21 20 31 22 28 24 15 32 13 34 9 37 11 39
REMARK Flexibility Score: inf
ROOT
ATOM      1  O   UNL     1      15.951  -1.051 -11.979  1.00  0.00    -0.454 OA
ENDROOT
BRANCH   1   2
ATOM      2  C   UNL     1      17.160  -1.407 -11.343  1.00  0.00     0.214 A 
ATOM      3  C   UNL     1      18.336  -1.427 -12.121  1.00  0.00     0.180 A 
ATOM      4  O   UNL     1      19.510  -1.696 -11.557  1.00  0.00    -0.452 OA
ATOM      5  C   UNL     1      17.266  -1.712  -9.966  1.00  0.00     0.239 A 
ATOM      6  C   UNL     1      19.651  -1.985 -10.271  1.00  0.00     0.146 A 
ATOM      7  O   UNL     1      16.244  -1.704  -9.231  1.00  0.00    -0.285 OA
ATOM      8  C   UNL     1      18.529  -2.014  -9.413  1.00  0.00     0.111 A 
ATOM      9  C   UNL     1      20.928  -2.260  -9.775  1.00  0.00     0.094 A 
ATOM     10  C   UNL     1      18.718  -2.337  -8.046  1.00  0.00     0.134 A 
ATOM     11  C   UNL     1      21.110  -2.575  -8.427  1.00  0.00     0.123 A 
ATOM     12  C   UNL     1      20.008  -2.615  -7.567  1.00  0.00     0.093 A 
BRANCH   3  13
ATOM     13  C   UNL     1      18.321  -1.129 -13.571  1.00  0.00     0.021 A 
ATOM     14  C   UNL     1      17.923  -2.095 -14.512  1.00  0.00     0.016 A 
ATOM     15  C   UNL     1      17.929  -1.799 -15.877  1.00  0.00     0.047 A 
ATOM     16  C   UNL     1      18.351  -0.542 -16.322  1.00  0.00     0.115 A 
ATOM     17  C   UNL     1      18.763   0.124 -14.026  1.00  0.00     0.016 A 
ATOM     18  C   UNL     1      18.772   0.418 -15.393  1.00  0.00     0.047 A 
BRANCH  16  19
ATOM     19  O   UNL     1      18.355  -0.261 -17.686  1.00  0.00    -0.508 OA
ATOM     20  H   UNL     1      17.936  -0.892 -18.358  1.00  0.00     0.293 HD
ENDBRANCH  16  19
ENDBRANCH   3  13
BRANCH  10  21
ATOM     21  O   UNL     1      17.638  -2.388  -7.161  1.00  0.00    -0.507 OA
ATOM     22  H   UNL     1      17.188  -1.547  -6.820  1.00  0.00     0.293 HD
ENDBRANCH  10  21
BRANCH  11  23
ATOM     23  O   UNL     1      22.391  -2.847  -7.953  1.00  0.00    -0.508 OA
ATOM     24  H   UNL     1      23.177  -2.960  -8.582  1.00  0.00     0.293 HD
ENDBRANCH  11  23
ENDBRANCH   1   2
BRANCH   1  25
ATOM     25  C   UNL     1      15.208   0.161 -11.823  1.00  0.00     0.339 C 
ATOM     26  C   UNL     1      15.564   1.146 -12.953  1.00  0.00     0.214 C 
ATOM     27  O   UNL     1      13.808  -0.082 -11.774  1.00  0.00    -0.332 OA
ATOM     28  C   UNL     1      15.009   0.635 -14.300  1.00  0.00     0.180 C 
ATOM     29  C   UNL     1      13.338  -0.687 -12.968  1.00  0.00     0.179 C 
ATOM     30  C   UNL     1      13.521   0.265 -14.172  1.00  0.00     0.177 C 
BRANCH  26  31
ATOM     31  O   UNL     1      15.030   2.410 -12.645  1.00  0.00    -0.384 OA
ATOM     32  H   UNL     1      14.173   2.489 -13.140  1.00  0.00     0.211 HD
ENDBRANCH  26  31
BRANCH  28  33
ATOM     33  O   UNL     1      15.181   1.598 -15.308  1.00  0.00    -0.387 OA
ATOM     34  H   UNL     1      15.228   2.480 -14.856  1.00  0.00     0.211 HD
ENDBRANCH  28  33
BRANCH  29  35
ATOM     35  C   UNL     1      11.868  -1.075 -12.772  1.00  0.00     0.191 C 
BRANCH  35  36
ATOM     36  O   UNL     1      11.209  -1.124 -14.008  1.00  0.00    -0.394 OA
ATOM     37  H   UNL     1      10.251  -0.953 -13.816  1.00  0.00     0.210 HD
ENDBRANCH  35  36
ENDBRANCH  29  35
BRANCH  30  38
ATOM     38  O   UNL     1      12.742   1.423 -13.989  1.00  0.00    -0.387 OA
ATOM     39  H   UNL     1      13.347   2.128 -13.641  1.00  0.00     0.211 HD
ENDBRANCH  30  38
ENDBRANCH   1  25
TORSDOF 11
ENDMDL
MODEL 7
REMARK VINA RESULT:    -5.644      3.107      5.536
REMARK INTER + INTRA:          -9.546
REMARK INTER:                  -8.043
REMARK INTRA:                  -1.503
REMARK UNBOUND:                -1.427
REMARK SMILES O=c1c(O[C@@H]2O[C@@H](CO)[C@@H](O)[C@@H](O)[C@H]2O)c(-c2ccc(O)cc2)oc2cc(O)cc(O)c12
REMARK SMILES IDX 4 1 3 2 16 3 24 4 2 5 25 6 1 7 32 8 26 9 30 10 27 11 29 12
REMARK SMILES IDX 17 13 18 14 19 15 20 16 23 17 22 18 21 19 31 21 28 23 5 25
REMARK SMILES IDX 14 26 6 27 12 28 7 29 10 30 15 31 13 33 8 35 9 36 11 38
REMARK H PARENT 21 20 31 22 28 24 15 32 13 34 9 37 11 39
REMARK Flexibility Score: inf
ROOT
ATOM      1  O   UNL     1      15.906  -1.096 -10.634  1.00  0.00    -0.454 OA
ENDROOT
BRANCH   1   2
ATOM      2  C   UNL     1      15.044  -0.313 -11.432  1.00  0.00     0.214 A 
ATOM      3  C   UNL     1      14.995  -0.581 -12.815  1.00  0.00     0.180 A 
ATOM      4  O   UNL     1      14.155   0.087 -13.599  1.00  0.00    -0.452 OA
ATOM      5  C   UNL     1      14.203   0.703 -10.919  1.00  0.00     0.239 A 
ATOM      6  C   UNL     1      13.350   1.043 -13.158  1.00  0.00     0.146 A 
ATOM      7  O   UNL     1      14.210   0.977  -9.690  1.00  0.00    -0.285 OA
ATOM      8  C   UNL     1      13.343   1.403 -11.791  1.00  0.00     0.111 A 
ATOM      9  C   UNL     1      12.507   1.692 -14.065  1.00  0.00     0.094 A 
ATOM     10  C   UNL     1      12.476   2.438 -11.359  1.00  0.00     0.134 A 
ATOM     11  C   UNL     1      11.653   2.708 -13.633  1.00  0.00     0.123 A 
ATOM     12  C   UNL     1      11.641   3.081 -12.285  1.00  0.00     0.093 A 
BRANCH   3  13
ATOM     13  C   UNL     1      15.844  -1.620 -13.441  1.00  0.00     0.021 A 
ATOM     14  C   UNL     1      16.904  -1.279 -14.298  1.00  0.00     0.016 A 
ATOM     15  C   UNL     1      17.685  -2.275 -14.890  1.00  0.00     0.047 A 
ATOM     16  C   UNL     1      17.404  -3.623 -14.651  1.00  0.00     0.115 A 
ATOM     17  C   UNL     1      15.554  -2.977 -13.222  1.00  0.00     0.016 A 
ATOM     18  C   UNL     1      16.333  -3.972 -13.818  1.00  0.00     0.047 A 
BRANCH  16  19
ATOM     19  O   UNL     1      18.188  -4.606 -15.250  1.00  0.00    -0.508 OA
ATOM     20  H   UNL     1      18.988  -5.008 -14.775  1.00  0.00     0.293 HD
ENDBRANCH  16  19
ENDBRANCH   3  13
BRANCH  10  21
ATOM     21  O   UNL     1      12.440   2.835 -10.020  1.00  0.00    -0.507 OA
ATOM     22  H   UNL     1      12.857   3.706  -9.710  1.00  0.00     0.293 HD
ENDBRANCH  10  21
BRANCH  11  23
ATOM     23  O   UNL     1      10.822   3.343 -14.553  1.00  0.00    -0.508 OA
ATOM     24  H   UNL     1      11.173   3.676 -15.444  1.00  0.00     0.293 HD
ENDBRANCH  11  23
ENDBRANCH   1   2
BRANCH   1  25
ATOM     25  C   UNL     1      17.088  -0.670  -9.951  1.00  0.00     0.339 C 
ATOM     26  C   UNL     1      17.139  -1.297  -8.545  1.00  0.00     0.214 C 
ATOM     27  O   UNL     1      18.263  -0.972 -10.693  1.00  0.00    -0.332 OA
ATOM     28  C   UNL     1      17.394  -2.817  -8.649  1.00  0.00     0.180 C 
ATOM     29  C   UNL     1      18.406  -2.367 -10.904  1.00  0.00     0.179 C 
ATOM     30  C   UNL     1      18.599  -3.107  -9.560  1.00  0.00     0.177 C 
BRANCH  26  31
ATOM     31  O   UNL     1      18.157  -0.674  -7.801  1.00  0.00    -0.384 OA
ATOM     32  H   UNL     1      17.992   0.303  -7.848  1.00  0.00     0.211 HD
ENDBRANCH  26  31
BRANCH  28  33
ATOM     33  O   UNL     1      17.607  -3.375  -7.378  1.00  0.00    -0.387 OA
ATOM     34  H   UNL     1      16.995  -2.906  -6.753  1.00  0.00     0.211 HD
ENDBRANCH  28  33
BRANCH  29  35
ATOM     35  C   UNL     1      19.589  -2.598 -11.852  1.00  0.00     0.191 C 
BRANCH  35  36
ATOM     36  O   UNL     1      19.955  -3.951 -11.852  1.00  0.00    -0.394 OA
ATOM     37  H   UNL     1      19.131  -4.458 -12.073  1.00  0.00     0.210 HD
ENDBRANCH  35  36
ENDBRANCH  29  35
BRANCH  30  38
ATOM     38  O   UNL     1      19.792  -2.682  -8.947  1.00  0.00    -0.387 OA
ATOM     39  H   UNL     1      20.008  -1.789  -9.322  1.00  0.00     0.211 HD
ENDBRANCH  30  38
ENDBRANCH   1  25
TORSDOF 11
ENDMDL
MODEL 8
REMARK VINA RESULT:    -5.622      2.396      3.717
REMARK INTER + INTRA:          -9.514
REMARK INTER:                  -8.143
REMARK INTRA:                  -1.371
REMARK UNBOUND:                -1.427
REMARK SMILES O=c1c(O[C@@H]2O[C@@H](CO)[C@@H](O)[C@@H](O)[C@H]2O)c(-c2ccc(O)cc2)oc2cc(O)cc(O)c12
REMARK SMILES IDX 4 1 3 2 16 3 24 4 2 5 25 6 1 7 32 8 26 9 30 10 27 11 29 12
REMARK SMILES IDX 17 13 18 14 19 15 20 16 23 17 22 18 21 19 31 21 28 23 5 25
REMARK SMILES IDX 14 26 6 27 12 28 7 29 10 30 15 31 13 33 8 35 9 36 11 38
REMARK H PARENT 21 20 31 22 28 24 15 32 13 34 9 37 11 39
REMARK Flexibility Score: inf
ROOT
ATOM      1  O   UNL     1      19.372   1.109 -14.019  1.00  0.00    -0.454 OA
ENDROOT
BRANCH   1   2
ATOM      2  C   UNL     1      19.402   0.671 -15.360  1.00  0.00     0.214 A 
ATOM      3  C   UNL     1      18.314  -0.092 -15.832  1.00  0.00     0.180 A 
ATOM      4  O   UNL     1      18.266  -0.477 -17.103  1.00  0.00    -0.452 OA
ATOM      5  C   UNL     1      20.443   0.980 -16.266  1.00  0.00     0.239 A 
ATOM      6  C   UNL     1      19.219  -0.206 -17.984  1.00  0.00     0.146 A 
ATOM      7  O   UNL     1      21.434   1.661 -15.891  1.00  0.00    -0.285 OA
ATOM      8  C   UNL     1      20.363   0.531 -17.602  1.00  0.00     0.111 A 
ATOM      9  C   UNL     1      19.078  -0.662 -19.298  1.00  0.00     0.094 A 
ATOM     10  C   UNL     1      21.365   0.792 -18.569  1.00  0.00     0.134 A 
ATOM     11  C   UNL     1      20.067  -0.400 -20.247  1.00  0.00     0.123 A 
ATOM     12  C   UNL     1      21.208   0.322 -19.881  1.00  0.00     0.093 A 
BRANCH   3  13
ATOM     13  C   UNL     1      17.184  -0.470 -14.954  1.00  0.00     0.021 A 
ATOM     14  C   UNL     1      16.011   0.304 -14.899  1.00  0.00     0.016 A 
ATOM     15  C   UNL     1      14.961  -0.063 -14.053  1.00  0.00     0.047 A 
ATOM     16  C   UNL     1      15.076  -1.192 -13.237  1.00  0.00     0.115 A 
ATOM     17  C   UNL     1      17.301  -1.592 -14.117  1.00  0.00     0.016 A 
ATOM     18  C   UNL     1      16.251  -1.954 -13.268  1.00  0.00     0.047 A 
BRANCH  16  19
ATOM     19  O   UNL     1      14.023  -1.544 -12.397  1.00  0.00    -0.508 OA
ATOM     20  H   UNL     1      13.943  -2.477 -12.010  1.00  0.00     0.293 HD
ENDBRANCH  16  19
ENDBRANCH   3  13
BRANCH  10  21
ATOM     21  O   UNL     1      22.517   1.509 -18.236  1.00  0.00    -0.507 OA
ATOM     22  H   UNL     1      22.562   2.518 -18.324  1.00  0.00     0.293 HD
ENDBRANCH  10  21
BRANCH  11  23
ATOM     23  O   UNL     1      19.908  -0.864 -21.550  1.00  0.00    -0.508 OA
ATOM     24  H   UNL     1      20.342  -1.725 -21.864  1.00  0.00     0.293 HD
ENDBRANCH  11  23
ENDBRANCH   1   2
BRANCH   1  25
ATOM     25  C   UNL     1      19.401   2.457 -13.540  1.00  0.00     0.339 C 
ATOM     26  C   UNL     1      17.965   2.984 -13.362  1.00  0.00     0.214 C 
ATOM     27  O   UNL     1      20.146   2.572 -12.335  1.00  0.00    -0.332 OA
ATOM     28  C   UNL     1      17.279   2.269 -12.177  1.00  0.00     0.180 C 
ATOM     29  C   UNL     1      19.582   1.792 -11.293  1.00  0.00     0.179 C 
ATOM     30  C   UNL     1      18.172   2.309 -10.925  1.00  0.00     0.177 C 
BRANCH  26  31
ATOM     31  O   UNL     1      18.009   4.372 -13.144  1.00  0.00    -0.384 OA
ATOM     32  H   UNL     1      18.927   4.587 -12.835  1.00  0.00     0.211 HD
ENDBRANCH  26  31
BRANCH  28  33
ATOM     33  O   UNL     1      16.032   2.852 -11.896  1.00  0.00    -0.387 OA
ATOM     34  H   UNL     1      15.341   2.231 -12.244  1.00  0.00     0.211 HD
ENDBRANCH  28  33
BRANCH  29  35
ATOM     35  C   UNL     1      20.530   1.829 -10.089  1.00  0.00     0.191 C 
BRANCH  35  36
ATOM     36  O   UNL     1      19.807   1.690  -8.896  1.00  0.00    -0.394 OA
ATOM     37  H   UNL     1      18.886   1.433  -9.162  1.00  0.00     0.210 HD
ENDBRANCH  35  36
ENDBRANCH  29  35
BRANCH  30  38
ATOM     38  O   UNL     1      18.259   3.622 -10.425  1.00  0.00    -0.387 OA
ATOM     39  H   UNL     1      17.790   4.210 -11.071  1.00  0.00     0.211 HD
ENDBRANCH  30  38
ENDBRANCH   1  25
TORSDOF 11
ENDMDL
MODEL 9
REMARK VINA RESULT:    -5.553      3.253      5.198
REMARK INTER + INTRA:          -9.415
REMARK INTER:                  -7.880
REMARK INTRA:                  -1.536
REMARK UNBOUND:                -1.427
REMARK SMILES O=c1c(O[C@@H]2O[C@@H](CO)[C@@H](O)[C@@H](O)[C@H]2O)c(-c2ccc(O)cc2)oc2cc(O)cc(O)c12
REMARK SMILES IDX 4 1 3 2 16 3 24 4 2 5 25 6 1 7 32 8 26 9 30 10 27 11 29 12
REMARK SMILES IDX 17 13 18 14 19 15 20 16 23 17 22 18 21 19 31 21 28 23 5 25
REMARK SMILES IDX 14 26 6 27 12 28 7 29 10 30 15 31 13 33 8 35 9 36 11 38
REMARK H PARENT 21 20 31 22 28 24 15 32 13 34 9 37 11 39
REMARK Flexibility Score: inf
ROOT
ATOM      1  O   UNL     1      17.472  -3.185 -11.636  1.00  0.00    -0.454 OA
ENDROOT
BRANCH   1   2
ATOM      2  C   UNL     1      17.058  -3.941 -12.754  1.00  0.00     0.214 A 
ATOM      3  C   UNL     1      16.215  -3.320 -13.698  1.00  0.00     0.180 A 
ATOM      4  O   UNL     1      15.846  -3.968 -14.798  1.00  0.00    -0.452 OA
ATOM      5  C   UNL     1      17.464  -5.274 -12.997  1.00  0.00     0.239 A 
ATOM      6  C   UNL     1      16.206  -5.216 -15.063  1.00  0.00     0.146 A 
ATOM      7  O   UNL     1      18.217  -5.870 -12.183  1.00  0.00    -0.285 OA
ATOM      8  C   UNL     1      17.029  -5.934 -14.166  1.00  0.00     0.111 A 
ATOM      9  C   UNL     1      15.759  -5.814 -16.245  1.00  0.00     0.094 A 
ATOM     10  C   UNL     1      17.385  -7.269 -14.480  1.00  0.00     0.134 A 
ATOM     11  C   UNL     1      16.114  -7.128 -16.551  1.00  0.00     0.123 A 
ATOM     12  C   UNL     1      16.922  -7.853 -15.669  1.00  0.00     0.093 A 
BRANCH   3  13
ATOM     13  C   UNL     1      15.734  -1.930 -13.523  1.00  0.00     0.021 A 
ATOM     14  C   UNL     1      14.482  -1.658 -12.944  1.00  0.00     0.016 A 
ATOM     15  C   UNL     1      14.040  -0.340 -12.801  1.00  0.00     0.047 A 
ATOM     16  C   UNL     1      14.832   0.720 -13.252  1.00  0.00     0.115 A 
ATOM     17  C   UNL     1      16.515  -0.862 -13.993  1.00  0.00     0.016 A 
ATOM     18  C   UNL     1      16.070   0.456 -13.852  1.00  0.00     0.047 A 
BRANCH  16  19
ATOM     19  O   UNL     1      14.378   2.028 -13.105  1.00  0.00    -0.508 OA
ATOM     20  H   UNL     1      13.920   2.519 -13.865  1.00  0.00     0.293 HD
ENDBRANCH  16  19
ENDBRANCH   3  13
BRANCH  10  21
ATOM     21  O   UNL     1      18.188  -8.022 -13.620  1.00  0.00    -0.507 OA
ATOM     22  H   UNL     1      18.754  -7.586 -12.900  1.00  0.00     0.293 HD
ENDBRANCH  10  21
BRANCH  11  23
ATOM     23  O   UNL     1      15.657  -7.706 -17.733  1.00  0.00    -0.508 OA
ATOM     24  H   UNL     1      16.299  -8.033 -18.446  1.00  0.00     0.293 HD
ENDBRANCH  11  23
ENDBRANCH   1   2
BRANCH   1  25
ATOM     25  C   UNL     1      16.938  -3.223 -10.310  1.00  0.00     0.339 C 
ATOM     26  C   UNL     1      18.062  -3.513  -9.298  1.00  0.00     0.214 C 
ATOM     27  O   UNL     1      16.248  -2.023  -9.985  1.00  0.00    -0.332 OA
ATOM     28  C   UNL     1      19.012  -2.299  -9.194  1.00  0.00     0.180 C 
ATOM     29  C   UNL     1      17.106  -0.894 -10.037  1.00  0.00     0.179 C 
ATOM     30  C   UNL     1      18.216  -1.002  -8.965  1.00  0.00     0.177 C 
BRANCH  26  31
ATOM     31  O   UNL     1      17.489  -3.801  -8.046  1.00  0.00    -0.384 OA
ATOM     32  H   UNL     1      17.370  -4.786  -8.004  1.00  0.00     0.211 HD
ENDBRANCH  26  31
BRANCH  28  33
ATOM     33  O   UNL     1      19.942  -2.481  -8.158  1.00  0.00    -0.387 OA
ATOM     34  H   UNL     1      20.343  -3.379  -8.288  1.00  0.00     0.211 HD
ENDBRANCH  28  33
BRANCH  29  35
ATOM     35  C   UNL     1      16.259   0.370  -9.848  1.00  0.00     0.191 C 
BRANCH  35  36
ATOM     36  O   UNL     1      14.919   0.029  -9.625  1.00  0.00    -0.394 OA
ATOM     37  H   UNL     1      14.672  -0.604 -10.348  1.00  0.00     0.210 HD
ENDBRANCH  35  36
ENDBRANCH  29  35
BRANCH  30  38
ATOM     38  O   UNL     1      17.642  -0.998  -7.680  1.00  0.00    -0.387 OA
ATOM     39  H   UNL     1      16.705  -1.304  -7.780  1.00  0.00     0.211 HD
ENDBRANCH  30  38
ENDBRANCH   1  25
TORSDOF 11
ENDMDL
