MODEL 1
REMARK VINA RESULT:     3.372      0.000      0.000
REMARK INTER + INTRA:           7.164
REMARK INTER:                   8.498
REMARK INTRA:                  -1.334
REMARK UNBOUND:                -1.334
REMARK SMILES CCCCCCCCCCCCCCCCCCCCCCCCCCCC(=O)[O-]
REMARK SMILES IDX 15 1 16 2 17 3 18 4 19 5 20 6 21 7 22 8 23 9 24 10 25 11
REMARK SMILES IDX 26 12 27 13 28 14 29 15 30 16 14 17 13 18 12 19 11 20 10 21
REMARK SMILES IDX 9 22 8 23 7 24 6 25 5 26 4 27 3 28 2 29 1 30
REMARK H PARENT
REMARK Flexibility Score: inf
ROOT
ATOM      1  C   UNL     1     -11.260   3.227   1.163  1.00  0.00     0.000 C 
ENDROOT
BRANCH   1   2
ATOM      2  C   UNL     1     -10.083   3.935   0.474  1.00  0.00     0.000 C 
BRANCH   2   3
ATOM      3  C   UNL     1      -8.829   3.053   0.486  1.00  0.00     0.000 C 
BRANCH   3   4
ATOM      4  C   UNL     1      -7.658   3.771   1.174  1.00  0.00     0.000 C 
BRANCH   4   5
ATOM      5  C   UNL     1      -6.296   3.146   0.833  1.00  0.00     0.000 C 
BRANCH   5   6
ATOM      6  C   UNL     1      -5.125   3.877   1.511  1.00  0.00     0.000 C 
BRANCH   6   7
ATOM      7  C   UNL     1      -3.801   3.103   1.405  1.00  0.00     0.000 C 
BRANCH   7   8
ATOM      8  C   UNL     1      -3.125   2.896   2.773  1.00  0.00     0.000 C 
BRANCH   8   9
ATOM      9  C   UNL     1      -3.437   1.517   3.379  1.00  0.00     0.000 C 
BRANCH   9  10
ATOM     10  C   UNL     1      -2.592   1.219   4.630  1.00  0.00     0.000 C 
BRANCH  10  11
ATOM     11  C   UNL     1      -1.605   0.056   4.421  1.00  0.00     0.000 C 
BRANCH  11  12
ATOM     12  C   UNL     1      -0.186   0.292   4.979  1.00  0.00     0.006 C 
BRANCH  12  13
ATOM     13  C   UNL     1       0.628   1.357   4.225  1.00  0.00     0.053 C 
BRANCH  13  14
ATOM     14  C   UNL     1       2.100   1.203   4.454  1.00  0.00     0.041 C 
ATOM     15  O   UNL     1       2.580   1.362   5.608  1.00  0.00    -0.550 OA
ATOM     16  O   UNL     1       2.939   0.873   3.397  1.00  0.00    -0.550 OA
ENDBRANCH  13  14
ENDBRANCH  12  13
ENDBRANCH  11  12
ENDBRANCH  10  11
ENDBRANCH   9  10
ENDBRANCH   8   9
ENDBRANCH   7   8
ENDBRANCH   6   7
ENDBRANCH   5   6
ENDBRANCH   4   5
ENDBRANCH   3   4
ENDBRANCH   2   3
ENDBRANCH   1   2
BRANCH   1  17
ATOM     17  C   UNL     1     -12.571   3.340   0.368  1.00  0.00     0.000 C 
BRANCH  17  18
ATOM     18  C   UNL     1     -13.494   2.127   0.578  1.00  0.00     0.000 C 
BRANCH  18  19
ATOM     19  C   UNL     1     -14.821   2.257  -0.186  1.00  0.00     0.000 C 
BRANCH  19  20
ATOM     20  C   UNL     1     -15.748   1.051   0.032  1.00  0.00     0.000 C 
BRANCH  20  21
ATOM     21  C   UNL     1     -16.571   0.757  -1.232  1.00  0.00     0.000 C 
BRANCH  21  22
ATOM     22  C   UNL     1     -17.033  -0.707  -1.314  1.00  0.00    -0.000 C 
BRANCH  22  23
ATOM     23  C   UNL     1     -16.801  -1.325  -2.704  1.00  0.00    -0.000 C 
BRANCH  23  24
ATOM     24  C   UNL     1     -16.790  -2.862  -2.671  1.00  0.00    -0.000 C 
BRANCH  24  25
ATOM     25  C   UNL     1     -15.568  -3.429  -1.927  1.00  0.00    -0.000 C 
BRANCH  25  26
ATOM     26  C   UNL     1     -15.150  -4.812  -2.451  1.00  0.00    -0.000 C 
BRANCH  26  27
ATOM     27  C   UNL     1     -13.658  -4.878  -2.823  1.00  0.00    -0.000 C 
BRANCH  27  28
ATOM     28  C   UNL     1     -13.366  -4.265  -4.202  1.00  0.00    -0.000 C 
BRANCH  28  29
ATOM     29  C   UNL     1     -14.412  -4.659  -5.256  1.00  0.00    -0.003 C 
ATOM     30  C   UNL     1     -14.992  -3.425  -5.941  1.00  0.00     0.004 C 
ENDBRANCH  28  29
ENDBRANCH  27  28
ENDBRANCH  26  27
ENDBRANCH  25  26
ENDBRANCH  24  25
ENDBRANCH  23  24
ENDBRANCH  22  23
ENDBRANCH  21  22
ENDBRANCH  20  21
ENDBRANCH  19  20
ENDBRANCH  18  19
ENDBRANCH  17  18
ENDBRANCH   1  17
TORSDOF 26
ENDMDL
MODEL 2
REMARK VINA RESULT:     4.124      0.957      1.347
REMARK INTER + INTRA:           9.058
REMARK INTER:                   9.819
REMARK INTRA:                  -0.762
REMARK UNBOUND:                -1.334
REMARK SMILES CCCCCCCCCCCCCCCCCCCCCCCCCCCC(=O)[O-]
REMARK SMILES IDX 15 1 16 2 17 3 18 4 19 5 20 6 21 7 22 8 23 9 24 10 25 11
REMARK SMILES IDX 26 12 27 13 28 14 29 15 30 16 14 17 13 18 12 19 11 20 10 21
REMARK SMILES IDX 9 22 8 23 7 24 6 25 5 26 4 27 3 28 2 29 1 30
REMARK H PARENT
REMARK Flexibility Score: inf
ROOT
ATOM      1  C   UNL     1     -11.361   3.168   1.174  1.00  0.00     0.000 C 
ENDROOT
BRANCH   1   2
ATOM      2  C   UNL     1     -10.150   3.746   0.424  1.00  0.00     0.000 C 
BRANCH   2   3
ATOM      3  C   UNL     1      -8.888   2.922   0.704  1.00  0.00     0.000 C 
BRANCH   3   4
ATOM      4  C   UNL     1      -7.698   3.835   1.038  1.00  0.00     0.000 C 
BRANCH   4   5
ATOM      5  C   UNL     1      -6.343   3.184   0.719  1.00  0.00     0.000 C 
BRANCH   5   6
ATOM      6  C   UNL     1      -5.175   3.862   1.456  1.00  0.00     0.000 C 
BRANCH   6   7
ATOM      7  C   UNL     1      -3.866   3.061   1.357  1.00  0.00     0.000 C 
BRANCH   7   8
ATOM      8  C   UNL     1      -3.132   2.958   2.705  1.00  0.00     0.000 C 
BRANCH   8   9
ATOM      9  C   UNL     1      -3.365   1.604   3.399  1.00  0.00     0.000 C 
BRANCH   9  10
ATOM     10  C   UNL     1      -2.351   1.337   4.524  1.00  0.00     0.000 C 
BRANCH  10  11
ATOM     11  C   UNL     1      -1.609  -0.001   4.353  1.00  0.00     0.000 C 
BRANCH  11  12
ATOM     12  C   UNL     1      -0.195  -0.050   4.968  1.00  0.00     0.006 C 
BRANCH  12  13
ATOM     13  C   UNL     1       0.763   1.038   4.454  1.00  0.00     0.053 C 
BRANCH  13  14
ATOM     14  C   UNL     1       2.190   0.581   4.467  1.00  0.00     0.041 C 
ATOM     15  O   UNL     1       2.878   0.626   3.414  1.00  0.00    -0.550 OA
ATOM     16  O   UNL     1       2.761   0.117   5.646  1.00  0.00    -0.550 OA
ENDBRANCH  13  14
ENDBRANCH  12  13
ENDBRANCH  11  12
ENDBRANCH  10  11
ENDBRANCH   9  10
ENDBRANCH   8   9
ENDBRANCH   7   8
ENDBRANCH   6   7
ENDBRANCH   5   6
ENDBRANCH   4   5
ENDBRANCH   3   4
ENDBRANCH   2   3
ENDBRANCH   1   2
BRANCH   1  17
ATOM     17  C   UNL     1     -12.688   3.404   0.434  1.00  0.00     0.000 C 
BRANCH  17  18
ATOM     18  C   UNL     1     -13.618   2.180   0.488  1.00  0.00     0.000 C 
BRANCH  18  19
ATOM     19  C   UNL     1     -14.942   2.412  -0.259  1.00  0.00     0.000 C 
BRANCH  19  20
ATOM     20  C   UNL     1     -16.026   1.396   0.132  1.00  0.00     0.000 C 
BRANCH  20  21
ATOM     21  C   UNL     1     -16.679   0.783  -1.116  1.00  0.00     0.000 C 
BRANCH  21  22
ATOM     22  C   UNL     1     -17.032  -0.702  -0.934  1.00  0.00    -0.000 C 
BRANCH  22  23
ATOM     23  C   UNL     1     -16.638  -1.558  -2.151  1.00  0.00    -0.000 C 
BRANCH  23  24
ATOM     24  C   UNL     1     -16.411  -3.033  -1.784  1.00  0.00    -0.000 C 
BRANCH  24  25
ATOM     25  C   UNL     1     -16.609  -3.978  -2.983  1.00  0.00    -0.000 C 
BRANCH  25  26
ATOM     26  C   UNL     1     -15.553  -3.765  -4.080  1.00  0.00    -0.000 C 
BRANCH  26  27
ATOM     27  C   UNL     1     -15.646  -4.813  -5.202  1.00  0.00    -0.000 C 
BRANCH  27  28
ATOM     28  C   UNL     1     -14.670  -4.530  -6.356  1.00  0.00    -0.000 C 
BRANCH  28  29
ATOM     29  C   UNL     1     -15.375  -4.457  -7.719  1.00  0.00    -0.003 C 
ATOM     30  C   UNL     1     -14.468  -4.969  -8.834  1.00  0.00     0.004 C 
ENDBRANCH  28  29
ENDBRANCH  27  28
ENDBRANCH  26  27
ENDBRANCH  25  26
ENDBRANCH  24  25
ENDBRANCH  23  24
ENDBRANCH  22  23
ENDBRANCH  21  22
ENDBRANCH  20  21
ENDBRANCH  19  20
ENDBRANCH  18  19
ENDBRANCH  17  18
ENDBRANCH   1  17
TORSDOF 26
ENDMDL
MODEL 3
REMARK VINA RESULT:     4.502      5.581     15.310
REMARK INTER + INTRA:          10.010
REMARK INTER:                  11.231
REMARK INTRA:                  -1.221
REMARK UNBOUND:                -1.334
REMARK SMILES CCCCCCCCCCCCCCCCCCCCCCCCCCCC(=O)[O-]
REMARK SMILES IDX 15 1 16 2 17 3 18 4 19 5 20 6 21 7 22 8 23 9 24 10 25 11
REMARK SMILES IDX 26 12 27 13 28 14 29 15 30 16 14 17 13 18 12 19 11 20 10 21
REMARK SMILES IDX 9 22 8 23 7 24 6 25 5 26 4 27 3 28 2 29 1 30
REMARK H PARENT
REMARK Flexibility Score: inf
ROOT
ATOM      1  C   UNL     1      -8.084   3.807   1.572  1.00  0.00     0.000 C 
ENDROOT
BRANCH   1   2
ATOM      2  C   UNL     1      -8.968   3.414   0.377  1.00  0.00     0.000 C 
BRANCH   2   3
ATOM      3  C   UNL     1     -10.365   4.032   0.503  1.00  0.00     0.000 C 
BRANCH   3   4
ATOM      4  C   UNL     1     -11.391   2.984   0.962  1.00  0.00     0.000 C 
BRANCH   4   5
ATOM      5  C   UNL     1     -12.735   3.108   0.229  1.00  0.00     0.000 C 
BRANCH   5   6
ATOM      6  C   UNL     1     -13.696   1.953   0.559  1.00  0.00     0.000 C 
BRANCH   6   7
ATOM      7  C   UNL     1     -15.043   2.073  -0.174  1.00  0.00     0.000 C 
BRANCH   7   8
ATOM      8  C   UNL     1     -15.849   0.763  -0.149  1.00  0.00     0.000 C 
BRANCH   8   9
ATOM      9  C   UNL     1     -17.086   0.816  -1.062  1.00  0.00     0.000 C 
BRANCH   9  10
ATOM     10  C   UNL     1     -17.125  -0.346  -2.069  1.00  0.00     0.000 C 
BRANCH  10  11
ATOM     11  C   UNL     1     -17.085  -1.726  -1.389  1.00  0.00     0.000 C 
BRANCH  11  12
ATOM     12  C   UNL     1     -16.968  -2.928  -2.350  1.00  0.00     0.006 C 
BRANCH  12  13
ATOM     13  C   UNL     1     -15.625  -3.023  -3.093  1.00  0.00     0.053 C 
BRANCH  13  14
ATOM     14  C   UNL     1     -15.813  -3.196  -4.570  1.00  0.00     0.041 C 
ATOM     15  O   UNL     1     -16.548  -4.118  -5.010  1.00  0.00    -0.550 OA
ATOM     16  O   UNL     1     -15.186  -2.330  -5.457  1.00  0.00    -0.550 OA
ENDBRANCH  13  14
ENDBRANCH  12  13
ENDBRANCH  11  12
ENDBRANCH  10  11
ENDBRANCH   9  10
ENDBRANCH   8   9
ENDBRANCH   7   8
ENDBRANCH   6   7
ENDBRANCH   5   6
ENDBRANCH   4   5
ENDBRANCH   3   4
ENDBRANCH   2   3
ENDBRANCH   1   2
BRANCH   1  17
ATOM     17  C   UNL     1      -6.660   4.207   1.153  1.00  0.00     0.000 C 
BRANCH  17  18
ATOM     18  C   UNL     1      -5.669   3.033   1.236  1.00  0.00     0.000 C 
BRANCH  18  19
ATOM     19  C   UNL     1      -4.241   3.490   1.574  1.00  0.00     0.000 C 
BRANCH  19  20
ATOM     20  C   UNL     1      -3.329   2.323   1.983  1.00  0.00     0.000 C 
BRANCH  20  21
ATOM     21  C   UNL     1      -3.189   2.246   3.511  1.00  0.00     0.000 C 
BRANCH  21  22
ATOM     22  C   UNL     1      -2.774   0.849   4.000  1.00  0.00    -0.000 C 
BRANCH  22  23
ATOM     23  C   UNL     1      -1.779   0.904   5.173  1.00  0.00    -0.000 C 
BRANCH  23  24
ATOM     24  C   UNL     1      -0.383   0.390   4.785  1.00  0.00    -0.000 C 
BRANCH  24  25
ATOM     25  C   UNL     1       0.484   1.475   4.122  1.00  0.00    -0.000 C 
BRANCH  25  26
ATOM     26  C   UNL     1       1.977   1.109   4.107  1.00  0.00    -0.000 C 
BRANCH  26  27
ATOM     27  C   UNL     1       2.696   1.500   5.410  1.00  0.00    -0.000 C 
BRANCH  27  28
ATOM     28  C   UNL     1       3.085   0.279   6.259  1.00  0.00    -0.000 C 
BRANCH  28  29
ATOM     29  C   UNL     1       3.039  -1.032   5.461  1.00  0.00    -0.003 C 
ATOM     30  C   UNL     1       2.698  -2.213   6.364  1.00  0.00     0.004 C 
ENDBRANCH  28  29
ENDBRANCH  27  28
ENDBRANCH  26  27
ENDBRANCH  25  26
ENDBRANCH  24  25
ENDBRANCH  23  24
ENDBRANCH  22  23
ENDBRANCH  21  22
ENDBRANCH  20  21
ENDBRANCH  19  20
ENDBRANCH  18  19
ENDBRANCH  17  18
ENDBRANCH   1  17
TORSDOF 26
ENDMDL
MODEL 4
REMARK VINA RESULT:     4.530      1.641      3.016
REMARK INTER + INTRA:          10.081
REMARK INTER:                  11.105
REMARK INTRA:                  -1.024
REMARK UNBOUND:                -1.334
REMARK SMILES CCCCCCCCCCCCCCCCCCCCCCCCCCCC(=O)[O-]
REMARK SMILES IDX 15 1 16 2 17 3 18 4 19 5 20 6 21 7 22 8 23 9 24 10 25 11
REMARK SMILES IDX 26 12 27 13 28 14 29 15 30 16 14 17 13 18 12 19 11 20 10 21
REMARK SMILES IDX 9 22 8 23 7 24 6 25 5 26 4 27 3 28 2 29 1 30
REMARK H PARENT
REMARK Flexibility Score: inf
ROOT
ATOM      1  C   UNL     1      -8.707   3.008   0.672  1.00  0.00     0.000 C 
ENDROOT
BRANCH   1   2
ATOM      2  C   UNL     1      -7.585   3.895   1.236  1.00  0.00     0.000 C 
BRANCH   2   3
ATOM      3  C   UNL     1      -6.206   3.329   0.877  1.00  0.00     0.000 C 
BRANCH   3   4
ATOM      4  C   UNL     1      -5.190   3.605   1.997  1.00  0.00     0.000 C 
BRANCH   4   5
ATOM      5  C   UNL     1      -3.746   3.292   1.577  1.00  0.00     0.000 C 
BRANCH   5   6
ATOM      6  C   UNL     1      -3.211   2.000   2.220  1.00  0.00     0.000 C 
BRANCH   6   7
ATOM      7  C   UNL     1      -3.260   2.039   3.757  1.00  0.00     0.000 C 
BRANCH   7   8
ATOM      8  C   UNL     1      -2.265   1.059   4.405  1.00  0.00     0.000 C 
BRANCH   8   9
ATOM      9  C   UNL     1      -0.807   1.531   4.276  1.00  0.00     0.000 C 
BRANCH   9  10
ATOM     10  C   UNL     1       0.196   0.501   4.824  1.00  0.00     0.000 C 
BRANCH  10  11
ATOM     11  C   UNL     1       1.660   0.896   4.564  1.00  0.00     0.000 C 
BRANCH  11  12
ATOM     12  C   UNL     1       2.699  -0.209   4.851  1.00  0.00     0.006 C 
BRANCH  12  13
ATOM     13  C   UNL     1       2.854  -0.567   6.338  1.00  0.00     0.053 C 
BRANCH  13  14
ATOM     14  C   UNL     1       2.947  -2.048   6.550  1.00  0.00     0.041 C 
ATOM     15  O   UNL     1       2.922  -2.522   7.716  1.00  0.00    -0.550 OA
ATOM     16  O   UNL     1       3.049  -2.902   5.459  1.00  0.00    -0.550 OA
ENDBRANCH  13  14
ENDBRANCH  12  13
ENDBRANCH  11  12
ENDBRANCH  10  11
ENDBRANCH   9  10
ENDBRANCH   8   9
ENDBRANCH   7   8
ENDBRANCH   6   7
ENDBRANCH   5   6
ENDBRANCH   4   5
ENDBRANCH   3   4
ENDBRANCH   2   3
ENDBRANCH   1   2
BRANCH   1  17
ATOM     17  C   UNL     1     -10.040   3.758   0.521  1.00  0.00     0.000 C 
BRANCH  17  18
ATOM     18  C   UNL     1     -11.258   2.849   0.761  1.00  0.00     0.000 C 
BRANCH  18  19
ATOM     19  C   UNL     1     -12.584   3.627   0.755  1.00  0.00     0.000 C 
BRANCH  19  20
ATOM     20  C   UNL     1     -13.624   3.013  -0.196  1.00  0.00     0.000 C 
BRANCH  20  21
ATOM     21  C   UNL     1     -14.167   1.690   0.366  1.00  0.00     0.000 C 
BRANCH  21  22
ATOM     22  C   UNL     1     -15.628   1.431  -0.033  1.00  0.00    -0.000 C 
BRANCH  22  23
ATOM     23  C   UNL     1     -16.319   0.404   0.882  1.00  0.00    -0.000 C 
BRANCH  23  24
ATOM     24  C   UNL     1     -17.111  -0.651   0.092  1.00  0.00    -0.000 C 
BRANCH  24  25
ATOM     25  C   UNL     1     -16.635  -0.778  -1.366  1.00  0.00    -0.000 C 
BRANCH  25  26
ATOM     26  C   UNL     1     -17.045  -2.115  -2.005  1.00  0.00    -0.000 C 
BRANCH  26  27
ATOM     27  C   UNL     1     -15.946  -3.185  -1.895  1.00  0.00    -0.000 C 
BRANCH  27  28
ATOM     28  C   UNL     1     -15.794  -4.009  -3.184  1.00  0.00    -0.000 C 
BRANCH  28  29
ATOM     29  C   UNL     1     -14.562  -3.598  -4.004  1.00  0.00    -0.003 C 
ATOM     30  C   UNL     1     -14.951  -2.680  -5.158  1.00  0.00     0.004 C 
ENDBRANCH  28  29
ENDBRANCH  27  28
ENDBRANCH  26  27
ENDBRANCH  25  26
ENDBRANCH  24  25
ENDBRANCH  23  24
ENDBRANCH  22  23
ENDBRANCH  21  22
ENDBRANCH  20  21
ENDBRANCH  19  20
ENDBRANCH  18  19
ENDBRANCH  17  18
ENDBRANCH   1  17
TORSDOF 26
ENDMDL
MODEL 5
REMARK VINA RESULT:     4.694      4.959     14.755
REMARK INTER + INTRA:          10.495
REMARK INTER:                  11.451
REMARK INTRA:                  -0.956
REMARK UNBOUND:                -1.334
REMARK SMILES CCCCCCCCCCCCCCCCCCCCCCCCCCCC(=O)[O-]
REMARK SMILES IDX 15 1 16 2 17 3 18 4 19 5 20 6 21 7 22 8 23 9 24 10 25 11
REMARK SMILES IDX 26 12 27 13 28 14 29 15 30 16 14 17 13 18 12 19 11 20 10 21
REMARK SMILES IDX 9 22 8 23 7 24 6 25 5 26 4 27 3 28 2 29 1 30
REMARK H PARENT
REMARK Flexibility Score: inf
ROOT
ATOM      1  C   UNL     1      -9.576   2.736   1.101  1.00  0.00     0.000 C 
ENDROOT
BRANCH   1   2
ATOM      2  C   UNL     1     -10.886   3.420   0.679  1.00  0.00     0.000 C 
BRANCH   2   3
ATOM      3  C   UNL     1     -12.082   2.480   0.867  1.00  0.00     0.000 C 
BRANCH   3   4
ATOM      4  C   UNL     1     -13.406   3.217   0.616  1.00  0.00     0.000 C 
BRANCH   4   5
ATOM      5  C   UNL     1     -14.319   2.476  -0.373  1.00  0.00     0.000 C 
BRANCH   5   6
ATOM      6  C   UNL     1     -15.399   1.638   0.334  1.00  0.00     0.000 C 
BRANCH   6   7
ATOM      7  C   UNL     1     -16.252   0.819  -0.648  1.00  0.00     0.000 C 
BRANCH   7   8
ATOM      8  C   UNL     1     -16.708  -0.527  -0.056  1.00  0.00     0.000 C 
BRANCH   8   9
ATOM      9  C   UNL     1     -17.118  -1.537  -1.141  1.00  0.00     0.000 C 
BRANCH   9  10
ATOM     10  C   UNL     1     -16.788  -1.043  -2.560  1.00  0.00     0.000 C 
BRANCH  10  11
ATOM     11  C   UNL     1     -17.027  -2.116  -3.637  1.00  0.00     0.000 C 
BRANCH  11  12
ATOM     12  C   UNL     1     -16.227  -3.423  -3.450  1.00  0.00     0.006 C 
BRANCH  12  13
ATOM     13  C   UNL     1     -15.166  -3.682  -4.532  1.00  0.00     0.053 C 
BRANCH  13  14
ATOM     14  C   UNL     1     -13.864  -4.134  -3.944  1.00  0.00     0.041 C 
ATOM     15  O   UNL     1     -13.771  -4.352  -2.707  1.00  0.00    -0.550 OA
ATOM     16  O   UNL     1     -12.759  -4.326  -4.764  1.00  0.00    -0.550 OA
ENDBRANCH  13  14
ENDBRANCH  12  13
ENDBRANCH  11  12
ENDBRANCH  10  11
ENDBRANCH   9  10
ENDBRANCH   8   9
ENDBRANCH   7   8
ENDBRANCH   6   7
ENDBRANCH   5   6
ENDBRANCH   4   5
ENDBRANCH   3   4
ENDBRANCH   2   3
ENDBRANCH   1   2
BRANCH   1  17
ATOM     17  C   UNL     1      -8.349   3.290   0.359  1.00  0.00     0.000 C 
BRANCH  17  18
ATOM     18  C   UNL     1      -7.117   3.420   1.273  1.00  0.00     0.000 C 
BRANCH  18  19
ATOM     19  C   UNL     1      -5.874   2.731   0.688  1.00  0.00     0.000 C 
BRANCH  19  20
ATOM     20  C   UNL     1      -4.566   3.427   1.097  1.00  0.00     0.000 C 
BRANCH  20  21
ATOM     21  C   UNL     1      -4.243   3.161   2.576  1.00  0.00     0.000 C 
BRANCH  21  22
ATOM     22  C   UNL     1      -3.269   1.988   2.769  1.00  0.00    -0.000 C 
BRANCH  22  23
ATOM     23  C   UNL     1      -2.953   1.719   4.251  1.00  0.00    -0.000 C 
BRANCH  23  24
ATOM     24  C   UNL     1      -1.884   0.630   4.438  1.00  0.00    -0.000 C 
BRANCH  24  25
ATOM     25  C   UNL     1      -0.479   1.214   4.669  1.00  0.00    -0.000 C 
BRANCH  25  26
ATOM     26  C   UNL     1       0.613   0.132   4.681  1.00  0.00    -0.000 C 
BRANCH  26  27
ATOM     27  C   UNL     1       1.994   0.689   5.067  1.00  0.00    -0.000 C 
BRANCH  27  28
ATOM     28  C   UNL     1       2.975  -0.413   5.500  1.00  0.00    -0.000 C 
BRANCH  28  29
ATOM     29  C   UNL     1       2.287  -1.536   6.292  1.00  0.00    -0.003 C 
ATOM     30  C   UNL     1       2.692  -2.908   5.763  1.00  0.00     0.004 C 
ENDBRANCH  28  29
ENDBRANCH  27  28
ENDBRANCH  26  27
ENDBRANCH  25  26
ENDBRANCH  24  25
ENDBRANCH  23  24
ENDBRANCH  22  23
ENDBRANCH  21  22
ENDBRANCH  20  21
ENDBRANCH  19  20
ENDBRANCH  18  19
ENDBRANCH  17  18
ENDBRANCH   1  17
TORSDOF 26
ENDMDL
MODEL 6
REMARK VINA RESULT:     4.777      0.973      2.485
REMARK INTER + INTRA:          10.703
REMARK INTER:                  11.589
REMARK INTRA:                  -0.886
REMARK UNBOUND:                -1.334
REMARK SMILES CCCCCCCCCCCCCCCCCCCCCCCCCCCC(=O)[O-]
REMARK SMILES IDX 15 1 16 2 17 3 18 4 19 5 20 6 21 7 22 8 23 9 24 10 25 11
REMARK SMILES IDX 26 12 27 13 28 14 29 15 30 16 14 17 13 18 12 19 11 20 10 21
REMARK SMILES IDX 9 22 8 23 7 24 6 25 5 26 4 27 3 28 2 29 1 30
REMARK H PARENT
REMARK Flexibility Score: inf
ROOT
ATOM      1  C   UNL     1      -8.694   3.452   0.984  1.00  0.00     0.000 C 
ENDROOT
BRANCH   1   2
ATOM      2  C   UNL     1      -7.775   2.672   0.030  1.00  0.00     0.000 C 
BRANCH   2   3
ATOM      3  C   UNL     1      -6.387   2.467   0.650  1.00  0.00     0.000 C 
BRANCH   3   4
ATOM      4  C   UNL     1      -5.573   3.770   0.618  1.00  0.00     0.000 C 
BRANCH   4   5
ATOM      5  C   UNL     1      -4.646   3.920   1.835  1.00  0.00     0.000 C 
BRANCH   5   6
ATOM      6  C   UNL     1      -3.549   2.843   1.876  1.00  0.00     0.000 C 
BRANCH   6   7
ATOM      7  C   UNL     1      -3.807   1.774   2.951  1.00  0.00     0.000 C 
BRANCH   7   8
ATOM      8  C   UNL     1      -2.775   1.819   4.091  1.00  0.00     0.000 C 
BRANCH   8   9
ATOM      9  C   UNL     1      -2.079   0.464   4.308  1.00  0.00     0.000 C 
BRANCH   9  10
ATOM     10  C   UNL     1      -0.817   0.584   5.179  1.00  0.00     0.000 C 
BRANCH  10  11
ATOM     11  C   UNL     1       0.380  -0.196   4.607  1.00  0.00     0.000 C 
BRANCH  11  12
ATOM     12  C   UNL     1       1.417  -0.665   5.649  1.00  0.00     0.006 C 
BRANCH  12  13
ATOM     13  C   UNL     1       2.827  -0.085   5.452  1.00  0.00     0.053 C 
BRANCH  13  14
ATOM     14  C   UNL     1       2.791   1.274   4.822  1.00  0.00     0.041 C 
ATOM     15  O   UNL     1       2.742   2.304   5.544  1.00  0.00    -0.550 OA
ATOM     16  O   UNL     1       2.824   1.401   3.439  1.00  0.00    -0.550 OA
ENDBRANCH  13  14
ENDBRANCH  12  13
ENDBRANCH  11  12
ENDBRANCH  10  11
ENDBRANCH   9  10
ENDBRANCH   8   9
ENDBRANCH   7   8
ENDBRANCH   6   7
ENDBRANCH   5   6
ENDBRANCH   4   5
ENDBRANCH   3   4
ENDBRANCH   2   3
ENDBRANCH   1   2
BRANCH   1  17
ATOM     17  C   UNL     1     -10.054   3.792   0.355  1.00  0.00     0.000 C 
BRANCH  17  18
ATOM     18  C   UNL     1     -11.227   3.117   1.087  1.00  0.00     0.000 C 
BRANCH  18  19
ATOM     19  C   UNL     1     -12.569   3.324   0.366  1.00  0.00     0.000 C 
BRANCH  19  20
ATOM     20  C   UNL     1     -13.576   2.201   0.660  1.00  0.00     0.000 C 
BRANCH  20  21
ATOM     21  C   UNL     1     -14.649   2.126  -0.438  1.00  0.00     0.000 C 
BRANCH  21  22
ATOM     22  C   UNL     1     -16.064   1.922   0.127  1.00  0.00    -0.000 C 
BRANCH  22  23
ATOM     23  C   UNL     1     -16.960   1.087  -0.805  1.00  0.00    -0.000 C 
BRANCH  23  24
ATOM     24  C   UNL     1     -16.366  -0.299  -1.107  1.00  0.00    -0.000 C 
BRANCH  24  25
ATOM     25  C   UNL     1     -16.398  -0.641  -2.607  1.00  0.00    -0.000 C 
BRANCH  25  26
ATOM     26  C   UNL     1     -16.930  -2.059  -2.875  1.00  0.00    -0.000 C 
BRANCH  26  27
ATOM     27  C   UNL     1     -15.954  -3.155  -2.413  1.00  0.00    -0.000 C 
BRANCH  27  28
ATOM     28  C   UNL     1     -14.960  -3.562  -3.513  1.00  0.00    -0.000 C 
BRANCH  28  29
ATOM     29  C   UNL     1     -14.046  -4.719  -3.082  1.00  0.00    -0.003 C 
ATOM     30  C   UNL     1     -13.830  -4.714  -1.572  1.00  0.00     0.004 C 
ENDBRANCH  28  29
ENDBRANCH  27  28
ENDBRANCH  26  27
ENDBRANCH  25  26
ENDBRANCH  24  25
ENDBRANCH  23  24
ENDBRANCH  22  23
ENDBRANCH  21  22
ENDBRANCH  20  21
ENDBRANCH  19  20
ENDBRANCH  18  19
ENDBRANCH  17  18
ENDBRANCH   1  17
TORSDOF 26
ENDMDL
MODEL 7
REMARK VINA RESULT:     4.905      5.557     14.319
REMARK INTER + INTRA:          11.025
REMARK INTER:                  12.087
REMARK INTRA:                  -1.062
REMARK UNBOUND:                -1.334
REMARK SMILES CCCCCCCCCCCCCCCCCCCCCCCCCCCC(=O)[O-]
REMARK SMILES IDX 15 1 16 2 17 3 18 4 19 5 20 6 21 7 22 8 23 9 24 10 25 11
REMARK SMILES IDX 26 12 27 13 28 14 29 15 30 16 14 17 13 18 12 19 11 20 10 21
REMARK SMILES IDX 9 22 8 23 7 24 6 25 5 26 4 27 3 28 2 29 1 30
REMARK H PARENT
REMARK Flexibility Score: inf
ROOT
ATOM      1  C   UNL     1     -11.455   3.217   0.666  1.00  0.00     0.000 C 
ENDROOT
BRANCH   1   2
ATOM      2  C   UNL     1     -12.977   3.425   0.610  1.00  0.00     0.000 C 
BRANCH   2   3
ATOM      3  C   UNL     1     -13.678   2.196   0.019  1.00  0.00     0.000 C 
BRANCH   3   4
ATOM      4  C   UNL     1     -15.182   2.219   0.328  1.00  0.00     0.000 C 
BRANCH   4   5
ATOM      5  C   UNL     1     -16.010   1.423  -0.694  1.00  0.00     0.000 C 
BRANCH   5   6
ATOM      6  C   UNL     1     -16.153  -0.060  -0.311  1.00  0.00     0.000 C 
BRANCH   6   7
ATOM      7  C   UNL     1     -16.953  -0.866  -1.347  1.00  0.00     0.000 C 
BRANCH   7   8
ATOM      8  C   UNL     1     -16.693  -2.379  -1.249  1.00  0.00     0.000 C 
BRANCH   8   9
ATOM      9  C   UNL     1     -16.889  -3.098  -2.596  1.00  0.00     0.000 C 
BRANCH   9  10
ATOM     10  C   UNL     1     -16.557  -4.598  -2.517  1.00  0.00     0.000 C 
BRANCH  10  11
ATOM     11  C   UNL     1     -15.708  -5.085  -3.704  1.00  0.00     0.000 C 
BRANCH  11  12
ATOM     12  C   UNL     1     -14.334  -4.399  -3.853  1.00  0.00     0.006 C 
BRANCH  12  13
ATOM     13  C   UNL     1     -13.860  -4.229  -5.306  1.00  0.00     0.053 C 
BRANCH  13  14
ATOM     14  C   UNL     1     -14.908  -3.591  -6.166  1.00  0.00     0.041 C 
ATOM     15  O   UNL     1     -15.619  -4.298  -6.927  1.00  0.00    -0.550 OA
ATOM     16  O   UNL     1     -15.105  -2.216  -6.117  1.00  0.00    -0.550 OA
ENDBRANCH  13  14
ENDBRANCH  12  13
ENDBRANCH  11  12
ENDBRANCH  10  11
ENDBRANCH   9  10
ENDBRANCH   8   9
ENDBRANCH   7   8
ENDBRANCH   6   7
ENDBRANCH   5   6
ENDBRANCH   4   5
ENDBRANCH   3   4
ENDBRANCH   2   3
ENDBRANCH   1   2
BRANCH   1  17
ATOM     17  C   UNL     1     -10.669   4.435   0.155  1.00  0.00     0.000 C 
BRANCH  17  18
ATOM     18  C   UNL     1      -9.179   4.376   0.534  1.00  0.00     0.000 C 
BRANCH  18  19
ATOM     19  C   UNL     1      -8.685   2.938   0.761  1.00  0.00     0.000 C 
BRANCH  19  20
ATOM     20  C   UNL     1      -7.405   2.622  -0.028  1.00  0.00     0.000 C 
BRANCH  20  21
ATOM     21  C   UNL     1      -6.232   2.337   0.922  1.00  0.00     0.000 C 
BRANCH  21  22
ATOM     22  C   UNL     1      -4.957   3.107   0.540  1.00  0.00    -0.000 C 
BRANCH  22  23
ATOM     23  C   UNL     1      -4.157   3.575   1.769  1.00  0.00    -0.000 C 
BRANCH  23  24
ATOM     24  C   UNL     1      -3.171   2.508   2.271  1.00  0.00    -0.000 C 
BRANCH  24  25
ATOM     25  C   UNL     1      -3.269   2.280   3.790  1.00  0.00    -0.000 C 
BRANCH  25  26
ATOM     26  C   UNL     1      -2.966   0.826   4.188  1.00  0.00    -0.000 C 
BRANCH  26  27
ATOM     27  C   UNL     1      -1.663   0.692   4.995  1.00  0.00    -0.000 C 
BRANCH  27  28
ATOM     28  C   UNL     1      -0.410   0.932   4.137  1.00  0.00    -0.000 C 
BRANCH  28  29
ATOM     29  C   UNL     1       0.892   0.709   4.921  1.00  0.00    -0.003 C 
ATOM     30  C   UNL     1       2.111   1.045   4.068  1.00  0.00     0.004 C 
ENDBRANCH  28  29
ENDBRANCH  27  28
ENDBRANCH  26  27
ENDBRANCH  25  26
ENDBRANCH  24  25
ENDBRANCH  23  24
ENDBRANCH  22  23
ENDBRANCH  21  22
ENDBRANCH  20  21
ENDBRANCH  19  20
ENDBRANCH  18  19
ENDBRANCH  17  18
ENDBRANCH   1  17
TORSDOF 26
ENDMDL
MODEL 8
REMARK VINA RESULT:     5.983      1.880      3.784
REMARK INTER + INTRA:          13.744
REMARK INTER:                  13.934
REMARK INTRA:                  -0.191
REMARK UNBOUND:                -1.334
REMARK SMILES CCCCCCCCCCCCCCCCCCCCCCCCCCCC(=O)[O-]
REMARK SMILES IDX 15 1 16 2 17 3 18 4 19 5 20 6 21 7 22 8 23 9 24 10 25 11
REMARK SMILES IDX 26 12 27 13 28 14 29 15 30 16 14 17 13 18 12 19 11 20 10 21
REMARK SMILES IDX 9 22 8 23 7 24 6 25 5 26 4 27 3 28 2 29 1 30
REMARK H PARENT
REMARK Flexibility Score: inf
ROOT
ATOM      1  C   UNL     1     -14.583   2.838   0.334  1.00  0.00     0.000 C 
ENDROOT
BRANCH   1   2
ATOM      2  C   UNL     1     -13.171   3.192  -0.162  1.00  0.00     0.000 C 
BRANCH   2   3
ATOM      3  C   UNL     1     -12.107   2.727   0.839  1.00  0.00     0.000 C 
BRANCH   3   4
ATOM      4  C   UNL     1     -10.928   3.711   0.885  1.00  0.00     0.000 C 
BRANCH   4   5
ATOM      5  C   UNL     1      -9.567   3.015   0.726  1.00  0.00     0.000 C 
BRANCH   5   6
ATOM      6  C   UNL     1      -8.394   4.010   0.712  1.00  0.00     0.000 C 
BRANCH   6   7
ATOM      7  C   UNL     1      -7.429   3.806   1.892  1.00  0.00     0.000 C 
BRANCH   7   8
ATOM      8  C   UNL     1      -6.023   4.365   1.609  1.00  0.00     0.000 C 
BRANCH   8   9
ATOM      9  C   UNL     1      -5.310   3.615   0.471  1.00  0.00     0.000 C 
BRANCH   9  10
ATOM     10  C   UNL     1      -3.808   3.938   0.403  1.00  0.00     0.000 C 
BRANCH  10  11
ATOM     11  C   UNL     1      -2.965   3.056   1.342  1.00  0.00     0.000 C 
BRANCH  11  12
ATOM     12  C   UNL     1      -3.772   2.218   2.355  1.00  0.00     0.006 C 
BRANCH  12  13
ATOM     13  C   UNL     1      -3.351   2.410   3.821  1.00  0.00     0.053 C 
BRANCH  13  14
ATOM     14  C   UNL     1      -2.550   1.251   4.330  1.00  0.00     0.041 C 
ATOM     15  O   UNL     1      -1.291   1.291   4.304  1.00  0.00    -0.550 OA
ATOM     16  O   UNL     1      -3.194   0.132   4.845  1.00  0.00    -0.550 OA
ENDBRANCH  13  14
ENDBRANCH  12  13
ENDBRANCH  11  12
ENDBRANCH  10  11
ENDBRANCH   9  10
ENDBRANCH   8   9
ENDBRANCH   7   8
ENDBRANCH   6   7
ENDBRANCH   5   6
ENDBRANCH   4   5
ENDBRANCH   3   4
ENDBRANCH   2   3
ENDBRANCH   1   2
BRANCH   1  17
ATOM     17  C   UNL     1     -14.943   1.362   0.101  1.00  0.00     0.000 C 
BRANCH  17  18
ATOM     18  C   UNL     1     -16.438   1.161  -0.205  1.00  0.00     0.000 C 
BRANCH  18  19
ATOM     19  C   UNL     1     -16.844  -0.322  -0.209  1.00  0.00     0.000 C 
BRANCH  19  20
ATOM     20  C   UNL     1     -17.033  -0.878  -1.629  1.00  0.00     0.000 C 
BRANCH  20  21
ATOM     21  C   UNL     1     -16.245  -2.184  -1.815  1.00  0.00     0.000 C 
BRANCH  21  22
ATOM     22  C   UNL     1     -17.116  -3.331  -2.355  1.00  0.00    -0.000 C 
BRANCH  22  23
ATOM     23  C   UNL     1     -16.291  -4.408  -3.082  1.00  0.00    -0.000 C 
BRANCH  23  24
ATOM     24  C   UNL     1     -16.986  -4.922  -4.354  1.00  0.00    -0.000 C 
BRANCH  24  25
ATOM     25  C   UNL     1     -16.679  -4.054  -5.587  1.00  0.00    -0.000 C 
BRANCH  25  26
ATOM     26  C   UNL     1     -16.532  -4.887  -6.871  1.00  0.00    -0.000 C 
BRANCH  26  27
ATOM     27  C   UNL     1     -15.309  -4.474  -7.708  1.00  0.00    -0.000 C 
BRANCH  27  28
ATOM     28  C   UNL     1     -13.983  -4.933  -7.081  1.00  0.00    -0.000 C 
BRANCH  28  29
ATOM     29  C   UNL     1     -13.869  -4.551  -5.598  1.00  0.00    -0.003 C 
ATOM     30  C   UNL     1     -12.554  -5.045  -5.003  1.00  0.00     0.004 C 
ENDBRANCH  28  29
ENDBRANCH  27  28
ENDBRANCH  26  27
ENDBRANCH  25  26
ENDBRANCH  24  25
ENDBRANCH  23  24
ENDBRANCH  22  23
ENDBRANCH  21  22
ENDBRANCH  20  21
ENDBRANCH  19  20
ENDBRANCH  18  19
ENDBRANCH  17  18
ENDBRANCH   1  17
TORSDOF 26
ENDMDL
MODEL 9
REMARK VINA RESULT:     6.059      1.776      3.733
REMARK INTER + INTRA:          13.933
REMARK INTER:                  14.423
REMARK INTRA:                  -0.490
REMARK UNBOUND:                -1.334
REMARK SMILES CCCCCCCCCCCCCCCCCCCCCCCCCCCC(=O)[O-]
REMARK SMILES IDX 15 1 16 2 17 3 18 4 19 5 20 6 21 7 22 8 23 9 24 10 25 11
REMARK SMILES IDX 26 12 27 13 28 14 29 15 30 16 14 17 13 18 12 19 11 20 10 21
REMARK SMILES IDX 9 22 8 23 7 24 6 25 5 26 4 27 3 28 2 29 1 30
REMARK H PARENT
REMARK Flexibility Score: inf
ROOT
ATOM      1  C   UNL     1     -14.166   2.102   0.389  1.00  0.00     0.000 C 
ENDROOT
BRANCH   1   2
ATOM      2  C   UNL     1     -13.347   3.401   0.454  1.00  0.00     0.000 C 
BRANCH   2   3
ATOM      3  C   UNL     1     -11.843   3.102   0.452  1.00  0.00     0.000 C 
BRANCH   3   4
ATOM      4  C   UNL     1     -11.026   4.390   0.637  1.00  0.00     0.000 C 
BRANCH   4   5
ATOM      5  C   UNL     1      -9.711   4.377  -0.158  1.00  0.00     0.000 C 
BRANCH   5   6
ATOM      6  C   UNL     1      -8.494   4.040   0.720  1.00  0.00     0.000 C 
BRANCH   6   7
ATOM      7  C   UNL     1      -8.298   2.526   0.906  1.00  0.00     0.000 C 
BRANCH   7   8
ATOM      8  C   UNL     1      -7.207   1.952  -0.015  1.00  0.00     0.000 C 
BRANCH   8   9
ATOM      9  C   UNL     1      -5.851   2.654   0.172  1.00  0.00     0.000 C 
BRANCH   9  10
ATOM     10  C   UNL     1      -5.954   3.906   1.061  1.00  0.00     0.000 C 
BRANCH  10  11
ATOM     11  C   UNL     1      -4.720   4.103   1.960  1.00  0.00     0.000 C 
BRANCH  11  12
ATOM     12  C   UNL     1      -4.373   2.905   2.869  1.00  0.00     0.006 C 
BRANCH  12  13
ATOM     13  C   UNL     1      -2.951   2.351   2.679  1.00  0.00     0.053 C 
BRANCH  13  14
ATOM     14  C   UNL     1      -2.467   1.622   3.896  1.00  0.00     0.041 C 
ATOM     15  O   UNL     1      -3.274   0.952   4.594  1.00  0.00    -0.550 OA
ATOM     16  O   UNL     1      -1.125   1.672   4.249  1.00  0.00    -0.550 OA
ENDBRANCH  13  14
ENDBRANCH  12  13
ENDBRANCH  11  12
ENDBRANCH  10  11
ENDBRANCH   9  10
ENDBRANCH   8   9
ENDBRANCH   7   8
ENDBRANCH   6   7
ENDBRANCH   5   6
ENDBRANCH   4   5
ENDBRANCH   3   4
ENDBRANCH   2   3
ENDBRANCH   1   2
BRANCH   1  17
ATOM     17  C   UNL     1     -15.457   2.253  -0.432  1.00  0.00     0.000 C 
BRANCH  17  18
ATOM     18  C   UNL     1     -15.685   1.073  -1.393  1.00  0.00     0.000 C 
BRANCH  18  19
ATOM     19  C   UNL     1     -16.938   0.256  -1.036  1.00  0.00     0.000 C 
BRANCH  19  20
ATOM     20  C   UNL     1     -16.619  -0.953  -0.144  1.00  0.00     0.000 C 
BRANCH  20  21
ATOM     21  C   UNL     1     -17.124  -2.255  -0.784  1.00  0.00     0.000 C 
BRANCH  21  22
ATOM     22  C   UNL     1     -16.477  -2.536  -2.150  1.00  0.00    -0.000 C 
BRANCH  22  23
ATOM     23  C   UNL     1     -16.161  -4.027  -2.361  1.00  0.00    -0.000 C 
BRANCH  23  24
ATOM     24  C   UNL     1     -14.717  -4.384  -1.970  1.00  0.00    -0.000 C 
BRANCH  24  25
ATOM     25  C   UNL     1     -13.943  -5.056  -3.118  1.00  0.00    -0.000 C 
BRANCH  25  26
ATOM     26  C   UNL     1     -13.350  -4.036  -4.104  1.00  0.00    -0.000 C 
BRANCH  26  27
ATOM     27  C   UNL     1     -13.784  -4.297  -5.557  1.00  0.00    -0.000 C 
BRANCH  27  28
ATOM     28  C   UNL     1     -15.017  -3.472  -5.962  1.00  0.00    -0.000 C 
BRANCH  28  29
ATOM     29  C   UNL     1     -15.693  -4.010  -7.232  1.00  0.00    -0.003 C 
ATOM     30  C   UNL     1     -14.728  -4.866  -8.048  1.00  0.00     0.004 C 
ENDBRANCH  28  29
ENDBRANCH  27  28
ENDBRANCH  26  27
ENDBRANCH  25  26
ENDBRANCH  24  25
ENDBRANCH  23  24
ENDBRANCH  22  23
ENDBRANCH  21  22
ENDBRANCH  20  21
ENDBRANCH  19  20
ENDBRANCH  18  19
ENDBRANCH  17  18
ENDBRANCH   1  17
TORSDOF 26
ENDMDL
