MODEL 1
REMARK VINA RESULT:    -4.111      0.000      0.000
REMARK INTER + INTRA:          -5.260
REMARK INTER:                  -4.952
REMARK INTRA:                  -0.308
REMARK UNBOUND:                -0.308
REMARK SMILES O=c1c(O)c(-c2ccc(O)c(O)c2)oc2cc(O)cc(O)c12
REMARK SMILES IDX 5 1 3 2 2 3 1 4 22 5 20 6 19 7 17 8 16 9 15 10 14 11 6 12
REMARK SMILES IDX 7 13 8 14 9 15 13 16 11 17 10 18 12 20 4 22 21 24 18 26
REMARK H PARENT 10 19 12 21 4 23 21 25 18 27
REMARK Flexibility Score: inf
ROOT
ATOM      1  C   UNL     1      21.000  33.724  40.178  1.00  0.00     0.180 A 
ATOM      2  C   UNL     1      21.220  33.366  38.837  1.00  0.00     0.208 A 
ATOM      3  C   UNL     1      20.163  32.813  38.097  1.00  0.00     0.238 A 
ATOM      4  O   UNL     1      20.381  32.445  36.913  1.00  0.00    -0.285 OA
ATOM      5  C   UNL     1      18.895  32.639  38.701  1.00  0.00     0.111 A 
ATOM      6  C   UNL     1      17.743  32.127  38.033  1.00  0.00     0.134 A 
ATOM      7  C   UNL     1      16.575  31.876  38.765  1.00  0.00     0.093 A 
ATOM      8  C   UNL     1      16.497  32.180  40.123  1.00  0.00     0.123 A 
ATOM      9  C   UNL     1      17.599  32.738  40.773  1.00  0.00     0.094 A 
ATOM     10  C   UNL     1      18.790  32.965  40.078  1.00  0.00     0.146 A 
ATOM     11  O   UNL     1      19.818  33.487  40.735  1.00  0.00    -0.452 OA
ENDROOT
BRANCH   1  12
ATOM     12  C   UNL     1      22.058  34.334  41.015  1.00  0.00     0.025 A 
ATOM     13  C   UNL     1      22.857  33.554  41.867  1.00  0.00     0.016 A 
ATOM     14  C   UNL     1      23.864  34.148  42.628  1.00  0.00     0.051 A 
ATOM     15  C   UNL     1      24.105  35.524  42.547  1.00  0.00     0.157 A 
ATOM     16  C   UNL     1      22.312  35.710  40.915  1.00  0.00     0.062 A 
ATOM     17  C   UNL     1      23.320  36.315  41.676  1.00  0.00     0.158 A 
BRANCH  15  18
ATOM     18  O   UNL     1      25.124  36.056  43.339  1.00  0.00    -0.504 OA
ATOM     19  H   UNL     1      25.959  36.486  42.970  1.00  0.00     0.293 HD
ENDBRANCH  15  18
BRANCH  17  20
ATOM     20  O   UNL     1      23.507  37.692  41.534  1.00  0.00    -0.504 OA
ATOM     21  H   UNL     1      23.785  38.138  40.671  1.00  0.00     0.293 HD
ENDBRANCH  17  20
ENDBRANCH   1  12
BRANCH   2  22
ATOM     22  O   UNL     1      22.486  33.525  38.266  1.00  0.00    -0.502 OA
ATOM     23  H   UNL     1      23.224  32.841  38.377  1.00  0.00     0.293 HD
ENDBRANCH   2  22
BRANCH   6  24
ATOM     24  O   UNL     1      17.683  31.875  36.659  1.00  0.00    -0.507 OA
ATOM     25  H   UNL     1      18.321  31.276  36.158  1.00  0.00     0.293 HD
ENDBRANCH   6  24
BRANCH   8  26
ATOM     26  O   UNL     1      15.314  31.932  40.817  1.00  0.00    -0.508 OA
ATOM     27  H   UNL     1      14.965  30.991  40.952  1.00  0.00     0.293 HD
ENDBRANCH   8  26
TORSDOF 6
ENDMDL
MODEL 2
REMARK VINA RESULT:    -3.972      1.848      7.273
REMARK INTER + INTRA:          -5.092
REMARK INTER:                  -4.808
REMARK INTRA:                  -0.284
REMARK UNBOUND:                -0.308
REMARK SMILES O=c1c(O)c(-c2ccc(O)c(O)c2)oc2cc(O)cc(O)c12
REMARK SMILES IDX 5 1 3 2 2 3 1 4 22 5 20 6 19 7 17 8 16 9 15 10 14 11 6 12
REMARK SMILES IDX 7 13 8 14 9 15 13 16 11 17 10 18 12 20 4 22 21 24 18 26
REMARK H PARENT 10 19 12 21 4 23 21 25 18 27
REMARK Flexibility Score: inf
ROOT
ATOM      1  C   UNL     1      22.140  34.170  40.304  1.00  0.00     0.180 A 
ATOM      2  C   UNL     1      22.650  33.230  41.216  1.00  0.00     0.208 A 
ATOM      3  C   UNL     1      23.506  33.667  42.239  1.00  0.00     0.238 A 
ATOM      4  O   UNL     1      24.002  32.813  43.019  1.00  0.00    -0.285 OA
ATOM      5  C   UNL     1      23.830  35.041  42.348  1.00  0.00     0.111 A 
ATOM      6  C   UNL     1      24.653  35.601  43.370  1.00  0.00     0.134 A 
ATOM      7  C   UNL     1      25.012  36.953  43.303  1.00  0.00     0.093 A 
ATOM      8  C   UNL     1      24.525  37.779  42.293  1.00  0.00     0.123 A 
ATOM      9  C   UNL     1      23.669  37.256  41.322  1.00  0.00     0.094 A 
ATOM     10  C   UNL     1      23.323  35.902  41.340  1.00  0.00     0.146 A 
ATOM     11  O   UNL     1      22.515  35.441  40.393  1.00  0.00    -0.452 OA
ENDROOT
BRANCH   1  12
ATOM     12  C   UNL     1      21.214  33.789  39.214  1.00  0.00     0.025 A 
ATOM     13  C   UNL     1      21.669  33.608  37.898  1.00  0.00     0.016 A 
ATOM     14  C   UNL     1      20.781  33.225  36.892  1.00  0.00     0.051 A 
ATOM     15  C   UNL     1      19.429  33.003  37.176  1.00  0.00     0.157 A 
ATOM     16  C   UNL     1      19.863  33.545  39.506  1.00  0.00     0.062 A 
ATOM     17  C   UNL     1      18.965  33.161  38.503  1.00  0.00     0.158 A 
BRANCH  15  18
ATOM     18  O   UNL     1      18.594  32.626  36.124  1.00  0.00    -0.504 OA
ATOM     19  H   UNL     1      18.389  33.212  35.328  1.00  0.00     0.293 HD
ENDBRANCH  15  18
BRANCH  17  20
ATOM     20  O   UNL     1      17.633  32.949  38.867  1.00  0.00    -0.504 OA
ATOM     21  H   UNL     1      17.290  33.013  39.815  1.00  0.00     0.293 HD
ENDBRANCH  17  20
ENDBRANCH   1  12
BRANCH   2  22
ATOM     22  O   UNL     1      22.336  31.875  41.077  1.00  0.00    -0.502 OA
ATOM     23  H   UNL     1      21.946  31.491  40.225  1.00  0.00     0.293 HD
ENDBRANCH   2  22
BRANCH   6  24
ATOM     24  O   UNL     1      25.121  34.885  44.476  1.00  0.00    -0.507 OA
ATOM     25  H   UNL     1      26.084  34.850  44.772  1.00  0.00     0.293 HD
ENDBRANCH   6  24
BRANCH   8  26
ATOM     26  O   UNL     1      24.889  39.124  42.267  1.00  0.00    -0.508 OA
ATOM     27  H   UNL     1      25.003  39.626  41.394  1.00  0.00     0.293 HD
ENDBRANCH   8  26
TORSDOF 6
ENDMDL
MODEL 3
REMARK VINA RESULT:    -3.551      1.560      7.006
REMARK INTER + INTRA:          -4.586
REMARK INTER:                  -4.373
REMARK INTRA:                  -0.212
REMARK UNBOUND:                -0.308
REMARK SMILES O=c1c(O)c(-c2ccc(O)c(O)c2)oc2cc(O)cc(O)c12
REMARK SMILES IDX 5 1 3 2 2 3 1 4 22 5 20 6 19 7 17 8 16 9 15 10 14 11 6 12
REMARK SMILES IDX 7 13 8 14 9 15 13 16 11 17 10 18 12 20 4 22 21 24 18 26
REMARK H PARENT 10 19 12 21 4 23 21 25 18 27
REMARK Flexibility Score: inf
ROOT
ATOM      1  C   UNL     1      21.385  34.412  40.241  1.00  0.00     0.180 A 
ATOM      2  C   UNL     1      21.717  35.763  40.042  1.00  0.00     0.208 A 
ATOM      3  C   UNL     1      22.741  36.334  40.813  1.00  0.00     0.238 A 
ATOM      4  O   UNL     1      22.997  37.558  40.669  1.00  0.00    -0.285 OA
ATOM      5  C   UNL     1      23.433  35.543  41.763  1.00  0.00     0.111 A 
ATOM      6  C   UNL     1      24.514  36.007  42.569  1.00  0.00     0.134 A 
ATOM      7  C   UNL     1      25.037  35.175  43.567  1.00  0.00     0.093 A 
ATOM      8  C   UNL     1      24.564  33.877  43.743  1.00  0.00     0.123 A 
ATOM      9  C   UNL     1      23.547  33.391  42.920  1.00  0.00     0.094 A 
ATOM     10  C   UNL     1      22.979  34.210  41.940  1.00  0.00     0.146 A 
ATOM     11  O   UNL     1      22.007  33.715  41.185  1.00  0.00    -0.452 OA
ENDROOT
BRANCH   1  12
ATOM     12  C   UNL     1      20.333  33.733  39.450  1.00  0.00     0.025 A 
ATOM     13  C   UNL     1      19.102  33.377  40.023  1.00  0.00     0.016 A 
ATOM     14  C   UNL     1      18.117  32.760  39.251  1.00  0.00     0.051 A 
ATOM     15  C   UNL     1      18.331  32.498  37.894  1.00  0.00     0.157 A 
ATOM     16  C   UNL     1      20.542  33.492  38.083  1.00  0.00     0.062 A 
ATOM     17  C   UNL     1      19.559  32.874  37.301  1.00  0.00     0.158 A 
BRANCH  15  18
ATOM     18  O   UNL     1      17.307  31.875  37.180  1.00  0.00    -0.504 OA
ATOM     19  H   UNL     1      17.449  31.103  36.545  1.00  0.00     0.293 HD
ENDBRANCH  15  18
BRANCH  17  20
ATOM     20  O   UNL     1      19.843  32.654  35.951  1.00  0.00    -0.504 OA
ATOM     21  H   UNL     1      19.625  31.798  35.460  1.00  0.00     0.293 HD
ENDBRANCH  17  20
ENDBRANCH   1  12
BRANCH   2  22
ATOM     22  O   UNL     1      21.007  36.531  39.115  1.00  0.00    -0.502 OA
ATOM     23  H   UNL     1      20.175  36.191  38.648  1.00  0.00     0.293 HD
ENDBRANCH   2  22
BRANCH   6  24
ATOM     24  O   UNL     1      25.125  37.255  42.414  1.00  0.00    -0.507 OA
ATOM     25  H   UNL     1      24.984  38.043  43.028  1.00  0.00     0.293 HD
ENDBRANCH   6  24
BRANCH   8  26
ATOM     26  O   UNL     1      25.119  33.070  44.736  1.00  0.00    -0.508 OA
ATOM     27  H   UNL     1      26.111  32.868  44.762  1.00  0.00     0.293 HD
ENDBRANCH   8  26
TORSDOF 6
ENDMDL
MODEL 4
REMARK VINA RESULT:    -3.237     18.258     20.664
REMARK INTER + INTRA:          -4.208
REMARK INTER:                  -4.702
REMARK INTRA:                   0.495
REMARK UNBOUND:                -0.308
REMARK SMILES O=c1c(O)c(-c2ccc(O)c(O)c2)oc2cc(O)cc(O)c12
REMARK SMILES IDX 5 1 3 2 2 3 1 4 22 5 20 6 19 7 17 8 16 9 15 10 14 11 6 12
REMARK SMILES IDX 7 13 8 14 9 15 13 16 11 17 10 18 12 20 4 22 21 24 18 26
REMARK H PARENT 10 19 12 21 4 23 21 25 18 27
REMARK Flexibility Score: inf
ROOT
ATOM      1  C   UNL     1       5.088  45.673  38.705  1.00  0.00     0.180 A 
ATOM      2  C   UNL     1       5.023  46.379  37.491  1.00  0.00     0.208 A 
ATOM      3  C   UNL     1       4.990  47.781  37.519  1.00  0.00     0.238 A 
ATOM      4  O   UNL     1       4.876  48.405  36.431  1.00  0.00    -0.285 OA
ATOM      5  C   UNL     1       5.039  48.464  38.758  1.00  0.00     0.111 A 
ATOM      6  C   UNL     1       5.053  49.883  38.902  1.00  0.00     0.134 A 
ATOM      7  C   UNL     1       4.970  50.448  40.181  1.00  0.00     0.093 A 
ATOM      8  C   UNL     1       4.941  49.647  41.321  1.00  0.00     0.123 A 
ATOM      9  C   UNL     1       4.988  48.258  41.195  1.00  0.00     0.094 A 
ATOM     10  C   UNL     1       5.033  47.664  39.931  1.00  0.00     0.146 A 
ATOM     11  O   UNL     1       5.066  46.340  39.853  1.00  0.00    -0.452 OA
ENDROOT
BRANCH   1  12
ATOM     12  C   UNL     1       5.150  44.195  38.756  1.00  0.00     0.025 A 
ATOM     13  C   UNL     1       4.904  43.494  39.947  1.00  0.00     0.016 A 
ATOM     14  C   UNL     1       4.945  42.099  39.965  1.00  0.00     0.051 A 
ATOM     15  C   UNL     1       5.217  41.376  38.799  1.00  0.00     0.157 A 
ATOM     16  C   UNL     1       5.401  43.471  37.580  1.00  0.00     0.062 A 
ATOM     17  C   UNL     1       5.444  42.072  37.588  1.00  0.00     0.158 A 
BRANCH  15  18
ATOM     18  O   UNL     1       5.247  39.983  38.886  1.00  0.00    -0.504 OA
ATOM     19  H   UNL     1       4.424  39.403  38.956  1.00  0.00     0.293 HD
ENDBRANCH  15  18
BRANCH  17  20
ATOM     20  O   UNL     1       5.713  41.421  36.382  1.00  0.00    -0.504 OA
ATOM     21  H   UNL     1       6.412  41.726  35.720  1.00  0.00     0.293 HD
ENDBRANCH  17  20
ENDBRANCH   1  12
BRANCH   2  22
ATOM     22  O   UNL     1       4.953  45.686  36.279  1.00  0.00    -0.502 OA
ATOM     23  H   UNL     1       5.278  46.082  35.405  1.00  0.00     0.293 HD
ENDBRANCH   2  22
BRANCH   6  24
ATOM     24  O   UNL     1       5.172  50.775  37.833  1.00  0.00    -0.507 OA
ATOM     25  H   UNL     1       5.985  50.858  37.242  1.00  0.00     0.293 HD
ENDBRANCH   6  24
BRANCH   8  26
ATOM     26  O   UNL     1       4.876  50.244  42.580  1.00  0.00    -0.508 OA
ATOM     27  H   UNL     1       5.090  51.225  42.713  1.00  0.00     0.293 HD
ENDBRANCH   8  26
TORSDOF 6
ENDMDL
MODEL 5
REMARK VINA RESULT:    -2.605     19.280     21.477
REMARK INTER + INTRA:          -3.446
REMARK INTER:                  -3.917
REMARK INTRA:                   0.471
REMARK UNBOUND:                -0.308
REMARK SMILES O=c1c(O)c(-c2ccc(O)c(O)c2)oc2cc(O)cc(O)c12
REMARK SMILES IDX 5 1 3 2 2 3 1 4 22 5 20 6 19 7 17 8 16 9 15 10 14 11 6 12
REMARK SMILES IDX 7 13 8 14 9 15 13 16 11 17 10 18 12 20 4 22 21 24 18 26
REMARK H PARENT 10 19 12 21 4 23 21 25 18 27
REMARK Flexibility Score: inf
ROOT
ATOM      1  C   UNL     1       5.011  46.955  38.938  1.00  0.00     0.180 A 
ATOM      2  C   UNL     1       4.969  47.572  37.675  1.00  0.00     0.208 A 
ATOM      3  C   UNL     1       4.967  48.973  37.601  1.00  0.00     0.238 A 
ATOM      4  O   UNL     1       4.875  49.519  36.470  1.00  0.00    -0.285 OA
ATOM      5  C   UNL     1       5.024  49.743  38.788  1.00  0.00     0.111 A 
ATOM      6  C   UNL     1       5.069  51.168  38.829  1.00  0.00     0.134 A 
ATOM      7  C   UNL     1       4.992  51.826  40.062  1.00  0.00     0.093 A 
ATOM      8  C   UNL     1       4.938  51.112  41.258  1.00  0.00     0.123 A 
ATOM      9  C   UNL     1       4.954  49.716  41.233  1.00  0.00     0.094 A 
ATOM     10  C   UNL     1       4.993  49.031  40.016  1.00  0.00     0.146 A 
ATOM     11  O   UNL     1       4.996  47.704  40.035  1.00  0.00    -0.452 OA
ENDROOT
BRANCH   1  12
ATOM     12  C   UNL     1       5.039  45.484  39.097  1.00  0.00     0.025 A 
ATOM     13  C   UNL     1       5.049  44.629  37.983  1.00  0.00     0.016 A 
ATOM     14  C   UNL     1       5.101  43.245  38.157  1.00  0.00     0.051 A 
ATOM     15  C   UNL     1       5.156  42.686  39.439  1.00  0.00     0.157 A 
ATOM     16  C   UNL     1       5.117  44.927  40.382  1.00  0.00     0.062 A 
ATOM     17  C   UNL     1       5.168  43.540  40.567  1.00  0.00     0.158 A 
BRANCH  15  18
ATOM     18  O   UNL     1       5.201  41.296  39.544  1.00  0.00    -0.504 OA
ATOM     19  H   UNL     1       5.128  40.792  40.416  1.00  0.00     0.293 HD
ENDBRANCH  15  18
BRANCH  17  20
ATOM     20  O   UNL     1       5.232  43.058  41.877  1.00  0.00    -0.504 OA
ATOM     21  H   UNL     1       5.860  43.419  42.581  1.00  0.00     0.293 HD
ENDBRANCH  17  20
ENDBRANCH   1  12
BRANCH   2  22
ATOM     22  O   UNL     1       4.891  46.794  36.517  1.00  0.00    -0.502 OA
ATOM     23  H   UNL     1       5.138  47.153  35.602  1.00  0.00     0.293 HD
ENDBRANCH   2  22
BRANCH   6  24
ATOM     24  O   UNL     1       5.216  51.977  37.698  1.00  0.00    -0.507 OA
ATOM     25  H   UNL     1       5.824  52.779  37.641  1.00  0.00     0.293 HD
ENDBRANCH   6  24
BRANCH   8  26
ATOM     26  O   UNL     1       4.878  51.799  42.469  1.00  0.00    -0.508 OA
ATOM     27  H   UNL     1       4.907  52.811  42.506  1.00  0.00     0.293 HD
ENDBRANCH   8  26
TORSDOF 6
ENDMDL
MODEL 6
REMARK VINA RESULT:    -2.498      1.324      6.681
REMARK INTER + INTRA:          -3.317
REMARK INTER:                  -3.804
REMARK INTRA:                   0.487
REMARK UNBOUND:                -0.308
REMARK SMILES O=c1c(O)c(-c2ccc(O)c(O)c2)oc2cc(O)cc(O)c12
REMARK SMILES IDX 5 1 3 2 2 3 1 4 22 5 20 6 19 7 17 8 16 9 15 10 14 11 6 12
REMARK SMILES IDX 7 13 8 14 9 15 13 16 11 17 10 18 12 20 4 22 21 24 18 26
REMARK H PARENT 10 19 12 21 4 23 21 25 18 27
REMARK Flexibility Score: inf
ROOT
ATOM      1  C   UNL     1      19.972  32.901  40.025  1.00  0.00     0.180 A 
ATOM      2  C   UNL     1      20.825  32.615  38.945  1.00  0.00     0.208 A 
ATOM      3  C   UNL     1      22.195  32.893  39.066  1.00  0.00     0.238 A 
ATOM      4  O   UNL     1      22.944  32.685  38.076  1.00  0.00    -0.285 OA
ATOM      5  C   UNL     1      22.700  33.438  40.271  1.00  0.00     0.111 A 
ATOM      6  C   UNL     1      24.076  33.721  40.518  1.00  0.00     0.134 A 
ATOM      7  C   UNL     1      24.444  34.381  41.697  1.00  0.00     0.093 A 
ATOM      8  C   UNL     1      23.497  34.708  42.665  1.00  0.00     0.123 A 
ATOM      9  C   UNL     1      22.155  34.382  42.461  1.00  0.00     0.094 A 
ATOM     10  C   UNL     1      21.752  33.757  41.278  1.00  0.00     0.146 A 
ATOM     11  O   UNL     1      20.465  33.473  41.117  1.00  0.00    -0.452 OA
ENDROOT
BRANCH   1  12
ATOM     12  C   UNL     1      18.521  32.613  39.981  1.00  0.00     0.025 A 
ATOM     13  C   UNL     1      17.736  32.635  41.146  1.00  0.00     0.016 A 
ATOM     14  C   UNL     1      16.365  32.384  41.076  1.00  0.00     0.051 A 
ATOM     15  C   UNL     1      15.746  32.122  39.849  1.00  0.00     0.157 A 
ATOM     16  C   UNL     1      17.899  32.372  38.747  1.00  0.00     0.062 A 
ATOM     17  C   UNL     1      16.524  32.120  38.667  1.00  0.00     0.158 A 
BRANCH  15  18
ATOM     18  O   UNL     1      14.373  31.875  39.849  1.00  0.00    -0.504 OA
ATOM     19  H   UNL     1      13.676  32.561  39.601  1.00  0.00     0.293 HD
ENDBRANCH  15  18
BRANCH  17  20
ATOM     20  O   UNL     1      15.978  31.875  37.405  1.00  0.00    -0.504 OA
ATOM     21  H   UNL     1      15.122  32.295  37.070  1.00  0.00     0.293 HD
ENDBRANCH  17  20
ENDBRANCH   1  12
BRANCH   2  22
ATOM     22  O   UNL     1      20.303  32.097  37.756  1.00  0.00    -0.502 OA
ATOM     23  H   UNL     1      20.055  31.121  37.650  1.00  0.00     0.293 HD
ENDBRANCH   2  22
BRANCH   6  24
ATOM     24  O   UNL     1      25.116  33.354  39.658  1.00  0.00    -0.507 OA
ATOM     25  H   UNL     1      25.341  32.406  39.402  1.00  0.00     0.293 HD
ENDBRANCH   6  24
BRANCH   8  26
ATOM     26  O   UNL     1      23.901  35.350  43.835  1.00  0.00    -0.508 OA
ATOM     27  H   UNL     1      24.858  35.650  43.972  1.00  0.00     0.293 HD
ENDBRANCH   8  26
TORSDOF 6
ENDMDL
MODEL 7
REMARK VINA RESULT:    -2.059      1.999      6.977
REMARK INTER + INTRA:          -2.789
REMARK INTER:                  -3.188
REMARK INTRA:                   0.400
REMARK UNBOUND:                -0.308
REMARK SMILES O=c1c(O)c(-c2ccc(O)c(O)c2)oc2cc(O)cc(O)c12
REMARK SMILES IDX 5 1 3 2 2 3 1 4 22 5 20 6 19 7 17 8 16 9 15 10 14 11 6 12
REMARK SMILES IDX 7 13 8 14 9 15 13 16 11 17 10 18 12 20 4 22 21 24 18 26
REMARK H PARENT 10 19 12 21 4 23 21 25 18 27
REMARK Flexibility Score: inf
ROOT
ATOM      1  C   UNL     1      20.015  32.736  40.088  1.00  0.00     0.180 A 
ATOM      2  C   UNL     1      20.609  33.292  41.235  1.00  0.00     0.208 A 
ATOM      3  C   UNL     1      21.994  33.517  41.244  1.00  0.00     0.238 A 
ATOM      4  O   UNL     1      22.528  33.964  42.293  1.00  0.00    -0.285 OA
ATOM      5  C   UNL     1      22.768  33.199  40.101  1.00  0.00     0.111 A 
ATOM      6  C   UNL     1      24.172  33.424  39.985  1.00  0.00     0.134 A 
ATOM      7  C   UNL     1      24.856  32.951  38.858  1.00  0.00     0.093 A 
ATOM      8  C   UNL     1      24.178  32.322  37.816  1.00  0.00     0.123 A 
ATOM      9  C   UNL     1      22.795  32.150  37.892  1.00  0.00     0.094 A 
ATOM     10  C   UNL     1      22.090  32.579  39.020  1.00  0.00     0.146 A 
ATOM     11  O   UNL     1      20.777  32.387  39.058  1.00  0.00    -0.452 OA
ENDROOT
BRANCH   1  12
ATOM     12  C   UNL     1      18.558  32.491  39.995  1.00  0.00     0.025 A 
ATOM     13  C   UNL     1      17.749  32.448  41.141  1.00  0.00     0.016 A 
ATOM     14  C   UNL     1      16.374  32.240  41.026  1.00  0.00     0.051 A 
ATOM     15  C   UNL     1      15.776  32.085  39.771  1.00  0.00     0.157 A 
ATOM     16  C   UNL     1      17.958  32.358  38.733  1.00  0.00     0.062 A 
ATOM     17  C   UNL     1      16.579  32.148  38.608  1.00  0.00     0.158 A 
BRANCH  15  18
ATOM     18  O   UNL     1      14.397  31.875  39.726  1.00  0.00    -0.504 OA
ATOM     19  H   UNL     1      13.906  31.516  38.920  1.00  0.00     0.293 HD
ENDBRANCH  15  18
BRANCH  17  20
ATOM     20  O   UNL     1      16.055  32.012  37.321  1.00  0.00    -0.504 OA
ATOM     21  H   UNL     1      15.278  31.408  37.089  1.00  0.00     0.293 HD
ENDBRANCH  17  20
ENDBRANCH   1  12
BRANCH   2  22
ATOM     22  O   UNL     1      19.831  33.577  42.360  1.00  0.00    -0.502 OA
ATOM     23  H   UNL     1      20.007  34.378  42.955  1.00  0.00     0.293 HD
ENDBRANCH   2  22
BRANCH   6  24
ATOM     24  O   UNL     1      24.931  34.124  40.927  1.00  0.00    -0.507 OA
ATOM     25  H   UNL     1      25.000  33.882  41.903  1.00  0.00     0.293 HD
ENDBRANCH   6  24
BRANCH   8  26
ATOM     26  O   UNL     1      24.888  31.878  36.701  1.00  0.00    -0.508 OA
ATOM     27  H   UNL     1      24.465  31.847  35.781  1.00  0.00     0.293 HD
ENDBRANCH   8  26
TORSDOF 6
ENDMDL
