MODEL 1
REMARK VINA RESULT:    -3.433      0.000      0.000
REMARK INTER + INTRA:          -6.852
REMARK INTER:                  -6.242
REMARK INTRA:                  -0.610
REMARK UNBOUND:                -0.610
REMARK SMILES CCCCCCCCCCCCCCCC(=O)[O-]
REMARK SMILES IDX 9 1 10 2 11 3 12 4 13 5 14 6 15 7 16 8 17 9 18 10 8 11 7 12
REMARK SMILES IDX 6 13 5 14 4 15 3 16 2 17 1 18
REMARK H PARENT
REMARK Flexibility Score: inf
ROOT
ATOM      1  C   UNL     1      13.316  78.854   0.976  1.00  0.00     0.000 C 
ENDROOT
BRANCH   1   2
ATOM      2  C   UNL     1      13.544  80.073   1.883  1.00  0.00     0.000 C 
BRANCH   2   3
ATOM      3  C   UNL     1      12.497  80.121   3.007  1.00  0.00     0.000 C 
BRANCH   3   4
ATOM      4  C   UNL     1      11.279  79.227   2.724  1.00  0.00     0.000 C 
BRANCH   4   5
ATOM      5  C   UNL     1       9.992  79.758   3.379  1.00  0.00     0.000 C 
BRANCH   5   6
ATOM      6  C   UNL     1       9.076  78.630   3.881  1.00  0.00     0.006 C 
BRANCH   6   7
ATOM      7  C   UNL     1       7.831  79.156   4.606  1.00  0.00     0.053 C 
BRANCH   7   8
ATOM      8  C   UNL     1       7.522  78.304   5.797  1.00  0.00     0.041 C 
ATOM      9  O   UNL     1       6.377  78.337   6.320  1.00  0.00    -0.550 OA
ATOM     10  O   UNL     1       8.484  77.438   6.300  1.00  0.00    -0.550 OA
ENDBRANCH   7   8
ENDBRANCH   6   7
ENDBRANCH   5   6
ENDBRANCH   4   5
ENDBRANCH   3   4
ENDBRANCH   2   3
ENDBRANCH   1   2
BRANCH   1  11
ATOM     11  C   UNL     1      14.587  78.009   0.788  1.00  0.00     0.000 C 
BRANCH  11  12
ATOM     12  C   UNL     1      15.125  78.061  -0.651  1.00  0.00    -0.000 C 
BRANCH  12  13
ATOM     13  C   UNL     1      14.032  78.504  -1.629  1.00  0.00    -0.000 C 
BRANCH  13  14
ATOM     14  C   UNL     1      14.296  79.928  -2.141  1.00  0.00    -0.000 C 
BRANCH  14  15
ATOM     15  C   UNL     1      14.978  79.945  -3.519  1.00  0.00    -0.000 C 
BRANCH  15  16
ATOM     16  C   UNL     1      14.517  78.787  -4.422  1.00  0.00    -0.000 C 
BRANCH  16  17
ATOM     17  C   UNL     1      14.908  78.996  -5.893  1.00  0.00    -0.003 C 
ATOM     18  C   UNL     1      14.087  78.133  -6.850  1.00  0.00     0.004 C 
ENDBRANCH  16  17
ENDBRANCH  15  16
ENDBRANCH  14  15
ENDBRANCH  13  14
ENDBRANCH  12  13
ENDBRANCH  11  12
ENDBRANCH   1  11
TORSDOF 14
ENDMDL
MODEL 2
REMARK VINA RESULT:    -2.823      4.907      9.569
REMARK INTER + INTRA:          -5.743
REMARK INTER:                  -5.128
REMARK INTRA:                  -0.615
REMARK UNBOUND:                -0.610
REMARK SMILES CCCCCCCCCCCCCCCC(=O)[O-]
REMARK SMILES IDX 9 1 10 2 11 3 12 4 13 5 14 6 15 7 16 8 17 9 18 10 8 11 7 12
REMARK SMILES IDX 6 13 5 14 4 15 3 16 2 17 1 18
REMARK H PARENT
REMARK Flexibility Score: inf
ROOT
ATOM      1  C   UNL     1      13.152  77.881   0.515  1.00  0.00     0.000 C 
ENDROOT
BRANCH   1   2
ATOM      2  C   UNL     1      14.087  77.155  -0.464  1.00  0.00     0.000 C 
BRANCH   2   3
ATOM      3  C   UNL     1      14.219  77.942  -1.777  1.00  0.00     0.000 C 
BRANCH   3   4
ATOM      4  C   UNL     1      15.121  79.179  -1.642  1.00  0.00     0.000 C 
BRANCH   4   5
ATOM      5  C   UNL     1      15.012  80.125  -2.851  1.00  0.00     0.000 C 
BRANCH   5   6
ATOM      6  C   UNL     1      14.216  79.508  -4.013  1.00  0.00     0.006 C 
BRANCH   6   7
ATOM      7  C   UNL     1      15.073  79.288  -5.266  1.00  0.00     0.053 C 
BRANCH   7   8
ATOM      8  C   UNL     1      14.473  78.221  -6.127  1.00  0.00     0.041 C 
ATOM      9  O   UNL     1      13.457  78.469  -6.828  1.00  0.00    -0.550 OA
ATOM     10  O   UNL     1      15.064  76.966  -6.192  1.00  0.00    -0.550 OA
ENDBRANCH   7   8
ENDBRANCH   6   7
ENDBRANCH   5   6
ENDBRANCH   4   5
ENDBRANCH   3   4
ENDBRANCH   2   3
ENDBRANCH   1   2
BRANCH   1  11
ATOM     11  C   UNL     1      13.914  78.738   1.540  1.00  0.00     0.000 C 
BRANCH  11  12
ATOM     12  C   UNL     1      12.985  79.637   2.369  1.00  0.00    -0.000 C 
BRANCH  12  13
ATOM     13  C   UNL     1      11.514  79.299   2.103  1.00  0.00    -0.000 C 
BRANCH  13  14
ATOM     14  C   UNL     1      10.600  79.959   3.147  1.00  0.00    -0.000 C 
BRANCH  14  15
ATOM     15  C   UNL     1       9.636  78.959   3.806  1.00  0.00    -0.000 C 
BRANCH  15  16
ATOM     16  C   UNL     1       8.305  79.608   4.224  1.00  0.00    -0.000 C 
BRANCH  16  17
ATOM     17  C   UNL     1       7.444  78.678   5.093  1.00  0.00    -0.003 C 
ATOM     18  C   UNL     1       8.281  77.729   5.949  1.00  0.00     0.004 C 
ENDBRANCH  16  17
ENDBRANCH  15  16
ENDBRANCH  14  15
ENDBRANCH  13  14
ENDBRANCH  12  13
ENDBRANCH  11  12
ENDBRANCH   1  11
TORSDOF 14
ENDMDL
MODEL 3
REMARK VINA RESULT:    -2.804      3.983     11.083
REMARK INTER + INTRA:          -5.708
REMARK INTER:                  -5.300
REMARK INTRA:                  -0.408
REMARK UNBOUND:                -0.610
REMARK SMILES CCCCCCCCCCCCCCCC(=O)[O-]
REMARK SMILES IDX 9 1 10 2 11 3 12 4 13 5 14 6 15 7 16 8 17 9 18 10 8 11 7 12
REMARK SMILES IDX 6 13 5 14 4 15 3 16 2 17 1 18
REMARK H PARENT
REMARK Flexibility Score: inf
ROOT
ATOM      1  C   UNL     1       9.325  78.759   3.918  1.00  0.00     0.000 C 
ENDROOT
BRANCH   1   2
ATOM      2  C   UNL     1       9.865  79.822   2.949  1.00  0.00     0.000 C 
BRANCH   2   3
ATOM      3  C   UNL     1      11.374  80.030   3.150  1.00  0.00     0.000 C 
BRANCH   3   4
ATOM      4  C   UNL     1      12.220  79.327   2.076  1.00  0.00     0.000 C 
BRANCH   4   5
ATOM      5  C   UNL     1      13.677  79.823   2.054  1.00  0.00     0.000 C 
BRANCH   5   6
ATOM      6  C   UNL     1      14.417  79.422   0.768  1.00  0.00     0.006 C 
BRANCH   6   7
ATOM      7  C   UNL     1      14.772  77.930   0.730  1.00  0.00     0.053 C 
BRANCH   7   8
ATOM      8  C   UNL     1      13.925  77.218  -0.279  1.00  0.00     0.041 C 
ATOM      9  O   UNL     1      14.016  77.510  -1.501  1.00  0.00    -0.550 OA
ATOM     10  O   UNL     1      13.071  76.200   0.124  1.00  0.00    -0.550 OA
ENDBRANCH   7   8
ENDBRANCH   6   7
ENDBRANCH   5   6
ENDBRANCH   4   5
ENDBRANCH   3   4
ENDBRANCH   2   3
ENDBRANCH   1   2
BRANCH   1  11
ATOM     11  C   UNL     1       8.033  79.202   4.625  1.00  0.00     0.000 C 
BRANCH  11  12
ATOM     12  C   UNL     1       7.651  78.279   5.793  1.00  0.00    -0.000 C 
BRANCH  12  13
ATOM     13  C   UNL     1       6.141  78.316   6.049  1.00  0.00    -0.000 C 
BRANCH  13  14
ATOM     14  C   UNL     1       5.818  77.907   7.494  1.00  0.00    -0.000 C 
BRANCH  14  15
ATOM     15  C   UNL     1       4.309  77.907   7.786  1.00  0.00    -0.000 C 
BRANCH  15  16
ATOM     16  C   UNL     1       3.934  78.824   8.964  1.00  0.00    -0.000 C 
BRANCH  16  17
ATOM     17  C   UNL     1       3.620  78.038  10.246  1.00  0.00    -0.003 C 
ATOM     18  C   UNL     1       4.709  78.183  11.308  1.00  0.00     0.004 C 
ENDBRANCH  16  17
ENDBRANCH  15  16
ENDBRANCH  14  15
ENDBRANCH  13  14
ENDBRANCH  12  13
ENDBRANCH  11  12
ENDBRANCH   1  11
TORSDOF 14
ENDMDL
MODEL 4
REMARK VINA RESULT:    -2.695      3.142      5.674
REMARK INTER + INTRA:          -5.511
REMARK INTER:                  -4.963
REMARK INTRA:                  -0.548
REMARK UNBOUND:                -0.610
REMARK SMILES CCCCCCCCCCCCCCCC(=O)[O-]
REMARK SMILES IDX 9 1 10 2 11 3 12 4 13 5 14 6 15 7 16 8 17 9 18 10 8 11 7 12
REMARK SMILES IDX 6 13 5 14 4 15 3 16 2 17 1 18
REMARK H PARENT
REMARK Flexibility Score: inf
ROOT
ATOM      1  C   UNL     1       9.329  78.651   4.015  1.00  0.00     0.000 C 
ENDROOT
BRANCH   1   2
ATOM      2  C   UNL     1       8.006  79.114   4.644  1.00  0.00     0.000 C 
BRANCH   2   3
ATOM      3  C   UNL     1       7.665  78.270   5.883  1.00  0.00     0.000 C 
BRANCH   3   4
ATOM      4  C   UNL     1       6.152  78.076   6.072  1.00  0.00     0.000 C 
BRANCH   4   5
ATOM      5  C   UNL     1       5.636  78.698   7.382  1.00  0.00     0.000 C 
BRANCH   5   6
ATOM      6  C   UNL     1       4.434  77.937   7.963  1.00  0.00     0.006 C 
BRANCH   6   7
ATOM      7  C   UNL     1       3.520  78.832   8.810  1.00  0.00     0.053 C 
BRANCH   7   8
ATOM      8  C   UNL     1       3.865  78.704  10.261  1.00  0.00     0.041 C 
ATOM      9  O   UNL     1       4.368  79.678  10.881  1.00  0.00    -0.550 OA
ATOM     10  O   UNL     1       3.586  77.525  10.941  1.00  0.00    -0.550 OA
ENDBRANCH   7   8
ENDBRANCH   6   7
ENDBRANCH   5   6
ENDBRANCH   4   5
ENDBRANCH   3   4
ENDBRANCH   2   3
ENDBRANCH   1   2
BRANCH   1  11
ATOM     11  C   UNL     1       9.850  79.625   2.945  1.00  0.00     0.000 C 
BRANCH  11  12
ATOM     12  C   UNL     1      11.326  79.998   3.151  1.00  0.00    -0.000 C 
BRANCH  12  13
ATOM     13  C   UNL     1      12.176  79.551   1.957  1.00  0.00    -0.000 C 
BRANCH  13  14
ATOM     14  C   UNL     1      13.675  79.624   2.291  1.00  0.00    -0.000 C 
BRANCH  14  15
ATOM     15  C   UNL     1      14.546  78.878   1.267  1.00  0.00    -0.000 C 
BRANCH  15  16
ATOM     16  C   UNL     1      13.979  78.957  -0.161  1.00  0.00    -0.000 C 
BRANCH  16  17
ATOM     17  C   UNL     1      13.827  77.573  -0.811  1.00  0.00    -0.003 C 
ATOM     18  C   UNL     1      13.473  76.482   0.199  1.00  0.00     0.004 C 
ENDBRANCH  16  17
ENDBRANCH  15  16
ENDBRANCH  14  15
ENDBRANCH  13  14
ENDBRANCH  12  13
ENDBRANCH  11  12
ENDBRANCH   1  11
TORSDOF 14
ENDMDL
MODEL 5
REMARK VINA RESULT:    -1.500      3.986      8.134
REMARK INTER + INTRA:          -3.337
REMARK INTER:                  -2.948
REMARK INTRA:                  -0.389
REMARK UNBOUND:                -0.610
REMARK SMILES CCCCCCCCCCCCCCCC(=O)[O-]
REMARK SMILES IDX 9 1 10 2 11 3 12 4 13 5 14 6 15 7 16 8 17 9 18 10 8 11 7 12
REMARK SMILES IDX 6 13 5 14 4 15 3 16 2 17 1 18
REMARK H PARENT
REMARK Flexibility Score: inf
ROOT
ATOM      1  C   UNL     1       6.080  78.638   6.166  1.00  0.00     0.000 C 
ENDROOT
BRANCH   1   2
ATOM      2  C   UNL     1       5.534  77.473   7.006  1.00  0.00     0.000 C 
BRANCH   2   3
ATOM      3  C   UNL     1       4.055  77.701   7.360  1.00  0.00     0.000 C 
BRANCH   3   4
ATOM      4  C   UNL     1       3.820  77.839   8.872  1.00  0.00     0.000 C 
BRANCH   4   5
ATOM      5  C   UNL     1       4.009  79.283   9.370  1.00  0.00     0.000 C 
BRANCH   5   6
ATOM      6  C   UNL     1       3.175  79.589  10.625  1.00  0.00     0.006 C 
BRANCH   6   7
ATOM      7  C   UNL     1       3.634  78.789  11.850  1.00  0.00     0.053 C 
BRANCH   7   8
ATOM      8  C   UNL     1       5.124  78.846  11.982  1.00  0.00     0.041 C 
ATOM      9  O   UNL     1       5.807  77.790  11.918  1.00  0.00    -0.550 OA
ATOM     10  O   UNL     1       5.763  80.071  12.125  1.00  0.00    -0.550 OA
ENDBRANCH   7   8
ENDBRANCH   6   7
ENDBRANCH   5   6
ENDBRANCH   4   5
ENDBRANCH   3   4
ENDBRANCH   2   3
ENDBRANCH   1   2
BRANCH   1  11
ATOM     11  C   UNL     1       7.536  78.419   5.725  1.00  0.00     0.000 C 
BRANCH  11  12
ATOM     12  C   UNL     1       7.937  79.312   4.540  1.00  0.00    -0.000 C 
BRANCH  12  13
ATOM     13  C   UNL     1       9.335  78.949   4.028  1.00  0.00    -0.000 C 
BRANCH  13  14
ATOM     14  C   UNL     1       9.837  79.990   3.016  1.00  0.00    -0.000 C 
BRANCH  14  15
ATOM     15  C   UNL     1      11.370  80.099   2.991  1.00  0.00    -0.000 C 
BRANCH  15  16
ATOM     16  C   UNL     1      12.009  79.222   1.900  1.00  0.00    -0.000 C 
BRANCH  16  17
ATOM     17  C   UNL     1      13.543  79.296   1.908  1.00  0.00    -0.003 C 
ATOM     18  C   UNL     1      14.151  79.080   0.522  1.00  0.00     0.004 C 
ENDBRANCH  16  17
ENDBRANCH  15  16
ENDBRANCH  14  15
ENDBRANCH  13  14
ENDBRANCH  12  13
ENDBRANCH  11  12
ENDBRANCH   1  11
TORSDOF 14
ENDMDL
MODEL 6
REMARK VINA RESULT:    -0.890      1.419      2.143
REMARK INTER + INTRA:          -2.227
REMARK INTER:                  -1.656
REMARK INTRA:                  -0.571
REMARK UNBOUND:                -0.610
REMARK SMILES CCCCCCCCCCCCCCCC(=O)[O-]
REMARK SMILES IDX 9 1 10 2 11 3 12 4 13 5 14 6 15 7 16 8 17 9 18 10 8 11 7 12
REMARK SMILES IDX 6 13 5 14 4 15 3 16 2 17 1 18
REMARK H PARENT
REMARK Flexibility Score: inf
ROOT
ATOM      1  C   UNL     1      12.629  76.724  -0.614  1.00  0.00     0.000 C 
ENDROOT
BRANCH   1   2
ATOM      2  C   UNL     1      12.467  77.118   0.862  1.00  0.00     0.000 C 
BRANCH   2   3
ATOM      3  C   UNL     1      11.985  78.572   0.990  1.00  0.00     0.000 C 
BRANCH   3   4
ATOM      4  C   UNL     1      12.891  79.421   1.896  1.00  0.00     0.000 C 
BRANCH   4   5
ATOM      5  C   UNL     1      12.278  79.660   3.287  1.00  0.00     0.000 C 
BRANCH   5   6
ATOM      6  C   UNL     1      10.813  80.122   3.214  1.00  0.00     0.006 C 
BRANCH   6   7
ATOM      7  C   UNL     1       9.830  78.953   3.068  1.00  0.00     0.053 C 
BRANCH   7   8
ATOM      8  C   UNL     1       8.845  78.956   4.195  1.00  0.00     0.041 C 
ATOM      9  O   UNL     1       8.888  78.059   5.077  1.00  0.00    -0.550 OA
ATOM     10  O   UNL     1       7.910  79.978   4.298  1.00  0.00    -0.550 OA
ENDBRANCH   7   8
ENDBRANCH   6   7
ENDBRANCH   5   6
ENDBRANCH   4   5
ENDBRANCH   3   4
ENDBRANCH   2   3
ENDBRANCH   1   2
BRANCH   1  11
ATOM     11  C   UNL     1      14.098  76.518  -1.017  1.00  0.00     0.000 C 
BRANCH  11  12
ATOM     12  C   UNL     1      14.612  77.613  -1.966  1.00  0.00    -0.000 C 
BRANCH  12  13
ATOM     13  C   UNL     1      14.727  78.958  -1.240  1.00  0.00    -0.000 C 
BRANCH  13  14
ATOM     14  C   UNL     1      14.441  80.125  -2.197  1.00  0.00    -0.000 C 
BRANCH  14  15
ATOM     15  C   UNL     1      15.017  79.892  -3.603  1.00  0.00    -0.000 C 
BRANCH  15  16
ATOM     16  C   UNL     1      13.924  79.773  -4.679  1.00  0.00    -0.000 C 
BRANCH  16  17
ATOM     17  C   UNL     1      14.306  78.795  -5.801  1.00  0.00    -0.003 C 
ATOM     18  C   UNL     1      14.092  77.334  -5.409  1.00  0.00     0.004 C 
ENDBRANCH  16  17
ENDBRANCH  15  16
ENDBRANCH  14  15
ENDBRANCH  13  14
ENDBRANCH  12  13
ENDBRANCH  11  12
ENDBRANCH   1  11
TORSDOF 14
ENDMDL
