MODEL 1
REMARK VINA RESULT:    42.134      0.000      0.000
REMARK INTER + INTRA:          50.752
REMARK INTER:                  50.755
REMARK INTRA:                  -0.003
REMARK UNBOUND:                -0.003
REMARK SMILES O=c1c(O)c(-c2ccc(O)c(O)c2)oc2cc(O)cc(O)c12
REMARK SMILES IDX 5 1 3 2 2 3 1 4 22 5 20 6 19 7 17 8 16 9 15 10 14 11 6 12
REMARK SMILES IDX 7 13 8 14 9 15 13 16 11 17 10 18 12 20 4 22 21 24 18 26
REMARK H PARENT 10 19 12 21 4 23 21 25 18 27
REMARK Flexibility Score: inf
ROOT
ATOM      1  C   UNL     1      11.386 -22.930 -16.539  1.00  0.00     0.180 A 
ATOM      2  C   UNL     1      11.573 -24.306 -16.759  1.00  0.00     0.208 A 
ATOM      3  C   UNL     1      12.779 -24.903 -16.357  1.00  0.00     0.238 A 
ATOM      4  O   UNL     1      12.962 -26.123 -16.607  1.00  0.00    -0.285 OA
ATOM      5  C   UNL     1      13.775 -24.120 -15.726  1.00  0.00     0.111 A 
ATOM      6  C   UNL     1      15.018 -24.629 -15.240  1.00  0.00     0.134 A 
ATOM      7  C   UNL     1      15.983 -23.740 -14.750  1.00  0.00     0.093 A 
ATOM      8  C   UNL     1      15.724 -22.370 -14.667  1.00  0.00     0.123 A 
ATOM      9  C   UNL     1      14.492 -21.872 -15.082  1.00  0.00     0.094 A 
ATOM     10  C   UNL     1      13.523 -22.728 -15.610  1.00  0.00     0.146 A 
ATOM     11  O   UNL     1      12.365 -22.211 -16.004  1.00  0.00    -0.452 OA
ENDROOT
BRANCH   1  12
ATOM     12  C   UNL     1      10.133 -22.235 -16.913  1.00  0.00     0.025 A 
ATOM     13  C   UNL     1      10.199 -21.008 -17.590  1.00  0.00     0.016 A 
ATOM     14  C   UNL     1       9.029 -20.325 -17.934  1.00  0.00     0.051 A 
ATOM     15  C   UNL     1       7.779 -20.849 -17.594  1.00  0.00     0.157 A 
ATOM     16  C   UNL     1       8.874 -22.751 -16.553  1.00  0.00     0.062 A 
ATOM     17  C   UNL     1       7.700 -22.065 -16.896  1.00  0.00     0.158 A 
BRANCH  15  18
ATOM     18  O   UNL     1       6.629 -20.146 -17.953  1.00  0.00    -0.504 OA
ATOM     19  H   UNL     1       6.419 -19.230 -17.575  1.00  0.00     0.293 HD
ENDBRANCH  15  18
BRANCH  17  20
ATOM     20  O   UNL     1       6.456 -22.587 -16.540  1.00  0.00    -0.504 OA
ATOM     21  H   UNL     1       5.673 -22.578 -17.183  1.00  0.00     0.293 HD
ENDBRANCH  17  20
ENDBRANCH   1  12
BRANCH   2  22
ATOM     22  O   UNL     1      10.585 -25.055 -17.405  1.00  0.00    -0.502 OA
ATOM     23  H   UNL     1       9.616 -25.046 -17.111  1.00  0.00     0.293 HD
ENDBRANCH   2  22
BRANCH   6  24
ATOM     24  O   UNL     1      15.340 -25.989 -15.193  1.00  0.00    -0.507 OA
ATOM     25  H   UNL     1      15.973 -26.451 -15.828  1.00  0.00     0.293 HD
ENDBRANCH   6  24
BRANCH   8  26
ATOM     26  O   UNL     1      16.684 -21.495 -14.162  1.00  0.00    -0.508 OA
ATOM     27  H   UNL     1      17.077 -20.754 -14.732  1.00  0.00     0.293 HD
ENDBRANCH   8  26
TORSDOF 6
ENDMDL
MODEL 2
REMARK VINA RESULT:    44.934      1.396      6.740
REMARK INTER + INTRA:          54.126
REMARK INTER:                  53.614
REMARK INTRA:                   0.511
REMARK UNBOUND:                -0.003
REMARK SMILES O=c1c(O)c(-c2ccc(O)c(O)c2)oc2cc(O)cc(O)c12
REMARK SMILES IDX 5 1 3 2 2 3 1 4 22 5 20 6 19 7 17 8 16 9 15 10 14 11 6 12
REMARK SMILES IDX 7 13 8 14 9 15 13 16 11 17 10 18 12 20 4 22 21 24 18 26
REMARK H PARENT 10 19 12 21 4 23 21 25 18 27
REMARK Flexibility Score: inf
ROOT
ATOM      1  C   UNL     1      13.728 -23.283 -15.762  1.00  0.00     0.180 A 
ATOM      2  C   UNL     1      13.453 -24.619 -16.103  1.00  0.00     0.208 A 
ATOM      3  C   UNL     1      12.257 -24.919 -16.775  1.00  0.00     0.238 A 
ATOM      4  O   UNL     1      11.992 -26.123 -17.027  1.00  0.00    -0.285 OA
ATOM      5  C   UNL     1      11.360 -23.878 -17.112  1.00  0.00     0.111 A 
ATOM      6  C   UNL     1      10.139 -24.062 -17.829  1.00  0.00     0.134 A 
ATOM      7  C   UNL     1       9.265 -22.980 -17.994  1.00  0.00     0.093 A 
ATOM      8  C   UNL     1       9.599 -21.707 -17.526  1.00  0.00     0.123 A 
ATOM      9  C   UNL     1      10.815 -21.505 -16.879  1.00  0.00     0.094 A 
ATOM     10  C   UNL     1      11.691 -22.573 -16.666  1.00  0.00     0.146 A 
ATOM     11  O   UNL     1      12.836 -22.339 -16.035  1.00  0.00    -0.452 OA
ENDROOT
BRANCH   1  12
ATOM     12  C   UNL     1      14.979 -22.886 -15.076  1.00  0.00     0.025 A 
ATOM     13  C   UNL     1      16.020 -23.817 -14.945  1.00  0.00     0.016 A 
ATOM     14  C   UNL     1      17.200 -23.470 -14.282  1.00  0.00     0.051 A 
ATOM     15  C   UNL     1      17.352 -22.196 -13.729  1.00  0.00     0.157 A 
ATOM     16  C   UNL     1      15.125 -21.610 -14.500  1.00  0.00     0.062 A 
ATOM     17  C   UNL     1      16.309 -21.262 -13.833  1.00  0.00     0.158 A 
BRANCH  15  18
ATOM     18  O   UNL     1      18.543 -21.878 -13.076  1.00  0.00    -0.504 OA
ATOM     19  H   UNL     1      19.411 -22.364 -13.272  1.00  0.00     0.293 HD
ENDBRANCH  15  18
BRANCH  17  20
ATOM     20  O   UNL     1      16.448 -19.994 -13.271  1.00  0.00    -0.504 OA
ATOM     21  H   UNL     1      16.206 -19.155 -13.786  1.00  0.00     0.293 HD
ENDBRANCH  17  20
ENDBRANCH   1  12
BRANCH   2  22
ATOM     22  O   UNL     1      14.343 -25.634 -15.739  1.00  0.00    -0.502 OA
ATOM     23  H   UNL     1      14.513 -26.444 -16.323  1.00  0.00     0.293 HD
ENDBRANCH   2  22
BRANCH   6  24
ATOM     24  O   UNL     1       9.753 -25.271 -18.417  1.00  0.00    -0.507 OA
ATOM     25  H   UNL     1       9.329 -25.356 -19.329  1.00  0.00     0.293 HD
ENDBRANCH   6  24
BRANCH   8  26
ATOM     26  O   UNL     1       8.732 -20.632 -17.709  1.00  0.00    -0.508 OA
ATOM     27  H   UNL     1       7.725 -20.755 -17.696  1.00  0.00     0.293 HD
ENDBRANCH   8  26
TORSDOF 6
ENDMDL
