MODEL 1
REMARK VINA RESULT:    -5.217      0.000      0.000
REMARK INTER + INTRA:          -5.522
REMARK INTER:                  -5.522
REMARK INTRA:                   0.000
REMARK UNBOUND:                 0.000
REMARK SMILES O=c1ccc2cc(O)c(O)cc2o1
REMARK SMILES IDX 4 1 3 2 2 3 1 4 13 5 12 6 11 7 9 8 7 9 6 10 5 11 8 12 10 14
REMARK H PARENT 8 13 10 15
REMARK Flexibility Score: inf
ROOT
ATOM      1  C   UNL     1      13.443  17.400   7.992  1.00  0.00     0.019 A 
ATOM      2  C   UNL     1      14.709  17.128   7.476  1.00  0.00     0.094 A 
ATOM      3  C   UNL     1      15.476  16.115   8.062  1.00  0.00     0.336 A 
ATOM      4  O   UNL     1      16.621  15.854   7.611  1.00  0.00    -0.246 OA
ATOM      5  O   UNL     1      15.003  15.424   9.096  1.00  0.00    -0.423 OA
ATOM      6  C   UNL     1      13.800  15.652   9.618  1.00  0.00     0.142 A 
ATOM      7  C   UNL     1      13.355  14.893  10.705  1.00  0.00     0.098 A 
ATOM      8  C   UNL     1      12.088  15.129  11.259  1.00  0.00     0.161 A 
ATOM      9  C   UNL     1      11.263  16.128  10.724  1.00  0.00     0.158 A 
ATOM     10  C   UNL     1      11.704  16.893   9.634  1.00  0.00     0.062 A 
ATOM     11  C   UNL     1      12.969  16.658   9.079  1.00  0.00     0.022 A 
ENDROOT
BRANCH   9  12
ATOM     12  O   UNL     1      10.006  16.357  11.280  1.00  0.00    -0.504 OA
ATOM     13  H   UNL     1       9.377  17.055  10.902  1.00  0.00     0.293 HD
ENDBRANCH   9  12
BRANCH   8  14
ATOM     14  O   UNL     1      11.642  14.374  12.343  1.00  0.00    -0.504 OA
ATOM     15  H   UNL     1      11.012  13.590  12.220  1.00  0.00     0.293 HD
ENDBRANCH   8  14
TORSDOF 2
ENDMDL
MODEL 2
REMARK VINA RESULT:    -4.976      2.389      2.421
REMARK INTER + INTRA:          -5.267
REMARK INTER:                  -5.267
REMARK INTRA:                   0.000
REMARK UNBOUND:                 0.000
REMARK SMILES O=c1ccc2cc(O)c(O)cc2o1
REMARK SMILES IDX 4 1 3 2 2 3 1 4 13 5 12 6 11 7 9 8 7 9 6 10 5 11 8 12 10 14
REMARK H PARENT 8 13 10 15
REMARK Flexibility Score: inf
ROOT
ATOM      1  C   UNL     1      13.725  16.958   8.337  1.00  0.00     0.019 A 
ATOM      2  C   UNL     1      14.911  17.021   7.608  1.00  0.00     0.094 A 
ATOM      3  C   UNL     1      16.094  17.373   8.267  1.00  0.00     0.336 A 
ATOM      4  O   UNL     1      17.176  17.436   7.626  1.00  0.00    -0.246 OA
ATOM      5  O   UNL     1      16.086  17.641   9.570  1.00  0.00    -0.423 OA
ATOM      6  C   UNL     1      14.975  17.591  10.303  1.00  0.00     0.142 A 
ATOM      7  C   UNL     1      15.027  17.883  11.670  1.00  0.00     0.098 A 
ATOM      8  C   UNL     1      13.860  17.832  12.446  1.00  0.00     0.161 A 
ATOM      9  C   UNL     1      12.636  17.487  11.854  1.00  0.00     0.158 A 
ATOM     10  C   UNL     1      12.579  17.193  10.483  1.00  0.00     0.062 A 
ATOM     11  C   UNL     1      13.744  17.244   9.706  1.00  0.00     0.022 A 
ENDROOT
BRANCH   9  12
ATOM     12  O   UNL     1      11.482  17.439  12.632  1.00  0.00    -0.504 OA
ATOM     13  H   UNL     1      11.336  16.709  13.320  1.00  0.00     0.293 HD
ENDBRANCH   9  12
BRANCH   8  14
ATOM     14  O   UNL     1      13.908  18.123  13.809  1.00  0.00    -0.504 OA
ATOM     15  H   UNL     1      13.071  18.346  14.334  1.00  0.00     0.293 HD
ENDBRANCH   8  14
TORSDOF 2
ENDMDL
MODEL 3
REMARK VINA RESULT:    -4.959      1.740      1.970
REMARK INTER + INTRA:          -5.249
REMARK INTER:                  -5.249
REMARK INTRA:                   0.000
REMARK UNBOUND:                 0.000
REMARK SMILES O=c1ccc2cc(O)c(O)cc2o1
REMARK SMILES IDX 4 1 3 2 2 3 1 4 13 5 12 6 11 7 9 8 7 9 6 10 5 11 8 12 10 14
REMARK H PARENT 8 13 10 15
REMARK Flexibility Score: inf
ROOT
ATOM      1  C   UNL     1      14.907  16.885   7.637  1.00  0.00     0.019 A 
ATOM      2  C   UNL     1      16.262  16.672   7.888  1.00  0.00     0.094 A 
ATOM      3  C   UNL     1      16.701  16.594   9.214  1.00  0.00     0.336 A 
ATOM      4  O   UNL     1      17.920  16.402   9.462  1.00  0.00    -0.246 OA
ATOM      5  O   UNL     1      15.838  16.721  10.219  1.00  0.00    -0.423 OA
ATOM      6  C   UNL     1      14.537  16.925  10.022  1.00  0.00     0.142 A 
ATOM      7  C   UNL     1      13.677  17.051  11.118  1.00  0.00     0.098 A 
ATOM      8  C   UNL     1      12.305  17.266  10.916  1.00  0.00     0.161 A 
ATOM      9  C   UNL     1      11.792  17.355   9.614  1.00  0.00     0.158 A 
ATOM     10  C   UNL     1      12.651  17.230   8.512  1.00  0.00     0.062 A 
ATOM     11  C   UNL     1      14.021  17.015   8.712  1.00  0.00     0.022 A 
ENDROOT
BRANCH   9  12
ATOM     12  O   UNL     1      10.429  17.569   9.423  1.00  0.00    -0.504 OA
ATOM     13  H   UNL     1       9.858  16.918   8.897  1.00  0.00     0.293 HD
ENDBRANCH   9  12
BRANCH   8  14
ATOM     14  O   UNL     1      11.445  17.392  12.006  1.00  0.00    -0.504 OA
ATOM     15  H   UNL     1      10.889  16.612  12.336  1.00  0.00     0.293 HD
ENDBRANCH   8  14
TORSDOF 2
ENDMDL
MODEL 4
REMARK VINA RESULT:    -4.919      1.772      4.730
REMARK INTER + INTRA:          -5.206
REMARK INTER:                  -5.206
REMARK INTRA:                   0.000
REMARK UNBOUND:                 0.000
REMARK SMILES O=c1ccc2cc(O)c(O)cc2o1
REMARK SMILES IDX 4 1 3 2 2 3 1 4 13 5 12 6 11 7 9 8 7 9 6 10 5 11 8 12 10 14
REMARK H PARENT 8 13 10 15
REMARK Flexibility Score: inf
ROOT
ATOM      1  C   UNL     1      12.635  16.914   7.926  1.00  0.00     0.019 A 
ATOM      2  C   UNL     1      11.527  16.704   8.746  1.00  0.00     0.094 A 
ATOM      3  C   UNL     1      11.714  16.623  10.130  1.00  0.00     0.336 A 
ATOM      4  O   UNL     1      10.727  16.434  10.888  1.00  0.00    -0.246 OA
ATOM      5  O   UNL     1      12.931  16.747  10.655  1.00  0.00    -0.423 OA
ATOM      6  C   UNL     1      14.014  16.950   9.908  1.00  0.00     0.142 A 
ATOM      7  C   UNL     1      15.268  17.072  10.515  1.00  0.00     0.098 A 
ATOM      8  C   UNL     1      16.413  17.285   9.732  1.00  0.00     0.161 A 
ATOM      9  C   UNL     1      16.302  17.377   8.337  1.00  0.00     0.158 A 
ATOM     10  C   UNL     1      15.047  17.254   7.723  1.00  0.00     0.062 A 
ATOM     11  C   UNL     1      13.903  17.041   8.504  1.00  0.00     0.022 A 
ENDROOT
BRANCH   9  12
ATOM     12  O   UNL     1      17.445  17.588   7.567  1.00  0.00    -0.504 OA
ATOM     13  H   UNL     1      17.468  17.362   6.580  1.00  0.00     0.293 HD
ENDBRANCH   9  12
BRANCH   8  14
ATOM     14  O   UNL     1      17.664  17.408  10.334  1.00  0.00    -0.504 OA
ATOM     15  H   UNL     1      18.413  17.934   9.900  1.00  0.00     0.293 HD
ENDBRANCH   8  14
TORSDOF 2
ENDMDL
MODEL 5
REMARK VINA RESULT:    -4.903      2.934      4.116
REMARK INTER + INTRA:          -5.190
REMARK INTER:                  -5.190
REMARK INTRA:                   0.000
REMARK UNBOUND:                 0.000
REMARK SMILES O=c1ccc2cc(O)c(O)cc2o1
REMARK SMILES IDX 4 1 3 2 2 3 1 4 13 5 12 6 11 7 9 8 7 9 6 10 5 11 8 12 10 14
REMARK H PARENT 8 13 10 15
REMARK Flexibility Score: inf
ROOT
ATOM      1  C   UNL     1      15.699  16.825  10.964  1.00  0.00     0.019 A 
ATOM      2  C   UNL     1      16.011  17.074  12.300  1.00  0.00     0.094 A 
ATOM      3  C   UNL     1      14.999  17.512  13.162  1.00  0.00     0.336 A 
ATOM      4  O   UNL     1      15.261  17.742  14.371  1.00  0.00    -0.246 OA
ATOM      5  O   UNL     1      13.760  17.686  12.712  1.00  0.00    -0.423 OA
ATOM      6  C   UNL     1      13.420  17.459  11.445  1.00  0.00     0.142 A 
ATOM      7  C   UNL     1      12.100  17.660  11.029  1.00  0.00     0.098 A 
ATOM      8  C   UNL     1      11.737  17.423   9.695  1.00  0.00     0.161 A 
ATOM      9  C   UNL     1      12.698  16.982   8.773  1.00  0.00     0.158 A 
ATOM     10  C   UNL     1      14.024  16.779   9.186  1.00  0.00     0.062 A 
ATOM     11  C   UNL     1      14.388  17.016  10.518  1.00  0.00     0.022 A 
ENDROOT
BRANCH   9  12
ATOM     12  O   UNL     1      12.329  16.749   7.450  1.00  0.00    -0.504 OA
ATOM     13  H   UNL     1      12.250  15.809   7.079  1.00  0.00     0.293 HD
ENDBRANCH   9  12
BRANCH   8  14
ATOM     14  O   UNL     1      10.422  17.622   9.277  1.00  0.00    -0.504 OA
ATOM     15  H   UNL     1       9.927  16.926   8.732  1.00  0.00     0.293 HD
ENDBRANCH   8  14
TORSDOF 2
ENDMDL
MODEL 6
REMARK VINA RESULT:    -4.832      2.485      3.366
REMARK INTER + INTRA:          -5.115
REMARK INTER:                  -5.115
REMARK INTRA:                   0.000
REMARK UNBOUND:                 0.000
REMARK SMILES O=c1ccc2cc(O)c(O)cc2o1
REMARK SMILES IDX 4 1 3 2 2 3 1 4 13 5 12 6 11 7 9 8 7 9 6 10 5 11 8 12 10 14
REMARK H PARENT 8 13 10 15
REMARK Flexibility Score: inf
ROOT
ATOM      1  C   UNL     1      16.864  17.374   8.051  1.00  0.00     0.019 A 
ATOM      2  C   UNL     1      17.871  17.557   8.997  1.00  0.00     0.094 A 
ATOM      3  C   UNL     1      17.527  17.600  10.353  1.00  0.00     0.336 A 
ATOM      4  O   UNL     1      18.421  17.764  11.223  1.00  0.00    -0.246 OA
ATOM      5  O   UNL     1      16.258  17.467  10.731  1.00  0.00    -0.423 OA
ATOM      6  C   UNL     1      15.267  17.290   9.860  1.00  0.00     0.142 A 
ATOM      7  C   UNL     1      13.952  17.157  10.316  1.00  0.00     0.098 A 
ATOM      8  C   UNL     1      12.904  16.970   9.402  1.00  0.00     0.161 A 
ATOM      9  C   UNL     1      13.173  16.917   8.027  1.00  0.00     0.158 A 
ATOM     10  C   UNL     1      14.490  17.051   7.564  1.00  0.00     0.062 A 
ATOM     11  C   UNL     1      15.538  17.237   8.476  1.00  0.00     0.022 A 
ENDROOT
BRANCH   9  12
ATOM     12  O   UNL     1      12.126  16.731   7.126  1.00  0.00    -0.504 OA
ATOM     13  H   UNL     1      11.663  17.516   6.682  1.00  0.00     0.293 HD
ENDBRANCH   9  12
BRANCH   8  14
ATOM     14  O   UNL     1      11.592  16.837   9.854  1.00  0.00    -0.504 OA
ATOM     15  H   UNL     1      11.367  16.844  10.842  1.00  0.00     0.293 HD
ENDBRANCH   8  14
TORSDOF 2
ENDMDL
MODEL 7
REMARK VINA RESULT:    -4.808      2.699      3.553
REMARK INTER + INTRA:          -5.089
REMARK INTER:                  -5.089
REMARK INTRA:                   0.000
REMARK UNBOUND:                 0.000
REMARK SMILES O=c1ccc2cc(O)c(O)cc2o1
REMARK SMILES IDX 4 1 3 2 2 3 1 4 13 5 12 6 11 7 9 8 7 9 6 10 5 11 8 12 10 14
REMARK H PARENT 8 13 10 15
REMARK Flexibility Score: inf
ROOT
ATOM      1  C   UNL     1      14.134  17.620  12.584  1.00  0.00     0.019 A 
ATOM      2  C   UNL     1      15.491  17.456  12.857  1.00  0.00     0.094 A 
ATOM      3  C   UNL     1      16.353  17.096  11.816  1.00  0.00     0.336 A 
ATOM      4  O   UNL     1      17.582  16.943  12.042  1.00  0.00    -0.246 OA
ATOM      5  O   UNL     1      15.883  16.913  10.585  1.00  0.00    -0.423 OA
ATOM      6  C   UNL     1      14.596  17.060  10.282  1.00  0.00     0.142 A 
ATOM      7  C   UNL     1      14.159  16.854   8.969  1.00  0.00     0.098 A 
ATOM      8  C   UNL     1      12.803  17.007   8.644  1.00  0.00     0.161 A 
ATOM      9  C   UNL     1      11.880  17.367   9.637  1.00  0.00     0.158 A 
ATOM     10  C   UNL     1      12.312  17.574  10.955  1.00  0.00     0.062 A 
ATOM     11  C   UNL     1      13.667  17.422  11.281  1.00  0.00     0.022 A 
ENDROOT
BRANCH   9  12
ATOM     12  O   UNL     1      10.535  17.517   9.305  1.00  0.00    -0.504 OA
ATOM     13  H   UNL     1       9.871  16.761   9.425  1.00  0.00     0.293 HD
ENDBRANCH   9  12
BRANCH   8  14
ATOM     14  O   UNL     1      12.365  16.803   7.336  1.00  0.00    -0.504 OA
ATOM     15  H   UNL     1      12.999  16.868   6.549  1.00  0.00     0.293 HD
ENDBRANCH   8  14
TORSDOF 2
ENDMDL
MODEL 8
REMARK VINA RESULT:    -4.776      1.966      4.092
REMARK INTER + INTRA:          -5.056
REMARK INTER:                  -5.056
REMARK INTRA:                   0.000
REMARK UNBOUND:                 0.000
REMARK SMILES O=c1ccc2cc(O)c(O)cc2o1
REMARK SMILES IDX 4 1 3 2 2 3 1 4 13 5 12 6 11 7 9 8 7 9 6 10 5 11 8 12 10 14
REMARK H PARENT 8 13 10 15
REMARK Flexibility Score: inf
ROOT
ATOM      1  C   UNL     1      14.730  14.248  10.386  1.00  0.00     0.019 A 
ATOM      2  C   UNL     1      14.600  13.312  11.411  1.00  0.00     0.094 A 
ATOM      3  C   UNL     1      13.416  13.282  12.155  1.00  0.00     0.336 A 
ATOM      4  O   UNL     1      13.279  12.444  13.085  1.00  0.00    -0.246 OA
ATOM      5  O   UNL     1      12.429  14.133  11.886  1.00  0.00    -0.423 OA
ATOM      6  C   UNL     1      12.513  15.041  10.916  1.00  0.00     0.142 A 
ATOM      7  C   UNL     1      11.443  15.910  10.679  1.00  0.00     0.098 A 
ATOM      8  C   UNL     1      11.526  16.869   9.658  1.00  0.00     0.161 A 
ATOM      9  C   UNL     1      12.683  16.958   8.871  1.00  0.00     0.158 A 
ATOM     10  C   UNL     1      13.759  16.089   9.105  1.00  0.00     0.062 A 
ATOM     11  C   UNL     1      13.678  15.131  10.124  1.00  0.00     0.022 A 
ENDROOT
BRANCH   9  12
ATOM     12  O   UNL     1      12.757  17.913   7.859  1.00  0.00    -0.504 OA
ATOM     13  H   UNL     1      12.170  17.861   7.036  1.00  0.00     0.293 HD
ENDBRANCH   9  12
BRANCH   8  14
ATOM     14  O   UNL     1      10.461  17.737   9.419  1.00  0.00    -0.504 OA
ATOM     15  H   UNL     1      10.570  18.565   8.846  1.00  0.00     0.293 HD
ENDBRANCH   8  14
TORSDOF 2
ENDMDL
