MODEL 1
REMARK VINA RESULT:    -7.255      0.000      0.000
REMARK INTER + INTRA:          -8.818
REMARK INTER:                  -8.527
REMARK INTRA:                  -0.291
REMARK UNBOUND:                -0.291
REMARK SMILES O=c1cc(-c2ccc(O)c(O)c2)oc2cc(O)cc(O)c12
REMARK SMILES IDX 4 1 3 2 2 3 1 4 21 5 19 6 18 7 16 8 15 9 14 10 13 11 5 12
REMARK SMILES IDX 6 13 7 14 8 15 12 16 10 17 9 18 11 20 20 22 17 24
REMARK H PARENT 9 19 11 21 20 23 17 25
REMARK Flexibility Score: inf
ROOT
ATOM      1  C   UNL     1      -2.961 -26.487  18.969  1.00  0.00     0.138 A 
ATOM      2  C   UNL     1      -4.036 -26.439  19.867  1.00  0.00     0.100 A 
ATOM      3  C   UNL     1      -4.313 -27.545  20.673  1.00  0.00     0.197 A 
ATOM      4  O   UNL     1      -5.249 -27.449  21.507  1.00  0.00    -0.289 OA
ATOM      5  C   UNL     1      -3.532 -28.718  20.550  1.00  0.00     0.107 A 
ATOM      6  C   UNL     1      -3.744 -29.919  21.294  1.00  0.00     0.134 A 
ATOM      7  C   UNL     1      -2.843 -30.983  21.157  1.00  0.00     0.093 A 
ATOM      8  C   UNL     1      -1.775 -30.913  20.264  1.00  0.00     0.123 A 
ATOM      9  C   UNL     1      -1.587 -29.764  19.495  1.00  0.00     0.094 A 
ATOM     10  C   UNL     1      -2.448 -28.672  19.634  1.00  0.00     0.146 A 
ATOM     11  O   UNL     1      -2.223 -27.590  18.896  1.00  0.00    -0.456 OA
ENDROOT
BRANCH   1  12
ATOM     12  C   UNL     1      -2.622 -25.342  18.086  1.00  0.00     0.021 A 
ATOM     13  C   UNL     1      -3.612 -24.645  17.367  1.00  0.00     0.016 A 
ATOM     14  C   UNL     1      -3.265 -23.563  16.552  1.00  0.00     0.051 A 
ATOM     15  C   UNL     1      -1.933 -23.156  16.445  1.00  0.00     0.157 A 
ATOM     16  C   UNL     1      -1.286 -24.918  17.985  1.00  0.00     0.062 A 
ATOM     17  C   UNL     1      -0.938 -23.834  17.167  1.00  0.00     0.158 A 
BRANCH  15  18
ATOM     18  O   UNL     1      -1.619 -22.075  15.623  1.00  0.00    -0.504 OA
ATOM     19  H   UNL     1      -0.791 -21.510  15.769  1.00  0.00     0.293 HD
ENDBRANCH  15  18
BRANCH  17  20
ATOM     20  O   UNL     1       0.393 -23.430  17.068  1.00  0.00    -0.504 OA
ATOM     21  H   UNL     1       0.662 -22.457  17.167  1.00  0.00     0.293 HD
ENDBRANCH  17  20
ENDBRANCH   1  12
BRANCH   6  22
ATOM     22  O   UNL     1      -4.825 -30.127  22.156  1.00  0.00    -0.507 OA
ATOM     23  H   UNL     1      -5.746 -30.421  21.870  1.00  0.00     0.293 HD
ENDBRANCH   6  22
BRANCH   8  24
ATOM     24  O   UNL     1      -0.908 -31.997  20.143  1.00  0.00    -0.508 OA
ATOM     25  H   UNL     1      -0.388 -32.351  20.938  1.00  0.00     0.293 HD
ENDBRANCH   8  24
TORSDOF 5
ENDMDL
MODEL 2
REMARK VINA RESULT:    -6.994      3.258      5.940
REMARK INTER + INTRA:          -8.512
REMARK INTER:                  -8.249
REMARK INTRA:                  -0.263
REMARK UNBOUND:                -0.291
REMARK SMILES O=c1cc(-c2ccc(O)c(O)c2)oc2cc(O)cc(O)c12
REMARK SMILES IDX 4 1 3 2 2 3 1 4 21 5 19 6 18 7 16 8 15 9 14 10 13 11 5 12
REMARK SMILES IDX 6 13 7 14 8 15 12 16 10 17 9 18 11 20 20 22 17 24
REMARK H PARENT 9 19 11 21 20 23 17 25
REMARK Flexibility Score: inf
ROOT
ATOM      1  C   UNL     1      -3.272 -27.689  18.007  1.00  0.00     0.138 A 
ATOM      2  C   UNL     1      -4.100 -27.719  19.137  1.00  0.00     0.100 A 
ATOM      3  C   UNL     1      -4.010 -26.699  20.086  1.00  0.00     0.197 A 
ATOM      4  O   UNL     1      -4.805 -26.725  21.060  1.00  0.00    -0.289 OA
ATOM      5  C   UNL     1      -3.061 -25.663  19.918  1.00  0.00     0.107 A 
ATOM      6  C   UNL     1      -2.856 -24.589  20.837  1.00  0.00     0.134 A 
ATOM      7  C   UNL     1      -1.954 -23.568  20.514  1.00  0.00     0.093 A 
ATOM      8  C   UNL     1      -1.208 -23.610  19.337  1.00  0.00     0.123 A 
ATOM      9  C   UNL     1      -1.363 -24.680  18.455  1.00  0.00     0.094 A 
ATOM     10  C   UNL     1      -2.280 -25.697  18.732  1.00  0.00     0.146 A 
ATOM     11  O   UNL     1      -2.411 -26.689  17.857  1.00  0.00    -0.456 OA
ENDROOT
BRANCH   1  12
ATOM     12  C   UNL     1      -3.322 -28.750  16.968  1.00  0.00     0.021 A 
ATOM     13  C   UNL     1      -2.311 -29.723  16.856  1.00  0.00     0.016 A 
ATOM     14  C   UNL     1      -2.390 -30.716  15.875  1.00  0.00     0.051 A 
ATOM     15  C   UNL     1      -3.476 -30.760  14.998  1.00  0.00     0.157 A 
ATOM     16  C   UNL     1      -4.419 -28.808  16.092  1.00  0.00     0.062 A 
ATOM     17  C   UNL     1      -4.498 -29.804  15.107  1.00  0.00     0.158 A 
BRANCH  15  18
ATOM     18  O   UNL     1      -3.525 -31.762  14.030  1.00  0.00    -0.504 OA
ATOM     19  H   UNL     1      -3.748 -31.564  13.062  1.00  0.00     0.293 HD
ENDBRANCH  15  18
BRANCH  17  20
ATOM     20  O   UNL     1      -5.588 -29.844  14.238  1.00  0.00    -0.504 OA
ATOM     21  H   UNL     1      -5.779 -29.089  13.589  1.00  0.00     0.293 HD
ENDBRANCH  17  20
ENDBRANCH   1  12
BRANCH   6  22
ATOM     22  O   UNL     1      -3.490 -24.489  22.080  1.00  0.00    -0.507 OA
ATOM     23  H   UNL     1      -3.680 -25.263  22.697  1.00  0.00     0.293 HD
ENDBRANCH   6  22
BRANCH   8  24
ATOM     24  O   UNL     1      -0.309 -22.584  19.057  1.00  0.00    -0.508 OA
ATOM     25  H   UNL     1      -0.616 -21.703  18.660  1.00  0.00     0.293 HD
ENDBRANCH   8  24
TORSDOF 5
ENDMDL
MODEL 3
REMARK VINA RESULT:    -6.562      5.343      6.519
REMARK INTER + INTRA:          -8.004
REMARK INTER:                  -7.691
REMARK INTRA:                  -0.313
REMARK UNBOUND:                -0.291
REMARK SMILES O=c1cc(-c2ccc(O)c(O)c2)oc2cc(O)cc(O)c12
REMARK SMILES IDX 4 1 3 2 2 3 1 4 21 5 19 6 18 7 16 8 15 9 14 10 13 11 5 12
REMARK SMILES IDX 6 13 7 14 8 15 12 16 10 17 9 18 11 20 20 22 17 24
REMARK H PARENT 9 19 11 21 20 23 17 25
REMARK Flexibility Score: inf
ROOT
ATOM      1  C   UNL     1      -5.567 -28.633  15.164  1.00  0.00     0.138 A 
ATOM      2  C   UNL     1      -4.747 -29.657  14.673  1.00  0.00     0.100 A 
ATOM      3  C   UNL     1      -3.598 -30.021  15.379  1.00  0.00     0.197 A 
ATOM      4  O   UNL     1      -2.914 -30.980  14.942  1.00  0.00    -0.289 OA
ATOM      5  C   UNL     1      -3.252 -29.328  16.563  1.00  0.00     0.107 A 
ATOM      6  C   UNL     1      -2.087 -29.588  17.348  1.00  0.00     0.134 A 
ATOM      7  C   UNL     1      -1.902 -28.903  18.555  1.00  0.00     0.093 A 
ATOM      8  C   UNL     1      -2.805 -27.928  18.978  1.00  0.00     0.123 A 
ATOM      9  C   UNL     1      -3.921 -27.630  18.195  1.00  0.00     0.094 A 
ATOM     10  C   UNL     1      -4.152 -28.321  17.003  1.00  0.00     0.146 A 
ATOM     11  O   UNL     1      -5.236 -28.020  16.295  1.00  0.00    -0.456 OA
ENDROOT
BRANCH   1  12
ATOM     12  C   UNL     1      -6.798 -28.203  14.453  1.00  0.00     0.021 A 
ATOM     13  C   UNL     1      -7.437 -29.033  13.512  1.00  0.00     0.016 A 
ATOM     14  C   UNL     1      -8.600 -28.607  12.865  1.00  0.00     0.051 A 
ATOM     15  C   UNL     1      -9.149 -27.354  13.149  1.00  0.00     0.157 A 
ATOM     16  C   UNL     1      -7.363 -26.950  14.744  1.00  0.00     0.062 A 
ATOM     17  C   UNL     1      -8.530 -26.521  14.095  1.00  0.00     0.158 A 
BRANCH  15  18
ATOM     18  O   UNL     1     -10.310 -26.956  12.487  1.00  0.00    -0.504 OA
ATOM     19  H   UNL     1     -10.356 -26.887  11.477  1.00  0.00     0.293 HD
ENDBRANCH  15  18
BRANCH  17  20
ATOM     20  O   UNL     1      -9.075 -25.271  14.387  1.00  0.00    -0.504 OA
ATOM     21  H   UNL     1      -8.505 -24.513  14.745  1.00  0.00     0.293 HD
ENDBRANCH  17  20
ENDBRANCH   1  12
BRANCH   6  22
ATOM     22  O   UNL     1      -1.078 -30.484  16.980  1.00  0.00    -0.507 OA
ATOM     23  H   UNL     1      -0.127 -30.454  17.312  1.00  0.00     0.293 HD
ENDBRANCH   6  22
BRANCH   8  24
ATOM     24  O   UNL     1      -2.580 -27.257  20.177  1.00  0.00    -0.508 OA
ATOM     25  H   UNL     1      -1.800 -27.493  20.780  1.00  0.00     0.293 HD
ENDBRANCH   8  24
TORSDOF 5
ENDMDL
MODEL 4
REMARK VINA RESULT:    -6.033      3.994      6.165
REMARK INTER + INTRA:          -7.383
REMARK INTER:                  -7.105
REMARK INTRA:                  -0.278
REMARK UNBOUND:                -0.291
REMARK SMILES O=c1cc(-c2ccc(O)c(O)c2)oc2cc(O)cc(O)c12
REMARK SMILES IDX 4 1 3 2 2 3 1 4 21 5 19 6 18 7 16 8 15 9 14 10 13 11 5 12
REMARK SMILES IDX 6 13 7 14 8 15 12 16 10 17 9 18 11 20 20 22 17 24
REMARK H PARENT 9 19 11 21 20 23 17 25
REMARK Flexibility Score: inf
ROOT
ATOM      1  C   UNL     1      -3.624 -28.323  18.163  1.00  0.00     0.138 A 
ATOM      2  C   UNL     1      -2.661 -29.230  17.701  1.00  0.00     0.100 A 
ATOM      3  C   UNL     1      -2.782 -29.772  16.420  1.00  0.00     0.197 A 
ATOM      4  O   UNL     1      -1.872 -30.539  16.013  1.00  0.00    -0.289 OA
ATOM      5  C   UNL     1      -3.894 -29.431  15.614  1.00  0.00     0.107 A 
ATOM      6  C   UNL     1      -4.140 -29.948  14.305  1.00  0.00     0.134 A 
ATOM      7  C   UNL     1      -5.223 -29.460  13.563  1.00  0.00     0.093 A 
ATOM      8  C   UNL     1      -6.102 -28.520  14.102  1.00  0.00     0.123 A 
ATOM      9  C   UNL     1      -5.900 -28.045  15.399  1.00  0.00     0.094 A 
ATOM     10  C   UNL     1      -4.808 -28.486  16.151  1.00  0.00     0.146 A 
ATOM     11  O   UNL     1      -4.641 -27.995  17.374  1.00  0.00    -0.456 OA
ENDROOT
BRANCH   1  12
ATOM     12  C   UNL     1      -3.547 -27.718  19.518  1.00  0.00     0.021 A 
ATOM     13  C   UNL     1      -4.691 -27.560  20.323  1.00  0.00     0.016 A 
ATOM     14  C   UNL     1      -4.587 -26.998  21.599  1.00  0.00     0.051 A 
ATOM     15  C   UNL     1      -3.345 -26.592  22.094  1.00  0.00     0.157 A 
ATOM     16  C   UNL     1      -2.299 -27.320  20.027  1.00  0.00     0.062 A 
ATOM     17  C   UNL     1      -2.194 -26.755  21.307  1.00  0.00     0.158 A 
BRANCH  15  18
ATOM     18  O   UNL     1      -3.274 -26.033  23.369  1.00  0.00    -0.504 OA
ATOM     19  H   UNL     1      -4.087 -25.642  23.831  1.00  0.00     0.293 HD
ENDBRANCH  15  18
BRANCH  17  20
ATOM     20  O   UNL     1      -0.951 -26.356  21.796  1.00  0.00    -0.504 OA
ATOM     21  H   UNL     1      -0.151 -26.240  21.184  1.00  0.00     0.293 HD
ENDBRANCH  17  20
ENDBRANCH   1  12
BRANCH   6  22
ATOM     22  O   UNL     1      -3.372 -30.948  13.700  1.00  0.00    -0.507 OA
ATOM     23  H   UNL     1      -2.903 -31.694  14.189  1.00  0.00     0.293 HD
ENDBRANCH   6  22
BRANCH   8  24
ATOM     24  O   UNL     1      -7.177 -28.070  13.341  1.00  0.00    -0.508 OA
ATOM     25  H   UNL     1      -7.285 -28.331  12.367  1.00  0.00     0.293 HD
ENDBRANCH   8  24
TORSDOF 5
ENDMDL
MODEL 5
REMARK VINA RESULT:    -5.977     12.820     15.256
REMARK INTER + INTRA:          -7.317
REMARK INTER:                  -7.015
REMARK INTRA:                  -0.302
REMARK UNBOUND:                -0.291
REMARK SMILES O=c1cc(-c2ccc(O)c(O)c2)oc2cc(O)cc(O)c12
REMARK SMILES IDX 4 1 3 2 2 3 1 4 21 5 19 6 18 7 16 8 15 9 14 10 13 11 5 12
REMARK SMILES IDX 6 13 7 14 8 15 12 16 10 17 9 18 11 20 20 22 17 24
REMARK H PARENT 9 19 11 21 20 23 17 25
REMARK Flexibility Score: inf
ROOT
ATOM      1  C   UNL     1       6.851 -31.804   9.998  1.00  0.00     0.138 A 
ATOM      2  C   UNL     1       7.670 -32.223   8.941  1.00  0.00     0.100 A 
ATOM      3  C   UNL     1       7.315 -31.912   7.627  1.00  0.00     0.197 A 
ATOM      4  O   UNL     1       8.099 -32.253   6.705  1.00  0.00    -0.289 OA
ATOM      5  C   UNL     1       6.114 -31.209   7.371  1.00  0.00     0.107 A 
ATOM      6  C   UNL     1       5.633 -30.866   6.071  1.00  0.00     0.134 A 
ATOM      7  C   UNL     1       4.479 -30.082   5.947  1.00  0.00     0.093 A 
ATOM      8  C   UNL     1       3.757 -29.678   7.069  1.00  0.00     0.123 A 
ATOM      9  C   UNL     1       4.191 -30.049   8.343  1.00  0.00     0.094 A 
ATOM     10  C   UNL     1       5.357 -30.801   8.501  1.00  0.00     0.146 A 
ATOM     11  O   UNL     1       5.745 -31.119   9.732  1.00  0.00    -0.456 OA
ENDROOT
BRANCH   1  12
ATOM     12  C   UNL     1       7.178 -32.111  11.414  1.00  0.00     0.021 A 
ATOM     13  C   UNL     1       7.820 -33.309  11.783  1.00  0.00     0.016 A 
ATOM     14  C   UNL     1       8.125 -33.566  13.122  1.00  0.00     0.051 A 
ATOM     15  C   UNL     1       7.804 -32.634  14.113  1.00  0.00     0.157 A 
ATOM     16  C   UNL     1       6.871 -31.172  12.413  1.00  0.00     0.062 A 
ATOM     17  C   UNL     1       7.176 -31.429  13.758  1.00  0.00     0.158 A 
BRANCH  15  18
ATOM     18  O   UNL     1       8.120 -32.920  15.440  1.00  0.00    -0.504 OA
ATOM     19  H   UNL     1       8.035 -33.853  15.824  1.00  0.00     0.293 HD
ENDBRANCH  15  18
BRANCH  17  20
ATOM     20  O   UNL     1       6.857 -30.493  14.741  1.00  0.00    -0.504 OA
ATOM     21  H   UNL     1       7.573 -30.052  15.308  1.00  0.00     0.293 HD
ENDBRANCH  17  20
ENDBRANCH   1  12
BRANCH   6  22
ATOM     22  O   UNL     1       6.231 -31.285   4.878  1.00  0.00    -0.507 OA
ATOM     23  H   UNL     1       6.591 -32.210   4.703  1.00  0.00     0.293 HD
ENDBRANCH   6  22
BRANCH   8  24
ATOM     24  O   UNL     1       2.606 -28.911   6.907  1.00  0.00    -0.508 OA
ATOM     25  H   UNL     1       2.404 -28.436   6.035  1.00  0.00     0.293 HD
ENDBRANCH   8  24
TORSDOF 5
ENDMDL
MODEL 6
REMARK VINA RESULT:    -5.936     10.840     12.677
REMARK INTER + INTRA:          -7.269
REMARK INTER:                  -7.002
REMARK INTRA:                  -0.267
REMARK UNBOUND:                -0.291
REMARK SMILES O=c1cc(-c2ccc(O)c(O)c2)oc2cc(O)cc(O)c12
REMARK SMILES IDX 4 1 3 2 2 3 1 4 21 5 19 6 18 7 16 8 15 9 14 10 13 11 5 12
REMARK SMILES IDX 6 13 7 14 8 15 12 16 10 17 9 18 11 20 20 22 17 24
REMARK H PARENT 9 19 11 21 20 23 17 25
REMARK Flexibility Score: inf
ROOT
ATOM      1  C   UNL     1      -6.792 -27.996   7.938  1.00  0.00     0.138 A 
ATOM      2  C   UNL     1      -6.831 -28.584   9.210  1.00  0.00     0.100 A 
ATOM      3  C   UNL     1      -5.646 -28.750   9.930  1.00  0.00     0.197 A 
ATOM      4  O   UNL     1      -5.722 -29.229  11.091  1.00  0.00    -0.289 OA
ATOM      5  C   UNL     1      -4.413 -28.360   9.357  1.00  0.00     0.107 A 
ATOM      6  C   UNL     1      -3.139 -28.513   9.983  1.00  0.00     0.134 A 
ATOM      7  C   UNL     1      -1.996 -27.998   9.358  1.00  0.00     0.093 A 
ATOM      8  C   UNL     1      -2.072 -27.389   8.106  1.00  0.00     0.123 A 
ATOM      9  C   UNL     1      -3.305 -27.279   7.462  1.00  0.00     0.094 A 
ATOM     10  C   UNL     1      -4.468 -27.751   8.075  1.00  0.00     0.146 A 
ATOM     11  O   UNL     1      -5.624 -27.610   7.435  1.00  0.00    -0.456 OA
ENDROOT
BRANCH   1  12
ATOM     12  C   UNL     1      -8.019 -27.798   7.126  1.00  0.00     0.021 A 
ATOM     13  C   UNL     1      -8.149 -28.346   5.836  1.00  0.00     0.016 A 
ATOM     14  C   UNL     1      -9.321 -28.152   5.099  1.00  0.00     0.051 A 
ATOM     15  C   UNL     1     -10.382 -27.418   5.636  1.00  0.00     0.157 A 
ATOM     16  C   UNL     1      -9.095 -27.072   7.666  1.00  0.00     0.062 A 
ATOM     17  C   UNL     1     -10.271 -26.877   6.926  1.00  0.00     0.158 A 
BRANCH  15  18
ATOM     18  O   UNL     1     -11.537 -27.241   4.875  1.00  0.00    -0.504 OA
ATOM     19  H   UNL     1     -11.765 -27.845   4.094  1.00  0.00     0.293 HD
ENDBRANCH  15  18
BRANCH  17  20
ATOM     20  O   UNL     1     -11.327 -26.146   7.470  1.00  0.00    -0.504 OA
ATOM     21  H   UNL     1     -12.172 -26.599   7.800  1.00  0.00     0.293 HD
ENDBRANCH  17  20
ENDBRANCH   1  12
BRANCH   6  22
ATOM     22  O   UNL     1      -2.937 -29.177  11.198  1.00  0.00    -0.507 OA
ATOM     23  H   UNL     1      -3.018 -30.172  11.335  1.00  0.00     0.293 HD
ENDBRANCH   6  22
BRANCH   8  24
ATOM     24  O   UNL     1      -0.912 -26.902   7.508  1.00  0.00    -0.508 OA
ATOM     25  H   UNL     1      -0.921 -26.513   6.572  1.00  0.00     0.293 HD
ENDBRANCH   8  24
TORSDOF 5
ENDMDL
MODEL 7
REMARK VINA RESULT:    -5.746      4.460      5.793
REMARK INTER + INTRA:          -7.045
REMARK INTER:                  -6.729
REMARK INTRA:                  -0.316
REMARK UNBOUND:                -0.291
REMARK SMILES O=c1cc(-c2ccc(O)c(O)c2)oc2cc(O)cc(O)c12
REMARK SMILES IDX 4 1 3 2 2 3 1 4 21 5 19 6 18 7 16 8 15 9 14 10 13 11 5 12
REMARK SMILES IDX 6 13 7 14 8 15 12 16 10 17 9 18 11 20 20 22 17 24
REMARK H PARENT 9 19 11 21 20 23 17 25
REMARK Flexibility Score: inf
ROOT
ATOM      1  C   UNL     1      -3.544 -29.124  16.346  1.00  0.00     0.138 A 
ATOM      2  C   UNL     1      -2.312 -29.636  16.774  1.00  0.00     0.100 A 
ATOM      3  C   UNL     1      -1.934 -29.500  18.111  1.00  0.00     0.197 A 
ATOM      4  O   UNL     1      -0.849 -30.019  18.475  1.00  0.00    -0.289 OA
ATOM      5  C   UNL     1      -2.780 -28.814  19.015  1.00  0.00     0.107 A 
ATOM      6  C   UNL     1      -2.484 -28.584  20.393  1.00  0.00     0.134 A 
ATOM      7  C   UNL     1      -3.443 -27.978  21.213  1.00  0.00     0.093 A 
ATOM      8  C   UNL     1      -4.663 -27.542  20.696  1.00  0.00     0.123 A 
ATOM      9  C   UNL     1      -4.943 -27.716  19.340  1.00  0.00     0.094 A 
ATOM     10  C   UNL     1      -4.021 -28.349  18.503  1.00  0.00     0.146 A 
ATOM     11  O   UNL     1      -4.334 -28.512  17.222  1.00  0.00    -0.456 OA
ENDROOT
BRANCH   1  12
ATOM     12  C   UNL     1      -3.995 -29.237  14.935  1.00  0.00     0.021 A 
ATOM     13  C   UNL     1      -3.125 -29.660  13.912  1.00  0.00     0.016 A 
ATOM     14  C   UNL     1      -3.580 -29.768  12.595  1.00  0.00     0.051 A 
ATOM     15  C   UNL     1      -4.906 -29.464  12.277  1.00  0.00     0.157 A 
ATOM     16  C   UNL     1      -5.332 -28.946  14.611  1.00  0.00     0.062 A 
ATOM     17  C   UNL     1      -5.788 -29.054  13.289  1.00  0.00     0.158 A 
BRANCH  15  18
ATOM     18  O   UNL     1      -5.329 -29.580  10.954  1.00  0.00    -0.504 OA
ATOM     19  H   UNL     1      -5.066 -30.366  10.372  1.00  0.00     0.293 HD
ENDBRANCH  15  18
BRANCH  17  20
ATOM     20  O   UNL     1      -7.114 -28.753  12.980  1.00  0.00    -0.504 OA
ATOM     21  H   UNL     1      -7.357 -27.964  12.392  1.00  0.00     0.293 HD
ENDBRANCH  17  20
ENDBRANCH   1  12
BRANCH   6  22
ATOM     22  O   UNL     1      -1.264 -28.907  20.997  1.00  0.00    -0.507 OA
ATOM     23  H   UNL     1      -0.416 -28.369  20.914  1.00  0.00     0.293 HD
ENDBRANCH   6  22
BRANCH   8  24
ATOM     24  O   UNL     1      -5.587 -26.930  21.539  1.00  0.00    -0.508 OA
ATOM     25  H   UNL     1      -5.421 -26.843  22.535  1.00  0.00     0.293 HD
ENDBRANCH   8  24
TORSDOF 5
ENDMDL
MODEL 8
REMARK VINA RESULT:    -5.606      3.605      5.180
REMARK INTER + INTRA:          -6.880
REMARK INTER:                  -6.621
REMARK INTRA:                  -0.259
REMARK UNBOUND:                -0.291
REMARK SMILES O=c1cc(-c2ccc(O)c(O)c2)oc2cc(O)cc(O)c12
REMARK SMILES IDX 4 1 3 2 2 3 1 4 21 5 19 6 18 7 16 8 15 9 14 10 13 11 5 12
REMARK SMILES IDX 6 13 7 14 8 15 12 16 10 17 9 18 11 20 20 22 17 24
REMARK H PARENT 9 19 11 21 20 23 17 25
REMARK Flexibility Score: inf
ROOT
ATOM      1  C   UNL     1      -2.933 -27.913  18.262  1.00  0.00     0.138 A 
ATOM      2  C   UNL     1      -2.046 -28.978  18.472  1.00  0.00     0.100 A 
ATOM      3  C   UNL     1      -1.930 -29.980  17.506  1.00  0.00     0.197 A 
ATOM      4  O   UNL     1      -1.085 -30.892  17.699  1.00  0.00    -0.289 OA
ATOM      5  C   UNL     1      -2.733 -29.932  16.343  1.00  0.00     0.107 A 
ATOM      6  C   UNL     1      -2.725 -30.915  15.307  1.00  0.00     0.134 A 
ATOM      7  C   UNL     1      -3.494 -30.709  14.154  1.00  0.00     0.093 A 
ATOM      8  C   UNL     1      -4.313 -29.588  14.024  1.00  0.00     0.123 A 
ATOM      9  C   UNL     1      -4.367 -28.646  15.052  1.00  0.00     0.094 A 
ATOM     10  C   UNL     1      -3.586 -28.805  16.199  1.00  0.00     0.146 A 
ATOM     11  O   UNL     1      -3.653 -27.876  17.146  1.00  0.00    -0.456 OA
ENDROOT
BRANCH   1  12
ATOM     12  C   UNL     1      -3.099 -26.823  19.257  1.00  0.00     0.021 A 
ATOM     13  C   UNL     1      -4.220 -26.762  20.107  1.00  0.00     0.016 A 
ATOM     14  C   UNL     1      -4.345 -25.730  21.041  1.00  0.00     0.051 A 
ATOM     15  C   UNL     1      -3.357 -24.748  21.148  1.00  0.00     0.157 A 
ATOM     16  C   UNL     1      -2.102 -25.840  19.379  1.00  0.00     0.062 A 
ATOM     17  C   UNL     1      -2.228 -24.803  20.316  1.00  0.00     0.158 A 
BRANCH  15  18
ATOM     18  O   UNL     1      -3.512 -23.731  22.089  1.00  0.00    -0.504 OA
ATOM     19  H   UNL     1      -3.476 -23.909  23.085  1.00  0.00     0.293 HD
ENDBRANCH  15  18
BRANCH  17  20
ATOM     20  O   UNL     1      -1.236 -23.829  20.420  1.00  0.00    -0.504 OA
ATOM     21  H   UNL     1      -0.269 -24.072  20.608  1.00  0.00     0.293 HD
ENDBRANCH  17  20
ENDBRANCH   1  12
BRANCH   6  22
ATOM     22  O   UNL     1      -2.005 -32.112  15.368  1.00  0.00    -0.507 OA
ATOM     23  H   UNL     1      -1.588 -32.496  16.201  1.00  0.00     0.293 HD
ENDBRANCH   6  22
BRANCH   8  24
ATOM     24  O   UNL     1      -5.075 -29.424  12.870  1.00  0.00    -0.508 OA
ATOM     25  H   UNL     1      -6.064 -29.647  12.851  1.00  0.00     0.293 HD
ENDBRANCH   8  24
TORSDOF 5
ENDMDL
MODEL 9
REMARK VINA RESULT:    -5.442      1.892      6.887
REMARK INTER + INTRA:          -6.688
REMARK INTER:                  -6.425
REMARK INTRA:                  -0.263
REMARK UNBOUND:                -0.291
REMARK SMILES O=c1cc(-c2ccc(O)c(O)c2)oc2cc(O)cc(O)c12
REMARK SMILES IDX 4 1 3 2 2 3 1 4 21 5 19 6 18 7 16 8 15 9 14 10 13 11 5 12
REMARK SMILES IDX 6 13 7 14 8 15 12 16 10 17 9 18 11 20 20 22 17 24
REMARK H PARENT 9 19 11 21 20 23 17 25
REMARK Flexibility Score: inf
ROOT
ATOM      1  C   UNL     1      -2.982 -26.651  19.937  1.00  0.00     0.138 A 
ATOM      2  C   UNL     1      -2.750 -25.662  20.902  1.00  0.00     0.100 A 
ATOM      3  C   UNL     1      -2.213 -24.433  20.516  1.00  0.00     0.197 A 
ATOM      4  O   UNL     1      -2.069 -23.547  21.396  1.00  0.00    -0.289 OA
ATOM      5  C   UNL     1      -1.873 -24.208  19.161  1.00  0.00     0.107 A 
ATOM      6  C   UNL     1      -1.288 -23.007  18.656  1.00  0.00     0.134 A 
ATOM      7  C   UNL     1      -1.086 -22.864  17.278  1.00  0.00     0.093 A 
ATOM      8  C   UNL     1      -1.393 -23.897  16.393  1.00  0.00     0.123 A 
ATOM      9  C   UNL     1      -1.919 -25.094  16.880  1.00  0.00     0.094 A 
ATOM     10  C   UNL     1      -2.165 -25.255  18.246  1.00  0.00     0.146 A 
ATOM     11  O   UNL     1      -2.683 -26.404  18.666  1.00  0.00    -0.456 OA
ENDROOT
BRANCH   1  12
ATOM     12  C   UNL     1      -3.548 -27.978  20.292  1.00  0.00     0.021 A 
ATOM     13  C   UNL     1      -4.871 -28.330  19.964  1.00  0.00     0.016 A 
ATOM     14  C   UNL     1      -5.373 -29.590  20.301  1.00  0.00     0.051 A 
ATOM     15  C   UNL     1      -4.566 -30.519  20.962  1.00  0.00     0.157 A 
ATOM     16  C   UNL     1      -2.737 -28.923  20.945  1.00  0.00     0.062 A 
ATOM     17  C   UNL     1      -3.241 -30.187  21.284  1.00  0.00     0.158 A 
BRANCH  15  18
ATOM     18  O   UNL     1      -5.097 -31.768  21.287  1.00  0.00    -0.504 OA
ATOM     19  H   UNL     1      -5.383 -32.431  20.577  1.00  0.00     0.293 HD
ENDBRANCH  15  18
BRANCH  17  20
ATOM     20  O   UNL     1      -2.429 -31.112  21.940  1.00  0.00    -0.504 OA
ATOM     21  H   UNL     1      -2.433 -31.201  22.950  1.00  0.00     0.293 HD
ENDBRANCH  17  20
ENDBRANCH   1  12
BRANCH   6  22
ATOM     22  O   UNL     1      -0.868 -21.942  19.459  1.00  0.00    -0.507 OA
ATOM     23  H   UNL     1       0.091 -21.726  19.681  1.00  0.00     0.293 HD
ENDBRANCH   6  22
BRANCH   8  24
ATOM     24  O   UNL     1      -1.166 -23.725  15.030  1.00  0.00    -0.508 OA
ATOM     25  H   UNL     1      -1.763 -23.134  14.462  1.00  0.00     0.293 HD
ENDBRANCH   8  24
TORSDOF 5
ENDMDL
