MODEL 1
REMARK VINA RESULT:    -5.767      0.000      0.000
REMARK INTER + INTRA:          -7.299
REMARK INTER:                  -6.947
REMARK INTRA:                  -0.352
REMARK UNBOUND:                -0.352
REMARK SMILES Oc1cc(O)c2cc(O)c(-c3ccc(O)c(O)c3)[o+]c2c1
REMARK SMILES IDX 10 1 19 2 20 3 21 4 2 5 3 6 4 7 6 8 7 9 8 10 11 11 12 12
REMARK SMILES IDX 13 13 14 14 18 15 16 16 15 17 17 19 9 21 1 23 5 25
REMARK H PARENT 15 18 17 20 9 22 1 24 5 26
REMARK Flexibility Score: inf
ROOT
ATOM      1  C   UNL     1     124.289 132.923 110.935  1.00  0.00     0.402 A 
ATOM      2  O   UNL     1     124.501 134.201 110.632  1.00  0.00    -0.202 OA
ATOM      3  C   UNL     1     125.688 134.790 110.734  1.00  0.00     0.368 A 
ATOM      4  C   UNL     1     125.811 136.138 110.390  1.00  0.00     0.162 A 
ATOM      5  C   UNL     1     127.046 136.780 110.484  1.00  0.00     0.128 A 
ATOM      6  C   UNL     1     128.169 136.070 110.924  1.00  0.00     0.093 A 
ATOM      7  C   UNL     1     128.071 134.717 111.275  1.00  0.00     0.136 A 
ATOM      8  C   UNL     1     126.816 134.062 111.183  1.00  0.00     0.125 A 
ATOM      9  C   UNL     1     126.623 132.714 111.526  1.00  0.00     0.078 A 
ATOM     10  C   UNL     1     125.354 132.137 111.415  1.00  0.00     0.223 A 
ENDROOT
BRANCH   1  11
ATOM     11  C   UNL     1     122.921 132.381 110.770  1.00  0.00     0.087 A 
ATOM     12  C   UNL     1     122.501 131.808 109.557  1.00  0.00     0.022 A 
ATOM     13  C   UNL     1     121.198 131.325 109.418  1.00  0.00     0.051 A 
ATOM     14  C   UNL     1     120.292 131.417 110.482  1.00  0.00     0.157 A 
ATOM     15  C   UNL     1     122.002 132.491 111.827  1.00  0.00     0.068 A 
ATOM     16  C   UNL     1     120.696 132.006 111.691  1.00  0.00     0.158 A 
BRANCH  14  17
ATOM     17  O   UNL     1     118.993 130.932 110.340  1.00  0.00    -0.504 OA
ATOM     18  H   UNL     1     118.245 131.227 110.957  1.00  0.00     0.293 HD
ENDBRANCH  14  17
BRANCH  16  19
ATOM     19  O   UNL     1     119.817 132.120 112.767  1.00  0.00    -0.504 OA
ATOM     20  H   UNL     1     120.028 132.690 113.578  1.00  0.00     0.293 HD
ENDBRANCH  16  19
ENDBRANCH   1  11
BRANCH  10  21
ATOM     21  O   UNL     1     125.150 130.813 111.802  1.00  0.00    -0.500 OA
ATOM     22  H   UNL     1     125.306 130.507 112.754  1.00  0.00     0.294 HD
ENDBRANCH  10  21
BRANCH   5  23
ATOM     23  O   UNL     1     127.149 138.125 110.136  1.00  0.00    -0.507 OA
ATOM     24  H   UNL     1     126.330 138.717 110.060  1.00  0.00     0.293 HD
ENDBRANCH   5  23
BRANCH   7  25
ATOM     25  O   UNL     1     129.239 134.079 111.703  1.00  0.00    -0.507 OA
ATOM     26  H   UNL     1     129.557 133.184 111.361  1.00  0.00     0.293 HD
ENDBRANCH   7  25
TORSDOF 6
ENDMDL
MODEL 2
REMARK VINA RESULT:    -5.570      1.267      2.044
REMARK INTER + INTRA:          -7.062
REMARK INTER:                  -6.722
REMARK INTRA:                  -0.339
REMARK UNBOUND:                -0.352
REMARK SMILES Oc1cc(O)c2cc(O)c(-c3ccc(O)c(O)c3)[o+]c2c1
REMARK SMILES IDX 10 1 19 2 20 3 21 4 2 5 3 6 4 7 6 8 7 9 8 10 11 11 12 12
REMARK SMILES IDX 13 13 14 14 18 15 16 16 15 17 17 19 9 21 1 23 5 25
REMARK H PARENT 15 18 17 20 9 22 1 24 5 26
REMARK Flexibility Score: inf
ROOT
ATOM      1  C   UNL     1     125.486 133.148 111.540  1.00  0.00     0.402 A 
ATOM      2  O   UNL     1     125.757 134.405 111.201  1.00  0.00    -0.202 OA
ATOM      3  C   UNL     1     126.978 134.834 110.899  1.00  0.00     0.368 A 
ATOM      4  C   UNL     1     127.162 136.175 110.552  1.00  0.00     0.162 A 
ATOM      5  C   UNL     1     128.431 136.652 110.227  1.00  0.00     0.128 A 
ATOM      6  C   UNL     1     129.528 135.783 110.247  1.00  0.00     0.093 A 
ATOM      7  C   UNL     1     129.370 134.434 110.591  1.00  0.00     0.136 A 
ATOM      8  C   UNL     1     128.080 133.946 110.924  1.00  0.00     0.125 A 
ATOM      9  C   UNL     1     127.830 132.614 111.294  1.00  0.00     0.078 A 
ATOM     10  C   UNL     1     126.531 132.208 111.615  1.00  0.00     0.223 A 
ENDROOT
BRANCH   1  11
ATOM     11  C   UNL     1     124.082 132.790 111.845  1.00  0.00     0.087 A 
ATOM     12  C   UNL     1     123.597 132.782 113.164  1.00  0.00     0.022 A 
ATOM     13  C   UNL     1     122.275 132.419 113.429  1.00  0.00     0.051 A 
ATOM     14  C   UNL     1     121.421 132.047 112.384  1.00  0.00     0.157 A 
ATOM     15  C   UNL     1     123.227 132.396 110.802  1.00  0.00     0.068 A 
ATOM     16  C   UNL     1     121.901 132.033 111.064  1.00  0.00     0.158 A 
BRANCH  14  17
ATOM     17  O   UNL     1     120.101 131.687 112.651  1.00  0.00    -0.504 OA
ATOM     18  H   UNL     1     119.518 131.244 111.950  1.00  0.00     0.293 HD
ENDBRANCH  14  17
BRANCH  16  19
ATOM     19  O   UNL     1     121.079 131.661 110.001  1.00  0.00    -0.504 OA
ATOM     20  H   UNL     1     120.149 132.046 109.879  1.00  0.00     0.293 HD
ENDBRANCH  16  19
ENDBRANCH   1  11
BRANCH  10  21
ATOM     21  O   UNL     1     126.291 130.898 112.030  1.00  0.00    -0.500 OA
ATOM     22  H   UNL     1     126.901 130.426 112.685  1.00  0.00     0.294 HD
ENDBRANCH  10  21
BRANCH   5  23
ATOM     23  O   UNL     1     128.595 137.992 109.884  1.00  0.00    -0.507 OA
ATOM     24  H   UNL     1     127.946 138.703 110.200  1.00  0.00     0.293 HD
ENDBRANCH   5  23
BRANCH   7  25
ATOM     25  O   UNL     1     130.514 133.630 110.584  1.00  0.00    -0.507 OA
ATOM     26  H   UNL     1     131.432 133.944 110.863  1.00  0.00     0.293 HD
ENDBRANCH   7  25
TORSDOF 6
ENDMDL
MODEL 3
REMARK VINA RESULT:    -5.545      1.979      6.642
REMARK INTER + INTRA:          -7.032
REMARK INTER:                  -6.777
REMARK INTRA:                  -0.255
REMARK UNBOUND:                -0.352
REMARK SMILES Oc1cc(O)c2cc(O)c(-c3ccc(O)c(O)c3)[o+]c2c1
REMARK SMILES IDX 10 1 19 2 20 3 21 4 2 5 3 6 4 7 6 8 7 9 8 10 11 11 12 12
REMARK SMILES IDX 13 13 14 14 18 15 16 16 15 17 17 19 9 21 1 23 5 25
REMARK H PARENT 15 18 17 20 9 22 1 24 5 26
REMARK Flexibility Score: inf
ROOT
ATOM      1  C   UNL     1     123.840 132.382 111.582  1.00  0.00     0.402 A 
ATOM      2  O   UNL     1     123.095 133.044 110.702  1.00  0.00    -0.202 OA
ATOM      3  C   UNL     1     121.769 133.106 110.765  1.00  0.00     0.368 A 
ATOM      4  C   UNL     1     121.073 133.830 109.794  1.00  0.00     0.162 A 
ATOM      5  C   UNL     1     119.682 133.914 109.838  1.00  0.00     0.128 A 
ATOM      6  C   UNL     1     118.977 133.271 110.862  1.00  0.00     0.093 A 
ATOM      7  C   UNL     1     119.651 132.539 111.848  1.00  0.00     0.136 A 
ATOM      8  C   UNL     1     121.066 132.449 111.804  1.00  0.00     0.125 A 
ATOM      9  C   UNL     1     121.823 131.727 112.742  1.00  0.00     0.078 A 
ATOM     10  C   UNL     1     123.216 131.680 112.631  1.00  0.00     0.223 A 
ENDROOT
BRANCH   1  11
ATOM     11  C   UNL     1     125.310 132.397 111.409  1.00  0.00     0.087 A 
ATOM     12  C   UNL     1     126.011 131.252 110.995  1.00  0.00     0.022 A 
ATOM     13  C   UNL     1     127.401 131.284 110.860  1.00  0.00     0.051 A 
ATOM     14  C   UNL     1     128.112 132.455 111.149  1.00  0.00     0.157 A 
ATOM     15  C   UNL     1     126.030 133.563 111.718  1.00  0.00     0.068 A 
ATOM     16  C   UNL     1     127.423 133.599 111.583  1.00  0.00     0.158 A 
BRANCH  14  17
ATOM     17  O   UNL     1     129.500 132.485 111.013  1.00  0.00    -0.504 OA
ATOM     18  H   UNL     1     129.973 131.963 110.285  1.00  0.00     0.293 HD
ENDBRANCH  14  17
BRANCH  16  19
ATOM     19  O   UNL     1     128.102 134.779 111.886  1.00  0.00    -0.504 OA
ATOM     20  H   UNL     1     129.093 134.891 111.707  1.00  0.00     0.293 HD
ENDBRANCH  16  19
ENDBRANCH   1  11
BRANCH  10  21
ATOM     21  O   UNL     1     123.964 130.923 113.533  1.00  0.00    -0.500 OA
ATOM     22  H   UNL     1     123.680 130.810 114.498  1.00  0.00     0.294 HD
ENDBRANCH  10  21
BRANCH   5  23
ATOM     23  O   UNL     1     119.006 134.640 108.860  1.00  0.00    -0.507 OA
ATOM     24  H   UNL     1     118.421 135.432 109.097  1.00  0.00     0.293 HD
ENDBRANCH   5  23
BRANCH   7  25
ATOM     25  O   UNL     1     118.875 131.928 112.838  1.00  0.00    -0.507 OA
ATOM     26  H   UNL     1     118.063 131.358 112.654  1.00  0.00     0.293 HD
ENDBRANCH   7  25
TORSDOF 6
ENDMDL
MODEL 4
REMARK VINA RESULT:    -5.472      2.655      4.229
REMARK INTER + INTRA:          -6.944
REMARK INTER:                  -6.602
REMARK INTRA:                  -0.342
REMARK UNBOUND:                -0.352
REMARK SMILES Oc1cc(O)c2cc(O)c(-c3ccc(O)c(O)c3)[o+]c2c1
REMARK SMILES IDX 10 1 19 2 20 3 21 4 2 5 3 6 4 7 6 8 7 9 8 10 11 11 12 12
REMARK SMILES IDX 13 13 14 14 18 15 16 16 15 17 17 19 9 21 1 23 5 25
REMARK H PARENT 15 18 17 20 9 22 1 24 5 26
REMARK Flexibility Score: inf
ROOT
ATOM      1  C   UNL     1     126.706 134.684 110.911  1.00  0.00     0.402 A 
ATOM      2  O   UNL     1     127.636 135.282 111.650  1.00  0.00    -0.202 OA
ATOM      3  C   UNL     1     128.488 136.180 111.166  1.00  0.00     0.368 A 
ATOM      4  C   UNL     1     129.430 136.756 112.022  1.00  0.00     0.162 A 
ATOM      5  C   UNL     1     130.334 137.704 111.542  1.00  0.00     0.128 A 
ATOM      6  C   UNL     1     130.296 138.082 110.195  1.00  0.00     0.093 A 
ATOM      7  C   UNL     1     129.362 137.520 109.316  1.00  0.00     0.136 A 
ATOM      8  C   UNL     1     128.443 136.553 109.801  1.00  0.00     0.125 A 
ATOM      9  C   UNL     1     127.481 135.928 108.990  1.00  0.00     0.078 A 
ATOM     10  C   UNL     1     126.612 134.980 109.539  1.00  0.00     0.223 A 
ENDROOT
BRANCH   1  11
ATOM     11  C   UNL     1     125.809 133.707 111.570  1.00  0.00     0.087 A 
ATOM     12  C   UNL     1     124.515 134.064 111.987  1.00  0.00     0.022 A 
ATOM     13  C   UNL     1     123.696 133.132 112.627  1.00  0.00     0.051 A 
ATOM     14  C   UNL     1     124.160 131.833 112.872  1.00  0.00     0.157 A 
ATOM     15  C   UNL     1     126.278 132.410 111.838  1.00  0.00     0.068 A 
ATOM     16  C   UNL     1     125.459 131.472 112.478  1.00  0.00     0.158 A 
BRANCH  14  17
ATOM     17  O   UNL     1     123.340 130.904 113.511  1.00  0.00    -0.504 OA
ATOM     18  H   UNL     1     123.330 129.928 113.238  1.00  0.00     0.293 HD
ENDBRANCH  14  17
BRANCH  16  19
ATOM     19  O   UNL     1     125.955 130.191 112.714  1.00  0.00    -0.504 OA
ATOM     20  H   UNL     1     125.780 129.420 112.079  1.00  0.00     0.293 HD
ENDBRANCH  16  19
ENDBRANCH   1  11
BRANCH  10  21
ATOM     21  O   UNL     1     125.690 134.323 108.724  1.00  0.00    -0.500 OA
ATOM     22  H   UNL     1     125.397 134.706 107.834  1.00  0.00     0.294 HD
ENDBRANCH  10  21
BRANCH   5  23
ATOM     23  O   UNL     1     131.265 138.266 112.411  1.00  0.00    -0.507 OA
ATOM     24  H   UNL     1     131.025 139.043 113.016  1.00  0.00     0.293 HD
ENDBRANCH   5  23
BRANCH   7  25
ATOM     25  O   UNL     1     129.388 137.952 107.987  1.00  0.00    -0.507 OA
ATOM     26  H   UNL     1     130.170 138.423 107.556  1.00  0.00     0.293 HD
ENDBRANCH   7  25
TORSDOF 6
ENDMDL
MODEL 5
REMARK VINA RESULT:    -5.367      1.332      7.004
REMARK INTER + INTRA:          -6.817
REMARK INTER:                  -6.478
REMARK INTRA:                  -0.339
REMARK UNBOUND:                -0.352
REMARK SMILES Oc1cc(O)c2cc(O)c(-c3ccc(O)c(O)c3)[o+]c2c1
REMARK SMILES IDX 10 1 19 2 20 3 21 4 2 5 3 6 4 7 6 8 7 9 8 10 11 11 12 12
REMARK SMILES IDX 13 13 14 14 18 15 16 16 15 17 17 19 9 21 1 23 5 25
REMARK H PARENT 15 18 17 20 9 22 1 24 5 26
REMARK Flexibility Score: inf
ROOT
ATOM      1  C   UNL     1     124.476 132.671 110.317  1.00  0.00     0.402 A 
ATOM      2  O   UNL     1     123.533 132.769 111.250  1.00  0.00    -0.202 OA
ATOM      3  C   UNL     1     122.283 132.355 111.073  1.00  0.00     0.368 A 
ATOM      4  C   UNL     1     121.364 132.499 112.114  1.00  0.00     0.162 A 
ATOM      5  C   UNL     1     120.046 132.069 111.957  1.00  0.00     0.128 A 
ATOM      6  C   UNL     1     119.642 131.489 110.750  1.00  0.00     0.093 A 
ATOM      7  C   UNL     1     120.545 131.333 109.690  1.00  0.00     0.136 A 
ATOM      8  C   UNL     1     121.885 131.771 109.845  1.00  0.00     0.125 A 
ATOM      9  C   UNL     1     122.854 131.667 108.834  1.00  0.00     0.078 A 
ATOM     10  C   UNL     1     124.155 132.127 109.059  1.00  0.00     0.223 A 
ENDROOT
BRANCH   1  11
ATOM     11  C   UNL     1     125.836 133.161 110.639  1.00  0.00     0.087 A 
ATOM     12  C   UNL     1     126.865 132.278 111.009  1.00  0.00     0.022 A 
ATOM     13  C   UNL     1     128.133 132.766 111.331  1.00  0.00     0.051 A 
ATOM     14  C   UNL     1     128.389 134.142 111.302  1.00  0.00     0.157 A 
ATOM     15  C   UNL     1     126.092 134.542 110.633  1.00  0.00     0.068 A 
ATOM     16  C   UNL     1     127.362 135.035 110.954  1.00  0.00     0.158 A 
BRANCH  14  17
ATOM     17  O   UNL     1     129.657 134.626 111.624  1.00  0.00    -0.504 OA
ATOM     18  H   UNL     1     130.298 134.095 112.201  1.00  0.00     0.293 HD
ENDBRANCH  14  17
BRANCH  16  19
ATOM     19  O   UNL     1     127.583 136.411 110.923  1.00  0.00    -0.504 OA
ATOM     20  H   UNL     1     128.450 136.810 110.585  1.00  0.00     0.293 HD
ENDBRANCH  16  19
ENDBRANCH   1  11
BRANCH  10  21
ATOM     21  O   UNL     1     125.104 132.069 108.038  1.00  0.00    -0.500 OA
ATOM     22  H   UNL     1     125.083 132.711 107.255  1.00  0.00     0.294 HD
ENDBRANCH  10  21
BRANCH   5  23
ATOM     23  O   UNL     1     119.144 132.222 113.008  1.00  0.00    -0.507 OA
ATOM     24  H   UNL     1     118.976 133.125 113.436  1.00  0.00     0.293 HD
ENDBRANCH   5  23
BRANCH   7  25
ATOM     25  O   UNL     1     120.064 130.742 108.518  1.00  0.00    -0.507 OA
ATOM     26  H   UNL     1     120.622 130.179 107.892  1.00  0.00     0.293 HD
ENDBRANCH   7  25
TORSDOF 6
ENDMDL
MODEL 6
REMARK VINA RESULT:    -5.338      1.588      6.698
REMARK INTER + INTRA:          -6.783
REMARK INTER:                  -6.503
REMARK INTRA:                  -0.280
REMARK UNBOUND:                -0.352
REMARK SMILES Oc1cc(O)c2cc(O)c(-c3ccc(O)c(O)c3)[o+]c2c1
REMARK SMILES IDX 10 1 19 2 20 3 21 4 2 5 3 6 4 7 6 8 7 9 8 10 11 11 12 12
REMARK SMILES IDX 13 13 14 14 18 15 16 16 15 17 17 19 9 21 1 23 5 25
REMARK H PARENT 15 18 17 20 9 22 1 24 5 26
REMARK Flexibility Score: inf
ROOT
ATOM      1  C   UNL     1     125.743 134.270 110.744  1.00  0.00     0.402 A 
ATOM      2  O   UNL     1     124.423 134.226 110.586  1.00  0.00    -0.202 OA
ATOM      3  C   UNL     1     123.635 133.388 111.252  1.00  0.00     0.368 A 
ATOM      4  C   UNL     1     122.258 133.419 111.019  1.00  0.00     0.162 A 
ATOM      5  C   UNL     1     121.407 132.553 111.705  1.00  0.00     0.128 A 
ATOM      6  C   UNL     1     121.934 131.648 112.634  1.00  0.00     0.093 A 
ATOM      7  C   UNL     1     123.311 131.598 112.886  1.00  0.00     0.136 A 
ATOM      8  C   UNL     1     124.180 132.476 112.187  1.00  0.00     0.125 A 
ATOM      9  C   UNL     1     125.573 132.486 112.365  1.00  0.00     0.078 A 
ATOM     10  C   UNL     1     126.367 133.377 111.636  1.00  0.00     0.223 A 
ENDROOT
BRANCH   1  11
ATOM     11  C   UNL     1     126.511 135.256 109.951  1.00  0.00     0.087 A 
ATOM     12  C   UNL     1     126.754 135.066 108.579  1.00  0.00     0.022 A 
ATOM     13  C   UNL     1     127.500 135.999 107.857  1.00  0.00     0.051 A 
ATOM     14  C   UNL     1     128.027 137.129 108.495  1.00  0.00     0.157 A 
ATOM     15  C   UNL     1     127.060 136.380 110.591  1.00  0.00     0.068 A 
ATOM     16  C   UNL     1     127.808 137.318 109.870  1.00  0.00     0.158 A 
BRANCH  14  17
ATOM     17  O   UNL     1     128.772 138.060 107.772  1.00  0.00    -0.504 OA
ATOM     18  H   UNL     1     129.452 138.662 108.221  1.00  0.00     0.293 HD
ENDBRANCH  14  17
BRANCH  16  19
ATOM     19  O   UNL     1     128.325 138.428 110.537  1.00  0.00    -0.504 OA
ATOM     20  H   UNL     1     129.195 138.867 110.258  1.00  0.00     0.293 HD
ENDBRANCH  16  19
ENDBRANCH   1  11
BRANCH  10  21
ATOM     21  O   UNL     1     127.754 133.354 111.776  1.00  0.00    -0.500 OA
ATOM     22  H   UNL     1     128.204 132.863 112.538  1.00  0.00     0.294 HD
ENDBRANCH  10  21
BRANCH   5  23
ATOM     23  O   UNL     1     120.036 132.598 111.460  1.00  0.00    -0.507 OA
ATOM     24  H   UNL     1     119.365 132.244 112.131  1.00  0.00     0.293 HD
ENDBRANCH   5  23
BRANCH   7  25
ATOM     25  O   UNL     1     123.759 130.669 113.829  1.00  0.00    -0.507 OA
ATOM     26  H   UNL     1     124.627 130.158 113.759  1.00  0.00     0.293 HD
ENDBRANCH   7  25
TORSDOF 6
ENDMDL
MODEL 7
REMARK VINA RESULT:    -5.224     10.992     14.514
REMARK INTER + INTRA:          -6.646
REMARK INTER:                  -6.299
REMARK INTRA:                  -0.346
REMARK UNBOUND:                -0.352
REMARK SMILES Oc1cc(O)c2cc(O)c(-c3ccc(O)c(O)c3)[o+]c2c1
REMARK SMILES IDX 10 1 19 2 20 3 21 4 2 5 3 6 4 7 6 8 7 9 8 10 11 11 12 12
REMARK SMILES IDX 13 13 14 14 18 15 16 16 15 17 17 19 9 21 1 23 5 25
REMARK H PARENT 15 18 17 20 9 22 1 24 5 26
REMARK Flexibility Score: inf
ROOT
ATOM      1  C   UNL     1     133.901 125.542 111.130  1.00  0.00     0.402 A 
ATOM      2  O   UNL     1     133.712 124.297 110.703  1.00  0.00    -0.202 OA
ATOM      3  C   UNL     1     132.554 123.654 110.814  1.00  0.00     0.368 A 
ATOM      4  C   UNL     1     132.452 122.346 110.333  1.00  0.00     0.162 A 
ATOM      5  C   UNL     1     131.248 121.649 110.434  1.00  0.00     0.128 A 
ATOM      6  C   UNL     1     130.135 122.263 111.019  1.00  0.00     0.093 A 
ATOM      7  C   UNL     1     130.211 123.573 111.509  1.00  0.00     0.136 A 
ATOM      8  C   UNL     1     131.435 124.284 111.410  1.00  0.00     0.125 A 
ATOM      9  C   UNL     1     131.607 125.594 111.886  1.00  0.00     0.078 A 
ATOM     10  C   UNL     1     132.846 126.229 111.758  1.00  0.00     0.223 A 
ENDROOT
BRANCH   1  11
ATOM     11  C   UNL     1     135.237 126.153 110.939  1.00  0.00     0.087 A 
ATOM     12  C   UNL     1     135.504 127.008 109.856  1.00  0.00     0.022 A 
ATOM     13  C   UNL     1     136.778 127.554 109.685  1.00  0.00     0.051 A 
ATOM     14  C   UNL     1     137.807 127.245 110.583  1.00  0.00     0.157 A 
ATOM     15  C   UNL     1     136.278 125.829 111.826  1.00  0.00     0.068 A 
ATOM     16  C   UNL     1     137.555 126.375 111.657  1.00  0.00     0.158 A 
BRANCH  14  17
ATOM     17  O   UNL     1     139.077 127.792 110.410  1.00  0.00    -0.504 OA
ATOM     18  H   UNL     1     139.240 128.790 110.479  1.00  0.00     0.293 HD
ENDBRANCH  14  17
BRANCH  16  19
ATOM     19  O   UNL     1     138.559 126.041 112.565  1.00  0.00    -0.504 OA
ATOM     20  H   UNL     1     139.542 126.129 112.337  1.00  0.00     0.293 HD
ENDBRANCH  16  19
ENDBRANCH   1  11
BRANCH  10  21
ATOM     21  O   UNL     1     133.031 127.512 112.274  1.00  0.00    -0.500 OA
ATOM     22  H   UNL     1     133.089 127.681 113.271  1.00  0.00     0.294 HD
ENDBRANCH  10  21
BRANCH   5  23
ATOM     23  O   UNL     1     131.167 120.346 109.948  1.00  0.00    -0.507 OA
ATOM     24  H   UNL     1     131.167 120.149 108.954  1.00  0.00     0.293 HD
ENDBRANCH   5  23
BRANCH   7  25
ATOM     25  O   UNL     1     129.054 124.115 112.076  1.00  0.00    -0.507 OA
ATOM     26  H   UNL     1     128.534 124.886 111.683  1.00  0.00     0.293 HD
ENDBRANCH   7  25
TORSDOF 6
ENDMDL
MODEL 8
REMARK VINA RESULT:    -5.202     11.091     12.692
REMARK INTER + INTRA:          -6.618
REMARK INTER:                  -6.320
REMARK INTRA:                  -0.299
REMARK UNBOUND:                -0.352
REMARK SMILES Oc1cc(O)c2cc(O)c(-c3ccc(O)c(O)c3)[o+]c2c1
REMARK SMILES IDX 10 1 19 2 20 3 21 4 2 5 3 6 4 7 6 8 7 9 8 10 11 11 12 12
REMARK SMILES IDX 13 13 14 14 18 15 16 16 15 17 17 19 9 21 1 23 5 25
REMARK H PARENT 15 18 17 20 9 22 1 24 5 26
REMARK Flexibility Score: inf
ROOT
ATOM      1  C   UNL     1     131.696 123.867 110.827  1.00  0.00     0.402 A 
ATOM      2  O   UNL     1     132.680 124.019 111.709  1.00  0.00    -0.202 OA
ATOM      3  C   UNL     1     133.423 125.117 111.794  1.00  0.00     0.368 A 
ATOM      4  C   UNL     1     134.433 125.184 112.756  1.00  0.00     0.162 A 
ATOM      5  C   UNL     1     135.226 126.325 112.869  1.00  0.00     0.128 A 
ATOM      6  C   UNL     1     135.008 127.413 112.015  1.00  0.00     0.093 A 
ATOM      7  C   UNL     1     134.000 127.372 111.043  1.00  0.00     0.136 A 
ATOM      8  C   UNL     1     133.194 126.210 110.923  1.00  0.00     0.125 A 
ATOM      9  C   UNL     1     132.171 126.076 109.970  1.00  0.00     0.078 A 
ATOM     10  C   UNL     1     131.421 124.897 109.908  1.00  0.00     0.223 A 
ENDROOT
BRANCH   1  11
ATOM     11  C   UNL     1     130.933 122.598 110.839  1.00  0.00     0.087 A 
ATOM     12  C   UNL     1     129.617 122.538 111.330  1.00  0.00     0.022 A 
ATOM     13  C   UNL     1     128.926 121.324 111.353  1.00  0.00     0.051 A 
ATOM     14  C   UNL     1     129.542 120.151 110.899  1.00  0.00     0.157 A 
ATOM     15  C   UNL     1     131.554 121.415 110.405  1.00  0.00     0.068 A 
ATOM     16  C   UNL     1     130.864 120.197 110.425  1.00  0.00     0.158 A 
BRANCH  14  17
ATOM     17  O   UNL     1     128.849 118.941 110.921  1.00  0.00    -0.504 OA
ATOM     18  H   UNL     1     128.686 118.407 110.076  1.00  0.00     0.293 HD
ENDBRANCH  14  17
BRANCH  16  19
ATOM     19  O   UNL     1     131.508 119.046 109.973  1.00  0.00    -0.504 OA
ATOM     20  H   UNL     1     132.131 118.510 110.565  1.00  0.00     0.293 HD
ENDBRANCH  16  19
ENDBRANCH   1  11
BRANCH  10  21
ATOM     21  O   UNL     1     130.439 124.743 108.930  1.00  0.00    -0.500 OA
ATOM     22  H   UNL     1     130.219 125.484 108.275  1.00  0.00     0.294 HD
ENDBRANCH  10  21
BRANCH   5  23
ATOM     23  O   UNL     1     136.229 126.372 113.834  1.00  0.00    -0.507 OA
ATOM     24  H   UNL     1     136.879 127.148 113.887  1.00  0.00     0.293 HD
ENDBRANCH   5  23
BRANCH   7  25
ATOM     25  O   UNL     1     133.844 128.499 110.231  1.00  0.00    -0.507 OA
ATOM     26  H   UNL     1     133.122 128.603 109.533  1.00  0.00     0.293 HD
ENDBRANCH   7  25
TORSDOF 6
ENDMDL
MODEL 9
REMARK VINA RESULT:    -5.157      1.429      6.887
REMARK INTER + INTRA:          -6.565
REMARK INTER:                  -6.544
REMARK INTRA:                  -0.021
REMARK UNBOUND:                -0.352
REMARK SMILES Oc1cc(O)c2cc(O)c(-c3ccc(O)c(O)c3)[o+]c2c1
REMARK SMILES IDX 10 1 19 2 20 3 21 4 2 5 3 6 4 7 6 8 7 9 8 10 11 11 12 12
REMARK SMILES IDX 13 13 14 14 18 15 16 16 15 17 17 19 9 21 1 23 5 25
REMARK H PARENT 15 18 17 20 9 22 1 24 5 26
REMARK Flexibility Score: inf
ROOT
ATOM      1  C   UNL     1     124.508 133.958 111.116  1.00  0.00     0.402 A 
ATOM      2  O   UNL     1     123.651 133.978 110.099  1.00  0.00    -0.202 OA
ATOM      3  C   UNL     1     122.452 133.406 110.142  1.00  0.00     0.368 A 
ATOM      4  C   UNL     1     121.621 133.482 109.022  1.00  0.00     0.162 A 
ATOM      5  C   UNL     1     120.357 132.893 109.040  1.00  0.00     0.128 A 
ATOM      6  C   UNL     1     119.917 132.223 110.187  1.00  0.00     0.093 A 
ATOM      7  C   UNL     1     120.732 132.132 111.323  1.00  0.00     0.136 A 
ATOM      8  C   UNL     1     122.019 132.728 111.307  1.00  0.00     0.125 A 
ATOM      9  C   UNL     1     122.907 132.675 112.394  1.00  0.00     0.078 A 
ATOM     10  C   UNL     1     124.164 133.282 112.302  1.00  0.00     0.223 A 
ENDROOT
BRANCH   1  11
ATOM     11  C   UNL     1     125.811 134.642 110.948  1.00  0.00     0.087 A 
ATOM     12  C   UNL     1     127.022 133.998 111.254  1.00  0.00     0.022 A 
ATOM     13  C   UNL     1     128.236 134.672 111.110  1.00  0.00     0.051 A 
ATOM     14  C   UNL     1     128.260 136.001 110.671  1.00  0.00     0.157 A 
ATOM     15  C   UNL     1     125.838 135.983 110.529  1.00  0.00     0.068 A 
ATOM     16  C   UNL     1     127.054 136.661 110.382  1.00  0.00     0.158 A 
BRANCH  14  17
ATOM     17  O   UNL     1     129.474 136.671 110.527  1.00  0.00    -0.504 OA
ATOM     18  H   UNL     1     129.679 137.230 109.706  1.00  0.00     0.293 HD
ENDBRANCH  14  17
BRANCH  16  19
ATOM     19  O   UNL     1     127.042 137.986 109.951  1.00  0.00    -0.504 OA
ATOM     20  H   UNL     1     127.876 138.450 109.610  1.00  0.00     0.293 HD
ENDBRANCH  16  19
ENDBRANCH   1  11
BRANCH  10  21
ATOM     21  O   UNL     1     125.066 133.188 113.362  1.00  0.00    -0.500 OA
ATOM     22  H   UNL     1     124.852 133.564 114.277  1.00  0.00     0.294 HD
ENDBRANCH  10  21
BRANCH   5  23
ATOM     23  O   UNL     1     119.542 132.980 107.914  1.00  0.00    -0.507 OA
ATOM     24  H   UNL     1     119.866 132.683 107.000  1.00  0.00     0.293 HD
ENDBRANCH   5  23
BRANCH   7  25
ATOM     25  O   UNL     1     120.219 131.448 112.429  1.00  0.00    -0.507 OA
ATOM     26  H   UNL     1     119.810 130.525 112.389  1.00  0.00     0.293 HD
ENDBRANCH   7  25
TORSDOF 6
ENDMDL
