MODEL 1
REMARK VINA RESULT:    -6.893      0.000      0.000
REMARK INTER + INTRA:         -14.664
REMARK INTER:                 -12.938
REMARK INTRA:                  -1.726
REMARK UNBOUND:                -1.726
REMARK SMILES CCCCCCCCC=CCCCCCCCC(=O)[O-]
REMARK SMILES IDX 10 1 9 2 11 3 12 4 13 5 14 6 15 7 16 8 17 9 18 10 19 11
REMARK SMILES IDX 20 12 8 13 7 14 6 15 5 16 4 17 3 18 2 19 1 20
REMARK H PARENT
REMARK Flexibility Score: inf
ROOT
ATOM      1  C   UNL     1      14.466  70.189  72.644  1.00  0.00    -0.031 C 
ATOM      2  C   UNL     1      14.014  69.673  73.802  1.00  0.00    -0.031 C 
ENDROOT
BRANCH   1   3
ATOM      3  C   UNL     1      14.693  71.658  72.379  1.00  0.00     0.027 C 
BRANCH   3   4
ATOM      4  C   UNL     1      16.170  71.994  72.124  1.00  0.00     0.004 C 
BRANCH   4   5
ATOM      5  C   UNL     1      16.969  72.129  73.429  1.00  0.00     0.000 C 
BRANCH   5   6
ATOM      6  C   UNL     1      18.455  71.819  73.199  1.00  0.00     0.000 C 
BRANCH   6   7
ATOM      7  C   UNL     1      18.781  71.495  71.728  1.00  0.00     0.000 C 
BRANCH   7   8
ATOM      8  C   UNL     1      20.264  71.201  71.440  1.00  0.00     0.006 C 
BRANCH   8   9
ATOM      9  C   UNL     1      20.573  69.700  71.365  1.00  0.00     0.053 C 
BRANCH   9  10
ATOM     10  C   UNL     1      20.681  69.260  69.939  1.00  0.00     0.041 C 
ATOM     11  O   UNL     1      20.786  70.113  69.018  1.00  0.00    -0.550 OA
ATOM     12  O   UNL     1      20.714  67.906  69.630  1.00  0.00    -0.550 OA
ENDBRANCH   9  10
ENDBRANCH   8   9
ENDBRANCH   7   8
ENDBRANCH   6   7
ENDBRANCH   5   6
ENDBRANCH   4   5
ENDBRANCH   3   4
ENDBRANCH   1   3
BRANCH   2  13
ATOM     13  C   UNL     1      13.616  70.490  75.010  1.00  0.00     0.027 C 
BRANCH  13  14
ATOM     14  C   UNL     1      14.373  70.047  76.272  1.00  0.00     0.004 C 
BRANCH  14  15
ATOM     15  C   UNL     1      15.604  70.913  76.608  1.00  0.00     0.000 C 
BRANCH  15  16
ATOM     16  C   UNL     1      16.255  70.625  77.976  1.00  0.00     0.000 C 
BRANCH  16  17
ATOM     17  C   UNL     1      17.663  71.218  78.169  1.00  0.00    -0.000 C 
BRANCH  17  18
ATOM     18  C   UNL     1      18.504  71.188  76.881  1.00  0.00    -0.000 C 
BRANCH  18  19
ATOM     19  C   UNL     1      19.714  70.246  76.990  1.00  0.00    -0.003 C 
ATOM     20  C   UNL     1      20.494  70.128  75.681  1.00  0.00     0.004 C 
ENDBRANCH  18  19
ENDBRANCH  17  18
ENDBRANCH  16  17
ENDBRANCH  15  16
ENDBRANCH  14  15
ENDBRANCH  13  14
ENDBRANCH   2  13
TORSDOF 15
ENDMDL
MODEL 2
REMARK VINA RESULT:    -6.854      2.010      2.326
REMARK INTER + INTRA:         -14.590
REMARK INTER:                 -12.701
REMARK INTRA:                  -1.889
REMARK UNBOUND:                -1.726
REMARK SMILES CCCCCCCCC=CCCCCCCCC(=O)[O-]
REMARK SMILES IDX 10 1 9 2 11 3 12 4 13 5 14 6 15 7 16 8 17 9 18 10 19 11
REMARK SMILES IDX 20 12 8 13 7 14 6 15 5 16 4 17 3 18 2 19 1 20
REMARK H PARENT
REMARK Flexibility Score: inf
ROOT
ATOM      1  C   UNL     1      14.841  70.406  72.399  1.00  0.00    -0.031 C 
ATOM      2  C   UNL     1      14.007  69.895  73.322  1.00  0.00    -0.031 C 
ENDROOT
BRANCH   1   3
ATOM      3  C   UNL     1      15.578  71.718  72.527  1.00  0.00     0.027 C 
BRANCH   3   4
ATOM      4  C   UNL     1      17.016  71.646  71.991  1.00  0.00     0.004 C 
BRANCH   4   5
ATOM      5  C   UNL     1      17.832  72.897  72.349  1.00  0.00     0.000 C 
BRANCH   5   6
ATOM      6  C   UNL     1      19.297  72.740  71.914  1.00  0.00     0.000 C 
BRANCH   6   7
ATOM      7  C   UNL     1      19.654  71.296  71.514  1.00  0.00     0.000 C 
BRANCH   7   8
ATOM      8  C   UNL     1      21.144  71.055  71.209  1.00  0.00     0.006 C 
BRANCH   8   9
ATOM      9  C   UNL     1      21.977  72.343  71.243  1.00  0.00     0.053 C 
BRANCH   9  10
ATOM     10  C   UNL     1      23.099  72.212  72.224  1.00  0.00     0.041 C 
ATOM     11  O   UNL     1      24.015  73.077  72.259  1.00  0.00    -0.550 OA
ATOM     12  O   UNL     1      23.109  71.162  73.133  1.00  0.00    -0.550 OA
ENDBRANCH   9  10
ENDBRANCH   8   9
ENDBRANCH   7   8
ENDBRANCH   6   7
ENDBRANCH   5   6
ENDBRANCH   4   5
ENDBRANCH   3   4
ENDBRANCH   1   3
BRANCH   2  13
ATOM     13  C   UNL     1      13.637  70.578  74.618  1.00  0.00     0.027 C 
BRANCH  13  14
ATOM     14  C   UNL     1      14.225  69.847  75.836  1.00  0.00     0.004 C 
BRANCH  14  15
ATOM     15  C   UNL     1      15.161  70.714  76.702  1.00  0.00     0.000 C 
BRANCH  15  16
ATOM     16  C   UNL     1      16.429  71.225  75.989  1.00  0.00     0.000 C 
BRANCH  16  17
ATOM     17  C   UNL     1      17.520  71.792  76.917  1.00  0.00    -0.000 C 
BRANCH  17  18
ATOM     18  C   UNL     1      18.874  71.082  76.745  1.00  0.00    -0.000 C 
BRANCH  18  19
ATOM     19  C   UNL     1      19.475  71.290  75.346  1.00  0.00    -0.003 C 
ATOM     20  C   UNL     1      20.391  70.145  74.916  1.00  0.00     0.004 C 
ENDBRANCH  18  19
ENDBRANCH  17  18
ENDBRANCH  16  17
ENDBRANCH  15  16
ENDBRANCH  14  15
ENDBRANCH  13  14
ENDBRANCH   2  13
TORSDOF 15
ENDMDL
MODEL 3
REMARK VINA RESULT:    -6.852      1.704      4.944
REMARK INTER + INTRA:         -14.585
REMARK INTER:                 -12.389
REMARK INTRA:                  -2.197
REMARK UNBOUND:                -1.726
REMARK SMILES CCCCCCCCC=CCCCCCCCC(=O)[O-]
REMARK SMILES IDX 10 1 9 2 11 3 12 4 13 5 14 6 15 7 16 8 17 9 18 10 19 11
REMARK SMILES IDX 20 12 8 13 7 14 6 15 5 16 4 17 3 18 2 19 1 20
REMARK H PARENT
REMARK Flexibility Score: inf
ROOT
ATOM      1  C   UNL     1      19.915  71.011  74.521  1.00  0.00    -0.031 C 
ATOM      2  C   UNL     1      18.645  71.176  74.108  1.00  0.00    -0.031 C 
ENDROOT
BRANCH   1   3
ATOM      3  C   UNL     1      21.026  72.017  74.336  1.00  0.00     0.027 C 
BRANCH   3   4
ATOM      4  C   UNL     1      22.389  71.356  74.079  1.00  0.00     0.004 C 
BRANCH   4   5
ATOM      5  C   UNL     1      23.262  72.181  73.121  1.00  0.00     0.000 C 
BRANCH   5   6
ATOM      6  C   UNL     1      22.406  72.850  72.035  1.00  0.00     0.000 C 
BRANCH   6   7
ATOM      7  C   UNL     1      22.162  71.940  70.817  1.00  0.00     0.000 C 
BRANCH   7   8
ATOM      8  C   UNL     1      20.765  71.294  70.757  1.00  0.00     0.006 C 
BRANCH   8   9
ATOM      9  C   UNL     1      20.786  69.793  71.073  1.00  0.00     0.053 C 
BRANCH   9  10
ATOM     10  C   UNL     1      20.322  69.004  69.889  1.00  0.00     0.041 C 
ATOM     11  O   UNL     1      19.470  68.087  70.033  1.00  0.00    -0.550 OA
ATOM     12  O   UNL     1      20.794  69.313  68.620  1.00  0.00    -0.550 OA
ENDBRANCH   9  10
ENDBRANCH   8   9
ENDBRANCH   7   8
ENDBRANCH   6   7
ENDBRANCH   5   6
ENDBRANCH   4   5
ENDBRANCH   3   4
ENDBRANCH   1   3
BRANCH   2  13
ATOM     13  C   UNL     1      18.139  72.379  73.347  1.00  0.00     0.027 C 
BRANCH  13  14
ATOM     14  C   UNL     1      17.284  71.969  72.137  1.00  0.00     0.004 C 
BRANCH  14  15
ATOM     15  C   UNL     1      15.990  72.791  71.969  1.00  0.00     0.000 C 
BRANCH  15  16
ATOM     16  C   UNL     1      14.709  72.113  72.496  1.00  0.00     0.000 C 
BRANCH  16  17
ATOM     17  C   UNL     1      14.641  70.588  72.286  1.00  0.00    -0.000 C 
BRANCH  17  18
ATOM     18  C   UNL     1      14.259  69.827  73.567  1.00  0.00    -0.000 C 
BRANCH  18  19
ATOM     19  C   UNL     1      14.786  70.514  74.838  1.00  0.00    -0.003 C 
ATOM     20  C   UNL     1      13.927  70.223  76.069  1.00  0.00     0.004 C 
ENDBRANCH  18  19
ENDBRANCH  17  18
ENDBRANCH  16  17
ENDBRANCH  15  16
ENDBRANCH  14  15
ENDBRANCH  13  14
ENDBRANCH   2  13
TORSDOF 15
ENDMDL
MODEL 4
REMARK VINA RESULT:    -6.810      2.396      4.932
REMARK INTER + INTRA:         -14.508
REMARK INTER:                 -12.630
REMARK INTRA:                  -1.878
REMARK UNBOUND:                -1.726
REMARK SMILES CCCCCCCCC=CCCCCCCCC(=O)[O-]
REMARK SMILES IDX 10 1 9 2 11 3 12 4 13 5 14 6 15 7 16 8 17 9 18 10 19 11
REMARK SMILES IDX 20 12 8 13 7 14 6 15 5 16 4 17 3 18 2 19 1 20
REMARK H PARENT
REMARK Flexibility Score: inf
ROOT
ATOM      1  C   UNL     1      14.198  69.686  75.071  1.00  0.00    -0.031 C 
ATOM      2  C   UNL     1      14.086  69.877  73.744  1.00  0.00    -0.031 C 
ENDROOT
BRANCH   1   3
ATOM      3  C   UNL     1      14.482  70.771  76.082  1.00  0.00     0.027 C 
BRANCH   3   4
ATOM      4  C   UNL     1      15.955  70.805  76.519  1.00  0.00     0.004 C 
BRANCH   4   5
ATOM      5  C   UNL     1      16.839  71.566  75.520  1.00  0.00     0.000 C 
BRANCH   5   6
ATOM      6  C   UNL     1      18.282  71.672  76.035  1.00  0.00     0.000 C 
BRANCH   6   7
ATOM      7  C   UNL     1      18.547  70.791  77.271  1.00  0.00     0.000 C 
BRANCH   7   8
ATOM      8  C   UNL     1      19.865  69.997  77.234  1.00  0.00     0.006 C 
BRANCH   8   9
ATOM      9  C   UNL     1      20.533  70.009  75.853  1.00  0.00     0.053 C 
BRANCH   9  10
ATOM     10  C   UNL     1      22.017  69.886  75.989  1.00  0.00     0.041 C 
ATOM     11  O   UNL     1      22.515  69.027  76.765  1.00  0.00    -0.550 OA
ATOM     12  O   UNL     1      22.854  70.688  75.224  1.00  0.00    -0.550 OA
ENDBRANCH   9  10
ENDBRANCH   8   9
ENDBRANCH   7   8
ENDBRANCH   6   7
ENDBRANCH   5   6
ENDBRANCH   4   5
ENDBRANCH   3   4
ENDBRANCH   1   3
BRANCH   2  13
ATOM     13  C   UNL     1      14.276  71.204  73.047  1.00  0.00     0.027 C 
BRANCH  13  14
ATOM     14  C   UNL     1      15.566  71.230  72.211  1.00  0.00     0.004 C 
BRANCH  14  15
ATOM     15  C   UNL     1      16.144  72.641  71.984  1.00  0.00     0.000 C 
BRANCH  15  16
ATOM     16  C   UNL     1      17.653  72.785  72.270  1.00  0.00     0.000 C 
BRANCH  16  17
ATOM     17  C   UNL     1      18.510  71.562  71.895  1.00  0.00    -0.000 C 
BRANCH  17  18
ATOM     18  C   UNL     1      19.937  71.639  72.465  1.00  0.00    -0.000 C 
BRANCH  18  19
ATOM     19  C   UNL     1      20.773  70.393  72.128  1.00  0.00    -0.003 C 
ATOM     20  C   UNL     1      20.403  69.777  70.779  1.00  0.00     0.004 C 
ENDBRANCH  18  19
ENDBRANCH  17  18
ENDBRANCH  16  17
ENDBRANCH  15  16
ENDBRANCH  14  15
ENDBRANCH  13  14
ENDBRANCH   2  13
TORSDOF 15
ENDMDL
MODEL 5
REMARK VINA RESULT:    -6.710      3.516      6.734
REMARK INTER + INTRA:         -14.320
REMARK INTER:                 -13.151
REMARK INTRA:                  -1.168
REMARK UNBOUND:                -1.726
REMARK SMILES CCCCCCCCC=CCCCCCCCC(=O)[O-]
REMARK SMILES IDX 10 1 9 2 11 3 12 4 13 5 14 6 15 7 16 8 17 9 18 10 19 11
REMARK SMILES IDX 20 12 8 13 7 14 6 15 5 16 4 17 3 18 2 19 1 20
REMARK H PARENT
REMARK Flexibility Score: inf
ROOT
ATOM      1  C   UNL     1      20.559  70.792  71.999  1.00  0.00    -0.031 C 
ATOM      2  C   UNL     1      19.327  71.287  71.779  1.00  0.00    -0.031 C 
ENDROOT
BRANCH   1   3
ATOM      3  C   UNL     1      21.731  71.583  72.529  1.00  0.00     0.027 C 
BRANCH   3   4
ATOM      4  C   UNL     1      22.710  70.722  73.341  1.00  0.00     0.004 C 
BRANCH   4   5
ATOM      5  C   UNL     1      22.611  70.996  74.849  1.00  0.00     0.000 C 
BRANCH   5   6
ATOM      6  C   UNL     1      21.707  69.963  75.537  1.00  0.00     0.000 C 
BRANCH   6   7
ATOM      7  C   UNL     1      20.265  70.465  75.739  1.00  0.00     0.000 C 
BRANCH   7   8
ATOM      8  C   UNL     1      19.656  70.156  77.119  1.00  0.00     0.006 C 
BRANCH   8   9
ATOM      9  C   UNL     1      20.227  68.882  77.754  1.00  0.00     0.053 C 
BRANCH   9  10
ATOM     10  C   UNL     1      19.604  68.641  79.092  1.00  0.00     0.041 C 
ATOM     11  O   UNL     1      20.012  69.269  80.104  1.00  0.00    -0.550 OA
ATOM     12  O   UNL     1      18.539  67.757  79.213  1.00  0.00    -0.550 OA
ENDBRANCH   9  10
ENDBRANCH   8   9
ENDBRANCH   7   8
ENDBRANCH   6   7
ENDBRANCH   5   6
ENDBRANCH   4   5
ENDBRANCH   3   4
ENDBRANCH   1   3
BRANCH   2  13
ATOM     13  C   UNL     1      18.934  72.732  71.982  1.00  0.00     0.027 C 
BRANCH  13  14
ATOM     14  C   UNL     1      17.422  72.882  72.217  1.00  0.00     0.004 C 
BRANCH  14  15
ATOM     15  C   UNL     1      16.623  71.574  72.049  1.00  0.00     0.000 C 
BRANCH  15  16
ATOM     16  C   UNL     1      15.145  71.648  72.482  1.00  0.00     0.000 C 
BRANCH  16  17
ATOM     17  C   UNL     1      14.350  70.338  72.327  1.00  0.00    -0.000 C 
BRANCH  17  18
ATOM     18  C   UNL     1      14.038  69.667  73.676  1.00  0.00    -0.000 C 
BRANCH  18  19
ATOM     19  C   UNL     1      14.450  70.537  74.875  1.00  0.00    -0.003 C 
ATOM     20  C   UNL     1      14.077  69.910  76.219  1.00  0.00     0.004 C 
ENDBRANCH  18  19
ENDBRANCH  17  18
ENDBRANCH  16  17
ENDBRANCH  15  16
ENDBRANCH  14  15
ENDBRANCH  13  14
ENDBRANCH   2  13
TORSDOF 15
ENDMDL
MODEL 6
REMARK VINA RESULT:    -6.710      2.052      2.793
REMARK INTER + INTRA:         -14.319
REMARK INTER:                 -12.629
REMARK INTRA:                  -1.690
REMARK UNBOUND:                -1.726
REMARK SMILES CCCCCCCCC=CCCCCCCCC(=O)[O-]
REMARK SMILES IDX 10 1 9 2 11 3 12 4 13 5 14 6 15 7 16 8 17 9 18 10 19 11
REMARK SMILES IDX 20 12 8 13 7 14 6 15 5 16 4 17 3 18 2 19 1 20
REMARK H PARENT
REMARK Flexibility Score: inf
ROOT
ATOM      1  C   UNL     1      15.517  71.071  72.369  1.00  0.00    -0.031 C 
ATOM      2  C   UNL     1      14.583  70.271  72.916  1.00  0.00    -0.031 C 
ENDROOT
BRANCH   1   3
ATOM      3  C   UNL     1      15.906  72.434  72.889  1.00  0.00     0.027 C 
BRANCH   3   4
ATOM      4  C   UNL     1      17.134  73.016  72.173  1.00  0.00     0.004 C 
BRANCH   4   5
ATOM      5  C   UNL     1      18.149  71.930  71.787  1.00  0.00     0.000 C 
BRANCH   5   6
ATOM      6  C   UNL     1      19.385  71.987  72.697  1.00  0.00     0.000 C 
BRANCH   6   7
ATOM      7  C   UNL     1      19.175  71.267  74.043  1.00  0.00     0.000 C 
BRANCH   7   8
ATOM      8  C   UNL     1      20.246  70.218  74.393  1.00  0.00     0.006 C 
BRANCH   8   9
ATOM      9  C   UNL     1      21.526  70.838  74.968  1.00  0.00     0.053 C 
BRANCH   9  10
ATOM     10  C   UNL     1      22.687  70.573  74.063  1.00  0.00     0.041 C 
ATOM     11  O   UNL     1      23.733  71.270  74.152  1.00  0.00    -0.550 OA
ATOM     12  O   UNL     1      22.634  69.526  73.153  1.00  0.00    -0.550 OA
ENDBRANCH   9  10
ENDBRANCH   8   9
ENDBRANCH   7   8
ENDBRANCH   6   7
ENDBRANCH   5   6
ENDBRANCH   4   5
ENDBRANCH   3   4
ENDBRANCH   1   3
BRANCH   2  13
ATOM     13  C   UNL     1      13.737  70.634  74.114  1.00  0.00     0.027 C 
BRANCH  13  14
ATOM     14  C   UNL     1      14.015  69.707  75.309  1.00  0.00     0.004 C 
BRANCH  14  15
ATOM     15  C   UNL     1      14.739  70.391  76.485  1.00  0.00     0.000 C 
BRANCH  15  16
ATOM     16  C   UNL     1      16.024  71.156  76.109  1.00  0.00     0.000 C 
BRANCH  16  17
ATOM     17  C   UNL     1      17.132  71.144  77.179  1.00  0.00    -0.000 C 
BRANCH  17  18
ATOM     18  C   UNL     1      16.640  70.617  78.538  1.00  0.00    -0.000 C 
BRANCH  18  19
ATOM     19  C   UNL     1      17.768  69.974  79.362  1.00  0.00    -0.003 C 
ATOM     20  C   UNL     1      19.019  69.686  78.533  1.00  0.00     0.004 C 
ENDBRANCH  18  19
ENDBRANCH  17  18
ENDBRANCH  16  17
ENDBRANCH  15  16
ENDBRANCH  14  15
ENDBRANCH  13  14
ENDBRANCH   2  13
TORSDOF 15
ENDMDL
MODEL 7
REMARK VINA RESULT:    -6.708      2.987      6.103
REMARK INTER + INTRA:         -14.316
REMARK INTER:                 -12.414
REMARK INTRA:                  -1.902
REMARK UNBOUND:                -1.726
REMARK SMILES CCCCCCCCC=CCCCCCCCC(=O)[O-]
REMARK SMILES IDX 10 1 9 2 11 3 12 4 13 5 14 6 15 7 16 8 17 9 18 10 19 11
REMARK SMILES IDX 20 12 8 13 7 14 6 15 5 16 4 17 3 18 2 19 1 20
REMARK H PARENT
REMARK Flexibility Score: inf
ROOT
ATOM      1  C   UNL     1      20.724  71.047  70.955  1.00  0.00    -0.031 C 
ATOM      2  C   UNL     1      19.502  71.076  71.518  1.00  0.00    -0.031 C 
ENDROOT
BRANCH   1   3
ATOM      3  C   UNL     1      21.557  72.262  70.625  1.00  0.00     0.027 C 
BRANCH   3   4
ATOM      4  C   UNL     1      22.219  72.883  71.864  1.00  0.00     0.004 C 
BRANCH   4   5
ATOM      5  C   UNL     1      22.895  71.828  72.752  1.00  0.00     0.000 C 
BRANCH   5   6
ATOM      6  C   UNL     1      22.222  71.758  74.131  1.00  0.00     0.000 C 
BRANCH   6   7
ATOM      7  C   UNL     1      21.891  70.319  74.567  1.00  0.00     0.000 C 
BRANCH   7   8
ATOM      8  C   UNL     1      20.455  70.108  75.079  1.00  0.00     0.006 C 
BRANCH   8   9
ATOM      9  C   UNL     1      19.733  71.424  75.396  1.00  0.00     0.053 C 
BRANCH   9  10
ATOM     10  C   UNL     1      18.734  71.221  76.491  1.00  0.00     0.041 C 
ATOM     11  O   UNL     1      17.544  71.607  76.343  1.00  0.00    -0.550 OA
ATOM     12  O   UNL     1      19.104  70.562  77.656  1.00  0.00    -0.550 OA
ENDBRANCH   9  10
ENDBRANCH   8   9
ENDBRANCH   7   8
ENDBRANCH   6   7
ENDBRANCH   5   6
ENDBRANCH   4   5
ENDBRANCH   3   4
ENDBRANCH   1   3
BRANCH   2  13
ATOM     13  C   UNL     1      18.746  72.338  71.864  1.00  0.00     0.027 C 
BRANCH  13  14
ATOM     14  C   UNL     1      17.476  72.036  72.675  1.00  0.00     0.004 C 
BRANCH  14  15
ATOM     15  C   UNL     1      16.210  72.747  72.155  1.00  0.00     0.000 C 
BRANCH  15  16
ATOM     16  C   UNL     1      14.889  71.986  72.387  1.00  0.00     0.000 C 
BRANCH  16  17
ATOM     17  C   UNL     1      14.992  70.452  72.303  1.00  0.00    -0.000 C 
BRANCH  17  18
ATOM     18  C   UNL     1      14.125  69.738  73.355  1.00  0.00    -0.000 C 
BRANCH  18  19
ATOM     19  C   UNL     1      13.867  70.610  74.595  1.00  0.00    -0.003 C 
ATOM     20  C   UNL     1      14.097  69.860  75.907  1.00  0.00     0.004 C 
ENDBRANCH  18  19
ENDBRANCH  17  18
ENDBRANCH  16  17
ENDBRANCH  15  16
ENDBRANCH  14  15
ENDBRANCH  13  14
ENDBRANCH   2  13
TORSDOF 15
ENDMDL
MODEL 8
REMARK VINA RESULT:    -6.652      3.506      7.151
REMARK INTER + INTRA:         -14.210
REMARK INTER:                 -12.256
REMARK INTRA:                  -1.955
REMARK UNBOUND:                -1.726
REMARK SMILES CCCCCCCCC=CCCCCCCCC(=O)[O-]
REMARK SMILES IDX 10 1 9 2 11 3 12 4 13 5 14 6 15 7 16 8 17 9 18 10 19 11
REMARK SMILES IDX 20 12 8 13 7 14 6 15 5 16 4 17 3 18 2 19 1 20
REMARK H PARENT
REMARK Flexibility Score: inf
ROOT
ATOM      1  C   UNL     1      20.498  70.290  74.126  1.00  0.00    -0.031 C 
ATOM      2  C   UNL     1      21.829  70.096  74.109  1.00  0.00    -0.031 C 
ENDROOT
BRANCH   1   3
ATOM      3  C   UNL     1      19.814  71.582  74.502  1.00  0.00     0.027 C 
BRANCH   3   4
ATOM      4  C   UNL     1      18.317  71.584  74.157  1.00  0.00     0.004 C 
BRANCH   4   5
ATOM      5  C   UNL     1      18.069  71.725  72.648  1.00  0.00     0.000 C 
BRANCH   5   6
ATOM      6  C   UNL     1      17.061  72.847  72.359  1.00  0.00     0.000 C 
BRANCH   6   7
ATOM      7  C   UNL     1      15.601  72.357  72.352  1.00  0.00     0.000 C 
BRANCH   7   8
ATOM      8  C   UNL     1      15.426  70.835  72.196  1.00  0.00     0.006 C 
BRANCH   8   9
ATOM      9  C   UNL     1      14.326  70.263  73.100  1.00  0.00     0.053 C 
BRANCH   9  10
ATOM     10  C   UNL     1      12.981  70.737  72.648  1.00  0.00     0.041 C 
ATOM     11  O   UNL     1      12.480  70.299  71.579  1.00  0.00    -0.550 OA
ATOM     12  O   UNL     1      12.258  71.626  73.434  1.00  0.00    -0.550 OA
ENDBRANCH   9  10
ENDBRANCH   8   9
ENDBRANCH   7   8
ENDBRANCH   6   7
ENDBRANCH   5   6
ENDBRANCH   4   5
ENDBRANCH   3   4
ENDBRANCH   1   3
BRANCH   2  13
ATOM     13  C   UNL     1      22.853  71.132  74.512  1.00  0.00     0.027 C 
BRANCH  13  14
ATOM     14  C   UNL     1      23.568  71.732  73.290  1.00  0.00     0.004 C 
BRANCH  14  15
ATOM     15  C   UNL     1      22.766  72.833  72.566  1.00  0.00     0.000 C 
BRANCH  15  16
ATOM     16  C   UNL     1      22.572  72.615  71.052  1.00  0.00     0.000 C 
BRANCH  16  17
ATOM     17  C   UNL     1      21.162  72.159  70.631  1.00  0.00    -0.000 C 
BRANCH  17  18
ATOM     18  C   UNL     1      21.174  70.840  69.840  1.00  0.00    -0.000 C 
BRANCH  18  19
ATOM     19  C   UNL     1      20.281  69.763  70.477  1.00  0.00    -0.003 C 
ATOM     20  C   UNL     1      19.974  68.607  69.525  1.00  0.00     0.004 C 
ENDBRANCH  18  19
ENDBRANCH  17  18
ENDBRANCH  16  17
ENDBRANCH  15  16
ENDBRANCH  14  15
ENDBRANCH  13  14
ENDBRANCH   2  13
TORSDOF 15
ENDMDL
MODEL 9
REMARK VINA RESULT:    -6.634      1.902      2.966
REMARK INTER + INTRA:         -14.177
REMARK INTER:                 -12.612
REMARK INTRA:                  -1.565
REMARK UNBOUND:                -1.726
REMARK SMILES CCCCCCCCC=CCCCCCCCC(=O)[O-]
REMARK SMILES IDX 10 1 9 2 11 3 12 4 13 5 14 6 15 7 16 8 17 9 18 10 19 11
REMARK SMILES IDX 20 12 8 13 7 14 6 15 5 16 4 17 3 18 2 19 1 20
REMARK H PARENT
REMARK Flexibility Score: inf
ROOT
ATOM      1  C   UNL     1      13.969  69.962  75.638  1.00  0.00    -0.031 C 
ATOM      2  C   UNL     1      14.842  70.465  76.530  1.00  0.00    -0.031 C 
ENDROOT
BRANCH   1   3
ATOM      3  C   UNL     1      14.153  69.980  74.139  1.00  0.00     0.027 C 
BRANCH   3   4
ATOM      4  C   UNL     1      13.684  71.295  73.498  1.00  0.00     0.004 C 
BRANCH   4   5
ATOM      5  C   UNL     1      14.443  71.612  72.201  1.00  0.00     0.000 C 
BRANCH   5   6
ATOM      6  C   UNL     1      15.961  71.569  72.429  1.00  0.00     0.000 C 
BRANCH   6   7
ATOM      7  C   UNL     1      16.617  72.962  72.376  1.00  0.00     0.000 C 
BRANCH   7   8
ATOM      8  C   UNL     1      18.099  72.968  71.960  1.00  0.00     0.006 C 
BRANCH   8   9
ATOM      9  C   UNL     1      18.641  71.566  71.655  1.00  0.00     0.053 C 
BRANCH   9  10
ATOM     10  C   UNL     1      19.705  71.192  72.638  1.00  0.00     0.041 C 
ATOM     11  O   UNL     1      20.891  71.016  72.252  1.00  0.00    -0.550 OA
ATOM     12  O   UNL     1      19.397  71.084  73.988  1.00  0.00    -0.550 OA
ENDBRANCH   9  10
ENDBRANCH   8   9
ENDBRANCH   7   8
ENDBRANCH   6   7
ENDBRANCH   5   6
ENDBRANCH   4   5
ENDBRANCH   3   4
ENDBRANCH   1   3
BRANCH   2  13
ATOM     13  C   UNL     1      16.127  71.172  76.169  1.00  0.00     0.027 C 
BRANCH  13  14
ATOM     14  C   UNL     1      17.129  71.162  77.335  1.00  0.00     0.004 C 
BRANCH  14  15
ATOM     15  C   UNL     1      16.525  70.723  78.684  1.00  0.00     0.000 C 
BRANCH  15  16
ATOM     16  C   UNL     1      17.340  69.664  79.455  1.00  0.00     0.000 C 
BRANCH  16  17
ATOM     17  C   UNL     1      18.868  69.850  79.405  1.00  0.00    -0.000 C 
BRANCH  17  18
ATOM     18  C   UNL     1      19.613  68.557  79.030  1.00  0.00    -0.000 C 
BRANCH  18  19
ATOM     19  C   UNL     1      20.833  68.820  78.133  1.00  0.00    -0.003 C 
ATOM     20  C   UNL     1      20.478  69.581  76.856  1.00  0.00     0.004 C 
ENDBRANCH  18  19
ENDBRANCH  17  18
ENDBRANCH  16  17
ENDBRANCH  15  16
ENDBRANCH  14  15
ENDBRANCH  13  14
ENDBRANCH   2  13
TORSDOF 15
ENDMDL
