MODEL 1
REMARK VINA RESULT:    -4.988      0.000      0.000
REMARK INTER + INTRA:          -9.126
REMARK INTER:                  -7.321
REMARK INTRA:                  -1.805
REMARK UNBOUND:                -1.805
REMARK SMILES O=c1c(O[C@@H]2O[C@@H](CO)[C@H](O)[C@@H](O)[C@@H]2O)c(-c2ccc(O)c(O)c2)oc2cc(O)cc(O)c12
REMARK SMILES IDX 4 1 3 2 16 3 25 4 2 5 26 6 1 7 33 8 27 9 31 10 28 11 30 12
REMARK SMILES IDX 17 13 18 14 19 15 20 16 24 17 22 18 21 19 23 21 32 23 29 25
REMARK SMILES IDX 5 27 14 28 6 29 12 30 7 31 10 32 15 33 13 35 8 37 9 38 11 40
REMARK H PARENT 21 20 23 22 32 24 29 26 15 34 13 36 9 39 11 41
REMARK Flexibility Score: inf
ROOT
ATOM      1  O   UNL     1      20.337  33.596  43.935  1.00  0.00    -0.454 OA
ENDROOT
BRANCH   1   2
ATOM      2  C   UNL     1      19.849  33.838  42.634  1.00  0.00     0.214 A 
ATOM      3  C   UNL     1      18.457  33.979  42.462  1.00  0.00     0.180 A 
ATOM      4  O   UNL     1      17.955  34.281  41.270  1.00  0.00    -0.452 OA
ATOM      5  C   UNL     1      20.678  33.990  41.500  1.00  0.00     0.239 A 
ATOM      6  C   UNL     1      18.698  34.431  40.183  1.00  0.00     0.146 A 
ATOM      7  O   UNL     1      21.928  33.893  41.610  1.00  0.00    -0.285 OA
ATOM      8  C   UNL     1      20.101  34.278  40.245  1.00  0.00     0.111 A 
ATOM      9  C   UNL     1      18.074  34.739  38.970  1.00  0.00     0.094 A 
ATOM     10  C   UNL     1      20.862  34.428  39.059  1.00  0.00     0.134 A 
ATOM     11  C   UNL     1      18.831  34.890  37.805  1.00  0.00     0.123 A 
ATOM     12  C   UNL     1      20.218  34.732  37.852  1.00  0.00     0.093 A 
BRANCH   3  13
ATOM     13  C   UNL     1      17.514  33.801  43.588  1.00  0.00     0.025 A 
ATOM     14  C   UNL     1      17.091  34.916  44.325  1.00  0.00     0.016 A 
ATOM     15  C   UNL     1      16.183  34.764  45.377  1.00  0.00     0.051 A 
ATOM     16  C   UNL     1      15.675  33.502  45.698  1.00  0.00     0.157 A 
ATOM     17  C   UNL     1      16.984  32.535  43.894  1.00  0.00     0.062 A 
ATOM     18  C   UNL     1      16.075  32.380  44.950  1.00  0.00     0.158 A 
BRANCH  16  19
ATOM     19  O   UNL     1      14.773  33.381  46.754  1.00  0.00    -0.504 OA
ATOM     20  H   UNL     1      14.626  32.505  47.239  1.00  0.00     0.293 HD
ENDBRANCH  16  19
BRANCH  18  21
ATOM     21  O   UNL     1      15.564  31.119  45.254  1.00  0.00    -0.504 OA
ATOM     22  H   UNL     1      15.503  30.788  46.210  1.00  0.00     0.293 HD
ENDBRANCH  18  21
ENDBRANCH   3  13
BRANCH  10  23
ATOM     23  O   UNL     1      22.249  34.271  39.070  1.00  0.00    -0.507 OA
ATOM     24  H   UNL     1      22.736  33.887  39.872  1.00  0.00     0.293 HD
ENDBRANCH  10  23
BRANCH  11  25
ATOM     25  O   UNL     1      18.215  35.194  36.593  1.00  0.00    -0.508 OA
ATOM     26  H   UNL     1      17.321  34.791  36.337  1.00  0.00     0.293 HD
ENDBRANCH  11  25
ENDBRANCH   1   2
BRANCH   1  27
ATOM     27  C   UNL     1      20.714  34.563  44.916  1.00  0.00     0.339 C 
ATOM     28  C   UNL     1      22.131  34.221  45.447  1.00  0.00     0.214 C 
ATOM     29  O   UNL     1      20.710  35.855  44.334  1.00  0.00    -0.332 OA
ATOM     30  C   UNL     1      22.840  35.461  46.044  1.00  0.00     0.180 C 
ATOM     31  C   UNL     1      20.896  36.891  45.299  1.00  0.00     0.179 C 
ATOM     32  C   UNL     1      21.804  36.497  46.502  1.00  0.00     0.177 C 
BRANCH  28  33
ATOM     33  O   UNL     1      22.931  33.640  44.445  1.00  0.00    -0.384 OA
ATOM     34  H   UNL     1      23.277  32.779  44.801  1.00  0.00     0.211 HD
ENDBRANCH  28  33
BRANCH  30  35
ATOM     35  O   UNL     1      23.643  35.060  47.125  1.00  0.00    -0.387 OA
ATOM     36  H   UNL     1      23.060  34.550  47.746  1.00  0.00     0.211 HD
ENDBRANCH  30  35
BRANCH  31  37
ATOM     37  C   UNL     1      19.533  37.434  45.760  1.00  0.00     0.191 C 
BRANCH  37  38
ATOM     38  O   UNL     1      19.560  37.755  47.125  1.00  0.00    -0.394 OA
ATOM     39  H   UNL     1      20.514  37.840  47.380  1.00  0.00     0.210 HD
ENDBRANCH  37  38
ENDBRANCH  31  37
BRANCH  32  40
ATOM     40  O   UNL     1      22.457  37.644  46.990  1.00  0.00    -0.387 OA
ATOM     41  H   UNL     1      23.115  37.921  46.302  1.00  0.00     0.211 HD
ENDBRANCH  32  40
ENDBRANCH   1  27
TORSDOF 12
ENDMDL
MODEL 2
REMARK VINA RESULT:    -4.272      1.452      6.045
REMARK INTER + INTRA:          -8.076
REMARK INTER:                  -6.251
REMARK INTRA:                  -1.824
REMARK UNBOUND:                -1.805
REMARK SMILES O=c1c(O[C@@H]2O[C@@H](CO)[C@H](O)[C@@H](O)[C@@H]2O)c(-c2ccc(O)c(O)c2)oc2cc(O)cc(O)c12
REMARK SMILES IDX 4 1 3 2 16 3 25 4 2 5 26 6 1 7 33 8 27 9 31 10 28 11 30 12
REMARK SMILES IDX 17 13 18 14 19 15 20 16 24 17 22 18 21 19 23 21 32 23 29 25
REMARK SMILES IDX 5 27 14 28 6 29 12 30 7 31 10 32 15 33 13 35 8 37 9 38 11 40
REMARK H PARENT 21 20 23 22 32 24 29 26 15 34 13 36 9 39 11 41
REMARK Flexibility Score: inf
ROOT
ATOM      1  O   UNL     1      19.356  35.410  44.034  1.00  0.00    -0.454 OA
ENDROOT
BRANCH   1   2
ATOM      2  C   UNL     1      18.485  34.301  44.017  1.00  0.00     0.214 A 
ATOM      3  C   UNL     1      18.574  33.403  42.934  1.00  0.00     0.180 A 
ATOM      4  O   UNL     1      17.827  32.304  42.910  1.00  0.00    -0.452 OA
ATOM      5  C   UNL     1      17.559  34.014  45.045  1.00  0.00     0.239 A 
ATOM      6  C   UNL     1      16.947  32.001  43.854  1.00  0.00     0.146 A 
ATOM      7  O   UNL     1      17.460  34.777  46.041  1.00  0.00    -0.285 OA
ATOM      8  C   UNL     1      16.761  32.853  44.964  1.00  0.00     0.111 A 
ATOM      9  C   UNL     1      16.200  30.825  43.733  1.00  0.00     0.094 A 
ATOM     10  C   UNL     1      15.798  32.506  45.943  1.00  0.00     0.134 A 
ATOM     11  C   UNL     1      15.255  30.485  44.705  1.00  0.00     0.123 A 
ATOM     12  C   UNL     1      15.055  31.325  45.803  1.00  0.00     0.093 A 
BRANCH   3  13
ATOM     13  C   UNL     1      19.491  33.644  41.798  1.00  0.00     0.025 A 
ATOM     14  C   UNL     1      19.060  34.414  40.708  1.00  0.00     0.016 A 
ATOM     15  C   UNL     1      19.923  34.668  39.639  1.00  0.00     0.051 A 
ATOM     16  C   UNL     1      21.229  34.170  39.649  1.00  0.00     0.157 A 
ATOM     17  C   UNL     1      20.812  33.164  41.820  1.00  0.00     0.062 A 
ATOM     18  C   UNL     1      21.679  33.416  40.748  1.00  0.00     0.158 A 
BRANCH  16  19
ATOM     19  O   UNL     1      22.067  34.437  38.567  1.00  0.00    -0.504 OA
ATOM     20  H   UNL     1      21.850  35.149  37.881  1.00  0.00     0.293 HD
ENDBRANCH  16  19
BRANCH  18  21
ATOM     21  O   UNL     1      22.984  32.927  40.773  1.00  0.00    -0.504 OA
ATOM     22  H   UNL     1      23.355  32.367  40.014  1.00  0.00     0.293 HD
ENDBRANCH  18  21
ENDBRANCH   3  13
BRANCH  10  23
ATOM     23  O   UNL     1      15.570  33.326  47.050  1.00  0.00    -0.507 OA
ATOM     24  H   UNL     1      16.324  33.822  47.510  1.00  0.00     0.293 HD
ENDBRANCH  10  23
BRANCH  11  25
ATOM     25  O   UNL     1      14.506  29.317  44.589  1.00  0.00    -0.508 OA
ATOM     26  H   UNL     1      13.737  29.115  45.218  1.00  0.00     0.293 HD
ENDBRANCH  11  25
ENDBRANCH   1   2
BRANCH   1  27
ATOM     27  C   UNL     1      20.667  35.478  44.598  1.00  0.00     0.339 C 
ATOM     28  C   UNL     1      20.714  36.630  45.635  1.00  0.00     0.214 C 
ATOM     29  O   UNL     1      20.978  34.245  45.223  1.00  0.00    -0.332 OA
ATOM     30  C   UNL     1      21.843  36.427  46.674  1.00  0.00     0.180 C 
ATOM     31  C   UNL     1      22.340  34.174  45.646  1.00  0.00     0.179 C 
ATOM     32  C   UNL     1      22.950  35.537  46.090  1.00  0.00     0.177 C 
BRANCH  28  33
ATOM     33  O   UNL     1      19.477  36.788  46.288  1.00  0.00    -0.384 OA
ATOM     34  H   UNL     1      19.161  37.713  46.109  1.00  0.00     0.211 HD
ENDBRANCH  28  33
BRANCH  30  35
ATOM     35  O   UNL     1      22.365  37.679  47.042  1.00  0.00    -0.387 OA
ATOM     36  H   UNL     1      22.937  37.533  47.839  1.00  0.00     0.211 HD
ENDBRANCH  30  35
BRANCH  31  37
ATOM     37  C   UNL     1      23.194  33.486  44.568  1.00  0.00     0.191 C 
BRANCH  37  38
ATOM     38  O   UNL     1      24.165  34.363  44.065  1.00  0.00    -0.394 OA
ATOM     39  H   UNL     1      23.679  35.100  43.615  1.00  0.00     0.210 HD
ENDBRANCH  37  38
ENDBRANCH  31  37
BRANCH  32  40
ATOM     40  O   UNL     1      23.944  35.311  47.059  1.00  0.00    -0.387 OA
ATOM     41  H   UNL     1      23.481  35.096  47.910  1.00  0.00     0.211 HD
ENDBRANCH  32  40
ENDBRANCH   1  27
TORSDOF 12
ENDMDL
MODEL 3
REMARK VINA RESULT:    -4.261      1.963      5.138
REMARK INTER + INTRA:          -8.059
REMARK INTER:                  -7.072
REMARK INTRA:                  -0.987
REMARK UNBOUND:                -1.805
REMARK SMILES O=c1c(O[C@@H]2O[C@@H](CO)[C@H](O)[C@@H](O)[C@@H]2O)c(-c2ccc(O)c(O)c2)oc2cc(O)cc(O)c12
REMARK SMILES IDX 4 1 3 2 16 3 25 4 2 5 26 6 1 7 33 8 27 9 31 10 28 11 30 12
REMARK SMILES IDX 17 13 18 14 19 15 20 16 24 17 22 18 21 19 23 21 32 23 29 25
REMARK SMILES IDX 5 27 14 28 6 29 12 30 7 31 10 32 15 33 13 35 8 37 9 38 11 40
REMARK H PARENT 21 20 23 22 32 24 29 26 15 34 13 36 9 39 11 41
REMARK Flexibility Score: inf
ROOT
ATOM      1  O   UNL     1      19.749  33.833  43.917  1.00  0.00    -0.454 OA
ENDROOT
BRANCH   1   2
ATOM      2  C   UNL     1      18.638  34.034  43.073  1.00  0.00     0.214 A 
ATOM      3  C   UNL     1      18.817  33.854  41.686  1.00  0.00     0.180 A 
ATOM      4  O   UNL     1      17.784  33.960  40.856  1.00  0.00    -0.452 OA
ATOM      5  C   UNL     1      17.346  34.362  43.540  1.00  0.00     0.239 A 
ATOM      6  C   UNL     1      16.558  34.266  41.255  1.00  0.00     0.146 A 
ATOM      7  O   UNL     1      17.134  34.511  44.772  1.00  0.00    -0.285 OA
ATOM      8  C   UNL     1      16.282  34.497  42.621  1.00  0.00     0.111 A 
ATOM      9  C   UNL     1      15.539  34.364  40.303  1.00  0.00     0.094 A 
ATOM     10  C   UNL     1      14.964  34.841  43.008  1.00  0.00     0.134 A 
ATOM     11  C   UNL     1      14.238  34.699  40.692  1.00  0.00     0.123 A 
ATOM     12  C   UNL     1      13.956  34.939  42.038  1.00  0.00     0.093 A 
BRANCH   3  13
ATOM     13  C   UNL     1      20.143  33.544  41.107  1.00  0.00     0.025 A 
ATOM     14  C   UNL     1      20.868  32.441  41.581  1.00  0.00     0.016 A 
ATOM     15  C   UNL     1      22.112  32.124  41.028  1.00  0.00     0.051 A 
ATOM     16  C   UNL     1      22.642  32.894  39.989  1.00  0.00     0.157 A 
ATOM     17  C   UNL     1      20.665  34.304  40.046  1.00  0.00     0.062 A 
ATOM     18  C   UNL     1      21.913  33.989  39.491  1.00  0.00     0.158 A 
BRANCH  16  19
ATOM     19  O   UNL     1      23.887  32.556  39.459  1.00  0.00    -0.504 OA
ATOM     20  H   UNL     1      24.051  32.504  38.462  1.00  0.00     0.293 HD
ENDBRANCH  16  19
BRANCH  18  21
ATOM     21  O   UNL     1      22.429  34.755  38.447  1.00  0.00    -0.504 OA
ATOM     22  H   UNL     1      23.193  34.422  37.872  1.00  0.00     0.293 HD
ENDBRANCH  18  21
ENDBRANCH   3  13
BRANCH  10  23
ATOM     23  O   UNL     1      14.649  35.092  44.345  1.00  0.00    -0.507 OA
ATOM     24  H   UNL     1      13.703  35.305  44.639  1.00  0.00     0.293 HD
ENDBRANCH  10  23
BRANCH  11  25
ATOM     25  O   UNL     1      13.219  34.800  39.748  1.00  0.00    -0.508 OA
ATOM     26  H   UNL     1      13.034  35.669  39.258  1.00  0.00     0.293 HD
ENDBRANCH  11  25
ENDBRANCH   1   2
BRANCH   1  27
ATOM     27  C   UNL     1      20.286  34.742  44.880  1.00  0.00     0.339 C 
ATOM     28  C   UNL     1      21.628  34.179  45.415  1.00  0.00     0.214 C 
ATOM     29  O   UNL     1      20.493  36.005  44.274  1.00  0.00    -0.332 OA
ATOM     30  C   UNL     1      22.535  35.295  45.988  1.00  0.00     0.180 C 
ATOM     31  C   UNL     1      20.852  37.013  45.219  1.00  0.00     0.179 C 
ATOM     32  C   UNL     1      21.687  36.497  46.428  1.00  0.00     0.177 C 
BRANCH  28  33
ATOM     33  O   UNL     1      22.317  33.456  44.424  1.00  0.00    -0.384 OA
ATOM     34  H   UNL     1      23.042  32.946  44.875  1.00  0.00     0.211 HD
ENDBRANCH  28  33
BRANCH  30  35
ATOM     35  O   UNL     1      23.265  34.786  47.076  1.00  0.00    -0.387 OA
ATOM     36  H   UNL     1      23.553  33.869  46.829  1.00  0.00     0.211 HD
ENDBRANCH  30  35
BRANCH  31  37
ATOM     37  C   UNL     1      19.600  37.784  45.671  1.00  0.00     0.191 C 
BRANCH  37  38
ATOM     38  O   UNL     1      19.510  37.813  47.070  1.00  0.00    -0.394 OA
ATOM     39  H   UNL     1      19.804  36.923  47.394  1.00  0.00     0.210 HD
ENDBRANCH  37  38
ENDBRANCH  31  37
BRANCH  32  40
ATOM     40  O   UNL     1      22.523  37.528  46.894  1.00  0.00    -0.387 OA
ATOM     41  H   UNL     1      22.859  37.253  47.786  1.00  0.00     0.211 HD
ENDBRANCH  32  40
ENDBRANCH   1  27
TORSDOF 12
ENDMDL
MODEL 4
REMARK VINA RESULT:    -4.144      3.082      5.726
REMARK INTER + INTRA:          -7.888
REMARK INTER:                  -6.146
REMARK INTRA:                  -1.742
REMARK UNBOUND:                -1.805
REMARK SMILES O=c1c(O[C@@H]2O[C@@H](CO)[C@H](O)[C@@H](O)[C@@H]2O)c(-c2ccc(O)c(O)c2)oc2cc(O)cc(O)c12
REMARK SMILES IDX 4 1 3 2 16 3 25 4 2 5 26 6 1 7 33 8 27 9 31 10 28 11 30 12
REMARK SMILES IDX 17 13 18 14 19 15 20 16 24 17 22 18 21 19 23 21 32 23 29 25
REMARK SMILES IDX 5 27 14 28 6 29 12 30 7 31 10 32 15 33 13 35 8 37 9 38 11 40
REMARK H PARENT 21 20 23 22 32 24 29 26 15 34 13 36 9 39 11 41
REMARK Flexibility Score: inf
ROOT
ATOM      1  O   UNL     1      21.481  33.314  43.060  1.00  0.00    -0.454 OA
ENDROOT
BRANCH   1   2
ATOM      2  C   UNL     1      22.128  33.206  41.812  1.00  0.00     0.214 A 
ATOM      3  C   UNL     1      23.430  32.665  41.784  1.00  0.00     0.180 A 
ATOM      4  O   UNL     1      24.053  32.474  40.626  1.00  0.00    -0.452 OA
ATOM      5  C   UNL     1      21.532  33.569  40.584  1.00  0.00     0.239 A 
ATOM      6  C   UNL     1      23.527  32.801  39.454  1.00  0.00     0.146 A 
ATOM      7  O   UNL     1      20.364  34.036  40.559  1.00  0.00    -0.285 OA
ATOM      8  C   UNL     1      22.241  33.379  39.378  1.00  0.00     0.111 A 
ATOM      9  C   UNL     1      24.267  32.569  38.290  1.00  0.00     0.094 A 
ATOM     10  C   UNL     1      21.720  33.733  38.110  1.00  0.00     0.134 A 
ATOM     11  C   UNL     1      23.745  32.916  37.040  1.00  0.00     0.123 A 
ATOM     12  C   UNL     1      22.478  33.498  36.954  1.00  0.00     0.093 A 
BRANCH   3  13
ATOM     13  C   UNL     1      24.143  32.292  43.025  1.00  0.00     0.025 A 
ATOM     14  C   UNL     1      24.143  30.956  43.453  1.00  0.00     0.016 A 
ATOM     15  C   UNL     1      24.831  30.586  44.612  1.00  0.00     0.051 A 
ATOM     16  C   UNL     1      25.538  31.540  45.351  1.00  0.00     0.157 A 
ATOM     17  C   UNL     1      24.874  33.246  43.755  1.00  0.00     0.062 A 
ATOM     18  C   UNL     1      25.563  32.878  44.918  1.00  0.00     0.158 A 
BRANCH  16  19
ATOM     19  O   UNL     1      26.213  31.142  46.505  1.00  0.00    -0.504 OA
ATOM     20  H   UNL     1      25.752  31.081  47.403  1.00  0.00     0.293 HD
ENDBRANCH  16  19
BRANCH  18  21
ATOM     21  O   UNL     1      26.276  33.832  45.642  1.00  0.00    -0.504 OA
ATOM     22  H   UNL     1      26.713  34.626  45.187  1.00  0.00     0.293 HD
ENDBRANCH  18  21
ENDBRANCH   3  13
BRANCH  10  23
ATOM     23  O   UNL     1      20.459  34.321  37.989  1.00  0.00    -0.507 OA
ATOM     24  H   UNL     1      19.861  34.469  38.793  1.00  0.00     0.293 HD
ENDBRANCH  10  23
BRANCH  11  25
ATOM     25  O   UNL     1      24.478  32.691  35.878  1.00  0.00    -0.508 OA
ATOM     26  H   UNL     1      24.336  33.251  35.045  1.00  0.00     0.293 HD
ENDBRANCH  11  25
ENDBRANCH   1   2
BRANCH   1  27
ATOM     27  C   UNL     1      21.647  34.341  44.040  1.00  0.00     0.339 C 
ATOM     28  C   UNL     1      20.733  35.540  43.678  1.00  0.00     0.214 C 
ATOM     29  O   UNL     1      21.306  33.835  45.318  1.00  0.00    -0.332 OA
ATOM     30  C   UNL     1      20.406  36.413  44.914  1.00  0.00     0.180 C 
ATOM     31  C   UNL     1      21.624  34.746  46.370  1.00  0.00     0.179 C 
ATOM     32  C   UNL     1      21.497  36.250  45.983  1.00  0.00     0.177 C 
BRANCH  28  33
ATOM     33  O   UNL     1      19.543  35.114  43.058  1.00  0.00    -0.384 OA
ATOM     34  H   UNL     1      19.792  34.686  42.196  1.00  0.00     0.211 HD
ENDBRANCH  28  33
BRANCH  30  35
ATOM     35  O   UNL     1      20.305  37.757  44.519  1.00  0.00    -0.387 OA
ATOM     36  H   UNL     1      19.338  37.974  44.471  1.00  0.00     0.211 HD
ENDBRANCH  30  35
BRANCH  31  37
ATOM     37  C   UNL     1      23.008  34.418  46.954  1.00  0.00     0.191 C 
BRANCH  37  38
ATOM     38  O   UNL     1      23.855  35.533  46.888  1.00  0.00    -0.394 OA
ATOM     39  H   UNL     1      24.682  35.237  46.428  1.00  0.00     0.210 HD
ENDBRANCH  37  38
ENDBRANCH  31  37
BRANCH  32  40
ATOM     40  O   UNL     1      21.164  37.001  47.125  1.00  0.00    -0.387 OA
ATOM     41  H   UNL     1      20.839  36.363  47.811  1.00  0.00     0.211 HD
ENDBRANCH  32  40
ENDBRANCH   1  27
TORSDOF 12
ENDMDL
MODEL 5
REMARK VINA RESULT:    -4.115      2.941      5.168
REMARK INTER + INTRA:          -7.845
REMARK INTER:                  -6.251
REMARK INTRA:                  -1.594
REMARK UNBOUND:                -1.805
REMARK SMILES O=c1c(O[C@@H]2O[C@@H](CO)[C@H](O)[C@@H](O)[C@@H]2O)c(-c2ccc(O)c(O)c2)oc2cc(O)cc(O)c12
REMARK SMILES IDX 4 1 3 2 16 3 25 4 2 5 26 6 1 7 33 8 27 9 31 10 28 11 30 12
REMARK SMILES IDX 17 13 18 14 19 15 20 16 24 17 22 18 21 19 23 21 32 23 29 25
REMARK SMILES IDX 5 27 14 28 6 29 12 30 7 31 10 32 15 33 13 35 8 37 9 38 11 40
REMARK H PARENT 21 20 23 22 32 24 29 26 15 34 13 36 9 39 11 41
REMARK Flexibility Score: inf
ROOT
ATOM      1  O   UNL     1      21.479  33.111  43.342  1.00  0.00    -0.454 OA
ENDROOT
BRANCH   1   2
ATOM      2  C   UNL     1      22.416  32.888  42.313  1.00  0.00     0.214 A 
ATOM      3  C   UNL     1      21.955  32.901  40.980  1.00  0.00     0.180 A 
ATOM      4  O   UNL     1      22.811  32.770  39.972  1.00  0.00    -0.452 OA
ATOM      5  C   UNL     1      23.798  32.695  42.536  1.00  0.00     0.239 A 
ATOM      6  C   UNL     1      24.112  32.587  40.141  1.00  0.00     0.146 A 
ATOM      7  O   UNL     1      24.257  32.697  43.708  1.00  0.00    -0.285 OA
ATOM      8  C   UNL     1      24.668  32.527  41.438  1.00  0.00     0.111 A 
ATOM      9  C   UNL     1      24.930  32.449  39.015  1.00  0.00     0.094 A 
ATOM     10  C   UNL     1      26.061  32.311  41.580  1.00  0.00     0.134 A 
ATOM     11  C   UNL     1      26.305  32.241  39.162  1.00  0.00     0.123 A 
ATOM     12  C   UNL     1      26.864  32.170  40.440  1.00  0.00     0.093 A 
BRANCH   3  13
ATOM     13  C   UNL     1      20.520  33.061  40.656  1.00  0.00     0.025 A 
ATOM     14  C   UNL     1      19.667  31.950  40.711  1.00  0.00     0.016 A 
ATOM     15  C   UNL     1      18.305  32.091  40.429  1.00  0.00     0.051 A 
ATOM     16  C   UNL     1      17.776  33.344  40.103  1.00  0.00     0.157 A 
ATOM     17  C   UNL     1      19.984  34.325  40.352  1.00  0.00     0.062 A 
ATOM     18  C   UNL     1      18.619  34.469  40.067  1.00  0.00     0.158 A 
BRANCH  16  19
ATOM     19  O   UNL     1      16.414  33.454  39.824  1.00  0.00    -0.504 OA
ATOM     20  H   UNL     1      15.779  32.672  39.923  1.00  0.00     0.293 HD
ENDBRANCH  16  19
BRANCH  18  21
ATOM     21  O   UNL     1      18.097  35.723  39.756  1.00  0.00    -0.504 OA
ATOM     22  H   UNL     1      17.410  35.844  39.021  1.00  0.00     0.293 HD
ENDBRANCH  18  21
ENDBRANCH   3  13
BRANCH  10  23
ATOM     23  O   UNL     1      26.651  32.230  42.843  1.00  0.00    -0.507 OA
ATOM     24  H   UNL     1      27.195  31.424  43.127  1.00  0.00     0.293 HD
ENDBRANCH  10  23
BRANCH  11  25
ATOM     25  O   UNL     1      27.125  32.100  38.045  1.00  0.00    -0.508 OA
ATOM     26  H   UNL     1      27.385  32.896  37.475  1.00  0.00     0.293 HD
ENDBRANCH  11  25
ENDBRANCH   1   2
BRANCH   1  27
ATOM     27  C   UNL     1      21.290  34.306  44.102  1.00  0.00     0.339 C 
ATOM     28  C   UNL     1      19.847  34.829  43.875  1.00  0.00     0.214 C 
ATOM     29  O   UNL     1      21.498  34.031  45.476  1.00  0.00    -0.332 OA
ATOM     30  C   UNL     1      19.369  35.731  45.039  1.00  0.00     0.180 C 
ATOM     31  C   UNL     1      21.510  35.214  46.275  1.00  0.00     0.179 C 
ATOM     32  C   UNL     1      20.574  36.349  45.762  1.00  0.00     0.177 C 
BRANCH  28  33
ATOM     33  O   UNL     1      18.939  33.771  43.677  1.00  0.00    -0.384 OA
ATOM     34  H   UNL     1      19.280  33.223  42.921  1.00  0.00     0.211 HD
ENDBRANCH  28  33
BRANCH  30  35
ATOM     35  O   UNL     1      18.533  36.739  44.529  1.00  0.00    -0.387 OA
ATOM     36  H   UNL     1      17.598  36.462  44.714  1.00  0.00     0.211 HD
ENDBRANCH  30  35
BRANCH  31  37
ATOM     37  C   UNL     1      22.953  35.705  46.473  1.00  0.00     0.191 C 
BRANCH  37  38
ATOM     38  O   UNL     1      22.992  37.099  46.615  1.00  0.00    -0.394 OA
ATOM     39  H   UNL     1      23.850  37.317  47.061  1.00  0.00     0.210 HD
ENDBRANCH  37  38
ENDBRANCH  31  37
BRANCH  32  40
ATOM     40  O   UNL     1      20.133  37.121  46.852  1.00  0.00    -0.387 OA
ATOM     41  H   UNL     1      19.824  37.991  46.490  1.00  0.00     0.211 HD
ENDBRANCH  32  40
ENDBRANCH   1  27
TORSDOF 12
ENDMDL
MODEL 6
REMARK VINA RESULT:    -3.923      2.412      4.903
REMARK INTER + INTRA:          -7.564
REMARK INTER:                  -5.781
REMARK INTRA:                  -1.783
REMARK UNBOUND:                -1.805
REMARK SMILES O=c1c(O[C@@H]2O[C@@H](CO)[C@H](O)[C@@H](O)[C@@H]2O)c(-c2ccc(O)c(O)c2)oc2cc(O)cc(O)c12
REMARK SMILES IDX 4 1 3 2 16 3 25 4 2 5 26 6 1 7 33 8 27 9 31 10 28 11 30 12
REMARK SMILES IDX 17 13 18 14 19 15 20 16 24 17 22 18 21 19 23 21 32 23 29 25
REMARK SMILES IDX 5 27 14 28 6 29 12 30 7 31 10 32 15 33 13 35 8 37 9 38 11 40
REMARK H PARENT 21 20 23 22 32 24 29 26 15 34 13 36 9 39 11 41
REMARK Flexibility Score: inf
ROOT
ATOM      1  O   UNL     1      19.696  33.743  43.656  1.00  0.00    -0.454 OA
ENDROOT
BRANCH   1   2
ATOM      2  C   UNL     1      19.397  33.761  42.278  1.00  0.00     0.214 A 
ATOM      3  C   UNL     1      20.227  33.023  41.409  1.00  0.00     0.180 A 
ATOM      4  O   UNL     1      19.944  32.949  40.113  1.00  0.00    -0.452 OA
ATOM      5  C   UNL     1      18.290  34.442  41.723  1.00  0.00     0.239 A 
ATOM      6  C   UNL     1      18.916  33.572  39.555  1.00  0.00     0.146 A 
ATOM      7  O   UNL     1      17.511  35.096  42.464  1.00  0.00    -0.285 OA
ATOM      8  C   UNL     1      18.044  34.363  40.336  1.00  0.00     0.111 A 
ATOM      9  C   UNL     1      18.708  33.440  38.178  1.00  0.00     0.094 A 
ATOM     10  C   UNL     1      16.967  35.030  39.702  1.00  0.00     0.134 A 
ATOM     11  C   UNL     1      17.639  34.097  37.559  1.00  0.00     0.123 A 
ATOM     12  C   UNL     1      16.777  34.890  38.320  1.00  0.00     0.093 A 
BRANCH   3  13
ATOM     13  C   UNL     1      21.427  32.311  41.899  1.00  0.00     0.025 A 
ATOM     14  C   UNL     1      21.319  30.980  42.330  1.00  0.00     0.016 A 
ATOM     15  C   UNL     1      22.449  30.289  42.775  1.00  0.00     0.051 A 
ATOM     16  C   UNL     1      23.701  30.909  42.783  1.00  0.00     0.157 A 
ATOM     17  C   UNL     1      22.691  32.927  41.885  1.00  0.00     0.062 A 
ATOM     18  C   UNL     1      23.825  32.235  42.332  1.00  0.00     0.158 A 
BRANCH  16  19
ATOM     19  O   UNL     1      24.810  30.195  43.235  1.00  0.00    -0.504 OA
ATOM     20  H   UNL     1      25.531  30.622  43.803  1.00  0.00     0.293 HD
ENDBRANCH  16  19
BRANCH  18  21
ATOM     21  O   UNL     1      25.072  32.858  42.326  1.00  0.00    -0.504 OA
ATOM     22  H   UNL     1      25.275  33.632  41.704  1.00  0.00     0.293 HD
ENDBRANCH  18  21
ENDBRANCH   3  13
BRANCH  10  23
ATOM     23  O   UNL     1      16.090  35.834  40.432  1.00  0.00    -0.507 OA
ATOM     24  H   UNL     1      15.277  35.449  40.898  1.00  0.00     0.293 HD
ENDBRANCH  10  23
BRANCH  11  25
ATOM     25  O   UNL     1      17.428  33.972  36.188  1.00  0.00    -0.508 OA
ATOM     26  H   UNL     1      17.754  33.162  35.674  1.00  0.00     0.293 HD
ENDBRANCH  11  25
ENDBRANCH   1   2
BRANCH   1  27
ATOM     27  C   UNL     1      20.707  34.488  44.337  1.00  0.00     0.339 C 
ATOM     28  C   UNL     1      20.111  35.841  44.805  1.00  0.00     0.214 C 
ATOM     29  O   UNL     1      21.171  33.747  45.452  1.00  0.00    -0.332 OA
ATOM     30  C   UNL     1      20.899  36.439  45.996  1.00  0.00     0.180 C 
ATOM     31  C   UNL     1      22.310  34.346  46.071  1.00  0.00     0.179 C 
ATOM     32  C   UNL     1      22.337  35.902  46.006  1.00  0.00     0.177 C 
BRANCH  28  33
ATOM     33  O   UNL     1      18.749  35.719  45.137  1.00  0.00    -0.384 OA
ATOM     34  H   UNL     1      18.598  34.784  45.438  1.00  0.00     0.211 HD
ENDBRANCH  28  33
BRANCH  30  35
ATOM     35  O   UNL     1      20.900  37.841  45.893  1.00  0.00    -0.387 OA
ATOM     36  H   UNL     1      20.862  38.061  44.926  1.00  0.00     0.211 HD
ENDBRANCH  30  35
BRANCH  31  37
ATOM     37  C   UNL     1      23.602  33.724  45.515  1.00  0.00     0.191 C 
BRANCH  37  38
ATOM     38  O   UNL     1      24.284  34.637  44.698  1.00  0.00    -0.394 OA
ATOM     39  H   UNL     1      23.594  35.152  44.207  1.00  0.00     0.210 HD
ENDBRANCH  37  38
ENDBRANCH  31  37
BRANCH  32  40
ATOM     40  O   UNL     1      23.028  36.405  47.123  1.00  0.00    -0.387 OA
ATOM     41  H   UNL     1      23.976  36.522  46.854  1.00  0.00     0.211 HD
ENDBRANCH  32  40
ENDBRANCH   1  27
TORSDOF 12
ENDMDL
MODEL 7
REMARK VINA RESULT:    -3.914      2.481      5.448
REMARK INTER + INTRA:          -7.550
REMARK INTER:                  -6.526
REMARK INTRA:                  -1.024
REMARK UNBOUND:                -1.805
REMARK SMILES O=c1c(O[C@@H]2O[C@@H](CO)[C@H](O)[C@@H](O)[C@@H]2O)c(-c2ccc(O)c(O)c2)oc2cc(O)cc(O)c12
REMARK SMILES IDX 4 1 3 2 16 3 25 4 2 5 26 6 1 7 33 8 27 9 31 10 28 11 30 12
REMARK SMILES IDX 17 13 18 14 19 15 20 16 24 17 22 18 21 19 23 21 32 23 29 25
REMARK SMILES IDX 5 27 14 28 6 29 12 30 7 31 10 32 15 33 13 35 8 37 9 38 11 40
REMARK H PARENT 21 20 23 22 32 24 29 26 15 34 13 36 9 39 11 41
REMARK Flexibility Score: inf
ROOT
ATOM      1  O   UNL     1      18.442  34.183  43.714  1.00  0.00    -0.454 OA
ENDROOT
BRANCH   1   2
ATOM      2  C   UNL     1      17.553  34.465  42.656  1.00  0.00     0.214 A 
ATOM      3  C   UNL     1      17.996  34.237  41.337  1.00  0.00     0.180 A 
ATOM      4  O   UNL     1      17.172  34.417  40.310  1.00  0.00    -0.452 OA
ATOM      5  C   UNL     1      16.229  34.920  42.843  1.00  0.00     0.239 A 
ATOM      6  C   UNL     1      15.924  34.843  40.445  1.00  0.00     0.146 A 
ATOM      7  O   UNL     1      15.783  35.117  44.003  1.00  0.00    -0.285 OA
ATOM      8  C   UNL     1      15.395  35.129  41.723  1.00  0.00     0.111 A 
ATOM      9  C   UNL     1      15.137  35.010  39.301  1.00  0.00     0.094 A 
ATOM     10  C   UNL     1      14.064  35.601  41.826  1.00  0.00     0.134 A 
ATOM     11  C   UNL     1      13.822  35.471  39.410  1.00  0.00     0.123 A 
ATOM     12  C   UNL     1      13.291  35.767  40.668  1.00  0.00     0.093 A 
BRANCH   3  13
ATOM     13  C   UNL     1      19.378  33.794  41.048  1.00  0.00     0.025 A 
ATOM     14  C   UNL     1      19.883  32.641  41.666  1.00  0.00     0.016 A 
ATOM     15  C   UNL     1      21.179  32.200  41.386  1.00  0.00     0.051 A 
ATOM     16  C   UNL     1      21.982  32.893  40.476  1.00  0.00     0.157 A 
ATOM     17  C   UNL     1      20.177  34.478  40.114  1.00  0.00     0.062 A 
ATOM     18  C   UNL     1      21.478  34.038  39.833  1.00  0.00     0.158 A 
BRANCH  16  19
ATOM     19  O   UNL     1      23.272  32.430  40.217  1.00  0.00    -0.504 OA
ATOM     20  H   UNL     1      24.093  32.890  40.588  1.00  0.00     0.293 HD
ENDBRANCH  16  19
BRANCH  18  21
ATOM     21  O   UNL     1      22.267  34.728  38.915  1.00  0.00    -0.504 OA
ATOM     22  H   UNL     1      22.524  35.698  39.059  1.00  0.00     0.293 HD
ENDBRANCH  18  21
ENDBRANCH   3  13
BRANCH  10  23
ATOM     23  O   UNL     1      13.505  35.911  43.067  1.00  0.00    -0.507 OA
ATOM     24  H   UNL     1      12.538  35.698  43.285  1.00  0.00     0.293 HD
ENDBRANCH  10  23
BRANCH  11  25
ATOM     25  O   UNL     1      13.034  35.643  38.275  1.00  0.00    -0.508 OA
ATOM     26  H   UNL     1      12.047  35.866  38.343  1.00  0.00     0.293 HD
ENDBRANCH  11  25
ENDBRANCH   1   2
BRANCH   1  27
ATOM     27  C   UNL     1      19.560  34.964  44.141  1.00  0.00     0.339 C 
ATOM     28  C   UNL     1      19.048  36.175  44.963  1.00  0.00     0.214 C 
ATOM     29  O   UNL     1      20.420  34.164  44.933  1.00  0.00    -0.332 OA
ATOM     30  C   UNL     1      20.134  36.726  45.918  1.00  0.00     0.180 C 
ATOM     31  C   UNL     1      21.649  34.822  45.241  1.00  0.00     0.179 C 
ATOM     32  C   UNL     1      21.533  36.368  45.396  1.00  0.00     0.177 C 
BRANCH  28  33
ATOM     33  O   UNL     1      17.884  35.853  45.687  1.00  0.00    -0.384 OA
ATOM     34  H   UNL     1      17.622  34.929  45.435  1.00  0.00     0.211 HD
ENDBRANCH  28  33
BRANCH  30  35
ATOM     35  O   UNL     1      19.993  38.120  46.025  1.00  0.00    -0.387 OA
ATOM     36  H   UNL     1      19.657  38.446  45.149  1.00  0.00     0.211 HD
ENDBRANCH  30  35
BRANCH  31  37
ATOM     37  C   UNL     1      22.731  34.426  44.222  1.00  0.00     0.191 C 
BRANCH  37  38
ATOM     38  O   UNL     1      24.004  34.802  44.673  1.00  0.00    -0.394 OA
ATOM     39  H   UNL     1      24.652  34.484  43.995  1.00  0.00     0.210 HD
ENDBRANCH  37  38
ENDBRANCH  31  37
BRANCH  32  40
ATOM     40  O   UNL     1      22.512  36.822  46.298  1.00  0.00    -0.387 OA
ATOM     41  H   UNL     1      23.386  36.480  45.980  1.00  0.00     0.211 HD
ENDBRANCH  32  40
ENDBRANCH   1  27
TORSDOF 12
ENDMDL
MODEL 8
REMARK VINA RESULT:    -3.892      2.939      6.818
REMARK INTER + INTRA:          -7.517
REMARK INTER:                  -5.752
REMARK INTRA:                  -1.765
REMARK UNBOUND:                -1.805
REMARK SMILES O=c1c(O[C@@H]2O[C@@H](CO)[C@H](O)[C@@H](O)[C@@H]2O)c(-c2ccc(O)c(O)c2)oc2cc(O)cc(O)c12
REMARK SMILES IDX 4 1 3 2 16 3 25 4 2 5 26 6 1 7 33 8 27 9 31 10 28 11 30 12
REMARK SMILES IDX 17 13 18 14 19 15 20 16 24 17 22 18 21 19 23 21 32 23 29 25
REMARK SMILES IDX 5 27 14 28 6 29 12 30 7 31 10 32 15 33 13 35 8 37 9 38 11 40
REMARK H PARENT 21 20 23 22 32 24 29 26 15 34 13 36 9 39 11 41
REMARK Flexibility Score: inf
ROOT
ATOM      1  O   UNL     1      22.055  33.969  42.507  1.00  0.00    -0.454 OA
ENDROOT
BRANCH   1   2
ATOM      2  C   UNL     1      22.315  32.868  43.348  1.00  0.00     0.214 A 
ATOM      3  C   UNL     1      21.974  32.978  44.712  1.00  0.00     0.180 A 
ATOM      4  O   UNL     1      22.131  31.943  45.529  1.00  0.00    -0.452 OA
ATOM      5  C   UNL     1      22.859  31.645  42.895  1.00  0.00     0.239 A 
ATOM      6  C   UNL     1      22.637  30.780  45.143  1.00  0.00     0.146 A 
ATOM      7  O   UNL     1      23.159  31.494  41.682  1.00  0.00    -0.285 OA
ATOM      8  C   UNL     1      23.040  30.580  43.804  1.00  0.00     0.111 A 
ATOM      9  C   UNL     1      22.772  29.753  46.082  1.00  0.00     0.094 A 
ATOM     10  C   UNL     1      23.594  29.331  43.432  1.00  0.00     0.134 A 
ATOM     11  C   UNL     1      23.315  28.520  45.707  1.00  0.00     0.123 A 
ATOM     12  C   UNL     1      23.726  28.314  44.389  1.00  0.00     0.093 A 
BRANCH   3  13
ATOM     13  C   UNL     1      21.433  34.234  45.278  1.00  0.00     0.025 A 
ATOM     14  C   UNL     1      20.046  34.396  45.411  1.00  0.00     0.016 A 
ATOM     15  C   UNL     1      19.523  35.568  45.964  1.00  0.00     0.051 A 
ATOM     16  C   UNL     1      20.375  36.586  46.403  1.00  0.00     0.157 A 
ATOM     17  C   UNL     1      22.291  35.247  45.742  1.00  0.00     0.062 A 
ATOM     18  C   UNL     1      21.768  36.424  46.295  1.00  0.00     0.158 A 
BRANCH  16  19
ATOM     19  O   UNL     1      19.824  37.745  46.949  1.00  0.00    -0.504 OA
ATOM     20  H   UNL     1      20.398  38.516  47.266  1.00  0.00     0.293 HD
ENDBRANCH  16  19
BRANCH  18  21
ATOM     21  O   UNL     1      22.625  37.428  46.742  1.00  0.00    -0.504 OA
ATOM     22  H   UNL     1      22.934  38.173  46.130  1.00  0.00     0.293 HD
ENDBRANCH  18  21
ENDBRANCH   3  13
BRANCH  10  23
ATOM     23  O   UNL     1      24.019  29.093  42.124  1.00  0.00    -0.507 OA
ATOM     24  H   UNL     1      24.303  29.848  41.510  1.00  0.00     0.293 HD
ENDBRANCH  10  23
BRANCH  11  25
ATOM     25  O   UNL     1      23.455  27.494  46.639  1.00  0.00    -0.508 OA
ATOM     26  H   UNL     1      22.831  26.695  46.645  1.00  0.00     0.293 HD
ENDBRANCH  11  25
ENDBRANCH   1   2
BRANCH   1  27
ATOM     27  C   UNL     1      20.858  34.241  41.775  1.00  0.00     0.339 C 
ATOM     28  C   UNL     1      21.203  34.365  40.268  1.00  0.00     0.214 C 
ATOM     29  O   UNL     1      19.930  33.191  41.979  1.00  0.00    -0.332 OA
ATOM     30  C   UNL     1      19.974  34.086  39.369  1.00  0.00     0.180 C 
ATOM     31  C   UNL     1      18.645  33.482  41.430  1.00  0.00     0.179 C 
ATOM     32  C   UNL     1      18.676  34.359  40.143  1.00  0.00     0.177 C 
BRANCH  28  33
ATOM     33  O   UNL     1      22.268  33.517  39.910  1.00  0.00    -0.384 OA
ATOM     34  H   UNL     1      22.111  32.639  40.349  1.00  0.00     0.211 HD
ENDBRANCH  28  33
BRANCH  30  35
ATOM     35  O   UNL     1      20.042  34.900  38.225  1.00  0.00    -0.387 OA
ATOM     36  H   UNL     1      19.139  35.288  38.090  1.00  0.00     0.211 HD
ENDBRANCH  30  35
BRANCH  31  37
ATOM     37  C   UNL     1      17.731  34.081  42.512  1.00  0.00     0.191 C 
BRANCH  37  38
ATOM     38  O   UNL     1      17.520  35.449  42.287  1.00  0.00    -0.394 OA
ATOM     39  H   UNL     1      16.599  35.650  42.594  1.00  0.00     0.210 HD
ENDBRANCH  37  38
ENDBRANCH  31  37
BRANCH  32  40
ATOM     40  O   UNL     1      17.565  34.049  39.338  1.00  0.00    -0.387 OA
ATOM     41  H   UNL     1      17.407  33.073  39.419  1.00  0.00     0.211 HD
ENDBRANCH  32  40
ENDBRANCH   1  27
TORSDOF 12
ENDMDL
MODEL 9
REMARK VINA RESULT:    -3.816      2.063      6.502
REMARK INTER + INTRA:          -7.406
REMARK INTER:                  -6.030
REMARK INTRA:                  -1.376
REMARK UNBOUND:                -1.805
REMARK SMILES O=c1c(O[C@@H]2O[C@@H](CO)[C@H](O)[C@@H](O)[C@@H]2O)c(-c2ccc(O)c(O)c2)oc2cc(O)cc(O)c12
REMARK SMILES IDX 4 1 3 2 16 3 25 4 2 5 26 6 1 7 33 8 27 9 31 10 28 11 30 12
REMARK SMILES IDX 17 13 18 14 19 15 20 16 24 17 22 18 21 19 23 21 32 23 29 25
REMARK SMILES IDX 5 27 14 28 6 29 12 30 7 31 10 32 15 33 13 35 8 37 9 38 11 40
REMARK H PARENT 21 20 23 22 32 24 29 26 15 34 13 36 9 39 11 41
REMARK Flexibility Score: inf
ROOT
ATOM      1  O   UNL     1      20.606  34.470  42.106  1.00  0.00    -0.454 OA
ENDROOT
BRANCH   1   2
ATOM      2  C   UNL     1      19.351  34.479  42.749  1.00  0.00     0.214 A 
ATOM      3  C   UNL     1      19.320  34.681  44.144  1.00  0.00     0.180 A 
ATOM      4  O   UNL     1      18.159  34.771  44.784  1.00  0.00    -0.452 OA
ATOM      5  C   UNL     1      18.119  34.341  42.069  1.00  0.00     0.239 A 
ATOM      6  C   UNL     1      16.985  34.646  44.183  1.00  0.00     0.146 A 
ATOM      7  O   UNL     1      18.097  34.180  40.821  1.00  0.00    -0.285 OA
ATOM      8  C   UNL     1      16.909  34.410  42.792  1.00  0.00     0.111 A 
ATOM      9  C   UNL     1      15.817  34.747  44.947  1.00  0.00     0.094 A 
ATOM     10  C   UNL     1      15.637  34.263  42.188  1.00  0.00     0.134 A 
ATOM     11  C   UNL     1      14.564  34.606  44.343  1.00  0.00     0.123 A 
ATOM     12  C   UNL     1      14.478  34.363  42.970  1.00  0.00     0.093 A 
BRANCH   3  13
ATOM     13  C   UNL     1      20.562  34.800  44.939  1.00  0.00     0.025 A 
ATOM     14  C   UNL     1      21.347  33.662  45.178  1.00  0.00     0.016 A 
ATOM     15  C   UNL     1      22.534  33.765  45.908  1.00  0.00     0.051 A 
ATOM     16  C   UNL     1      22.960  35.003  46.397  1.00  0.00     0.157 A 
ATOM     17  C   UNL     1      21.004  36.049  45.409  1.00  0.00     0.062 A 
ATOM     18  C   UNL     1      22.193  36.154  46.143  1.00  0.00     0.158 A 
BRANCH  16  19
ATOM     19  O   UNL     1      24.148  35.074  47.125  1.00  0.00    -0.504 OA
ATOM     20  H   UNL     1      24.228  34.701  48.062  1.00  0.00     0.293 HD
ENDBRANCH  16  19
BRANCH  18  21
ATOM     21  O   UNL     1      22.617  37.395  46.616  1.00  0.00    -0.504 OA
ATOM     22  H   UNL     1      23.583  37.690  46.540  1.00  0.00     0.293 HD
ENDBRANCH  18  21
ENDBRANCH   3  13
BRANCH  10  23
ATOM     23  O   UNL     1      15.515  34.015  40.820  1.00  0.00    -0.507 OA
ATOM     24  H   UNL     1      15.236  34.739  40.169  1.00  0.00     0.293 HD
ENDBRANCH  10  23
BRANCH  11  25
ATOM     25  O   UNL     1      13.398  34.702  45.098  1.00  0.00    -0.508 OA
ATOM     26  H   UNL     1      12.583  35.199  44.755  1.00  0.00     0.293 HD
ENDBRANCH  11  25
ENDBRANCH   1   2
BRANCH   1  27
ATOM     27  C   UNL     1      21.326  33.336  41.619  1.00  0.00     0.339 C 
ATOM     28  C   UNL     1      21.408  33.414  40.072  1.00  0.00     0.214 C 
ATOM     29  O   UNL     1      22.627  33.327  42.178  1.00  0.00    -0.332 OA
ATOM     30  C   UNL     1      22.602  32.601  39.515  1.00  0.00     0.180 C 
ATOM     31  C   UNL     1      23.340  32.125  41.883  1.00  0.00     0.179 C 
ATOM     32  C   UNL     1      22.997  31.492  40.502  1.00  0.00     0.177 C 
BRANCH  28  33
ATOM     33  O   UNL     1      21.479  34.747  39.625  1.00  0.00    -0.384 OA
ATOM     34  H   UNL     1      21.818  34.732  38.691  1.00  0.00     0.211 HD
ENDBRANCH  28  33
BRANCH  30  35
ATOM     35  O   UNL     1      22.246  32.048  38.274  1.00  0.00    -0.387 OA
ATOM     36  H   UNL     1      22.360  32.762  37.594  1.00  0.00     0.211 HD
ENDBRANCH  30  35
BRANCH  31  37
ATOM     37  C   UNL     1      23.176  31.117  43.033  1.00  0.00     0.191 C 
BRANCH  37  38
ATOM     38  O   UNL     1      22.607  29.922  42.573  1.00  0.00    -0.394 OA
ATOM     39  H   UNL     1      22.774  29.884  41.596  1.00  0.00     0.210 HD
ENDBRANCH  37  38
ENDBRANCH  31  37
BRANCH  32  40
ATOM     40  O   UNL     1      24.117  30.795  40.015  1.00  0.00    -0.387 OA
ATOM     41  H   UNL     1      24.804  31.471  39.781  1.00  0.00     0.211 HD
ENDBRANCH  32  40
ENDBRANCH   1  27
TORSDOF 12
ENDMDL
