MODEL 1
REMARK VINA RESULT:    -3.835      0.000      0.000
REMARK INTER + INTRA:          -3.947
REMARK INTER:                  -3.947
REMARK INTRA:                   0.000
REMARK UNBOUND:                 0.000
REMARK SMILES O=c1ccc2ccc(O)cc2o1
REMARK SMILES IDX 6 1 7 2 8 3 10 4 11 5 5 6 4 7 3 8 2 9 1 10 12 11 9 12
REMARK H PARENT 9 13
REMARK Flexibility Score: inf
ROOT
ATOM      1  C   UNL     1     -11.876  -2.448 -13.410  1.00  0.00     0.016 A 
ATOM      2  C   UNL     1     -12.540  -2.364 -14.638  1.00  0.00     0.047 A 
ATOM      3  C   UNL     1     -13.833  -2.888 -14.781  1.00  0.00     0.119 A 
ATOM      4  C   UNL     1     -14.464  -3.499 -13.692  1.00  0.00     0.094 A 
ATOM      5  C   UNL     1     -13.807  -3.588 -12.458  1.00  0.00     0.142 A 
ATOM      6  C   UNL     1     -12.506  -3.060 -12.317  1.00  0.00     0.018 A 
ATOM      7  C   UNL     1     -11.876  -3.164 -11.073  1.00  0.00     0.019 A 
ATOM      8  C   UNL     1     -12.545  -3.780 -10.016  1.00  0.00     0.094 A 
ATOM      9  C   UNL     1     -13.834  -4.282 -10.230  1.00  0.00     0.336 A 
ATOM     10  O   UNL     1     -14.454  -4.842  -9.289  1.00  0.00    -0.246 OA
ATOM     11  O   UNL     1     -14.411  -4.170 -11.424  1.00  0.00    -0.423 OA
ENDROOT
BRANCH   3  12
ATOM     12  O   UNL     1     -14.499  -2.808 -16.002  1.00  0.00    -0.508 OA
ATOM     13  H   UNL     1     -14.021  -2.987 -16.878  1.00  0.00     0.293 HD
ENDBRANCH   3  12
TORSDOF 1
ENDMDL
MODEL 2
REMARK VINA RESULT:    -2.794      0.761      4.222
REMARK INTER + INTRA:          -2.875
REMARK INTER:                  -2.875
REMARK INTRA:                   0.000
REMARK UNBOUND:                 0.000
REMARK SMILES O=c1ccc2ccc(O)cc2o1
REMARK SMILES IDX 6 1 7 2 8 3 10 4 11 5 5 6 4 7 3 8 2 9 1 10 12 11 9 12
REMARK H PARENT 9 13
REMARK Flexibility Score: inf
ROOT
ATOM      1  C   UNL     1     -11.875  -3.077 -11.214  1.00  0.00     0.016 A 
ATOM      2  C   UNL     1     -12.521  -3.724 -10.156  1.00  0.00     0.047 A 
ATOM      3  C   UNL     1     -13.780  -4.310 -10.349  1.00  0.00     0.119 A 
ATOM      4  C   UNL     1     -14.397  -4.247 -11.603  1.00  0.00     0.094 A 
ATOM      5  C   UNL     1     -13.758  -3.601 -12.669  1.00  0.00     0.142 A 
ATOM      6  C   UNL     1     -12.490  -3.011 -12.473  1.00  0.00     0.018 A 
ATOM      7  C   UNL     1     -11.877  -2.373 -13.555  1.00  0.00     0.019 A 
ATOM      8  C   UNL     1     -12.530  -2.336 -14.787  1.00  0.00     0.094 A 
ATOM      9  C   UNL     1     -13.786  -2.942 -14.907  1.00  0.00     0.336 A 
ATOM     10  O   UNL     1     -14.391  -2.918 -16.010  1.00  0.00    -0.246 OA
ATOM     11  O   UNL     1     -14.347  -3.543 -13.861  1.00  0.00    -0.423 OA
ENDROOT
BRANCH   3  12
ATOM     12  O   UNL     1     -14.429  -4.957  -9.299  1.00  0.00    -0.508 OA
ATOM     13  H   UNL     1     -14.011  -5.752  -8.828  1.00  0.00     0.293 HD
ENDBRANCH   3  12
TORSDOF 1
ENDMDL
MODEL 3
REMARK VINA RESULT:    -2.719      1.599      4.763
REMARK INTER + INTRA:          -2.798
REMARK INTER:                  -2.798
REMARK INTRA:                   0.000
REMARK UNBOUND:                 0.000
REMARK SMILES O=c1ccc2ccc(O)cc2o1
REMARK SMILES IDX 6 1 7 2 8 3 10 4 11 5 5 6 4 7 3 8 2 9 1 10 12 11 9 12
REMARK H PARENT 9 13
REMARK Flexibility Score: inf
ROOT
ATOM      1  C   UNL     1     -14.408  -4.233 -11.610  1.00  0.00     0.016 A 
ATOM      2  C   UNL     1     -13.756  -4.164 -10.374  1.00  0.00     0.047 A 
ATOM      3  C   UNL     1     -12.530  -3.492 -10.258  1.00  0.00     0.119 A 
ATOM      4  C   UNL     1     -11.955  -2.888 -11.382  1.00  0.00     0.094 A 
ATOM      5  C   UNL     1     -12.601  -2.951 -12.623  1.00  0.00     0.142 A 
ATOM      6  C   UNL     1     -13.834  -3.629 -12.737  1.00  0.00     0.018 A 
ATOM      7  C   UNL     1     -14.455  -3.676 -13.989  1.00  0.00     0.019 A 
ATOM      8  C   UNL     1     -13.844  -3.058 -15.080  1.00  0.00     0.094 A 
ATOM      9  C   UNL     1     -12.620  -2.405 -14.891  1.00  0.00     0.336 A 
ATOM     10  O   UNL     1     -12.053  -1.842 -15.863  1.00  0.00    -0.246 OA
ATOM     11  O   UNL     1     -12.051  -2.375 -13.689  1.00  0.00    -0.423 OA
ENDROOT
BRANCH   3  12
ATOM     12  O   UNL     1     -11.875  -3.419  -9.031  1.00  0.00    -0.508 OA
ATOM     13  H   UNL     1     -10.950  -3.815  -8.901  1.00  0.00     0.293 HD
ENDBRANCH   3  12
TORSDOF 1
ENDMDL
MODEL 4
REMARK VINA RESULT:    -2.547     22.819     23.733
REMARK INTER + INTRA:          -2.622
REMARK INTER:                  -2.622
REMARK INTRA:                   0.000
REMARK UNBOUND:                 0.000
REMARK SMILES O=c1ccc2ccc(O)cc2o1
REMARK SMILES IDX 6 1 7 2 8 3 10 4 11 5 5 6 4 7 3 8 2 9 1 10 12 11 9 12
REMARK H PARENT 9 13
REMARK Flexibility Score: inf
ROOT
ATOM      1  C   UNL     1     -31.122  -0.571 -25.242  1.00  0.00     0.016 A 
ATOM      2  C   UNL     1     -31.375  -1.617 -26.137  1.00  0.00     0.047 A 
ATOM      3  C   UNL     1     -31.871  -1.346 -27.420  1.00  0.00     0.119 A 
ATOM      4  C   UNL     1     -32.117  -0.024 -27.809  1.00  0.00     0.094 A 
ATOM      5  C   UNL     1     -31.867   1.029 -26.921  1.00  0.00     0.142 A 
ATOM      6  C   UNL     1     -31.368   0.754 -25.630  1.00  0.00     0.018 A 
ATOM      7  C   UNL     1     -31.129   1.826 -24.765  1.00  0.00     0.019 A 
ATOM      8  C   UNL     1     -31.388   3.126 -25.198  1.00  0.00     0.094 A 
ATOM      9  C   UNL     1     -31.884   3.323 -26.493  1.00  0.00     0.336 A 
ATOM     10  O   UNL     1     -32.124   4.488 -26.902  1.00  0.00    -0.246 OA
ATOM     11  O   UNL     1     -32.102   2.284 -27.296  1.00  0.00    -0.423 OA
ENDROOT
BRANCH   3  12
ATOM     12  O   UNL     1     -32.125  -2.382 -28.316  1.00  0.00    -0.508 OA
ATOM     13  H   UNL     1     -31.811  -3.329 -28.132  1.00  0.00     0.293 HD
ENDBRANCH   3  12
TORSDOF 1
ENDMDL
MODEL 5
REMARK VINA RESULT:    -2.414      1.687      2.375
REMARK INTER + INTRA:          -2.484
REMARK INTER:                  -2.484
REMARK INTRA:                   0.000
REMARK UNBOUND:                 0.000
REMARK SMILES O=c1ccc2ccc(O)cc2o1
REMARK SMILES IDX 6 1 7 2 8 3 10 4 11 5 5 6 4 7 3 8 2 9 1 10 12 11 9 12
REMARK H PARENT 9 13
REMARK Flexibility Score: inf
ROOT
ATOM      1  C   UNL     1     -14.135  -4.114 -14.599  1.00  0.00     0.016 A 
ATOM      2  C   UNL     1     -13.757  -3.404 -15.744  1.00  0.00     0.047 A 
ATOM      3  C   UNL     1     -12.819  -2.365 -15.654  1.00  0.00     0.119 A 
ATOM      4  C   UNL     1     -12.259  -2.034 -14.415  1.00  0.00     0.094 A 
ATOM      5  C   UNL     1     -12.631  -2.739 -13.264  1.00  0.00     0.142 A 
ATOM      6  C   UNL     1     -13.576  -3.785 -13.357  1.00  0.00     0.018 A 
ATOM      7  C   UNL     1     -13.928  -4.470 -12.190  1.00  0.00     0.019 A 
ATOM      8  C   UNL     1     -13.342  -4.105 -10.978  1.00  0.00     0.094 A 
ATOM      9  C   UNL     1     -12.414  -3.057 -10.963  1.00  0.00     0.336 A 
ATOM     10  O   UNL     1     -11.875  -2.713  -9.879  1.00  0.00    -0.246 OA
ATOM     11  O   UNL     1     -12.096  -2.421 -12.088  1.00  0.00    -0.423 OA
ENDROOT
BRANCH   3  12
ATOM     12  O   UNL     1     -12.438  -1.654 -16.790  1.00  0.00    -0.508 OA
ATOM     13  H   UNL     1     -12.211  -0.667 -16.744  1.00  0.00     0.293 HD
ENDBRANCH   3  12
TORSDOF 1
ENDMDL
MODEL 6
REMARK VINA RESULT:    -1.791     21.900     23.354
REMARK INTER + INTRA:          -1.844
REMARK INTER:                  -1.844
REMARK INTRA:                   0.000
REMARK UNBOUND:                 0.000
REMARK SMILES O=c1ccc2ccc(O)cc2o1
REMARK SMILES IDX 6 1 7 2 8 3 10 4 11 5 5 6 4 7 3 8 2 9 1 10 12 11 9 12
REMARK H PARENT 9 13
REMARK Flexibility Score: inf
ROOT
ATOM      1  C   UNL     1     -32.125  -0.667 -28.689  1.00  0.00     0.016 A 
ATOM      2  C   UNL     1     -31.880  -1.980 -29.104  1.00  0.00     0.047 A 
ATOM      3  C   UNL     1     -31.330  -2.913 -28.213  1.00  0.00     0.119 A 
ATOM      4  C   UNL     1     -31.024  -2.531 -26.902  1.00  0.00     0.094 A 
ATOM      5  C   UNL     1     -31.265  -1.219 -26.477  1.00  0.00     0.142 A 
ATOM      6  C   UNL     1     -31.819  -0.281 -27.376  1.00  0.00     0.018 A 
ATOM      7  C   UNL     1     -32.048   1.021 -26.923  1.00  0.00     0.019 A 
ATOM      8  C   UNL     1     -31.728   1.355 -25.607  1.00  0.00     0.094 A 
ATOM      9  C   UNL     1     -31.181   0.373 -24.773  1.00  0.00     0.336 A 
ATOM     10  O   UNL     1     -30.885   0.655 -23.583  1.00  0.00    -0.246 OA
ATOM     11  O   UNL     1     -30.973  -0.860 -25.229  1.00  0.00    -0.423 OA
ENDROOT
BRANCH   3  12
ATOM     12  O   UNL     1     -31.084  -4.223 -28.620  1.00  0.00    -0.508 OA
ATOM     13  H   UNL     1     -31.218  -4.511 -29.583  1.00  0.00     0.293 HD
ENDBRANCH   3  12
TORSDOF 1
ENDMDL
MODEL 7
REMARK VINA RESULT:    -1.265     21.282     23.444
REMARK INTER + INTRA:          -1.302
REMARK INTER:                  -1.302
REMARK INTRA:                   0.000
REMARK UNBOUND:                 0.000
REMARK SMILES O=c1ccc2ccc(O)cc2o1
REMARK SMILES IDX 6 1 7 2 8 3 10 4 11 5 5 6 4 7 3 8 2 9 1 10 12 11 9 12
REMARK H PARENT 9 13
REMARK Flexibility Score: inf
ROOT
ATOM      1  C   UNL     1     -31.737  -0.375 -26.502  1.00  0.00     0.016 A 
ATOM      2  C   UNL     1     -31.360  -1.008 -25.313  1.00  0.00     0.047 A 
ATOM      3  C   UNL     1     -31.000  -0.248 -24.191  1.00  0.00     0.119 A 
ATOM      4  C   UNL     1     -31.016   1.149 -24.259  1.00  0.00     0.094 A 
ATOM      5  C   UNL     1     -31.391   1.792 -25.444  1.00  0.00     0.142 A 
ATOM      6  C   UNL     1     -31.753   1.025 -26.573  1.00  0.00     0.018 A 
ATOM      7  C   UNL     1     -32.124   1.695 -27.743  1.00  0.00     0.019 A 
ATOM      8  C   UNL     1     -32.125   3.090 -27.763  1.00  0.00     0.094 A 
ATOM      9  C   UNL     1     -31.753   3.784 -26.605  1.00  0.00     0.336 A 
ATOM     10  O   UNL     1     -31.747   5.042 -26.603  1.00  0.00    -0.246 OA
ATOM     11  O   UNL     1     -31.405   3.122 -25.504  1.00  0.00    -0.423 OA
ENDROOT
BRANCH   3  12
ATOM     12  O   UNL     1     -30.624  -0.872 -23.003  1.00  0.00    -0.508 OA
ATOM     13  H   UNL     1     -30.629  -0.375 -22.120  1.00  0.00     0.293 HD
ENDBRANCH   3  12
TORSDOF 1
ENDMDL
