MODEL 1
REMARK VINA RESULT:    -5.571      0.000      0.000
REMARK INTER + INTRA:         -12.209
REMARK INTER:                 -10.782
REMARK INTRA:                  -1.427
REMARK UNBOUND:                -1.427
REMARK SMILES CCCCCCCCCCCCCCCCCC(=O)[O-]
REMARK SMILES IDX 10 1 11 2 12 3 13 4 14 5 15 6 16 7 17 8 18 9 19 10 20 11
REMARK SMILES IDX 9 12 8 13 7 14 6 15 5 16 4 17 3 18 2 19 1 20
REMARK H PARENT
REMARK Flexibility Score: inf
ROOT
ATOM      1  C   UNL     1     -17.731  -7.051  39.238  1.00  0.00     0.000 C 
ENDROOT
BRANCH   1   2
ATOM      2  C   UNL     1     -17.983  -7.276  40.742  1.00  0.00     0.000 C 
BRANCH   2   3
ATOM      3  C   UNL     1     -16.988  -6.570  41.681  1.00  0.00     0.000 C 
BRANCH   3   4
ATOM      4  C   UNL     1     -17.135  -7.017  43.146  1.00  0.00     0.000 C 
BRANCH   4   5
ATOM      5  C   UNL     1     -17.804  -8.395  43.279  1.00  0.00     0.000 C 
BRANCH   5   6
ATOM      6  C   UNL     1     -17.474  -9.084  44.615  1.00  0.00     0.000 C 
BRANCH   6   7
ATOM      7  C   UNL     1     -16.010  -9.556  44.694  1.00  0.00     0.006 C 
BRANCH   7   8
ATOM      8  C   UNL     1     -15.826 -10.961  45.290  1.00  0.00     0.053 C 
BRANCH   8   9
ATOM      9  C   UNL     1     -15.164 -10.919  46.633  1.00  0.00     0.041 C 
ATOM     10  O   UNL     1     -13.934 -10.660  46.725  1.00  0.00    -0.550 OA
ATOM     11  O   UNL     1     -15.897 -11.195  47.779  1.00  0.00    -0.550 OA
ENDBRANCH   8   9
ENDBRANCH   7   8
ENDBRANCH   6   7
ENDBRANCH   5   6
ENDBRANCH   4   5
ENDBRANCH   3   4
ENDBRANCH   2   3
ENDBRANCH   1   2
BRANCH   1  12
ATOM     12  C   UNL     1     -16.708  -5.935  38.938  1.00  0.00     0.000 C 
BRANCH  12  13
ATOM     13  C   UNL     1     -15.693  -6.352  37.858  1.00  0.00    -0.000 C 
BRANCH  13  14
ATOM     14  C   UNL     1     -14.247  -5.997  38.237  1.00  0.00    -0.000 C 
BRANCH  14  15
ATOM     15  C   UNL     1     -14.119  -5.513  39.693  1.00  0.00    -0.000 C 
BRANCH  15  16
ATOM     16  C   UNL     1     -13.138  -6.363  40.516  1.00  0.00    -0.000 C 
BRANCH  16  17
ATOM     17  C   UNL     1     -11.875  -6.741  39.721  1.00  0.00    -0.000 C 
BRANCH  17  18
ATOM     18  C   UNL     1     -11.596  -8.252  39.742  1.00  0.00    -0.000 C 
BRANCH  18  19
ATOM     19  C   UNL     1     -10.940  -8.753  38.446  1.00  0.00    -0.003 C 
ATOM     20  C   UNL     1     -11.876  -8.576  37.255  1.00  0.00     0.004 C 
ENDBRANCH  18  19
ENDBRANCH  17  18
ENDBRANCH  16  17
ENDBRANCH  15  16
ENDBRANCH  14  15
ENDBRANCH  13  14
ENDBRANCH  12  13
ENDBRANCH   1  12
TORSDOF 16
ENDMDL
MODEL 2
REMARK VINA RESULT:    -5.420      1.707      3.282
REMARK INTER + INTRA:         -11.917
REMARK INTER:                 -11.033
REMARK INTRA:                  -0.884
REMARK UNBOUND:                -1.427
REMARK SMILES CCCCCCCCCCCCCCCCCC(=O)[O-]
REMARK SMILES IDX 10 1 11 2 12 3 13 4 14 5 15 6 16 7 17 8 18 9 19 10 20 11
REMARK SMILES IDX 9 12 8 13 7 14 6 15 5 16 4 17 3 18 2 19 1 20
REMARK H PARENT
REMARK Flexibility Score: inf
ROOT
ATOM      1  C   UNL     1     -15.199  -5.760  37.523  1.00  0.00     0.000 C 
ENDROOT
BRANCH   1   2
ATOM      2  C   UNL     1     -16.385  -6.475  38.198  1.00  0.00     0.000 C 
BRANCH   2   3
ATOM      3  C   UNL     1     -17.046  -5.696  39.349  1.00  0.00     0.000 C 
BRANCH   3   4
ATOM      4  C   UNL     1     -17.760  -6.615  40.355  1.00  0.00     0.000 C 
BRANCH   4   5
ATOM      5  C   UNL     1     -17.053  -6.661  41.720  1.00  0.00     0.000 C 
BRANCH   5   6
ATOM      6  C   UNL     1     -17.971  -7.169  42.844  1.00  0.00     0.000 C 
BRANCH   6   7
ATOM      7  C   UNL     1     -17.647  -8.614  43.269  1.00  0.00     0.006 C 
BRANCH   7   8
ATOM      8  C   UNL     1     -17.132  -8.752  44.711  1.00  0.00     0.053 C 
BRANCH   8   9
ATOM      9  C   UNL     1     -16.021  -9.752  44.816  1.00  0.00     0.041 C 
ATOM     10  O   UNL     1     -14.881  -9.394  45.215  1.00  0.00    -0.550 OA
ATOM     11  O   UNL     1     -16.237 -11.073  44.445  1.00  0.00    -0.550 OA
ENDBRANCH   8   9
ENDBRANCH   7   8
ENDBRANCH   6   7
ENDBRANCH   5   6
ENDBRANCH   4   5
ENDBRANCH   3   4
ENDBRANCH   2   3
ENDBRANCH   1   2
BRANCH   1  12
ATOM     12  C   UNL     1     -13.893  -6.584  37.523  1.00  0.00     0.000 C 
BRANCH  12  13
ATOM     13  C   UNL     1     -13.252  -6.656  38.921  1.00  0.00    -0.000 C 
BRANCH  13  14
ATOM     14  C   UNL     1     -12.098  -7.669  38.990  1.00  0.00    -0.000 C 
BRANCH  14  15
ATOM     15  C   UNL     1     -11.780  -8.296  37.621  1.00  0.00    -0.000 C 
BRANCH  15  16
ATOM     16  C   UNL     1     -11.022  -9.629  37.741  1.00  0.00    -0.000 C 
BRANCH  16  17
ATOM     17  C   UNL     1      -9.824  -9.541  38.702  1.00  0.00    -0.000 C 
BRANCH  17  18
ATOM     18  C   UNL     1      -9.926 -10.541  39.865  1.00  0.00    -0.000 C 
BRANCH  18  19
ATOM     19  C   UNL     1      -9.546  -9.919  41.217  1.00  0.00    -0.003 C 
ATOM     20  C   UNL     1      -9.906 -10.851  42.370  1.00  0.00     0.004 C 
ENDBRANCH  18  19
ENDBRANCH  17  18
ENDBRANCH  16  17
ENDBRANCH  15  16
ENDBRANCH  14  15
ENDBRANCH  13  14
ENDBRANCH  12  13
ENDBRANCH   1  12
TORSDOF 16
ENDMDL
MODEL 3
REMARK VINA RESULT:    -5.420      2.814      6.943
REMARK INTER + INTRA:         -11.916
REMARK INTER:                 -10.612
REMARK INTRA:                  -1.304
REMARK UNBOUND:                -1.427
REMARK SMILES CCCCCCCCCCCCCCCCCC(=O)[O-]
REMARK SMILES IDX 10 1 11 2 12 3 13 4 14 5 15 6 16 7 17 8 18 9 19 10 20 11
REMARK SMILES IDX 9 12 8 13 7 14 6 15 5 16 4 17 3 18 2 19 1 20
REMARK H PARENT
REMARK Flexibility Score: inf
ROOT
ATOM      1  C   UNL     1     -16.384  -6.281  41.122  1.00  0.00     0.000 C 
ENDROOT
BRANCH   1   2
ATOM      2  C   UNL     1     -17.415  -6.128  39.986  1.00  0.00     0.000 C 
BRANCH   2   3
ATOM      3  C   UNL     1     -16.848  -6.300  38.566  1.00  0.00     0.000 C 
BRANCH   3   4
ATOM      4  C   UNL     1     -15.328  -6.076  38.501  1.00  0.00     0.000 C 
BRANCH   4   5
ATOM      5  C   UNL     1     -14.779  -6.148  37.066  1.00  0.00     0.000 C 
BRANCH   5   6
ATOM      6  C   UNL     1     -13.447  -6.913  36.981  1.00  0.00     0.000 C 
BRANCH   6   7
ATOM      7  C   UNL     1     -12.875  -7.265  38.367  1.00  0.00     0.006 C 
BRANCH   7   8
ATOM      8  C   UNL     1     -11.401  -7.700  38.355  1.00  0.00     0.053 C 
BRANCH   8   9
ATOM      9  C   UNL     1     -11.088  -8.653  39.467  1.00  0.00     0.041 C 
ATOM     10  O   UNL     1     -11.316  -8.330  40.663  1.00  0.00    -0.550 OA
ATOM     11  O   UNL     1     -10.515  -9.887  39.184  1.00  0.00    -0.550 OA
ENDBRANCH   8   9
ENDBRANCH   7   8
ENDBRANCH   6   7
ENDBRANCH   5   6
ENDBRANCH   4   5
ENDBRANCH   3   4
ENDBRANCH   2   3
ENDBRANCH   1   2
BRANCH   1  12
ATOM     12  C   UNL     1     -16.944  -6.977  42.381  1.00  0.00     0.000 C 
BRANCH  12  13
ATOM     13  C   UNL     1     -16.243  -6.502  43.667  1.00  0.00    -0.000 C 
BRANCH  13  14
ATOM     14  C   UNL     1     -17.023  -6.876  44.938  1.00  0.00    -0.000 C 
BRANCH  14  15
ATOM     15  C   UNL     1     -17.963  -8.076  44.722  1.00  0.00    -0.000 C 
BRANCH  15  16
ATOM     16  C   UNL     1     -17.462  -9.353  45.416  1.00  0.00    -0.000 C 
BRANCH  16  17
ATOM     17  C   UNL     1     -16.611 -10.234  44.485  1.00  0.00    -0.000 C 
BRANCH  17  18
ATOM     18  C   UNL     1     -15.239 -10.578  45.089  1.00  0.00    -0.000 C 
BRANCH  18  19
ATOM     19  C   UNL     1     -14.316  -9.355  45.198  1.00  0.00    -0.003 C 
ATOM     20  C   UNL     1     -12.857  -9.779  45.330  1.00  0.00     0.004 C 
ENDBRANCH  18  19
ENDBRANCH  17  18
ENDBRANCH  16  17
ENDBRANCH  15  16
ENDBRANCH  14  15
ENDBRANCH  13  14
ENDBRANCH  12  13
ENDBRANCH   1  12
TORSDOF 16
ENDMDL
MODEL 4
REMARK VINA RESULT:    -5.341      1.243      2.007
REMARK INTER + INTRA:         -11.764
REMARK INTER:                 -10.801
REMARK INTRA:                  -0.964
REMARK UNBOUND:                -1.427
REMARK SMILES CCCCCCCCCCCCCCCCCC(=O)[O-]
REMARK SMILES IDX 10 1 11 2 12 3 13 4 14 5 15 6 16 7 17 8 18 9 19 10 20 11
REMARK SMILES IDX 9 12 8 13 7 14 6 15 5 16 4 17 3 18 2 19 1 20
REMARK H PARENT
REMARK Flexibility Score: inf
ROOT
ATOM      1  C   UNL     1     -14.745  -5.834  41.468  1.00  0.00     0.000 C 
ENDROOT
BRANCH   1   2
ATOM      2  C   UNL     1     -16.200  -6.209  41.812  1.00  0.00     0.000 C 
BRANCH   2   3
ATOM      3  C   UNL     1     -16.372  -7.024  43.106  1.00  0.00     0.000 C 
BRANCH   3   4
ATOM      4  C   UNL     1     -17.720  -7.763  43.168  1.00  0.00     0.000 C 
BRANCH   4   5
ATOM      5  C   UNL     1     -17.556  -9.278  43.377  1.00  0.00     0.000 C 
BRANCH   5   6
ATOM      6  C   UNL     1     -17.069  -9.628  44.794  1.00  0.00     0.000 C 
BRANCH   6   7
ATOM      7  C   UNL     1     -15.883 -10.611  44.788  1.00  0.00     0.006 C 
BRANCH   7   8
ATOM      8  C   UNL     1     -14.711 -10.199  45.693  1.00  0.00     0.053 C 
BRANCH   8   9
ATOM      9  C   UNL     1     -14.594 -11.083  46.896  1.00  0.00     0.041 C 
ATOM     10  O   UNL     1     -13.487 -11.607  47.194  1.00  0.00    -0.550 OA
ATOM     11  O   UNL     1     -15.714 -11.354  47.672  1.00  0.00    -0.550 OA
ENDBRANCH   8   9
ENDBRANCH   7   8
ENDBRANCH   6   7
ENDBRANCH   5   6
ENDBRANCH   4   5
ENDBRANCH   3   4
ENDBRANCH   2   3
ENDBRANCH   1   2
BRANCH   1  12
ATOM     12  C   UNL     1     -14.610  -4.970  40.195  1.00  0.00     0.000 C 
BRANCH  12  13
ATOM     13  C   UNL     1     -15.783  -5.181  39.222  1.00  0.00    -0.000 C 
BRANCH  13  14
ATOM     14  C   UNL     1     -15.579  -6.398  38.305  1.00  0.00    -0.000 C 
BRANCH  14  15
ATOM     15  C   UNL     1     -14.809  -6.045  37.019  1.00  0.00    -0.000 C 
BRANCH  15  16
ATOM     16  C   UNL     1     -13.529  -6.879  36.847  1.00  0.00    -0.000 C 
BRANCH  16  17
ATOM     17  C   UNL     1     -12.928  -7.322  38.193  1.00  0.00    -0.000 C 
BRANCH  17  18
ATOM     18  C   UNL     1     -11.840  -8.395  38.028  1.00  0.00    -0.000 C 
BRANCH  18  19
ATOM     19  C   UNL     1     -10.991  -8.579  39.295  1.00  0.00    -0.003 C 
ATOM     20  C   UNL     1     -10.241  -9.907  39.265  1.00  0.00     0.004 C 
ENDBRANCH  18  19
ENDBRANCH  17  18
ENDBRANCH  16  17
ENDBRANCH  15  16
ENDBRANCH  14  15
ENDBRANCH  13  14
ENDBRANCH  12  13
ENDBRANCH   1  12
TORSDOF 16
ENDMDL
MODEL 5
REMARK VINA RESULT:    -5.332      1.642      3.105
REMARK INTER + INTRA:         -11.746
REMARK INTER:                 -10.500
REMARK INTRA:                  -1.247
REMARK UNBOUND:                -1.427
REMARK SMILES CCCCCCCCCCCCCCCCCC(=O)[O-]
REMARK SMILES IDX 10 1 11 2 12 3 13 4 14 5 15 6 16 7 17 8 18 9 19 10 20 11
REMARK SMILES IDX 9 12 8 13 7 14 6 15 5 16 4 17 3 18 2 19 1 20
REMARK H PARENT
REMARK Flexibility Score: inf
ROOT
ATOM      1  C   UNL     1     -17.070  -6.965  42.557  1.00  0.00     0.000 C 
ENDROOT
BRANCH   1   2
ATOM      2  C   UNL     1     -17.862  -7.817  43.568  1.00  0.00     0.000 C 
BRANCH   2   3
ATOM      3  C   UNL     1     -17.373  -9.269  43.720  1.00  0.00     0.000 C 
BRANCH   3   4
ATOM      4  C   UNL     1     -16.152  -9.390  44.648  1.00  0.00     0.000 C 
BRANCH   4   5
ATOM      5  C   UNL     1     -15.861 -10.844  45.057  1.00  0.00     0.000 C 
BRANCH   5   6
ATOM      6  C   UNL     1     -15.474 -10.975  46.540  1.00  0.00     0.000 C 
BRANCH   6   7
ATOM      7  C   UNL     1     -16.514 -10.340  47.483  1.00  0.00     0.006 C 
BRANCH   7   8
ATOM      8  C   UNL     1     -15.944  -9.862  48.828  1.00  0.00     0.053 C 
BRANCH   8   9
ATOM      9  C   UNL     1     -15.299  -8.514  48.718  1.00  0.00     0.041 C 
ATOM     10  O   UNL     1     -15.913  -7.561  48.169  1.00  0.00    -0.550 OA
ATOM     11  O   UNL     1     -14.009  -8.319  49.194  1.00  0.00    -0.550 OA
ENDBRANCH   8   9
ENDBRANCH   7   8
ENDBRANCH   6   7
ENDBRANCH   5   6
ENDBRANCH   4   5
ENDBRANCH   3   4
ENDBRANCH   2   3
ENDBRANCH   1   2
BRANCH   1  12
ATOM     12  C   UNL     1     -17.901  -6.513  41.337  1.00  0.00     0.000 C 
BRANCH  12  13
ATOM     13  C   UNL     1     -17.848  -7.535  40.188  1.00  0.00    -0.000 C 
BRANCH  13  14
ATOM     14  C   UNL     1     -17.329  -6.924  38.876  1.00  0.00    -0.000 C 
BRANCH  14  15
ATOM     15  C   UNL     1     -16.733  -5.519  39.075  1.00  0.00    -0.000 C 
BRANCH  15  16
ATOM     16  C   UNL     1     -15.259  -5.435  38.649  1.00  0.00    -0.000 C 
BRANCH  16  17
ATOM     17  C   UNL     1     -14.292  -5.744  39.806  1.00  0.00    -0.000 C 
BRANCH  17  18
ATOM     18  C   UNL     1     -13.137  -6.665  39.380  1.00  0.00    -0.000 C 
BRANCH  18  19
ATOM     19  C   UNL     1     -13.222  -7.078  37.902  1.00  0.00    -0.003 C 
ATOM     20  C   UNL     1     -12.082  -8.020  37.530  1.00  0.00     0.004 C 
ENDBRANCH  18  19
ENDBRANCH  17  18
ENDBRANCH  16  17
ENDBRANCH  15  16
ENDBRANCH  14  15
ENDBRANCH  13  14
ENDBRANCH  12  13
ENDBRANCH   1  12
TORSDOF 16
ENDMDL
MODEL 6
REMARK VINA RESULT:    -5.316      1.323      2.448
REMARK INTER + INTRA:         -11.715
REMARK INTER:                 -10.767
REMARK INTRA:                  -0.948
REMARK UNBOUND:                -1.427
REMARK SMILES CCCCCCCCCCCCCCCCCC(=O)[O-]
REMARK SMILES IDX 10 1 11 2 12 3 13 4 14 5 15 6 16 7 17 8 18 9 19 10 20 11
REMARK SMILES IDX 9 12 8 13 7 14 6 15 5 16 4 17 3 18 2 19 1 20
REMARK H PARENT
REMARK Flexibility Score: inf
ROOT
ATOM      1  C   UNL     1     -16.991  -6.790  42.023  1.00  0.00     0.000 C 
ENDROOT
BRANCH   1   2
ATOM      2  C   UNL     1     -17.593  -7.608  43.182  1.00  0.00     0.000 C 
BRANCH   2   3
ATOM      3  C   UNL     1     -17.867  -9.088  42.861  1.00  0.00     0.000 C 
BRANCH   3   4
ATOM      4  C   UNL     1     -17.239 -10.045  43.889  1.00  0.00     0.000 C 
BRANCH   4   5
ATOM      5  C   UNL     1     -17.239  -9.465  45.314  1.00  0.00     0.000 C 
BRANCH   5   6
ATOM      6  C   UNL     1     -15.989  -9.870  46.115  1.00  0.00     0.000 C 
BRANCH   6   7
ATOM      7  C   UNL     1     -14.843 -10.370  45.215  1.00  0.00     0.006 C 
BRANCH   7   8
ATOM      8  C   UNL     1     -13.474  -9.740  45.520  1.00  0.00     0.053 C 
BRANCH   8   9
ATOM      9  C   UNL     1     -13.030 -10.015  46.923  1.00  0.00     0.041 C 
ATOM     10  O   UNL     1     -12.780 -11.194  47.290  1.00  0.00    -0.550 OA
ATOM     11  O   UNL     1     -12.921  -8.972  47.835  1.00  0.00    -0.550 OA
ENDBRANCH   8   9
ENDBRANCH   7   8
ENDBRANCH   6   7
ENDBRANCH   5   6
ENDBRANCH   4   5
ENDBRANCH   3   4
ENDBRANCH   2   3
ENDBRANCH   1   2
BRANCH   1  12
ATOM     12  C   UNL     1     -17.997  -6.476  40.895  1.00  0.00     0.000 C 
BRANCH  12  13
ATOM     13  C   UNL     1     -17.680  -7.249  39.603  1.00  0.00    -0.000 C 
BRANCH  13  14
ATOM     14  C   UNL     1     -17.132  -6.341  38.490  1.00  0.00    -0.000 C 
BRANCH  14  15
ATOM     15  C   UNL     1     -15.739  -5.776  38.821  1.00  0.00    -0.000 C 
BRANCH  15  16
ATOM     16  C   UNL     1     -14.640  -6.329  37.899  1.00  0.00    -0.000 C 
BRANCH  16  17
ATOM     17  C   UNL     1     -13.339  -6.647  38.656  1.00  0.00    -0.000 C 
BRANCH  17  18
ATOM     18  C   UNL     1     -12.452  -7.656  37.907  1.00  0.00    -0.000 C 
BRANCH  18  19
ATOM     19  C   UNL     1     -11.507  -8.424  38.843  1.00  0.00    -0.003 C 
ATOM     20  C   UNL     1     -10.781  -9.538  38.096  1.00  0.00     0.004 C 
ENDBRANCH  18  19
ENDBRANCH  17  18
ENDBRANCH  16  17
ENDBRANCH  15  16
ENDBRANCH  14  15
ENDBRANCH  13  14
ENDBRANCH  12  13
ENDBRANCH   1  12
TORSDOF 16
ENDMDL
MODEL 7
REMARK VINA RESULT:    -5.254      1.966      3.619
REMARK INTER + INTRA:         -11.595
REMARK INTER:                  -9.388
REMARK INTRA:                  -2.207
REMARK UNBOUND:                -1.427
REMARK SMILES CCCCCCCCCCCCCCCCCC(=O)[O-]
REMARK SMILES IDX 10 1 11 2 12 3 13 4 14 5 15 6 16 7 17 8 18 9 19 10 20 11
REMARK SMILES IDX 9 12 8 13 7 14 6 15 5 16 4 17 3 18 2 19 1 20
REMARK H PARENT
REMARK Flexibility Score: inf
ROOT
ATOM      1  C   UNL     1     -16.752  -7.182  42.863  1.00  0.00     0.000 C 
ENDROOT
BRANCH   1   2
ATOM      2  C   UNL     1     -17.714  -7.319  44.058  1.00  0.00     0.000 C 
BRANCH   2   3
ATOM      3  C   UNL     1     -18.033  -8.767  44.474  1.00  0.00     0.000 C 
BRANCH   3   4
ATOM      4  C   UNL     1     -17.288  -9.808  43.620  1.00  0.00     0.000 C 
BRANCH   4   5
ATOM      5  C   UNL     1     -16.520 -10.831  44.473  1.00  0.00     0.000 C 
BRANCH   5   6
ATOM      6  C   UNL     1     -15.755 -10.176  45.636  1.00  0.00     0.000 C 
BRANCH   6   7
ATOM      7  C   UNL     1     -14.298  -9.834  45.269  1.00  0.00     0.006 C 
BRANCH   7   8
ATOM      8  C   UNL     1     -14.057  -8.353  44.935  1.00  0.00     0.053 C 
BRANCH   8   9
ATOM      9  C   UNL     1     -14.081  -7.490  46.159  1.00  0.00     0.041 C 
ATOM     10  O   UNL     1     -14.534  -6.317  46.099  1.00  0.00    -0.550 OA
ATOM     11  O   UNL     1     -13.574  -7.972  47.359  1.00  0.00    -0.550 OA
ENDBRANCH   8   9
ENDBRANCH   7   8
ENDBRANCH   6   7
ENDBRANCH   5   6
ENDBRANCH   4   5
ENDBRANCH   3   4
ENDBRANCH   2   3
ENDBRANCH   1   2
BRANCH   1  12
ATOM     12  C   UNL     1     -17.389  -6.518  41.623  1.00  0.00     0.000 C 
BRANCH  12  13
ATOM     13  C   UNL     1     -18.014  -7.550  40.668  1.00  0.00    -0.000 C 
BRANCH  13  14
ATOM     14  C   UNL     1     -17.703  -7.255  39.192  1.00  0.00    -0.000 C 
BRANCH  14  15
ATOM     15  C   UNL     1     -16.859  -5.980  39.011  1.00  0.00    -0.000 C 
BRANCH  15  16
ATOM     16  C   UNL     1     -15.732  -6.158  37.980  1.00  0.00    -0.000 C 
BRANCH  16  17
ATOM     17  C   UNL     1     -14.334  -6.105  38.620  1.00  0.00    -0.000 C 
BRANCH  17  18
ATOM     18  C   UNL     1     -14.332  -5.374  39.973  1.00  0.00    -0.000 C 
BRANCH  18  19
ATOM     19  C   UNL     1     -13.172  -5.810  40.881  1.00  0.00    -0.003 C 
ATOM     20  C   UNL     1     -13.561  -5.713  42.353  1.00  0.00     0.004 C 
ENDBRANCH  18  19
ENDBRANCH  17  18
ENDBRANCH  16  17
ENDBRANCH  15  16
ENDBRANCH  14  15
ENDBRANCH  13  14
ENDBRANCH  12  13
ENDBRANCH   1  12
TORSDOF 16
ENDMDL
MODEL 8
REMARK VINA RESULT:    -5.244      3.831      7.712
REMARK INTER + INTRA:         -11.575
REMARK INTER:                 -10.671
REMARK INTRA:                  -0.904
REMARK UNBOUND:                -1.427
REMARK SMILES CCCCCCCCCCCCCCCCCC(=O)[O-]
REMARK SMILES IDX 10 1 11 2 12 3 13 4 14 5 15 6 16 7 17 8 18 9 19 10 20 11
REMARK SMILES IDX 9 12 8 13 7 14 6 15 5 16 4 17 3 18 2 19 1 20
REMARK H PARENT
REMARK Flexibility Score: inf
ROOT
ATOM      1  C   UNL     1     -16.541  -6.274  40.572  1.00  0.00     0.000 C 
ENDROOT
BRANCH   1   2
ATOM      2  C   UNL     1     -16.524  -5.481  39.251  1.00  0.00     0.000 C 
BRANCH   2   3
ATOM      3  C   UNL     1     -15.889  -6.217  38.058  1.00  0.00     0.000 C 
BRANCH   3   4
ATOM      4  C   UNL     1     -14.418  -5.825  37.833  1.00  0.00     0.000 C 
BRANCH   4   5
ATOM      5  C   UNL     1     -13.631  -6.900  37.064  1.00  0.00     0.000 C 
BRANCH   5   6
ATOM      6  C   UNL     1     -12.574  -7.596  37.939  1.00  0.00     0.000 C 
BRANCH   6   7
ATOM      7  C   UNL     1     -11.846  -8.733  37.198  1.00  0.00     0.006 C 
BRANCH   7   8
ATOM      8  C   UNL     1     -10.909  -9.572  38.082  1.00  0.00     0.053 C 
BRANCH   8   9
ATOM      9  C   UNL     1      -9.467  -9.340  37.750  1.00  0.00     0.041 C 
ATOM     10  O   UNL     1      -8.646 -10.295  37.788  1.00  0.00    -0.550 OA
ATOM     11  O   UNL     1      -9.024  -8.063  37.428  1.00  0.00    -0.550 OA
ENDBRANCH   8   9
ENDBRANCH   7   8
ENDBRANCH   6   7
ENDBRANCH   5   6
ENDBRANCH   4   5
ENDBRANCH   3   4
ENDBRANCH   2   3
ENDBRANCH   1   2
BRANCH   1  12
ATOM     12  C   UNL     1     -17.960  -6.566  41.106  1.00  0.00     0.000 C 
BRANCH  12  13
ATOM     13  C   UNL     1     -17.977  -6.768  42.631  1.00  0.00    -0.000 C 
BRANCH  13  14
ATOM     14  C   UNL     1     -16.574  -6.687  43.254  1.00  0.00    -0.000 C 
BRANCH  14  15
ATOM     15  C   UNL     1     -16.364  -7.723  44.373  1.00  0.00    -0.000 C 
BRANCH  15  16
ATOM     16  C   UNL     1     -17.337  -8.909  44.274  1.00  0.00    -0.000 C 
BRANCH  16  17
ATOM     17  C   UNL     1     -16.621 -10.268  44.351  1.00  0.00    -0.000 C 
BRANCH  17  18
ATOM     18  C   UNL     1     -15.348 -10.215  45.212  1.00  0.00    -0.000 C 
BRANCH  18  19
ATOM     19  C   UNL     1     -15.481 -11.017  46.516  1.00  0.00    -0.003 C 
ATOM     20  C   UNL     1     -16.195 -10.202  47.591  1.00  0.00     0.004 C 
ENDBRANCH  18  19
ENDBRANCH  17  18
ENDBRANCH  16  17
ENDBRANCH  15  16
ENDBRANCH  14  15
ENDBRANCH  13  14
ENDBRANCH  12  13
ENDBRANCH   1  12
TORSDOF 16
ENDMDL
MODEL 9
REMARK VINA RESULT:    -5.202      2.313      4.339
REMARK INTER + INTRA:         -11.495
REMARK INTER:                  -9.835
REMARK INTRA:                  -1.660
REMARK UNBOUND:                -1.427
REMARK SMILES CCCCCCCCCCCCCCCCCC(=O)[O-]
REMARK SMILES IDX 10 1 11 2 12 3 13 4 14 5 15 6 16 7 17 8 18 9 19 10 20 11
REMARK SMILES IDX 9 12 8 13 7 14 6 15 5 16 4 17 3 18 2 19 1 20
REMARK H PARENT
REMARK Flexibility Score: inf
ROOT
ATOM      1  C   UNL     1     -17.818  -8.668  43.108  1.00  0.00     0.000 C 
ENDROOT
BRANCH   1   2
ATOM      2  C   UNL     1     -17.464  -9.310  44.463  1.00  0.00     0.000 C 
BRANCH   2   3
ATOM      3  C   UNL     1     -16.496 -10.504  44.385  1.00  0.00     0.000 C 
BRANCH   3   4
ATOM      4  C   UNL     1     -15.283 -10.348  45.319  1.00  0.00     0.000 C 
BRANCH   4   5
ATOM      5  C   UNL     1     -15.438 -11.141  46.627  1.00  0.00     0.000 C 
BRANCH   5   6
ATOM      6  C   UNL     1     -16.208 -10.357  47.705  1.00  0.00     0.000 C 
BRANCH   6   7
ATOM      7  C   UNL     1     -15.467  -9.084  48.155  1.00  0.00     0.006 C 
BRANCH   7   8
ATOM      8  C   UNL     1     -16.220  -7.775  47.867  1.00  0.00     0.053 C 
BRANCH   8   9
ATOM      9  C   UNL     1     -15.564  -6.978  46.782  1.00  0.00     0.041 C 
ATOM     10  O   UNL     1     -14.324  -7.075  46.584  1.00  0.00    -0.550 OA
ATOM     11  O   UNL     1     -16.318  -6.104  46.009  1.00  0.00    -0.550 OA
ENDBRANCH   8   9
ENDBRANCH   7   8
ENDBRANCH   6   7
ENDBRANCH   5   6
ENDBRANCH   4   5
ENDBRANCH   3   4
ENDBRANCH   2   3
ENDBRANCH   1   2
BRANCH   1  12
ATOM     12  C   UNL     1     -17.194  -7.271  42.899  1.00  0.00     0.000 C 
BRANCH  12  13
ATOM     13  C   UNL     1     -17.941  -6.455  41.830  1.00  0.00    -0.000 C 
BRANCH  13  14
ATOM     14  C   UNL     1     -17.725  -7.002  40.410  1.00  0.00    -0.000 C 
BRANCH  14  15
ATOM     15  C   UNL     1     -17.395  -5.894  39.394  1.00  0.00    -0.000 C 
BRANCH  15  16
ATOM     16  C   UNL     1     -16.567  -6.408  38.205  1.00  0.00    -0.000 C 
BRANCH  16  17
ATOM     17  C   UNL     1     -15.088  -5.994  38.293  1.00  0.00    -0.000 C 
BRANCH  17  18
ATOM     18  C   UNL     1     -14.873  -4.757  39.180  1.00  0.00    -0.000 C 
BRANCH  18  19
ATOM     19  C   UNL     1     -13.721  -4.937  40.180  1.00  0.00    -0.003 C 
ATOM     20  C   UNL     1     -14.092  -5.937  41.271  1.00  0.00     0.004 C 
ENDBRANCH  18  19
ENDBRANCH  17  18
ENDBRANCH  16  17
ENDBRANCH  15  16
ENDBRANCH  14  15
ENDBRANCH  13  14
ENDBRANCH  12  13
ENDBRANCH   1  12
TORSDOF 16
ENDMDL
