MODEL 1
REMARK VINA RESULT:    -2.965      0.000      0.000
REMARK INTER + INTRA:         -12.918
REMARK INTER:                  -7.472
REMARK INTRA:                  -5.447
REMARK UNBOUND:                -5.447
REMARK SMILES CCCCCCCCCCCCCCCCCCCCCCCCCCCC(=O)[O-]
REMARK SMILES IDX 15 1 16 2 17 3 18 4 19 5 20 6 21 7 22 8 23 9 24 10 25 11
REMARK SMILES IDX 26 12 27 13 28 14 29 15 30 16 14 17 13 18 12 19 11 20 10 21
REMARK SMILES IDX 9 22 8 23 7 24 6 25 5 26 4 27 3 28 2 29 1 30
REMARK H PARENT
REMARK Flexibility Score: inf
ROOT
ATOM      1  C   UNL     1      -5.999  -7.009  -2.978  1.00  0.00     0.000 C 
ENDROOT
BRANCH   1   2
ATOM      2  C   UNL     1      -6.288  -5.661  -3.664  1.00  0.00     0.000 C 
BRANCH   2   3
ATOM      3  C   UNL     1      -6.625  -4.543  -2.662  1.00  0.00     0.000 C 
BRANCH   3   4
ATOM      4  C   UNL     1      -5.730  -4.584  -1.412  1.00  0.00     0.000 C 
BRANCH   4   5
ATOM      5  C   UNL     1      -4.812  -3.357  -1.293  1.00  0.00     0.000 C 
BRANCH   5   6
ATOM      6  C   UNL     1      -3.385  -3.783  -0.920  1.00  0.00     0.000 C 
BRANCH   6   7
ATOM      7  C   UNL     1      -3.117  -5.273  -1.187  1.00  0.00     0.000 C 
BRANCH   7   8
ATOM      8  C   UNL     1      -1.952  -5.497  -2.166  1.00  0.00     0.000 C 
BRANCH   8   9
ATOM      9  C   UNL     1      -2.420  -6.044  -3.523  1.00  0.00     0.000 C 
BRANCH   9  10
ATOM     10  C   UNL     1      -2.951  -4.941  -4.458  1.00  0.00     0.000 C 
BRANCH  10  11
ATOM     11  C   UNL     1      -2.097  -3.665  -4.413  1.00  0.00     0.000 C 
BRANCH  11  12
ATOM     12  C   UNL     1      -2.693  -2.522  -5.255  1.00  0.00     0.006 C 
BRANCH  12  13
ATOM     13  C   UNL     1      -3.630  -1.624  -4.437  1.00  0.00     0.053 C 
BRANCH  13  14
ATOM     14  C   UNL     1      -4.618  -0.903  -5.303  1.00  0.00     0.041 C 
ATOM     15  O   UNL     1      -4.917   0.298  -5.065  1.00  0.00    -0.550 OA
ATOM     16  O   UNL     1      -5.216  -1.560  -6.371  1.00  0.00    -0.550 OA
ENDBRANCH  13  14
ENDBRANCH  12  13
ENDBRANCH  11  12
ENDBRANCH  10  11
ENDBRANCH   9  10
ENDBRANCH   8   9
ENDBRANCH   7   8
ENDBRANCH   6   7
ENDBRANCH   5   6
ENDBRANCH   4   5
ENDBRANCH   3   4
ENDBRANCH   2   3
ENDBRANCH   1   2
BRANCH   1  17
ATOM     17  C   UNL     1      -6.306  -8.255  -3.831  1.00  0.00     0.000 C 
BRANCH  17  18
ATOM     18  C   UNL     1      -7.738  -8.780  -3.628  1.00  0.00     0.000 C 
BRANCH  18  19
ATOM     19  C   UNL     1      -8.686  -8.370  -4.766  1.00  0.00     0.000 C 
BRANCH  19  20
ATOM     20  C   UNL     1      -9.584  -7.176  -4.390  1.00  0.00     0.000 C 
BRANCH  20  21
ATOM     21  C   UNL     1      -9.770  -7.037  -2.870  1.00  0.00     0.000 C 
BRANCH  21  22
ATOM     22  C   UNL     1     -10.125  -5.604  -2.449  1.00  0.00    -0.000 C 
BRANCH  22  23
ATOM     23  C   UNL     1      -9.684  -5.330  -1.005  1.00  0.00    -0.000 C 
BRANCH  23  24
ATOM     24  C   UNL     1      -8.920  -6.530  -0.426  1.00  0.00    -0.000 C 
BRANCH  24  25
ATOM     25  C   UNL     1      -8.676  -6.395   1.091  1.00  0.00    -0.000 C 
BRANCH  25  26
ATOM     26  C   UNL     1      -7.422  -7.137   1.587  1.00  0.00    -0.000 C 
BRANCH  26  27
ATOM     27  C   UNL     1      -6.832  -8.087   0.534  1.00  0.00    -0.000 C 
BRANCH  27  28
ATOM     28  C   UNL     1      -5.342  -7.803   0.310  1.00  0.00    -0.000 C 
BRANCH  28  29
ATOM     29  C   UNL     1      -4.556  -9.105   0.112  1.00  0.00    -0.003 C 
ATOM     30  C   UNL     1      -3.070  -8.824  -0.095  1.00  0.00     0.004 C 
ENDBRANCH  28  29
ENDBRANCH  27  28
ENDBRANCH  26  27
ENDBRANCH  25  26
ENDBRANCH  24  25
ENDBRANCH  23  24
ENDBRANCH  22  23
ENDBRANCH  21  22
ENDBRANCH  20  21
ENDBRANCH  19  20
ENDBRANCH  18  19
ENDBRANCH  17  18
ENDBRANCH   1  17
TORSDOF 26
ENDMDL
MODEL 2
REMARK VINA RESULT:    -2.857      2.812      5.115
REMARK INTER + INTRA:         -12.647
REMARK INTER:                  -7.948
REMARK INTRA:                  -4.700
REMARK UNBOUND:                -5.447
REMARK SMILES CCCCCCCCCCCCCCCCCCCCCCCCCCCC(=O)[O-]
REMARK SMILES IDX 15 1 16 2 17 3 18 4 19 5 20 6 21 7 22 8 23 9 24 10 25 11
REMARK SMILES IDX 26 12 27 13 28 14 29 15 30 16 14 17 13 18 12 19 11 20 10 21
REMARK SMILES IDX 9 22 8 23 7 24 6 25 5 26 4 27 3 28 2 29 1 30
REMARK H PARENT
REMARK Flexibility Score: inf
ROOT
ATOM      1  C   UNL     1      -8.149  -3.876  -3.425  1.00  0.00     0.000 C 
ENDROOT
BRANCH   1   2
ATOM      2  C   UNL     1      -6.745  -4.133  -2.846  1.00  0.00     0.000 C 
BRANCH   2   3
ATOM      3  C   UNL     1      -5.620  -3.809  -3.844  1.00  0.00     0.000 C 
BRANCH   3   4
ATOM      4  C   UNL     1      -5.499  -2.302  -4.126  1.00  0.00     0.000 C 
BRANCH   4   5
ATOM      5  C   UNL     1      -4.291  -1.954  -5.011  1.00  0.00     0.000 C 
BRANCH   5   6
ATOM      6  C   UNL     1      -3.260  -3.091  -4.988  1.00  0.00     0.000 C 
BRANCH   6   7
ATOM      7  C   UNL     1      -1.818  -2.594  -5.179  1.00  0.00     0.000 C 
BRANCH   7   8
ATOM      8  C   UNL     1      -1.001  -2.642  -3.877  1.00  0.00     0.000 C 
BRANCH   8   9
ATOM      9  C   UNL     1      -0.738  -4.079  -3.399  1.00  0.00     0.000 C 
BRANCH   9  10
ATOM     10  C   UNL     1      -1.242  -4.331  -1.965  1.00  0.00     0.000 C 
BRANCH  10  11
ATOM     11  C   UNL     1      -1.927  -5.697  -1.811  1.00  0.00     0.000 C 
BRANCH  11  12
ATOM     12  C   UNL     1      -1.170  -6.635  -0.852  1.00  0.00     0.006 C 
BRANCH  12  13
ATOM     13  C   UNL     1      -0.229  -7.592  -1.596  1.00  0.00     0.053 C 
BRANCH  13  14
ATOM     14  C   UNL     1      -0.961  -8.443  -2.589  1.00  0.00     0.041 C 
ATOM     15  O   UNL     1      -1.807  -9.292  -2.198  1.00  0.00    -0.550 OA
ATOM     16  O   UNL     1      -0.703  -8.306  -3.946  1.00  0.00    -0.550 OA
ENDBRANCH  13  14
ENDBRANCH  12  13
ENDBRANCH  11  12
ENDBRANCH  10  11
ENDBRANCH   9  10
ENDBRANCH   8   9
ENDBRANCH   7   8
ENDBRANCH   6   7
ENDBRANCH   5   6
ENDBRANCH   4   5
ENDBRANCH   3   4
ENDBRANCH   2   3
ENDBRANCH   1   2
BRANCH   1  17
ATOM     17  C   UNL     1      -8.813  -5.095  -4.092  1.00  0.00     0.000 C 
BRANCH  17  18
ATOM     18  C   UNL     1      -9.997  -5.650  -3.280  1.00  0.00     0.000 C 
BRANCH  18  19
ATOM     19  C   UNL     1      -9.685  -7.008  -2.631  1.00  0.00     0.000 C 
BRANCH  19  20
ATOM     20  C   UNL     1      -8.925  -6.868  -1.299  1.00  0.00     0.000 C 
BRANCH  20  21
ATOM     21  C   UNL     1      -8.543  -8.229  -0.694  1.00  0.00     0.000 C 
BRANCH  21  22
ATOM     22  C   UNL     1      -7.098  -8.258  -0.175  1.00  0.00    -0.000 C 
BRANCH  22  23
ATOM     23  C   UNL     1      -6.447  -6.874  -0.284  1.00  0.00    -0.000 C 
BRANCH  23  24
ATOM     24  C   UNL     1      -5.069  -6.966  -0.958  1.00  0.00    -0.000 C 
BRANCH  24  25
ATOM     25  C   UNL     1      -5.028  -8.033  -2.071  1.00  0.00    -0.000 C 
BRANCH  25  26
ATOM     26  C   UNL     1      -5.203  -7.459  -3.488  1.00  0.00    -0.000 C 
BRANCH  26  27
ATOM     27  C   UNL     1      -6.468  -7.974  -4.191  1.00  0.00    -0.000 C 
BRANCH  27  28
ATOM     28  C   UNL     1      -6.771  -9.422  -3.788  1.00  0.00    -0.000 C 
BRANCH  28  29
ATOM     29  C   UNL     1      -7.904 -10.006  -4.641  1.00  0.00    -0.003 C 
ATOM     30  C   UNL     1      -8.533  -8.937  -5.529  1.00  0.00     0.004 C 
ENDBRANCH  28  29
ENDBRANCH  27  28
ENDBRANCH  26  27
ENDBRANCH  25  26
ENDBRANCH  24  25
ENDBRANCH  23  24
ENDBRANCH  22  23
ENDBRANCH  21  22
ENDBRANCH  20  21
ENDBRANCH  19  20
ENDBRANCH  18  19
ENDBRANCH  17  18
ENDBRANCH   1  17
TORSDOF 26
ENDMDL
MODEL 3
REMARK VINA RESULT:    -2.839      1.502      2.633
REMARK INTER + INTRA:         -12.602
REMARK INTER:                  -7.708
REMARK INTRA:                  -4.894
REMARK UNBOUND:                -5.447
REMARK SMILES CCCCCCCCCCCCCCCCCCCCCCCCCCCC(=O)[O-]
REMARK SMILES IDX 15 1 16 2 17 3 18 4 19 5 20 6 21 7 22 8 23 9 24 10 25 11
REMARK SMILES IDX 26 12 27 13 28 14 29 15 30 16 14 17 13 18 12 19 11 20 10 21
REMARK SMILES IDX 9 22 8 23 7 24 6 25 5 26 4 27 3 28 2 29 1 30
REMARK H PARENT
REMARK Flexibility Score: inf
ROOT
ATOM      1  C   UNL     1      -6.348  -8.349  -3.461  1.00  0.00     0.000 C 
ENDROOT
BRANCH   1   2
ATOM      2  C   UNL     1      -5.441  -7.290  -4.115  1.00  0.00     0.000 C 
BRANCH   2   3
ATOM      3  C   UNL     1      -5.801  -5.854  -3.694  1.00  0.00     0.000 C 
BRANCH   3   4
ATOM      4  C   UNL     1      -4.584  -4.915  -3.708  1.00  0.00     0.000 C 
BRANCH   4   5
ATOM      5  C   UNL     1      -3.271  -5.642  -4.043  1.00  0.00     0.000 C 
BRANCH   5   6
ATOM      6  C   UNL     1      -2.134  -5.148  -3.137  1.00  0.00     0.000 C 
BRANCH   6   7
ATOM      7  C   UNL     1      -2.091  -3.617  -3.011  1.00  0.00     0.000 C 
BRANCH   7   8
ATOM      8  C   UNL     1      -1.133  -2.969  -4.024  1.00  0.00     0.000 C 
BRANCH   8   9
ATOM      9  C   UNL     1      -1.862  -2.436  -5.267  1.00  0.00     0.000 C 
BRANCH   9  10
ATOM     10  C   UNL     1      -2.997  -1.456  -4.918  1.00  0.00     0.000 C 
BRANCH  10  11
ATOM     11  C   UNL     1      -4.313  -1.794  -5.634  1.00  0.00     0.000 C 
BRANCH  11  12
ATOM     12  C   UNL     1      -5.144  -0.543  -5.971  1.00  0.00     0.006 C 
BRANCH  12  13
ATOM     13  C   UNL     1      -6.636  -0.736  -5.669  1.00  0.00     0.053 C 
BRANCH  13  14
ATOM     14  C   UNL     1      -6.860  -1.565  -4.441  1.00  0.00     0.041 C 
ATOM     15  O   UNL     1      -7.350  -2.722  -4.534  1.00  0.00    -0.550 OA
ATOM     16  O   UNL     1      -6.535  -1.056  -3.190  1.00  0.00    -0.550 OA
ENDBRANCH  13  14
ENDBRANCH  12  13
ENDBRANCH  11  12
ENDBRANCH  10  11
ENDBRANCH   9  10
ENDBRANCH   8   9
ENDBRANCH   7   8
ENDBRANCH   6   7
ENDBRANCH   5   6
ENDBRANCH   4   5
ENDBRANCH   3   4
ENDBRANCH   2   3
ENDBRANCH   1   2
BRANCH   1  17
ATOM     17  C   UNL     1      -6.964  -9.372  -4.433  1.00  0.00     0.000 C 
BRANCH  17  18
ATOM     18  C   UNL     1      -8.498  -9.276  -4.510  1.00  0.00     0.000 C 
BRANCH  18  19
ATOM     19  C   UNL     1      -8.976  -8.036  -5.283  1.00  0.00     0.000 C 
BRANCH  19  20
ATOM     20  C   UNL     1      -9.906  -7.138  -4.447  1.00  0.00     0.000 C 
BRANCH  20  21
ATOM     21  C   UNL     1      -9.401  -5.688  -4.359  1.00  0.00     0.000 C 
BRANCH  21  22
ATOM     22  C   UNL     1      -9.360  -5.164  -2.917  1.00  0.00    -0.000 C 
BRANCH  22  23
ATOM     23  C   UNL     1      -9.725  -6.271  -1.919  1.00  0.00    -0.000 C 
BRANCH  23  24
ATOM     24  C   UNL     1      -8.560  -6.553  -0.958  1.00  0.00    -0.000 C 
BRANCH  24  25
ATOM     25  C   UNL     1      -8.514  -8.027  -0.506  1.00  0.00    -0.000 C 
BRANCH  25  26
ATOM     26  C   UNL     1      -7.151  -8.458   0.064  1.00  0.00    -0.000 C 
BRANCH  26  27
ATOM     27  C   UNL     1      -6.322  -7.279   0.594  1.00  0.00    -0.000 C 
BRANCH  27  28
ATOM     28  C   UNL     1      -5.057  -7.073  -0.247  1.00  0.00    -0.000 C 
BRANCH  28  29
ATOM     29  C   UNL     1      -4.362  -5.755   0.114  1.00  0.00    -0.003 C 
ATOM     30  C   UNL     1      -5.226  -4.555  -0.261  1.00  0.00     0.004 C 
ENDBRANCH  28  29
ENDBRANCH  27  28
ENDBRANCH  26  27
ENDBRANCH  25  26
ENDBRANCH  24  25
ENDBRANCH  23  24
ENDBRANCH  22  23
ENDBRANCH  21  22
ENDBRANCH  20  21
ENDBRANCH  19  20
ENDBRANCH  18  19
ENDBRANCH  17  18
ENDBRANCH   1  17
TORSDOF 26
ENDMDL
MODEL 4
REMARK VINA RESULT:    -2.838      2.936      4.948
REMARK INTER + INTRA:         -12.597
REMARK INTER:                  -8.161
REMARK INTRA:                  -4.436
REMARK UNBOUND:                -5.447
REMARK SMILES CCCCCCCCCCCCCCCCCCCCCCCCCCCC(=O)[O-]
REMARK SMILES IDX 15 1 16 2 17 3 18 4 19 5 20 6 21 7 22 8 23 9 24 10 25 11
REMARK SMILES IDX 26 12 27 13 28 14 29 15 30 16 14 17 13 18 12 19 11 20 10 21
REMARK SMILES IDX 9 22 8 23 7 24 6 25 5 26 4 27 3 28 2 29 1 30
REMARK H PARENT
REMARK Flexibility Score: inf
ROOT
ATOM      1  C   UNL     1      -8.469  -3.852  -4.026  1.00  0.00     0.000 C 
ENDROOT
BRANCH   1   2
ATOM      2  C   UNL     1      -7.153  -3.905  -3.228  1.00  0.00     0.000 C 
BRANCH   2   3
ATOM      3  C   UNL     1      -5.930  -3.502  -4.070  1.00  0.00     0.000 C 
BRANCH   3   4
ATOM      4  C   UNL     1      -6.147  -2.183  -4.831  1.00  0.00     0.000 C 
BRANCH   4   5
ATOM      5  C   UNL     1      -4.910  -1.745  -5.632  1.00  0.00     0.000 C 
BRANCH   5   6
ATOM      6  C   UNL     1      -3.684  -1.632  -4.715  1.00  0.00     0.000 C 
BRANCH   6   7
ATOM      7  C   UNL     1      -2.394  -2.143  -5.376  1.00  0.00     0.000 C 
BRANCH   7   8
ATOM      8  C   UNL     1      -1.962  -3.519  -4.840  1.00  0.00     0.000 C 
BRANCH   8   9
ATOM      9  C   UNL     1      -2.610  -3.855  -3.488  1.00  0.00     0.000 C 
BRANCH   9  10
ATOM     10  C   UNL     1      -1.615  -3.780  -2.316  1.00  0.00     0.000 C 
BRANCH  10  11
ATOM     11  C   UNL     1      -0.436  -2.838  -2.600  1.00  0.00     0.000 C 
BRANCH  11  12
ATOM     12  C   UNL     1       0.930  -3.529  -2.430  1.00  0.00     0.006 C 
BRANCH  12  13
ATOM     13  C   UNL     1       1.075  -4.761  -3.333  1.00  0.00     0.053 C 
BRANCH  13  14
ATOM     14  C   UNL     1       2.340  -4.725  -4.136  1.00  0.00     0.041 C 
ATOM     15  O   UNL     1       2.818  -3.625  -4.523  1.00  0.00    -0.550 OA
ATOM     16  O   UNL     1       2.988  -5.909  -4.466  1.00  0.00    -0.550 OA
ENDBRANCH  13  14
ENDBRANCH  12  13
ENDBRANCH  11  12
ENDBRANCH  10  11
ENDBRANCH   9  10
ENDBRANCH   8   9
ENDBRANCH   7   8
ENDBRANCH   6   7
ENDBRANCH   5   6
ENDBRANCH   4   5
ENDBRANCH   3   4
ENDBRANCH   2   3
ENDBRANCH   1   2
BRANCH   1  17
ATOM     17  C   UNL     1      -9.097  -5.223  -4.341  1.00  0.00     0.000 C 
BRANCH  17  18
ATOM     18  C   UNL     1     -10.125  -5.667  -3.284  1.00  0.00     0.000 C 
BRANCH  18  19
ATOM     19  C   UNL     1      -9.717  -6.966  -2.571  1.00  0.00     0.000 C 
BRANCH  19  20
ATOM     20  C   UNL     1      -8.812  -6.716  -1.350  1.00  0.00     0.000 C 
BRANCH  20  21
ATOM     21  C   UNL     1      -8.223  -8.015  -0.779  1.00  0.00     0.000 C 
BRANCH  21  22
ATOM     22  C   UNL     1      -6.721  -7.902  -0.485  1.00  0.00    -0.000 C 
BRANCH  22  23
ATOM     23  C   UNL     1      -6.240  -6.452  -0.632  1.00  0.00    -0.000 C 
BRANCH  23  24
ATOM     24  C   UNL     1      -4.921  -6.387  -1.418  1.00  0.00    -0.000 C 
BRANCH  24  25
ATOM     25  C   UNL     1      -4.778  -7.547  -2.425  1.00  0.00    -0.000 C 
BRANCH  25  26
ATOM     26  C   UNL     1      -5.195  -7.179  -3.859  1.00  0.00    -0.000 C 
BRANCH  26  27
ATOM     27  C   UNL     1      -6.526  -7.820  -4.280  1.00  0.00    -0.000 C 
BRANCH  27  28
ATOM     28  C   UNL     1      -6.583  -9.294  -3.864  1.00  0.00    -0.000 C 
BRANCH  28  29
ATOM     29  C   UNL     1      -7.788 -10.000  -4.496  1.00  0.00    -0.003 C 
ATOM     30  C   UNL     1      -8.537  -9.068  -5.445  1.00  0.00     0.004 C 
ENDBRANCH  28  29
ENDBRANCH  27  28
ENDBRANCH  26  27
ENDBRANCH  25  26
ENDBRANCH  24  25
ENDBRANCH  23  24
ENDBRANCH  22  23
ENDBRANCH  21  22
ENDBRANCH  20  21
ENDBRANCH  19  20
ENDBRANCH  18  19
ENDBRANCH  17  18
ENDBRANCH   1  17
TORSDOF 26
ENDMDL
MODEL 5
REMARK VINA RESULT:    -2.791      3.583      8.910
REMARK INTER + INTRA:         -12.481
REMARK INTER:                  -9.129
REMARK INTRA:                  -3.351
REMARK UNBOUND:                -5.447
REMARK SMILES CCCCCCCCCCCCCCCCCCCCCCCCCCCC(=O)[O-]
REMARK SMILES IDX 15 1 16 2 17 3 18 4 19 5 20 6 21 7 22 8 23 9 24 10 25 11
REMARK SMILES IDX 26 12 27 13 28 14 29 15 30 16 14 17 13 18 12 19 11 20 10 21
REMARK SMILES IDX 9 22 8 23 7 24 6 25 5 26 4 27 3 28 2 29 1 30
REMARK H PARENT
REMARK Flexibility Score: inf
ROOT
ATOM      1  C   UNL     1      -4.698  -4.862  -3.121  1.00  0.00     0.000 C 
ENDROOT
BRANCH   1   2
ATOM      2  C   UNL     1      -5.840  -5.824  -3.496  1.00  0.00     0.000 C 
BRANCH   2   3
ATOM      3  C   UNL     1      -5.332  -7.168  -4.045  1.00  0.00     0.000 C 
BRANCH   3   4
ATOM      4  C   UNL     1      -6.212  -8.352  -3.611  1.00  0.00     0.000 C 
BRANCH   4   5
ATOM      5  C   UNL     1      -7.098  -8.886  -4.748  1.00  0.00     0.000 C 
BRANCH   5   6
ATOM      6  C   UNL     1      -8.582  -8.793  -4.366  1.00  0.00     0.000 C 
BRANCH   6   7
ATOM      7  C   UNL     1      -9.323  -7.677  -5.119  1.00  0.00     0.000 C 
BRANCH   7   8
ATOM      8  C   UNL     1      -9.467  -6.395  -4.281  1.00  0.00     0.000 C 
BRANCH   8   9
ATOM      9  C   UNL     1      -9.928  -6.679  -2.843  1.00  0.00     0.000 C 
BRANCH   9  10
ATOM     10  C   UNL     1      -9.135  -5.878  -1.794  1.00  0.00     0.000 C 
BRANCH  10  11
ATOM     11  C   UNL     1      -8.926  -6.659  -0.488  1.00  0.00     0.000 C 
BRANCH  11  12
ATOM     12  C   UNL     1      -8.241  -8.019  -0.713  1.00  0.00     0.006 C 
BRANCH  12  13
ATOM     13  C   UNL     1      -8.429  -8.970   0.477  1.00  0.00     0.053 C 
BRANCH  13  14
ATOM     14  C   UNL     1      -8.125  -8.304   1.784  1.00  0.00     0.041 C 
ATOM     15  O   UNL     1      -9.002  -8.243   2.687  1.00  0.00    -0.550 OA
ATOM     16  O   UNL     1      -6.874  -7.742   2.003  1.00  0.00    -0.550 OA
ENDBRANCH  13  14
ENDBRANCH  12  13
ENDBRANCH  11  12
ENDBRANCH  10  11
ENDBRANCH   9  10
ENDBRANCH   8   9
ENDBRANCH   7   8
ENDBRANCH   6   7
ENDBRANCH   5   6
ENDBRANCH   4   5
ENDBRANCH   3   4
ENDBRANCH   2   3
ENDBRANCH   1   2
BRANCH   1  17
ATOM     17  C   UNL     1      -3.426  -4.991  -3.981  1.00  0.00     0.000 C 
BRANCH  17  18
ATOM     18  C   UNL     1      -2.445  -3.823  -3.778  1.00  0.00     0.000 C 
BRANCH  18  19
ATOM     19  C   UNL     1      -2.214  -3.013  -5.064  1.00  0.00     0.000 C 
BRANCH  19  20
ATOM     20  C   UNL     1      -2.932  -1.651  -5.045  1.00  0.00     0.000 C 
BRANCH  20  21
ATOM     21  C   UNL     1      -4.348  -1.725  -5.638  1.00  0.00     0.000 C 
BRANCH  21  22
ATOM     22  C   UNL     1      -5.442  -1.602  -4.568  1.00  0.00    -0.000 C 
BRANCH  22  23
ATOM     23  C   UNL     1      -6.839  -1.698  -5.196  1.00  0.00    -0.000 C 
BRANCH  23  24
ATOM     24  C   UNL     1      -7.367  -0.307  -5.581  1.00  0.00    -0.000 C 
BRANCH  24  25
ATOM     25  C   UNL     1      -7.927  -0.267  -7.018  1.00  0.00    -0.000 C 
BRANCH  25  26
ATOM     26  C   UNL     1      -7.130   0.642  -7.969  1.00  0.00    -0.000 C 
BRANCH  26  27
ATOM     27  C   UNL     1      -5.765   1.056  -7.401  1.00  0.00    -0.000 C 
BRANCH  27  28
ATOM     28  C   UNL     1      -5.736   2.554  -7.075  1.00  0.00    -0.000 C 
BRANCH  28  29
ATOM     29  C   UNL     1      -4.984   2.820  -5.766  1.00  0.00    -0.003 C 
ATOM     30  C   UNL     1      -4.248   4.156  -5.815  1.00  0.00     0.004 C 
ENDBRANCH  28  29
ENDBRANCH  27  28
ENDBRANCH  26  27
ENDBRANCH  25  26
ENDBRANCH  24  25
ENDBRANCH  23  24
ENDBRANCH  22  23
ENDBRANCH  21  22
ENDBRANCH  20  21
ENDBRANCH  19  20
ENDBRANCH  18  19
ENDBRANCH  17  18
ENDBRANCH   1  17
TORSDOF 26
ENDMDL
MODEL 6
REMARK VINA RESULT:    -2.775      2.186      5.131
REMARK INTER + INTRA:         -12.441
REMARK INTER:                  -7.665
REMARK INTRA:                  -4.776
REMARK UNBOUND:                -5.447
REMARK SMILES CCCCCCCCCCCCCCCCCCCCCCCCCCCC(=O)[O-]
REMARK SMILES IDX 15 1 16 2 17 3 18 4 19 5 20 6 21 7 22 8 23 9 24 10 25 11
REMARK SMILES IDX 26 12 27 13 28 14 29 15 30 16 14 17 13 18 12 19 11 20 10 21
REMARK SMILES IDX 9 22 8 23 7 24 6 25 5 26 4 27 3 28 2 29 1 30
REMARK H PARENT
REMARK Flexibility Score: inf
ROOT
ATOM      1  C   UNL     1      -7.889  -5.971  -0.745  1.00  0.00     0.000 C 
ENDROOT
BRANCH   1   2
ATOM      2  C   UNL     1      -9.385  -5.997  -1.109  1.00  0.00     0.000 C 
BRANCH   2   3
ATOM      3  C   UNL     1      -9.693  -5.249  -2.418  1.00  0.00     0.000 C 
BRANCH   3   4
ATOM      4  C   UNL     1      -8.919  -5.819  -3.618  1.00  0.00     0.000 C 
BRANCH   4   5
ATOM      5  C   UNL     1      -9.749  -6.814  -4.446  1.00  0.00     0.000 C 
BRANCH   5   6
ATOM      6  C   UNL     1      -8.938  -8.086  -4.734  1.00  0.00     0.000 C 
BRANCH   6   7
ATOM      7  C   UNL     1      -8.072  -8.525  -3.543  1.00  0.00     0.000 C 
BRANCH   7   8
ATOM      8  C   UNL     1      -6.648  -8.924  -3.964  1.00  0.00     0.000 C 
BRANCH   8   9
ATOM      9  C   UNL     1      -5.569  -8.083  -3.265  1.00  0.00     0.000 C 
BRANCH   9  10
ATOM     10  C   UNL     1      -5.311  -6.739  -3.971  1.00  0.00     0.000 C 
BRANCH  10  11
ATOM     11  C   UNL     1      -4.888  -5.630  -2.996  1.00  0.00     0.000 C 
BRANCH  11  12
ATOM     12  C   UNL     1      -4.763  -4.256  -3.678  1.00  0.00     0.006 C 
BRANCH  12  13
ATOM     13  C   UNL     1      -3.385  -4.048  -4.321  1.00  0.00     0.053 C 
BRANCH  13  14
ATOM     14  C   UNL     1      -3.294  -2.740  -5.047  1.00  0.00     0.041 C 
ATOM     15  O   UNL     1      -2.176  -2.185  -5.221  1.00  0.00    -0.550 OA
ATOM     16  O   UNL     1      -4.445  -2.129  -5.526  1.00  0.00    -0.550 OA
ENDBRANCH  13  14
ENDBRANCH  12  13
ENDBRANCH  11  12
ENDBRANCH  10  11
ENDBRANCH   9  10
ENDBRANCH   8   9
ENDBRANCH   7   8
ENDBRANCH   6   7
ENDBRANCH   5   6
ENDBRANCH   4   5
ENDBRANCH   3   4
ENDBRANCH   2   3
ENDBRANCH   1   2
BRANCH   1  17
ATOM     17  C   UNL     1      -7.329  -7.296  -0.194  1.00  0.00     0.000 C 
BRANCH  17  18
ATOM     18  C   UNL     1      -8.432  -8.284   0.225  1.00  0.00     0.000 C 
BRANCH  18  19
ATOM     19  C   UNL     1      -7.934  -9.339   1.226  1.00  0.00     0.000 C 
BRANCH  19  20
ATOM     20  C   UNL     1      -8.695  -9.294   2.564  1.00  0.00     0.000 C 
BRANCH  20  21
ATOM     21  C   UNL     1      -9.279  -7.903   2.862  1.00  0.00     0.000 C 
BRANCH  21  22
ATOM     22  C   UNL     1      -8.380  -7.073   3.789  1.00  0.00    -0.000 C 
BRANCH  22  23
ATOM     23  C   UNL     1      -7.996  -5.740   3.134  1.00  0.00    -0.000 C 
BRANCH  23  24
ATOM     24  C   UNL     1      -9.235  -5.022   2.579  1.00  0.00    -0.000 C 
BRANCH  24  25
ATOM     25  C   UNL     1      -9.727  -3.894   3.510  1.00  0.00    -0.000 C 
BRANCH  25  26
ATOM     26  C   UNL     1      -9.635  -2.490   2.885  1.00  0.00    -0.000 C 
BRANCH  26  27
ATOM     27  C   UNL     1      -9.735  -2.507   1.353  1.00  0.00    -0.000 C 
BRANCH  27  28
ATOM     28  C   UNL     1      -8.514  -1.835   0.714  1.00  0.00    -0.000 C 
BRANCH  28  29
ATOM     29  C   UNL     1      -8.331  -2.288  -0.739  1.00  0.00    -0.003 C 
ATOM     30  C   UNL     1      -6.852  -2.434  -1.088  1.00  0.00     0.004 C 
ENDBRANCH  28  29
ENDBRANCH  27  28
ENDBRANCH  26  27
ENDBRANCH  25  26
ENDBRANCH  24  25
ENDBRANCH  23  24
ENDBRANCH  22  23
ENDBRANCH  21  22
ENDBRANCH  20  21
ENDBRANCH  19  20
ENDBRANCH  18  19
ENDBRANCH  17  18
ENDBRANCH   1  17
TORSDOF 26
ENDMDL
MODEL 7
REMARK VINA RESULT:    -2.769      3.404      7.273
REMARK INTER + INTRA:         -12.423
REMARK INTER:                  -7.365
REMARK INTRA:                  -5.058
REMARK UNBOUND:                -5.447
REMARK SMILES CCCCCCCCCCCCCCCCCCCCCCCCCCCC(=O)[O-]
REMARK SMILES IDX 15 1 16 2 17 3 18 4 19 5 20 6 21 7 22 8 23 9 24 10 25 11
REMARK SMILES IDX 26 12 27 13 28 14 29 15 30 16 14 17 13 18 12 19 11 20 10 21
REMARK SMILES IDX 9 22 8 23 7 24 6 25 5 26 4 27 3 28 2 29 1 30
REMARK H PARENT
REMARK Flexibility Score: inf
ROOT
ATOM      1  C   UNL     1      -4.784  -4.933  -2.941  1.00  0.00     0.000 C 
ENDROOT
BRANCH   1   2
ATOM      2  C   UNL     1      -5.956  -5.909  -3.157  1.00  0.00     0.000 C 
BRANCH   2   3
ATOM      3  C   UNL     1      -5.573  -7.115  -4.032  1.00  0.00     0.000 C 
BRANCH   3   4
ATOM      4  C   UNL     1      -6.156  -8.435  -3.502  1.00  0.00     0.000 C 
BRANCH   4   5
ATOM      5  C   UNL     1      -7.177  -9.066  -4.464  1.00  0.00     0.000 C 
BRANCH   5   6
ATOM      6  C   UNL     1      -8.608  -8.690  -4.055  1.00  0.00     0.000 C 
BRANCH   6   7
ATOM      7  C   UNL     1      -9.230  -7.622  -4.968  1.00  0.00     0.000 C 
BRANCH   7   8
ATOM      8  C   UNL     1      -9.510  -6.303  -4.228  1.00  0.00     0.000 C 
BRANCH   8   9
ATOM      9  C   UNL     1     -10.107  -6.528  -2.830  1.00  0.00     0.000 C 
BRANCH   9  10
ATOM     10  C   UNL     1      -9.455  -5.641  -1.754  1.00  0.00     0.000 C 
BRANCH  10  11
ATOM     11  C   UNL     1      -9.190  -6.398  -0.444  1.00  0.00     0.000 C 
BRANCH  11  12
ATOM     12  C   UNL     1      -8.173  -7.541  -0.615  1.00  0.00     0.006 C 
BRANCH  12  13
ATOM     13  C   UNL     1      -8.310  -8.610   0.478  1.00  0.00     0.053 C 
BRANCH  13  14
ATOM     14  C   UNL     1      -8.232  -8.022   1.854  1.00  0.00     0.041 C 
ATOM     15  O   UNL     1      -9.202  -8.137   2.651  1.00  0.00    -0.550 OA
ATOM     16  O   UNL     1      -7.091  -7.339   2.255  1.00  0.00    -0.550 OA
ENDBRANCH  13  14
ENDBRANCH  12  13
ENDBRANCH  11  12
ENDBRANCH  10  11
ENDBRANCH   9  10
ENDBRANCH   8   9
ENDBRANCH   7   8
ENDBRANCH   6   7
ENDBRANCH   5   6
ENDBRANCH   4   5
ENDBRANCH   3   4
ENDBRANCH   2   3
ENDBRANCH   1   2
BRANCH   1  17
ATOM     17  C   UNL     1      -3.610  -5.093  -3.926  1.00  0.00     0.000 C 
BRANCH  17  18
ATOM     18  C   UNL     1      -2.595  -3.939  -3.839  1.00  0.00     0.000 C 
BRANCH  18  19
ATOM     19  C   UNL     1      -2.525  -3.114  -5.133  1.00  0.00     0.000 C 
BRANCH  19  20
ATOM     20  C   UNL     1      -3.272  -1.771  -5.023  1.00  0.00     0.000 C 
BRANCH  20  21
ATOM     21  C   UNL     1      -4.728  -1.868  -5.507  1.00  0.00     0.000 C 
BRANCH  21  22
ATOM     22  C   UNL     1      -5.734  -1.893  -4.348  1.00  0.00    -0.000 C 
BRANCH  22  23
ATOM     23  C   UNL     1      -7.154  -2.169  -4.858  1.00  0.00    -0.000 C 
BRANCH  23  24
ATOM     24  C   UNL     1      -7.968  -2.958  -3.821  1.00  0.00    -0.000 C 
BRANCH  24  25
ATOM     25  C   UNL     1      -9.338  -2.311  -3.532  1.00  0.00    -0.000 C 
BRANCH  25  26
ATOM     26  C   UNL     1      -9.492  -1.803  -2.088  1.00  0.00    -0.000 C 
BRANCH  26  27
ATOM     27  C   UNL     1      -8.157  -1.725  -1.334  1.00  0.00    -0.000 C 
BRANCH  27  28
ATOM     28  C   UNL     1      -8.119  -2.730  -0.176  1.00  0.00    -0.000 C 
BRANCH  28  29
ATOM     29  C   UNL     1      -6.791  -3.495  -0.153  1.00  0.00    -0.003 C 
ATOM     30  C   UNL     1      -6.422  -3.915   1.268  1.00  0.00     0.004 C 
ENDBRANCH  28  29
ENDBRANCH  27  28
ENDBRANCH  26  27
ENDBRANCH  25  26
ENDBRANCH  24  25
ENDBRANCH  23  24
ENDBRANCH  22  23
ENDBRANCH  21  22
ENDBRANCH  20  21
ENDBRANCH  19  20
ENDBRANCH  18  19
ENDBRANCH  17  18
ENDBRANCH   1  17
TORSDOF 26
ENDMDL
MODEL 8
REMARK VINA RESULT:    -2.721      2.002      4.248
REMARK INTER + INTRA:         -12.303
REMARK INTER:                  -7.307
REMARK INTRA:                  -4.996
REMARK UNBOUND:                -5.447
REMARK SMILES CCCCCCCCCCCCCCCCCCCCCCCCCCCC(=O)[O-]
REMARK SMILES IDX 15 1 16 2 17 3 18 4 19 5 20 6 21 7 22 8 23 9 24 10 25 11
REMARK SMILES IDX 26 12 27 13 28 14 29 15 30 16 14 17 13 18 12 19 11 20 10 21
REMARK SMILES IDX 9 22 8 23 7 24 6 25 5 26 4 27 3 28 2 29 1 30
REMARK H PARENT
REMARK Flexibility Score: inf
ROOT
ATOM      1  C   UNL     1      -5.250  -7.880  -2.725  1.00  0.00     0.000 C 
ENDROOT
BRANCH   1   2
ATOM      2  C   UNL     1      -5.045  -6.662  -3.645  1.00  0.00     0.000 C 
BRANCH   2   3
ATOM      3  C   UNL     1      -3.654  -6.639  -4.302  1.00  0.00     0.000 C 
BRANCH   3   4
ATOM      4  C   UNL     1      -3.061  -5.222  -4.374  1.00  0.00     0.000 C 
BRANCH   4   5
ATOM      5  C   UNL     1      -3.545  -4.312  -3.234  1.00  0.00     0.000 C 
BRANCH   5   6
ATOM      6  C   UNL     1      -3.009  -2.885  -3.415  1.00  0.00     0.000 C 
BRANCH   6   7
ATOM      7  C   UNL     1      -4.007  -1.809  -2.961  1.00  0.00     0.000 C 
BRANCH   7   8
ATOM      8  C   UNL     1      -4.641  -1.056  -4.143  1.00  0.00     0.000 C 
BRANCH   8   9
ATOM      9  C   UNL     1      -4.422  -1.773  -5.484  1.00  0.00     0.000 C 
BRANCH   9  10
ATOM     10  C   UNL     1      -5.380  -1.283  -6.585  1.00  0.00     0.000 C 
BRANCH  10  11
ATOM     11  C   UNL     1      -6.408  -0.266  -6.065  1.00  0.00     0.000 C 
BRANCH  11  12
ATOM     12  C   UNL     1      -6.756   0.811  -7.108  1.00  0.00     0.006 C 
BRANCH  12  13
ATOM     13  C   UNL     1      -5.634   1.844  -7.276  1.00  0.00     0.053 C 
BRANCH  13  14
ATOM     14  C   UNL     1      -5.584   2.813  -6.135  1.00  0.00     0.041 C 
ATOM     15  O   UNL     1      -4.511   2.995  -5.500  1.00  0.00    -0.550 OA
ATOM     16  O   UNL     1      -6.727   3.511  -5.766  1.00  0.00    -0.550 OA
ENDBRANCH  13  14
ENDBRANCH  12  13
ENDBRANCH  11  12
ENDBRANCH  10  11
ENDBRANCH   9  10
ENDBRANCH   8   9
ENDBRANCH   7   8
ENDBRANCH   6   7
ENDBRANCH   5   6
ENDBRANCH   4   5
ENDBRANCH   3   4
ENDBRANCH   2   3
ENDBRANCH   1   2
BRANCH   1  17
ATOM     17  C   UNL     1      -6.674  -8.467  -2.727  1.00  0.00     0.000 C 
BRANCH  17  18
ATOM     18  C   UNL     1      -7.148  -8.884  -4.131  1.00  0.00     0.000 C 
BRANCH  18  19
ATOM     19  C   UNL     1      -8.565  -8.383  -4.451  1.00  0.00     0.000 C 
BRANCH  19  20
ATOM     20  C   UNL     1      -8.789  -6.921  -4.022  1.00  0.00     0.000 C 
BRANCH  20  21
ATOM     21  C   UNL     1     -10.102  -6.732  -3.245  1.00  0.00     0.000 C 
BRANCH  21  22
ATOM     22  C   UNL     1      -9.913  -5.913  -1.960  1.00  0.00    -0.000 C 
BRANCH  22  23
ATOM     23  C   UNL     1      -8.998  -6.647  -0.971  1.00  0.00    -0.000 C 
BRANCH  23  24
ATOM     24  C   UNL     1      -8.220  -5.651  -0.097  1.00  0.00    -0.000 C 
BRANCH  24  25
ATOM     25  C   UNL     1      -6.933  -5.148  -0.782  1.00  0.00    -0.000 C 
BRANCH  25  26
ATOM     26  C   UNL     1      -6.746  -3.622  -0.708  1.00  0.00    -0.000 C 
BRANCH  26  27
ATOM     27  C   UNL     1      -7.263  -2.893  -1.957  1.00  0.00    -0.000 C 
BRANCH  27  28
ATOM     28  C   UNL     1      -7.162  -3.787  -3.198  1.00  0.00    -0.000 C 
BRANCH  28  29
ATOM     29  C   UNL     1      -7.889  -3.158  -4.392  1.00  0.00    -0.003 C 
ATOM     30  C   UNL     1      -9.362  -2.916  -4.074  1.00  0.00     0.004 C 
ENDBRANCH  28  29
ENDBRANCH  27  28
ENDBRANCH  26  27
ENDBRANCH  25  26
ENDBRANCH  24  25
ENDBRANCH  23  24
ENDBRANCH  22  23
ENDBRANCH  21  22
ENDBRANCH  20  21
ENDBRANCH  19  20
ENDBRANCH  18  19
ENDBRANCH  17  18
ENDBRANCH   1  17
TORSDOF 26
ENDMDL
MODEL 9
REMARK VINA RESULT:    -2.712      3.145      6.097
REMARK INTER + INTRA:         -12.281
REMARK INTER:                  -7.051
REMARK INTRA:                  -5.230
REMARK UNBOUND:                -5.447
REMARK SMILES CCCCCCCCCCCCCCCCCCCCCCCCCCCC(=O)[O-]
REMARK SMILES IDX 15 1 16 2 17 3 18 4 19 5 20 6 21 7 22 8 23 9 24 10 25 11
REMARK SMILES IDX 26 12 27 13 28 14 29 15 30 16 14 17 13 18 12 19 11 20 10 21
REMARK SMILES IDX 9 22 8 23 7 24 6 25 5 26 4 27 3 28 2 29 1 30
REMARK H PARENT
REMARK Flexibility Score: inf
ROOT
ATOM      1  C   UNL     1      -5.956  -7.211  -1.495  1.00  0.00     0.000 C 
ENDROOT
BRANCH   1   2
ATOM      2  C   UNL     1      -6.323  -7.957  -0.198  1.00  0.00     0.000 C 
BRANCH   2   3
ATOM      3  C   UNL     1      -7.823  -8.284  -0.103  1.00  0.00     0.000 C 
BRANCH   3   4
ATOM      4  C   UNL     1      -8.278  -8.546   1.343  1.00  0.00     0.000 C 
BRANCH   4   5
ATOM      5  C   UNL     1      -8.967  -7.330   1.983  1.00  0.00     0.000 C 
BRANCH   5   6
ATOM      6  C   UNL     1      -9.404  -6.327   0.905  1.00  0.00     0.000 C 
BRANCH   6   7
ATOM      7  C   UNL     1      -8.962  -4.888   1.213  1.00  0.00     0.000 C 
BRANCH   7   8
ATOM      8  C   UNL     1      -7.716  -4.834   2.114  1.00  0.00     0.000 C 
BRANCH   8   9
ATOM      9  C   UNL     1      -6.455  -4.401   1.349  1.00  0.00     0.000 C 
BRANCH   9  10
ATOM     10  C   UNL     1      -6.770  -3.844  -0.052  1.00  0.00     0.000 C 
BRANCH  10  11
ATOM     11  C   UNL     1      -6.636  -2.315  -0.124  1.00  0.00     0.000 C 
BRANCH  11  12
ATOM     12  C   UNL     1      -6.068  -1.708   1.172  1.00  0.00     0.006 C 
BRANCH  12  13
ATOM     13  C   UNL     1      -7.007  -0.659   1.784  1.00  0.00     0.053 C 
BRANCH  13  14
ATOM     14  C   UNL     1      -6.885  -0.597   3.276  1.00  0.00     0.041 C 
ATOM     15  O   UNL     1      -6.669  -1.645   3.942  1.00  0.00    -0.550 OA
ATOM     16  O   UNL     1      -7.019   0.619   3.934  1.00  0.00    -0.550 OA
ENDBRANCH  13  14
ENDBRANCH  12  13
ENDBRANCH  11  12
ENDBRANCH  10  11
ENDBRANCH   9  10
ENDBRANCH   8   9
ENDBRANCH   7   8
ENDBRANCH   6   7
ENDBRANCH   5   6
ENDBRANCH   4   5
ENDBRANCH   3   4
ENDBRANCH   2   3
ENDBRANCH   1   2
BRANCH   1  17
ATOM     17  C   UNL     1      -5.394  -8.100  -2.621  1.00  0.00     0.000 C 
BRANCH  17  18
ATOM     18  C   UNL     1      -6.020  -7.792  -3.994  1.00  0.00     0.000 C 
BRANCH  18  19
ATOM     19  C   UNL     1      -6.997  -8.885  -4.457  1.00  0.00     0.000 C 
BRANCH  19  20
ATOM     20  C   UNL     1      -8.405  -8.717  -3.857  1.00  0.00     0.000 C 
BRANCH  20  21
ATOM     21  C   UNL     1      -8.988  -7.317  -4.109  1.00  0.00     0.000 C 
BRANCH  21  22
ATOM     22  C   UNL     1      -9.493  -6.648  -2.823  1.00  0.00    -0.000 C 
BRANCH  22  23
ATOM     23  C   UNL     1      -8.915  -5.235  -2.675  1.00  0.00    -0.000 C 
BRANCH  23  24
ATOM     24  C   UNL     1      -8.335  -4.735  -4.007  1.00  0.00    -0.000 C 
BRANCH  24  25
ATOM     25  C   UNL     1      -7.234  -3.673  -3.808  1.00  0.00    -0.000 C 
BRANCH  25  26
ATOM     26  C   UNL     1      -5.827  -4.266  -3.615  1.00  0.00    -0.000 C 
BRANCH  26  27
ATOM     27  C   UNL     1      -4.741  -3.192  -3.449  1.00  0.00    -0.000 C 
BRANCH  27  28
ATOM     28  C   UNL     1      -5.081  -1.935  -4.258  1.00  0.00    -0.000 C 
BRANCH  28  29
ATOM     29  C   UNL     1      -3.961  -1.595  -5.247  1.00  0.00    -0.003 C 
ATOM     30  C   UNL     1      -2.839  -2.628  -5.185  1.00  0.00     0.004 C 
ENDBRANCH  28  29
ENDBRANCH  27  28
ENDBRANCH  26  27
ENDBRANCH  25  26
ENDBRANCH  24  25
ENDBRANCH  23  24
ENDBRANCH  22  23
ENDBRANCH  21  22
ENDBRANCH  20  21
ENDBRANCH  19  20
ENDBRANCH  18  19
ENDBRANCH  17  18
ENDBRANCH   1  17
TORSDOF 26
ENDMDL
