MODEL 1
REMARK VINA RESULT:    -4.004      0.000      0.000
REMARK INTER + INTRA:          -9.930
REMARK INTER:                  -8.686
REMARK INTRA:                  -1.244
REMARK UNBOUND:                -1.244
REMARK SMILES CCCCCCCCCCCCCCCCCCCCCC(=O)[O-]
REMARK SMILES IDX 12 1 11 2 10 3 9 4 8 5 7 6 6 7 5 8 4 9 3 10 2 11 1 12 13 13
REMARK SMILES IDX 14 14 15 15 16 16 17 17 18 18 19 19 20 20 21 21 22 22 23 23
REMARK SMILES IDX 24 24
REMARK H PARENT
REMARK Flexibility Score: inf
ROOT
ATOM      1  C   UNL     1       7.480   8.320  33.150  1.00  0.00     0.000 C 
ENDROOT
BRANCH   1   2
ATOM      2  C   UNL     1       6.848   9.716  33.319  1.00  0.00     0.000 C 
BRANCH   2   3
ATOM      3  C   UNL     1       5.608   9.767  34.233  1.00  0.00     0.000 C 
BRANCH   3   4
ATOM      4  C   UNL     1       5.108  11.185  34.571  1.00  0.00    -0.000 C 
BRANCH   4   5
ATOM      5  C   UNL     1       5.348  12.237  33.470  1.00  0.00    -0.000 C 
BRANCH   5   6
ATOM      6  C   UNL     1       4.960  13.679  33.853  1.00  0.00    -0.000 C 
BRANCH   6   7
ATOM      7  C   UNL     1       5.629  14.217  35.135  1.00  0.00    -0.000 C 
BRANCH   7   8
ATOM      8  C   UNL     1       6.474  15.489  34.942  1.00  0.00    -0.000 C 
BRANCH   8   9
ATOM      9  C   UNL     1       5.620  16.741  34.695  1.00  0.00    -0.000 C 
BRANCH   9  10
ATOM     10  C   UNL     1       6.477  18.014  34.774  1.00  0.00    -0.000 C 
BRANCH  10  11
ATOM     11  C   UNL     1       5.993  19.112  33.815  1.00  0.00    -0.003 C 
ATOM     12  C   UNL     1       7.136  19.760  33.033  1.00  0.00     0.004 C 
ENDBRANCH  10  11
ENDBRANCH   9  10
ENDBRANCH   8   9
ENDBRANCH   7   8
ENDBRANCH   6   7
ENDBRANCH   5   6
ENDBRANCH   4   5
ENDBRANCH   3   4
ENDBRANCH   2   3
ENDBRANCH   1   2
BRANCH   1  13
ATOM     13  C   UNL     1       6.939   7.233  34.098  1.00  0.00     0.000 C 
BRANCH  13  14
ATOM     14  C   UNL     1       5.781   6.427  33.484  1.00  0.00     0.000 C 
BRANCH  14  15
ATOM     15  C   UNL     1       5.106   5.483  34.496  1.00  0.00     0.000 C 
BRANCH  15  16
ATOM     16  C   UNL     1       5.845   4.154  34.746  1.00  0.00     0.000 C 
BRANCH  16  17
ATOM     17  C   UNL     1       6.269   3.912  36.207  1.00  0.00     0.000 C 
BRANCH  17  18
ATOM     18  C   UNL     1       7.461   4.784  36.659  1.00  0.00     0.000 C 
BRANCH  18  19
ATOM     19  C   UNL     1       8.705   3.944  36.993  1.00  0.00     0.000 C 
BRANCH  19  20
ATOM     20  C   UNL     1       9.836   4.126  35.967  1.00  0.00     0.006 C 
BRANCH  20  21
ATOM     21  C   UNL     1       9.629   5.351  35.066  1.00  0.00     0.053 C 
BRANCH  21  22
ATOM     22  C   UNL     1      10.737   5.459  34.068  1.00  0.00     0.041 C 
ATOM     23  O   UNL     1      10.789   6.441  33.282  1.00  0.00    -0.550 OA
ATOM     24  O   UNL     1      11.690   4.452  33.974  1.00  0.00    -0.550 OA
ENDBRANCH  21  22
ENDBRANCH  20  21
ENDBRANCH  19  20
ENDBRANCH  18  19
ENDBRANCH  17  18
ENDBRANCH  16  17
ENDBRANCH  15  16
ENDBRANCH  14  15
ENDBRANCH  13  14
ENDBRANCH   1  13
TORSDOF 20
ENDMDL
MODEL 2
REMARK VINA RESULT:    -3.799      1.586      2.121
REMARK INTER + INTRA:          -9.486
REMARK INTER:                  -8.519
REMARK INTRA:                  -0.967
REMARK UNBOUND:                -1.244
REMARK SMILES CCCCCCCCCCCCCCCCCCCCCC(=O)[O-]
REMARK SMILES IDX 12 1 11 2 10 3 9 4 8 5 7 6 6 7 5 8 4 9 3 10 2 11 1 12 13 13
REMARK SMILES IDX 14 14 15 15 16 16 17 17 18 18 19 19 20 20 21 21 22 22 23 23
REMARK SMILES IDX 24 24
REMARK H PARENT
REMARK Flexibility Score: inf
ROOT
ATOM      1  C   UNL     1       7.604   9.056  33.489  1.00  0.00     0.000 C 
ENDROOT
BRANCH   1   2
ATOM      2  C   UNL     1       6.384   9.863  32.999  1.00  0.00     0.000 C 
BRANCH   2   3
ATOM      3  C   UNL     1       5.622  10.628  34.099  1.00  0.00     0.000 C 
BRANCH   3   4
ATOM      4  C   UNL     1       4.969  11.947  33.639  1.00  0.00    -0.000 C 
BRANCH   4   5
ATOM      5  C   UNL     1       5.066  13.106  34.651  1.00  0.00    -0.000 C 
BRANCH   5   6
ATOM      6  C   UNL     1       5.869  14.328  34.165  1.00  0.00    -0.000 C 
BRANCH   6   7
ATOM      7  C   UNL     1       5.744  15.586  35.049  1.00  0.00    -0.000 C 
BRANCH   7   8
ATOM      8  C   UNL     1       6.552  16.803  34.565  1.00  0.00    -0.000 C 
BRANCH   8   9
ATOM      9  C   UNL     1       5.674  18.035  34.298  1.00  0.00    -0.000 C 
BRANCH   9  10
ATOM     10  C   UNL     1       6.238  19.275  35.010  1.00  0.00    -0.000 C 
BRANCH  10  11
ATOM     11  C   UNL     1       7.181  20.092  34.114  1.00  0.00    -0.003 C 
ATOM     12  C   UNL     1       6.754  20.085  32.645  1.00  0.00     0.004 C 
ENDBRANCH  10  11
ENDBRANCH   9  10
ENDBRANCH   8   9
ENDBRANCH   7   8
ENDBRANCH   6   7
ENDBRANCH   5   6
ENDBRANCH   4   5
ENDBRANCH   3   4
ENDBRANCH   2   3
ENDBRANCH   1   2
BRANCH   1  13
ATOM     13  C   UNL     1       7.326   8.084  34.650  1.00  0.00     0.000 C 
BRANCH  13  14
ATOM     14  C   UNL     1       7.065   6.644  34.175  1.00  0.00     0.000 C 
BRANCH  14  15
ATOM     15  C   UNL     1       5.670   6.465  33.546  1.00  0.00     0.000 C 
BRANCH  15  16
ATOM     16  C   UNL     1       5.206   5.005  33.384  1.00  0.00     0.000 C 
BRANCH  16  17
ATOM     17  C   UNL     1       4.931   4.261  34.705  1.00  0.00     0.000 C 
BRANCH  17  18
ATOM     18  C   UNL     1       5.622   2.883  34.797  1.00  0.00     0.000 C 
BRANCH  18  19
ATOM     19  C   UNL     1       5.848   2.439  36.252  1.00  0.00     0.000 C 
BRANCH  19  20
ATOM     20  C   UNL     1       7.144   3.008  36.851  1.00  0.00     0.006 C 
BRANCH  20  21
ATOM     21  C   UNL     1       8.393   2.239  36.400  1.00  0.00     0.053 C 
BRANCH  21  22
ATOM     22  C   UNL     1       9.555   3.169  36.256  1.00  0.00     0.041 C 
ATOM     23  O   UNL     1       9.366   4.380  35.964  1.00  0.00    -0.550 OA
ATOM     24  O   UNL     1      10.852   2.690  36.398  1.00  0.00    -0.550 OA
ENDBRANCH  21  22
ENDBRANCH  20  21
ENDBRANCH  19  20
ENDBRANCH  18  19
ENDBRANCH  17  18
ENDBRANCH  16  17
ENDBRANCH  15  16
ENDBRANCH  14  15
ENDBRANCH  13  14
ENDBRANCH   1  13
TORSDOF 20
ENDMDL
MODEL 3
REMARK VINA RESULT:    -3.459      1.737      2.655
REMARK INTER + INTRA:          -8.747
REMARK INTER:                  -7.244
REMARK INTRA:                  -1.504
REMARK UNBOUND:                -1.244
REMARK SMILES CCCCCCCCCCCCCCCCCCCCCC(=O)[O-]
REMARK SMILES IDX 12 1 11 2 10 3 9 4 8 5 7 6 6 7 5 8 4 9 3 10 2 11 1 12 13 13
REMARK SMILES IDX 14 14 15 15 16 16 17 17 18 18 19 19 20 20 21 21 22 22 23 23
REMARK SMILES IDX 24 24
REMARK H PARENT
REMARK Flexibility Score: inf
ROOT
ATOM      1  C   UNL     1       7.530   7.245  33.592  1.00  0.00     0.000 C 
ENDROOT
BRANCH   1   2
ATOM      2  C   UNL     1       7.810   8.744  33.365  1.00  0.00     0.000 C 
BRANCH   2   3
ATOM      3  C   UNL     1       6.559   9.643  33.311  1.00  0.00     0.000 C 
BRANCH   3   4
ATOM      4  C   UNL     1       5.531   9.391  34.431  1.00  0.00    -0.000 C 
BRANCH   4   5
ATOM      5  C   UNL     1       5.852  10.076  35.774  1.00  0.00    -0.000 C 
BRANCH   5   6
ATOM      6  C   UNL     1       4.965  11.290  36.114  1.00  0.00    -0.000 C 
BRANCH   6   7
ATOM      7  C   UNL     1       5.205  12.539  35.241  1.00  0.00    -0.000 C 
BRANCH   7   8
ATOM      8  C   UNL     1       5.078  13.883  35.981  1.00  0.00    -0.000 C 
BRANCH   8   9
ATOM      9  C   UNL     1       6.236  14.844  35.675  1.00  0.00    -0.000 C 
BRANCH   9  10
ATOM     10  C   UNL     1       5.804  16.305  35.880  1.00  0.00    -0.000 C 
BRANCH  10  11
ATOM     11  C   UNL     1       5.627  17.060  34.555  1.00  0.00    -0.003 C 
ATOM     12  C   UNL     1       6.602  18.227  34.403  1.00  0.00     0.004 C 
ENDBRANCH  10  11
ENDBRANCH   9  10
ENDBRANCH   8   9
ENDBRANCH   7   8
ENDBRANCH   6   7
ENDBRANCH   5   6
ENDBRANCH   4   5
ENDBRANCH   3   4
ENDBRANCH   2   3
ENDBRANCH   1   2
BRANCH   1  13
ATOM     13  C   UNL     1       8.174   6.638  34.852  1.00  0.00     0.000 C 
BRANCH  13  14
ATOM     14  C   UNL     1       7.144   5.999  35.801  1.00  0.00     0.000 C 
BRANCH  14  15
ATOM     15  C   UNL     1       5.954   5.366  35.055  1.00  0.00     0.000 C 
BRANCH  15  16
ATOM     16  C   UNL     1       5.926   3.826  35.055  1.00  0.00     0.000 C 
BRANCH  16  17
ATOM     17  C   UNL     1       5.135   3.190  36.213  1.00  0.00     0.000 C 
BRANCH  17  18
ATOM     18  C   UNL     1       5.724   1.850  36.706  1.00  0.00     0.000 C 
BRANCH  18  19
ATOM     19  C   UNL     1       7.024   1.480  35.973  1.00  0.00     0.000 C 
BRANCH  19  20
ATOM     20  C   UNL     1       8.252   1.492  36.898  1.00  0.00     0.006 C 
BRANCH  20  21
ATOM     21  C   UNL     1       9.559   1.191  36.154  1.00  0.00     0.053 C 
BRANCH  21  22
ATOM     22  C   UNL     1      10.440   2.399  36.137  1.00  0.00     0.041 C 
ATOM     23  O   UNL     1      11.680   2.283  36.330  1.00  0.00    -0.550 OA
ATOM     24  O   UNL     1       9.889   3.661  35.953  1.00  0.00    -0.550 OA
ENDBRANCH  21  22
ENDBRANCH  20  21
ENDBRANCH  19  20
ENDBRANCH  18  19
ENDBRANCH  17  18
ENDBRANCH  16  17
ENDBRANCH  15  16
ENDBRANCH  14  15
ENDBRANCH  13  14
ENDBRANCH   1  13
TORSDOF 20
ENDMDL
MODEL 4
REMARK VINA RESULT:    -3.157      4.341     11.361
REMARK INTER + INTRA:          -8.093
REMARK INTER:                  -6.545
REMARK INTRA:                  -1.548
REMARK UNBOUND:                -1.244
REMARK SMILES CCCCCCCCCCCCCCCCCCCCCC(=O)[O-]
REMARK SMILES IDX 12 1 11 2 10 3 9 4 8 5 7 6 6 7 5 8 4 9 3 10 2 11 1 12 13 13
REMARK SMILES IDX 14 14 15 15 16 16 17 17 18 18 19 19 20 20 21 21 22 22 23 23
REMARK SMILES IDX 24 24
REMARK H PARENT
REMARK Flexibility Score: inf
ROOT
ATOM      1  C   UNL     1       5.644   8.476  34.812  1.00  0.00     0.000 C 
ENDROOT
BRANCH   1   2
ATOM      2  C   UNL     1       6.530   8.078  33.614  1.00  0.00     0.000 C 
BRANCH   2   3
ATOM      3  C   UNL     1       7.511   6.921  33.883  1.00  0.00     0.000 C 
BRANCH   3   4
ATOM      4  C   UNL     1       7.850   6.689  35.368  1.00  0.00    -0.000 C 
BRANCH   4   5
ATOM      5  C   UNL     1       7.745   5.223  35.837  1.00  0.00    -0.000 C 
BRANCH   5   6
ATOM      6  C   UNL     1       6.308   4.709  36.045  1.00  0.00    -0.000 C 
BRANCH   6   7
ATOM      7  C   UNL     1       6.186   3.448  36.926  1.00  0.00    -0.000 C 
BRANCH   7   8
ATOM      8  C   UNL     1       6.085   2.122  36.151  1.00  0.00    -0.000 C 
BRANCH   8   9
ATOM      9  C   UNL     1       7.089   1.068  36.639  1.00  0.00    -0.000 C 
BRANCH   9  10
ATOM     10  C   UNL     1       8.459   1.265  35.970  1.00  0.00    -0.000 C 
BRANCH  10  11
ATOM     11  C   UNL     1       9.479   1.939  36.900  1.00  0.00    -0.003 C 
ATOM     12  C   UNL     1      10.557   2.710  36.136  1.00  0.00     0.004 C 
ENDBRANCH  10  11
ENDBRANCH   9  10
ENDBRANCH   8   9
ENDBRANCH   7   8
ENDBRANCH   6   7
ENDBRANCH   5   6
ENDBRANCH   4   5
ENDBRANCH   3   4
ENDBRANCH   2   3
ENDBRANCH   1   2
BRANCH   1  13
ATOM     13  C   UNL     1       5.115   9.922  34.787  1.00  0.00     0.000 C 
BRANCH  13  14
ATOM     14  C   UNL     1       5.828  10.802  33.746  1.00  0.00     0.000 C 
BRANCH  14  15
ATOM     15  C   UNL     1       4.879  11.797  33.052  1.00  0.00     0.000 C 
BRANCH  15  16
ATOM     16  C   UNL     1       4.875  13.220  33.644  1.00  0.00     0.000 C 
BRANCH  16  17
ATOM     17  C   UNL     1       5.960  13.485  34.704  1.00  0.00     0.000 C 
BRANCH  17  18
ATOM     18  C   UNL     1       5.403  14.027  36.039  1.00  0.00     0.000 C 
BRANCH  18  19
ATOM     19  C   UNL     1       5.380  15.564  36.082  1.00  0.00     0.000 C 
BRANCH  19  20
ATOM     20  C   UNL     1       6.200  16.201  34.948  1.00  0.00     0.006 C 
BRANCH  20  21
ATOM     21  C   UNL     1       5.494  17.405  34.309  1.00  0.00     0.053 C 
BRANCH  21  22
ATOM     22  C   UNL     1       6.272  18.658  34.556  1.00  0.00     0.041 C 
ATOM     23  O   UNL     1       7.170  19.017  33.748  1.00  0.00    -0.550 OA
ATOM     24  O   UNL     1       6.040  19.407  35.703  1.00  0.00    -0.550 OA
ENDBRANCH  21  22
ENDBRANCH  20  21
ENDBRANCH  19  20
ENDBRANCH  18  19
ENDBRANCH  17  18
ENDBRANCH  16  17
ENDBRANCH  15  16
ENDBRANCH  14  15
ENDBRANCH  13  14
ENDBRANCH   1  13
TORSDOF 20
ENDMDL
MODEL 5
REMARK VINA RESULT:    -2.803      2.137      3.273
REMARK INTER + INTRA:          -7.325
REMARK INTER:                  -6.349
REMARK INTRA:                  -0.976
REMARK UNBOUND:                -1.244
REMARK SMILES CCCCCCCCCCCCCCCCCCCCCC(=O)[O-]
REMARK SMILES IDX 12 1 11 2 10 3 9 4 8 5 7 6 6 7 5 8 4 9 3 10 2 11 1 12 13 13
REMARK SMILES IDX 14 14 15 15 16 16 17 17 18 18 19 19 20 20 21 21 22 22 23 23
REMARK SMILES IDX 24 24
REMARK H PARENT
REMARK Flexibility Score: inf
ROOT
ATOM      1  C   UNL     1       7.425   8.181  33.336  1.00  0.00     0.000 C 
ENDROOT
BRANCH   1   2
ATOM      2  C   UNL     1       7.382   9.686  33.003  1.00  0.00     0.000 C 
BRANCH   2   3
ATOM      3  C   UNL     1       5.998  10.349  33.152  1.00  0.00     0.000 C 
BRANCH   3   4
ATOM      4  C   UNL     1       5.272  10.045  34.477  1.00  0.00    -0.000 C 
BRANCH   4   5
ATOM      5  C   UNL     1       5.774  10.852  35.691  1.00  0.00    -0.000 C 
BRANCH   5   6
ATOM      6  C   UNL     1       5.054  12.195  35.922  1.00  0.00    -0.000 C 
BRANCH   6   7
ATOM      7  C   UNL     1       5.308  13.267  34.842  1.00  0.00    -0.000 C 
BRANCH   7   8
ATOM      8  C   UNL     1       4.965  14.707  35.263  1.00  0.00    -0.000 C 
BRANCH   8   9
ATOM      9  C   UNL     1       5.959  15.742  34.714  1.00  0.00    -0.000 C 
BRANCH   9  10
ATOM     10  C   UNL     1       5.399  17.167  34.851  1.00  0.00    -0.000 C 
BRANCH  10  11
ATOM     11  C   UNL     1       6.500  18.238  34.833  1.00  0.00    -0.003 C 
ATOM     12  C   UNL     1       6.537  19.025  33.523  1.00  0.00     0.004 C 
ENDBRANCH  10  11
ENDBRANCH   9  10
ENDBRANCH   8   9
ENDBRANCH   7   8
ENDBRANCH   6   7
ENDBRANCH   5   6
ENDBRANCH   4   5
ENDBRANCH   3   4
ENDBRANCH   2   3
ENDBRANCH   1   2
BRANCH   1  13
ATOM     13  C   UNL     1       8.637   7.726  34.169  1.00  0.00     0.000 C 
BRANCH  13  14
ATOM     14  C   UNL     1       8.587   6.231  34.530  1.00  0.00     0.000 C 
BRANCH  14  15
ATOM     15  C   UNL     1       9.543   5.860  35.680  1.00  0.00     0.000 C 
BRANCH  15  16
ATOM     16  C   UNL     1       9.000   4.815  36.673  1.00  0.00     0.000 C 
BRANCH  16  17
ATOM     17  C   UNL     1       9.483   3.373  36.428  1.00  0.00     0.000 C 
BRANCH  17  18
ATOM     18  C   UNL     1       8.342   2.382  36.109  1.00  0.00     0.000 C 
BRANCH  18  19
ATOM     19  C   UNL     1       6.957   2.957  36.452  1.00  0.00     0.000 C 
BRANCH  19  20
ATOM     20  C   UNL     1       6.093   3.207  35.206  1.00  0.00     0.006 C 
BRANCH  20  21
ATOM     21  C   UNL     1       4.875   4.094  35.496  1.00  0.00     0.053 C 
BRANCH  21  22
ATOM     22  C   UNL     1       5.313   5.457  35.929  1.00  0.00     0.041 C 
ATOM     23  O   UNL     1       5.650   5.665  37.125  1.00  0.00    -0.550 OA
ATOM     24  O   UNL     1       5.305   6.511  35.024  1.00  0.00    -0.550 OA
ENDBRANCH  21  22
ENDBRANCH  20  21
ENDBRANCH  19  20
ENDBRANCH  18  19
ENDBRANCH  17  18
ENDBRANCH  16  17
ENDBRANCH  15  16
ENDBRANCH  14  15
ENDBRANCH  13  14
ENDBRANCH   1  13
TORSDOF 20
ENDMDL
MODEL 6
REMARK VINA RESULT:    -2.733      2.532      3.860
REMARK INTER + INTRA:          -7.174
REMARK INTER:                  -5.657
REMARK INTRA:                  -1.517
REMARK UNBOUND:                -1.244
REMARK SMILES CCCCCCCCCCCCCCCCCCCCCC(=O)[O-]
REMARK SMILES IDX 12 1 11 2 10 3 9 4 8 5 7 6 6 7 5 8 4 9 3 10 2 11 1 12 13 13
REMARK SMILES IDX 14 14 15 15 16 16 17 17 18 18 19 19 20 20 21 21 22 22 23 23
REMARK SMILES IDX 24 24
REMARK H PARENT
REMARK Flexibility Score: inf
ROOT
ATOM      1  C   UNL     1       7.537   6.544  34.349  1.00  0.00     0.000 C 
ENDROOT
BRANCH   1   2
ATOM      2  C   UNL     1       6.968   7.974  34.450  1.00  0.00     0.000 C 
BRANCH   2   3
ATOM      3  C   UNL     1       7.378   8.753  35.715  1.00  0.00     0.000 C 
BRANCH   3   4
ATOM      4  C   UNL     1       6.207   9.186  36.618  1.00  0.00    -0.000 C 
BRANCH   4   5
ATOM      5  C   UNL     1       6.168  10.691  36.953  1.00  0.00    -0.000 C 
BRANCH   5   6
ATOM      6  C   UNL     1       4.876  11.418  36.530  1.00  0.00    -0.000 C 
BRANCH   6   7
ATOM      7  C   UNL     1       4.904  12.951  36.698  1.00  0.00    -0.000 C 
BRANCH   7   8
ATOM      8  C   UNL     1       6.309  13.564  36.840  1.00  0.00    -0.000 C 
BRANCH   8   9
ATOM      9  C   UNL     1       6.366  15.032  36.395  1.00  0.00    -0.000 C 
BRANCH   9  10
ATOM     10  C   UNL     1       5.939  15.177  34.925  1.00  0.00    -0.000 C 
BRANCH  10  11
ATOM     11  C   UNL     1       5.672  16.637  34.530  1.00  0.00    -0.003 C 
ATOM     12  C   UNL     1       6.025  17.626  35.642  1.00  0.00     0.004 C 
ENDBRANCH  10  11
ENDBRANCH   9  10
ENDBRANCH   8   9
ENDBRANCH   7   8
ENDBRANCH   6   7
ENDBRANCH   5   6
ENDBRANCH   4   5
ENDBRANCH   3   4
ENDBRANCH   2   3
ENDBRANCH   1   2
BRANCH   1  13
ATOM     13  C   UNL     1       9.067   6.453  34.199  1.00  0.00     0.000 C 
BRANCH  13  14
ATOM     14  C   UNL     1       9.713   5.507  35.226  1.00  0.00     0.000 C 
BRANCH  14  15
ATOM     15  C   UNL     1       8.677   4.743  36.072  1.00  0.00     0.000 C 
BRANCH  15  16
ATOM     16  C   UNL     1       9.263   3.685  37.027  1.00  0.00     0.000 C 
BRANCH  16  17
ATOM     17  C   UNL     1       9.477   2.294  36.402  1.00  0.00     0.000 C 
BRANCH  17  18
ATOM     18  C   UNL     1       8.668   1.173  37.091  1.00  0.00     0.000 C 
BRANCH  18  19
ATOM     19  C   UNL     1       7.157   1.306  36.838  1.00  0.00     0.000 C 
BRANCH  19  20
ATOM     20  C   UNL     1       6.819   1.503  35.351  1.00  0.00     0.006 C 
BRANCH  20  21
ATOM     21  C   UNL     1       5.357   1.911  35.124  1.00  0.00     0.053 C 
BRANCH  21  22
ATOM     22  C   UNL     1       5.254   3.386  34.905  1.00  0.00     0.041 C 
ATOM     23  O   UNL     1       5.187   3.850  33.735  1.00  0.00    -0.550 OA
ATOM     24  O   UNL     1       5.278   4.255  35.989  1.00  0.00    -0.550 OA
ENDBRANCH  21  22
ENDBRANCH  20  21
ENDBRANCH  19  20
ENDBRANCH  18  19
ENDBRANCH  17  18
ENDBRANCH  16  17
ENDBRANCH  15  16
ENDBRANCH  14  15
ENDBRANCH  13  14
ENDBRANCH   1  13
TORSDOF 20
ENDMDL
MODEL 7
REMARK VINA RESULT:    -2.622      3.856      5.910
REMARK INTER + INTRA:          -6.933
REMARK INTER:                  -4.632
REMARK INTRA:                  -2.300
REMARK UNBOUND:                -1.244
REMARK SMILES CCCCCCCCCCCCCCCCCCCCCC(=O)[O-]
REMARK SMILES IDX 12 1 11 2 10 3 9 4 8 5 7 6 6 7 5 8 4 9 3 10 2 11 1 12 13 13
REMARK SMILES IDX 14 14 15 15 16 16 17 17 18 18 19 19 20 20 21 21 22 22 23 23
REMARK SMILES IDX 24 24
REMARK H PARENT
REMARK Flexibility Score: inf
ROOT
ATOM      1  C   UNL     1       9.028   5.767  34.578  1.00  0.00     0.000 C 
ENDROOT
BRANCH   1   2
ATOM      2  C   UNL     1       8.865   6.029  36.089  1.00  0.00     0.000 C 
BRANCH   2   3
ATOM      3  C   UNL     1       7.421   5.923  36.618  1.00  0.00     0.000 C 
BRANCH   3   4
ATOM      4  C   UNL     1       6.326   5.992  35.536  1.00  0.00    -0.000 C 
BRANCH   4   5
ATOM      5  C   UNL     1       5.128   6.899  35.881  1.00  0.00    -0.000 C 
BRANCH   5   6
ATOM      6  C   UNL     1       5.427   8.008  36.908  1.00  0.00    -0.000 C 
BRANCH   6   7
ATOM      7  C   UNL     1       4.888   9.405  36.536  1.00  0.00    -0.000 C 
BRANCH   7   8
ATOM      8  C   UNL     1       5.963  10.496  36.382  1.00  0.00    -0.000 C 
BRANCH   8   9
ATOM      9  C   UNL     1       5.669  11.463  35.226  1.00  0.00    -0.000 C 
BRANCH   9  10
ATOM     10  C   UNL     1       5.207  10.699  33.975  1.00  0.00    -0.000 C 
BRANCH  10  11
ATOM     11  C   UNL     1       6.372  10.325  33.048  1.00  0.00    -0.003 C 
ATOM     12  C   UNL     1       7.090   9.048  33.485  1.00  0.00     0.004 C 
ENDBRANCH  10  11
ENDBRANCH   9  10
ENDBRANCH   8   9
ENDBRANCH   7   8
ENDBRANCH   6   7
ENDBRANCH   5   6
ENDBRANCH   4   5
ENDBRANCH   3   4
ENDBRANCH   2   3
ENDBRANCH   1   2
BRANCH   1  13
ATOM     13  C   UNL     1      10.482   5.708  34.073  1.00  0.00     0.000 C 
BRANCH  13  14
ATOM     14  C   UNL     1      11.367   4.766  34.908  1.00  0.00     0.000 C 
BRANCH  14  15
ATOM     15  C   UNL     1      10.892   3.301  34.862  1.00  0.00     0.000 C 
BRANCH  15  16
ATOM     16  C   UNL     1      10.253   2.779  36.164  1.00  0.00     0.000 C 
BRANCH  16  17
ATOM     17  C   UNL     1       9.737   1.329  36.098  1.00  0.00     0.000 C 
BRANCH  17  18
ATOM     18  C   UNL     1       8.381   1.121  36.807  1.00  0.00     0.000 C 
BRANCH  18  19
ATOM     19  C   UNL     1       7.199   1.137  35.822  1.00  0.00     0.000 C 
BRANCH  19  20
ATOM     20  C   UNL     1       6.449   2.479  35.818  1.00  0.00     0.006 C 
BRANCH  20  21
ATOM     21  C   UNL     1       5.040   2.369  35.221  1.00  0.00     0.053 C 
BRANCH  21  22
ATOM     22  C   UNL     1       5.091   2.506  33.732  1.00  0.00     0.041 C 
ATOM     23  O   UNL     1       5.196   1.483  33.005  1.00  0.00    -0.550 OA
ATOM     24  O   UNL     1       5.070   3.766  33.148  1.00  0.00    -0.550 OA
ENDBRANCH  21  22
ENDBRANCH  20  21
ENDBRANCH  19  20
ENDBRANCH  18  19
ENDBRANCH  17  18
ENDBRANCH  16  17
ENDBRANCH  15  16
ENDBRANCH  14  15
ENDBRANCH  13  14
ENDBRANCH   1  13
TORSDOF 20
ENDMDL
MODEL 8
REMARK VINA RESULT:    -2.502      4.295     11.086
REMARK INTER + INTRA:          -6.672
REMARK INTER:                  -5.971
REMARK INTRA:                  -0.701
REMARK UNBOUND:                -1.244
REMARK SMILES CCCCCCCCCCCCCCCCCCCCCC(=O)[O-]
REMARK SMILES IDX 12 1 11 2 10 3 9 4 8 5 7 6 6 7 5 8 4 9 3 10 2 11 1 12 13 13
REMARK SMILES IDX 14 14 15 15 16 16 17 17 18 18 19 19 20 20 21 21 22 22 23 23
REMARK SMILES IDX 24 24
REMARK H PARENT
REMARK Flexibility Score: inf
ROOT
ATOM      1  C   UNL     1       6.660   7.701  34.645  1.00  0.00     0.000 C 
ENDROOT
BRANCH   1   2
ATOM      2  C   UNL     1       8.105   7.822  34.118  1.00  0.00     0.000 C 
BRANCH   2   3
ATOM      3  C   UNL     1       9.049   6.675  34.528  1.00  0.00     0.000 C 
BRANCH   3   4
ATOM      4  C   UNL     1       8.582   5.854  35.746  1.00  0.00    -0.000 C 
BRANCH   4   5
ATOM      5  C   UNL     1       7.586   4.722  35.422  1.00  0.00    -0.000 C 
BRANCH   5   6
ATOM      6  C   UNL     1       6.452   4.540  36.450  1.00  0.00    -0.000 C 
BRANCH   6   7
ATOM      7  C   UNL     1       5.247   3.715  35.954  1.00  0.00    -0.000 C 
BRANCH   7   8
ATOM      8  C   UNL     1       5.329   2.206  36.246  1.00  0.00    -0.000 C 
BRANCH   8   9
ATOM      9  C   UNL     1       5.948   1.408  35.089  1.00  0.00    -0.000 C 
BRANCH   9  10
ATOM     10  C   UNL     1       4.878   1.020  34.056  1.00  0.00    -0.000 C 
BRANCH  10  11
ATOM     11  C   UNL     1       5.448   0.889  32.636  1.00  0.00    -0.003 C 
ATOM     12  C   UNL     1       4.886   1.936  31.673  1.00  0.00     0.004 C 
ENDBRANCH  10  11
ENDBRANCH   9  10
ENDBRANCH   8   9
ENDBRANCH   7   8
ENDBRANCH   6   7
ENDBRANCH   5   6
ENDBRANCH   4   5
ENDBRANCH   3   4
ENDBRANCH   2   3
ENDBRANCH   1   2
BRANCH   1  13
ATOM     13  C   UNL     1       5.895   9.030  34.779  1.00  0.00     0.000 C 
BRANCH  13  14
ATOM     14  C   UNL     1       6.430  10.125  33.840  1.00  0.00     0.000 C 
BRANCH  14  15
ATOM     15  C   UNL     1       5.349  11.144  33.431  1.00  0.00     0.000 C 
BRANCH  15  16
ATOM     16  C   UNL     1       4.875  12.084  34.556  1.00  0.00     0.000 C 
BRANCH  16  17
ATOM     17  C   UNL     1       5.958  12.466  35.582  1.00  0.00     0.000 C 
BRANCH  17  18
ATOM     18  C   UNL     1       5.494  13.522  36.609  1.00  0.00     0.000 C 
BRANCH  18  19
ATOM     19  C   UNL     1       5.156  14.869  35.949  1.00  0.00     0.000 C 
BRANCH  19  20
ATOM     20  C   UNL     1       5.967  15.122  34.667  1.00  0.00     0.006 C 
BRANCH  20  21
ATOM     21  C   UNL     1       6.718  16.460  34.696  1.00  0.00     0.053 C 
BRANCH  21  22
ATOM     22  C   UNL     1       5.752  17.602  34.707  1.00  0.00     0.041 C 
ATOM     23  O   UNL     1       5.244  18.013  33.630  1.00  0.00    -0.550 OA
ATOM     24  O   UNL     1       5.447  18.243  35.901  1.00  0.00    -0.550 OA
ENDBRANCH  21  22
ENDBRANCH  20  21
ENDBRANCH  19  20
ENDBRANCH  18  19
ENDBRANCH  17  18
ENDBRANCH  16  17
ENDBRANCH  15  16
ENDBRANCH  14  15
ENDBRANCH  13  14
ENDBRANCH   1  13
TORSDOF 20
ENDMDL
MODEL 9
REMARK VINA RESULT:    -2.391      3.098      6.140
REMARK INTER + INTRA:          -6.431
REMARK INTER:                  -5.667
REMARK INTRA:                  -0.764
REMARK UNBOUND:                -1.244
REMARK SMILES CCCCCCCCCCCCCCCCCCCCCC(=O)[O-]
REMARK SMILES IDX 12 1 11 2 10 3 9 4 8 5 7 6 6 7 5 8 4 9 3 10 2 11 1 12 13 13
REMARK SMILES IDX 14 14 15 15 16 16 17 17 18 18 19 19 20 20 21 21 22 22 23 23
REMARK SMILES IDX 24 24
REMARK H PARENT
REMARK Flexibility Score: inf
ROOT
ATOM      1  C   UNL     1       5.977  14.405  34.329  1.00  0.00     0.000 C 
ENDROOT
BRANCH   1   2
ATOM      2  C   UNL     1       5.544  15.821  34.762  1.00  0.00     0.000 C 
BRANCH   2   3
ATOM      3  C   UNL     1       6.690  16.746  35.215  1.00  0.00     0.000 C 
BRANCH   3   4
ATOM      4  C   UNL     1       6.290  18.219  35.427  1.00  0.00    -0.000 C 
BRANCH   4   5
ATOM      5  C   UNL     1       5.169  18.728  34.498  1.00  0.00    -0.000 C 
BRANCH   5   6
ATOM      6  C   UNL     1       5.593  18.960  33.035  1.00  0.00    -0.000 C 
BRANCH   6   7
ATOM      7  C   UNL     1       5.653  20.439  32.599  1.00  0.00    -0.000 C 
BRANCH   7   8
ATOM      8  C   UNL     1       4.875  20.769  31.313  1.00  0.00    -0.000 C 
BRANCH   8   9
ATOM      9  C   UNL     1       5.794  21.097  30.127  1.00  0.00    -0.000 C 
BRANCH   9  10
ATOM     10  C   UNL     1       5.006  21.100  28.807  1.00  0.00    -0.000 C 
BRANCH  10  11
ATOM     11  C   UNL     1       5.920  21.043  27.574  1.00  0.00    -0.003 C 
ATOM     12  C   UNL     1       5.347  20.176  26.453  1.00  0.00     0.004 C 
ENDBRANCH  10  11
ENDBRANCH   9  10
ENDBRANCH   8   9
ENDBRANCH   7   8
ENDBRANCH   6   7
ENDBRANCH   5   6
ENDBRANCH   4   5
ENDBRANCH   3   4
ENDBRANCH   2   3
ENDBRANCH   1   2
BRANCH   1  13
ATOM     13  C   UNL     1       4.876  13.551  33.675  1.00  0.00     0.000 C 
BRANCH  13  14
ATOM     14  C   UNL     1       4.906  12.083  34.134  1.00  0.00     0.000 C 
BRANCH  14  15
ATOM     15  C   UNL     1       5.828  11.854  35.347  1.00  0.00     0.000 C 
BRANCH  15  16
ATOM     16  C   UNL     1       5.107  11.500  36.661  1.00  0.00     0.000 C 
BRANCH  16  17
ATOM     17  C   UNL     1       5.052   9.995  36.987  1.00  0.00     0.000 C 
BRANCH  17  18
ATOM     18  C   UNL     1       6.437   9.312  36.997  1.00  0.00     0.000 C 
BRANCH  18  19
ATOM     19  C   UNL     1       6.374   7.859  36.496  1.00  0.00     0.000 C 
BRANCH  19  20
ATOM     20  C   UNL     1       6.754   7.725  35.013  1.00  0.00     0.006 C 
BRANCH  20  21
ATOM     21  C   UNL     1       6.256   6.414  34.389  1.00  0.00     0.053 C 
BRANCH  21  22
ATOM     22  C   UNL     1       6.160   5.344  35.429  1.00  0.00     0.041 C 
ATOM     23  O   UNL     1       5.046   5.059  35.944  1.00  0.00    -0.550 OA
ATOM     24  O   UNL     1       7.306   4.692  35.865  1.00  0.00    -0.550 OA
ENDBRANCH  21  22
ENDBRANCH  20  21
ENDBRANCH  19  20
ENDBRANCH  18  19
ENDBRANCH  17  18
ENDBRANCH  16  17
ENDBRANCH  15  16
ENDBRANCH  14  15
ENDBRANCH  13  14
ENDBRANCH   1  13
TORSDOF 20
ENDMDL
