MODEL 1
REMARK VINA RESULT:    -5.416      0.000      0.000
REMARK INTER + INTRA:         -13.651
REMARK INTER:                 -11.749
REMARK INTRA:                  -1.902
REMARK UNBOUND:                -1.902
REMARK SMILES CCCCCCCCCCCCCCCCCCCCCC(=O)[O-]
REMARK SMILES IDX 12 1 11 2 10 3 9 4 8 5 7 6 6 7 5 8 4 9 3 10 2 11 1 12 13 13
REMARK SMILES IDX 14 14 15 15 16 16 17 17 18 18 19 19 20 20 21 21 22 22 23 23
REMARK SMILES IDX 24 24
REMARK H PARENT
REMARK Flexibility Score: inf
ROOT
ATOM      1  C   UNL     1      22.988  11.120  31.513  1.00  0.00     0.000 C 
ENDROOT
BRANCH   1   2
ATOM      2  C   UNL     1      23.736  11.884  32.622  1.00  0.00     0.000 C 
BRANCH   2   3
ATOM      3  C   UNL     1      22.827  12.268  33.803  1.00  0.00     0.000 C 
BRANCH   3   4
ATOM      4  C   UNL     1      21.366  12.485  33.376  1.00  0.00    -0.000 C 
BRANCH   4   5
ATOM      5  C   UNL     1      20.757  13.760  33.984  1.00  0.00    -0.000 C 
BRANCH   5   6
ATOM      6  C   UNL     1      19.510  13.475  34.840  1.00  0.00    -0.000 C 
BRANCH   6   7
ATOM      7  C   UNL     1      19.705  12.432  35.961  1.00  0.00    -0.000 C 
BRANCH   7   8
ATOM      8  C   UNL     1      18.438  12.091  36.764  1.00  0.00    -0.000 C 
BRANCH   8   9
ATOM      9  C   UNL     1      18.197  10.578  36.884  1.00  0.00    -0.000 C 
BRANCH   9  10
ATOM     10  C   UNL     1      19.379   9.785  36.308  1.00  0.00    -0.000 C 
BRANCH  10  11
ATOM     11  C   UNL     1      18.996   8.349  35.919  1.00  0.00    -0.003 C 
ATOM     12  C   UNL     1      19.467   7.314  36.940  1.00  0.00     0.004 C 
ENDBRANCH  10  11
ENDBRANCH   9  10
ENDBRANCH   8   9
ENDBRANCH   7   8
ENDBRANCH   6   7
ENDBRANCH   5   6
ENDBRANCH   4   5
ENDBRANCH   3   4
ENDBRANCH   2   3
ENDBRANCH   1   2
BRANCH   1  13
ATOM     13  C   UNL     1      23.815  10.048  30.779  1.00  0.00     0.000 C 
BRANCH  13  14
ATOM     14  C   UNL     1      25.289  10.022  31.219  1.00  0.00     0.000 C 
BRANCH  14  15
ATOM     15  C   UNL     1      26.254   9.700  30.064  1.00  0.00     0.000 C 
BRANCH  15  16
ATOM     16  C   UNL     1      27.465  10.647  29.938  1.00  0.00     0.000 C 
BRANCH  16  17
ATOM     17  C   UNL     1      27.206  12.107  30.360  1.00  0.00     0.000 C 
BRANCH  17  18
ATOM     18  C   UNL     1      28.207  12.674  31.383  1.00  0.00     0.000 C 
BRANCH  18  19
ATOM     19  C   UNL     1      28.267  11.851  32.678  1.00  0.00     0.000 C 
BRANCH  19  20
ATOM     20  C   UNL     1      28.032  12.744  33.906  1.00  0.00     0.006 C 
BRANCH  20  21
ATOM     21  C   UNL     1      26.877  12.236  34.781  1.00  0.00     0.053 C 
BRANCH  21  22
ATOM     22  C   UNL     1      26.327  13.321  35.656  1.00  0.00     0.041 C 
ATOM     23  O   UNL     1      26.898  14.441  35.712  1.00  0.00    -0.550 OA
ATOM     24  O   UNL     1      25.164  13.102  36.385  1.00  0.00    -0.550 OA
ENDBRANCH  21  22
ENDBRANCH  20  21
ENDBRANCH  19  20
ENDBRANCH  18  19
ENDBRANCH  17  18
ENDBRANCH  16  17
ENDBRANCH  15  16
ENDBRANCH  14  15
ENDBRANCH  13  14
ENDBRANCH   1  13
TORSDOF 20
ENDMDL
MODEL 2
REMARK VINA RESULT:    -5.393      3.034      8.165
REMARK INTER + INTRA:         -13.601
REMARK INTER:                 -11.505
REMARK INTRA:                  -2.095
REMARK UNBOUND:                -1.902
REMARK SMILES CCCCCCCCCCCCCCCCCCCCCC(=O)[O-]
REMARK SMILES IDX 12 1 11 2 10 3 9 4 8 5 7 6 6 7 5 8 4 9 3 10 2 11 1 12 13 13
REMARK SMILES IDX 14 14 15 15 16 16 17 17 18 18 19 19 20 20 21 21 22 22 23 23
REMARK SMILES IDX 24 24
REMARK H PARENT
REMARK Flexibility Score: inf
ROOT
ATOM      1  C   UNL     1      24.151  10.956  31.816  1.00  0.00     0.000 C 
ENDROOT
BRANCH   1   2
ATOM      2  C   UNL     1      24.644  10.265  30.531  1.00  0.00     0.000 C 
BRANCH   2   3
ATOM      3  C   UNL     1      25.926   9.443  30.747  1.00  0.00     0.000 C 
BRANCH   3   4
ATOM      4  C   UNL     1      27.202  10.274  30.536  1.00  0.00    -0.000 C 
BRANCH   4   5
ATOM      5  C   UNL     1      26.962  11.510  29.652  1.00  0.00    -0.000 C 
BRANCH   5   6
ATOM      6  C   UNL     1      27.395  12.822  30.329  1.00  0.00    -0.000 C 
BRANCH   6   7
ATOM      7  C   UNL     1      28.415  12.664  31.477  1.00  0.00    -0.000 C 
BRANCH   7   8
ATOM      8  C   UNL     1      27.871  12.972  32.883  1.00  0.00    -0.000 C 
BRANCH   8   9
ATOM      9  C   UNL     1      27.986  11.778  33.842  1.00  0.00    -0.000 C 
BRANCH   9  10
ATOM     10  C   UNL     1      26.635  11.472  34.505  1.00  0.00    -0.000 C 
BRANCH  10  11
ATOM     11  C   UNL     1      26.058  12.682  35.257  1.00  0.00    -0.003 C 
ATOM     12  C   UNL     1      24.685  12.399  35.867  1.00  0.00     0.004 C 
ENDBRANCH  10  11
ENDBRANCH   9  10
ENDBRANCH   8   9
ENDBRANCH   7   8
ENDBRANCH   6   7
ENDBRANCH   5   6
ENDBRANCH   4   5
ENDBRANCH   3   4
ENDBRANCH   2   3
ENDBRANCH   1   2
BRANCH   1  13
ATOM     13  C   UNL     1      22.650  11.302  31.844  1.00  0.00     0.000 C 
BRANCH  13  14
ATOM     14  C   UNL     1      22.216  11.980  33.155  1.00  0.00     0.000 C 
BRANCH  14  15
ATOM     15  C   UNL     1      20.872  12.720  33.030  1.00  0.00     0.000 C 
BRANCH  15  16
ATOM     16  C   UNL     1      20.514  13.636  34.218  1.00  0.00     0.000 C 
BRANCH  16  17
ATOM     17  C   UNL     1      20.577  12.968  35.606  1.00  0.00     0.000 C 
BRANCH  17  18
ATOM     18  C   UNL     1      19.378  12.062  35.946  1.00  0.00     0.000 C 
BRANCH  18  19
ATOM     19  C   UNL     1      19.732  10.569  35.916  1.00  0.00     0.000 C 
BRANCH  19  20
ATOM     20  C   UNL     1      18.577   9.722  36.474  1.00  0.00     0.006 C 
BRANCH  20  21
ATOM     21  C   UNL     1      19.074   8.593  37.389  1.00  0.00     0.053 C 
BRANCH  21  22
ATOM     22  C   UNL     1      19.044   7.265  36.696  1.00  0.00     0.041 C 
ATOM     23  O   UNL     1      19.457   6.233  37.286  1.00  0.00    -0.550 OA
ATOM     24  O   UNL     1      18.531   7.165  35.409  1.00  0.00    -0.550 OA
ENDBRANCH  21  22
ENDBRANCH  20  21
ENDBRANCH  19  20
ENDBRANCH  18  19
ENDBRANCH  17  18
ENDBRANCH  16  17
ENDBRANCH  15  16
ENDBRANCH  14  15
ENDBRANCH  13  14
ENDBRANCH   1  13
TORSDOF 20
ENDMDL
MODEL 3
REMARK VINA RESULT:    -5.368      2.411      7.363
REMARK INTER + INTRA:         -13.546
REMARK INTER:                 -10.944
REMARK INTRA:                  -2.603
REMARK UNBOUND:                -1.902
REMARK SMILES CCCCCCCCCCCCCCCCCCCCCC(=O)[O-]
REMARK SMILES IDX 12 1 11 2 10 3 9 4 8 5 7 6 6 7 5 8 4 9 3 10 2 11 1 12 13 13
REMARK SMILES IDX 14 14 15 15 16 16 17 17 18 18 19 19 20 20 21 21 22 22 23 23
REMARK SMILES IDX 24 24
REMARK H PARENT
REMARK Flexibility Score: inf
ROOT
ATOM      1  C   UNL     1      24.902  10.048  31.126  1.00  0.00     0.000 C 
ENDROOT
BRANCH   1   2
ATOM      2  C   UNL     1      26.152   9.405  30.498  1.00  0.00     0.000 C 
BRANCH   2   3
ATOM      3  C   UNL     1      27.195  10.440  30.042  1.00  0.00     0.000 C 
BRANCH   3   4
ATOM      4  C   UNL     1      26.554  11.763  29.592  1.00  0.00    -0.000 C 
BRANCH   4   5
ATOM      5  C   UNL     1      27.117  12.979  30.349  1.00  0.00    -0.000 C 
BRANCH   5   6
ATOM      6  C   UNL     1      28.253  12.605  31.316  1.00  0.00    -0.000 C 
BRANCH   6   7
ATOM      7  C   UNL     1      28.014  12.985  32.793  1.00  0.00    -0.000 C 
BRANCH   7   8
ATOM      8  C   UNL     1      28.239  11.849  33.806  1.00  0.00    -0.000 C 
BRANCH   8   9
ATOM      9  C   UNL     1      26.952  11.078  34.133  1.00  0.00    -0.000 C 
BRANCH   9  10
ATOM     10  C   UNL     1      25.725  11.999  34.063  1.00  0.00    -0.000 C 
BRANCH  10  11
ATOM     11  C   UNL     1      24.888  11.969  35.352  1.00  0.00    -0.003 C 
ATOM     12  C   UNL     1      25.255  13.093  36.320  1.00  0.00     0.004 C 
ENDBRANCH  10  11
ENDBRANCH   9  10
ENDBRANCH   8   9
ENDBRANCH   7   8
ENDBRANCH   6   7
ENDBRANCH   5   6
ENDBRANCH   4   5
ENDBRANCH   3   4
ENDBRANCH   2   3
ENDBRANCH   1   2
BRANCH   1  13
ATOM     13  C   UNL     1      23.559   9.624  30.503  1.00  0.00     0.000 C 
BRANCH  13  14
ATOM     14  C   UNL     1      22.432  10.639  30.760  1.00  0.00     0.000 C 
BRANCH  14  15
ATOM     15  C   UNL     1      22.687  11.517  31.998  1.00  0.00     0.000 C 
BRANCH  15  16
ATOM     16  C   UNL     1      21.419  12.029  32.712  1.00  0.00     0.000 C 
BRANCH  16  17
ATOM     17  C   UNL     1      21.661  12.708  34.075  1.00  0.00     0.000 C 
BRANCH  17  18
ATOM     18  C   UNL     1      20.675  13.839  34.421  1.00  0.00     0.000 C 
BRANCH  18  19
ATOM     19  C   UNL     1      19.720  13.467  35.565  1.00  0.00     0.000 C 
BRANCH  19  20
ATOM     20  C   UNL     1      19.922  12.005  35.994  1.00  0.00     0.006 C 
BRANCH  20  21
ATOM     21  C   UNL     1      18.691  11.138  35.699  1.00  0.00     0.053 C 
BRANCH  21  22
ATOM     22  C   UNL     1      19.027   9.678  35.710  1.00  0.00     0.041 C 
ATOM     23  O   UNL     1      18.310   8.858  35.079  1.00  0.00    -0.550 OA
ATOM     24  O   UNL     1      20.151   9.229  36.392  1.00  0.00    -0.550 OA
ENDBRANCH  21  22
ENDBRANCH  20  21
ENDBRANCH  19  20
ENDBRANCH  18  19
ENDBRANCH  17  18
ENDBRANCH  16  17
ENDBRANCH  15  16
ENDBRANCH  14  15
ENDBRANCH  13  14
ENDBRANCH   1  13
TORSDOF 20
ENDMDL
MODEL 4
REMARK VINA RESULT:    -5.304      2.543      7.855
REMARK INTER + INTRA:         -13.406
REMARK INTER:                 -10.967
REMARK INTRA:                  -2.440
REMARK UNBOUND:                -1.902
REMARK SMILES CCCCCCCCCCCCCCCCCCCCCC(=O)[O-]
REMARK SMILES IDX 12 1 11 2 10 3 9 4 8 5 7 6 6 7 5 8 4 9 3 10 2 11 1 12 13 13
REMARK SMILES IDX 14 14 15 15 16 16 17 17 18 18 19 19 20 20 21 21 22 22 23 23
REMARK SMILES IDX 24 24
REMARK H PARENT
REMARK Flexibility Score: inf
ROOT
ATOM      1  C   UNL     1      27.654  13.034  35.061  1.00  0.00     0.000 C 
ENDROOT
BRANCH   1   2
ATOM      2  C   UNL     1      27.782  11.548  34.679  1.00  0.00     0.000 C 
BRANCH   2   3
ATOM      3  C   UNL     1      27.941  11.331  33.164  1.00  0.00     0.000 C 
BRANCH   3   4
ATOM      4  C   UNL     1      28.101  12.651  32.392  1.00  0.00    -0.000 C 
BRANCH   4   5
ATOM      5  C   UNL     1      28.151  12.441  30.869  1.00  0.00    -0.000 C 
BRANCH   5   6
ATOM      6  C   UNL     1      28.029  10.961  30.466  1.00  0.00    -0.000 C 
BRANCH   6   7
ATOM      7  C   UNL     1      27.241  10.694  29.166  1.00  0.00    -0.000 C 
BRANCH   7   8
ATOM      8  C   UNL     1      26.280   9.494  29.218  1.00  0.00    -0.000 C 
BRANCH   8   9
ATOM      9  C   UNL     1      25.555   9.368  30.567  1.00  0.00    -0.000 C 
BRANCH   9  10
ATOM     10  C   UNL     1      24.042   9.574  30.399  1.00  0.00    -0.000 C 
BRANCH  10  11
ATOM     11  C   UNL     1      23.503  10.729  31.259  1.00  0.00    -0.003 C 
ATOM     12  C   UNL     1      24.605  11.672  31.739  1.00  0.00     0.004 C 
ENDBRANCH  10  11
ENDBRANCH   9  10
ENDBRANCH   8   9
ENDBRANCH   7   8
ENDBRANCH   6   7
ENDBRANCH   5   6
ENDBRANCH   4   5
ENDBRANCH   3   4
ENDBRANCH   2   3
ENDBRANCH   1   2
BRANCH   1  13
ATOM     13  C   UNL     1      26.254  13.477  35.525  1.00  0.00     0.000 C 
BRANCH  13  14
ATOM     14  C   UNL     1      25.165  12.434  35.223  1.00  0.00     0.000 C 
BRANCH  14  15
ATOM     15  C   UNL     1      23.997  12.480  36.226  1.00  0.00     0.000 C 
BRANCH  15  16
ATOM     16  C   UNL     1      22.600  12.239  35.618  1.00  0.00     0.000 C 
BRANCH  16  17
ATOM     17  C   UNL     1      22.432  12.697  34.155  1.00  0.00     0.000 C 
BRANCH  17  18
ATOM     18  C   UNL     1      21.016  13.172  33.782  1.00  0.00     0.000 C 
BRANCH  18  19
ATOM     19  C   UNL     1      20.321  13.929  34.923  1.00  0.00     0.000 C 
BRANCH  19  20
ATOM     20  C   UNL     1      18.973  13.278  35.271  1.00  0.00     0.006 C 
BRANCH  20  21
ATOM     21  C   UNL     1      19.096  12.267  36.420  1.00  0.00     0.053 C 
BRANCH  21  22
ATOM     22  C   UNL     1      18.871  10.863  35.948  1.00  0.00     0.041 C 
ATOM     23  O   UNL     1      19.259  10.509  34.804  1.00  0.00    -0.550 OA
ATOM     24  O   UNL     1      18.262   9.937  36.786  1.00  0.00    -0.550 OA
ENDBRANCH  21  22
ENDBRANCH  20  21
ENDBRANCH  19  20
ENDBRANCH  18  19
ENDBRANCH  17  18
ENDBRANCH  16  17
ENDBRANCH  15  16
ENDBRANCH  14  15
ENDBRANCH  13  14
ENDBRANCH   1  13
TORSDOF 20
ENDMDL
MODEL 5
REMARK VINA RESULT:    -5.284      1.169      2.392
REMARK INTER + INTRA:         -13.365
REMARK INTER:                 -11.276
REMARK INTRA:                  -2.089
REMARK UNBOUND:                -1.902
REMARK SMILES CCCCCCCCCCCCCCCCCCCCCC(=O)[O-]
REMARK SMILES IDX 12 1 11 2 10 3 9 4 8 5 7 6 6 7 5 8 4 9 3 10 2 11 1 12 13 13
REMARK SMILES IDX 14 14 15 15 16 16 17 17 18 18 19 19 20 20 21 21 22 22 23 23
REMARK SMILES IDX 24 24
REMARK H PARENT
REMARK Flexibility Score: inf
ROOT
ATOM      1  C   UNL     1      24.777   9.804  29.121  1.00  0.00     0.000 C 
ENDROOT
BRANCH   1   2
ATOM      2  C   UNL     1      23.251  10.002  29.177  1.00  0.00     0.000 C 
BRANCH   2   3
ATOM      3  C   UNL     1      22.656   9.687  30.561  1.00  0.00     0.000 C 
BRANCH   3   4
ATOM      4  C   UNL     1      21.635  10.742  31.016  1.00  0.00    -0.000 C 
BRANCH   4   5
ATOM      5  C   UNL     1      22.097  11.507  32.270  1.00  0.00    -0.000 C 
BRANCH   5   6
ATOM      6  C   UNL     1      20.930  12.156  33.035  1.00  0.00    -0.000 C 
BRANCH   6   7
ATOM      7  C   UNL     1      21.339  13.184  34.111  1.00  0.00    -0.000 C 
BRANCH   7   8
ATOM      8  C   UNL     1      20.695  12.976  35.493  1.00  0.00    -0.000 C 
BRANCH   8   9
ATOM      9  C   UNL     1      19.198  12.643  35.409  1.00  0.00    -0.000 C 
BRANCH   9  10
ATOM     10  C   UNL     1      18.685  12.078  36.742  1.00  0.00    -0.000 C 
BRANCH  10  11
ATOM     11  C   UNL     1      18.205  10.623  36.622  1.00  0.00    -0.003 C 
ATOM     12  C   UNL     1      19.339   9.651  36.298  1.00  0.00     0.004 C 
ENDBRANCH  10  11
ENDBRANCH   9  10
ENDBRANCH   8   9
ENDBRANCH   7   8
ENDBRANCH   6   7
ENDBRANCH   5   6
ENDBRANCH   4   5
ENDBRANCH   3   4
ENDBRANCH   2   3
ENDBRANCH   1   2
BRANCH   1  13
ATOM     13  C   UNL     1      25.417   9.242  30.405  1.00  0.00     0.000 C 
BRANCH  13  14
ATOM     14  C   UNL     1      26.322  10.261  31.119  1.00  0.00     0.000 C 
BRANCH  14  15
ATOM     15  C   UNL     1      25.746  11.689  31.104  1.00  0.00     0.000 C 
BRANCH  15  16
ATOM     16  C   UNL     1      26.715  12.782  30.608  1.00  0.00     0.000 C 
BRANCH  16  17
ATOM     17  C   UNL     1      28.080  12.824  31.324  1.00  0.00     0.000 C 
BRANCH  17  18
ATOM     18  C   UNL     1      28.005  12.955  32.857  1.00  0.00     0.000 C 
BRANCH  18  19
ATOM     19  C   UNL     1      28.399  11.663  33.586  1.00  0.00     0.000 C 
BRANCH  19  20
ATOM     20  C   UNL     1      27.621  11.519  34.904  1.00  0.00     0.006 C 
BRANCH  20  21
ATOM     21  C   UNL     1      26.102  11.585  34.692  1.00  0.00     0.053 C 
BRANCH  21  22
ATOM     22  C   UNL     1      25.464  12.608  35.582  1.00  0.00     0.041 C 
ATOM     23  O   UNL     1      26.114  13.621  35.952  1.00  0.00    -0.550 OA
ATOM     24  O   UNL     1      24.141  12.456  35.977  1.00  0.00    -0.550 OA
ENDBRANCH  21  22
ENDBRANCH  20  21
ENDBRANCH  19  20
ENDBRANCH  18  19
ENDBRANCH  17  18
ENDBRANCH  16  17
ENDBRANCH  15  16
ENDBRANCH  14  15
ENDBRANCH  13  14
ENDBRANCH   1  13
TORSDOF 20
ENDMDL
MODEL 6
REMARK VINA RESULT:    -5.273      3.151      8.621
REMARK INTER + INTRA:         -13.340
REMARK INTER:                 -11.325
REMARK INTRA:                  -2.015
REMARK UNBOUND:                -1.902
REMARK SMILES CCCCCCCCCCCCCCCCCCCCCC(=O)[O-]
REMARK SMILES IDX 12 1 11 2 10 3 9 4 8 5 7 6 6 7 5 8 4 9 3 10 2 11 1 12 13 13
REMARK SMILES IDX 14 14 15 15 16 16 17 17 18 18 19 19 20 20 21 21 22 22 23 23
REMARK SMILES IDX 24 24
REMARK H PARENT
REMARK Flexibility Score: inf
ROOT
ATOM      1  C   UNL     1      23.400  12.462  35.640  1.00  0.00     0.000 C 
ENDROOT
BRANCH   1   2
ATOM      2  C   UNL     1      24.925  12.613  35.793  1.00  0.00     0.000 C 
BRANCH   2   3
ATOM      3  C   UNL     1      25.716  11.653  34.888  1.00  0.00     0.000 C 
BRANCH   3   4
ATOM      4  C   UNL     1      27.176  12.094  34.695  1.00  0.00    -0.000 C 
BRANCH   4   5
ATOM      5  C   UNL     1      27.304  13.326  33.781  1.00  0.00    -0.000 C 
BRANCH   5   6
ATOM      6  C   UNL     1      26.956  13.019  32.314  1.00  0.00    -0.000 C 
BRANCH   6   7
ATOM      7  C   UNL     1      28.120  12.467  31.463  1.00  0.00    -0.000 C 
BRANCH   7   8
ATOM      8  C   UNL     1      27.876  11.079  30.846  1.00  0.00    -0.000 C 
BRANCH   8   9
ATOM      9  C   UNL     1      26.700  10.334  31.494  1.00  0.00    -0.000 C 
BRANCH   9  10
ATOM     10  C   UNL     1      26.009   9.408  30.483  1.00  0.00    -0.000 C 
BRANCH  10  11
ATOM     11  C   UNL     1      24.499   9.670  30.375  1.00  0.00    -0.003 C 
ATOM     12  C   UNL     1      24.017  10.756  31.337  1.00  0.00     0.004 C 
ENDBRANCH  10  11
ENDBRANCH   9  10
ENDBRANCH   8   9
ENDBRANCH   7   8
ENDBRANCH   6   7
ENDBRANCH   5   6
ENDBRANCH   4   5
ENDBRANCH   3   4
ENDBRANCH   2   3
ENDBRANCH   1   2
BRANCH   1  13
ATOM     13  C   UNL     1      22.888  12.382  34.190  1.00  0.00     0.000 C 
BRANCH  13  14
ATOM     14  C   UNL     1      21.370  12.605  34.077  1.00  0.00     0.000 C 
BRANCH  14  15
ATOM     15  C   UNL     1      20.789  13.392  35.266  1.00  0.00     0.000 C 
BRANCH  15  16
ATOM     16  C   UNL     1      19.547  12.760  35.927  1.00  0.00     0.000 C 
BRANCH  16  17
ATOM     17  C   UNL     1      18.617  11.985  34.972  1.00  0.00     0.000 C 
BRANCH  17  18
ATOM     18  C   UNL     1      18.032  10.683  35.549  1.00  0.00     0.000 C 
BRANCH  18  19
ATOM     19  C   UNL     1      17.992  10.677  37.084  1.00  0.00     0.000 C 
BRANCH  19  20
ATOM     20  C   UNL     1      18.216   9.259  37.632  1.00  0.00     0.006 C 
BRANCH  20  21
ATOM     21  C   UNL     1      19.302   8.501  36.856  1.00  0.00     0.053 C 
BRANCH  21  22
ATOM     22  C   UNL     1      18.913   7.075  36.610  1.00  0.00     0.041 C 
ATOM     23  O   UNL     1      18.170   6.779  35.638  1.00  0.00    -0.550 OA
ATOM     24  O   UNL     1      19.398   6.070  37.437  1.00  0.00    -0.550 OA
ENDBRANCH  21  22
ENDBRANCH  20  21
ENDBRANCH  19  20
ENDBRANCH  18  19
ENDBRANCH  17  18
ENDBRANCH  16  17
ENDBRANCH  15  16
ENDBRANCH  14  15
ENDBRANCH  13  14
ENDBRANCH   1  13
TORSDOF 20
ENDMDL
MODEL 7
REMARK VINA RESULT:    -5.265      1.399      2.353
REMARK INTER + INTRA:         -13.323
REMARK INTER:                 -10.637
REMARK INTRA:                  -2.686
REMARK UNBOUND:                -1.902
REMARK SMILES CCCCCCCCCCCCCCCCCCCCCC(=O)[O-]
REMARK SMILES IDX 12 1 11 2 10 3 9 4 8 5 7 6 6 7 5 8 4 9 3 10 2 11 1 12 13 13
REMARK SMILES IDX 14 14 15 15 16 16 17 17 18 18 19 19 20 20 21 21 22 22 23 23
REMARK SMILES IDX 24 24
REMARK H PARENT
REMARK Flexibility Score: inf
ROOT
ATOM      1  C   UNL     1      23.844  11.499  32.180  1.00  0.00     0.000 C 
ENDROOT
BRANCH   1   2
ATOM      2  C   UNL     1      22.368  11.740  32.547  1.00  0.00     0.000 C 
BRANCH   2   3
ATOM      3  C   UNL     1      21.390  11.040  31.587  1.00  0.00     0.000 C 
BRANCH   3   4
ATOM      4  C   UNL     1      19.934  11.484  31.801  1.00  0.00    -0.000 C 
BRANCH   4   5
ATOM      5  C   UNL     1      19.729  12.985  31.530  1.00  0.00    -0.000 C 
BRANCH   5   6
ATOM      6  C   UNL     1      18.518  13.566  32.280  1.00  0.00    -0.000 C 
BRANCH   6   7
ATOM      7  C   UNL     1      18.858  14.408  33.528  1.00  0.00    -0.000 C 
BRANCH   7   8
ATOM      8  C   UNL     1      20.316  14.304  34.009  1.00  0.00    -0.000 C 
BRANCH   8   9
ATOM      9  C   UNL     1      20.441  13.673  35.404  1.00  0.00    -0.000 C 
BRANCH   9  10
ATOM     10  C   UNL     1      19.090  13.118  35.879  1.00  0.00    -0.000 C 
BRANCH  10  11
ATOM     11  C   UNL     1      19.083  11.585  35.982  1.00  0.00    -0.003 C 
ATOM     12  C   UNL     1      20.424  10.960  35.598  1.00  0.00     0.004 C 
ENDBRANCH  10  11
ENDBRANCH   9  10
ENDBRANCH   8   9
ENDBRANCH   7   8
ENDBRANCH   6   7
ENDBRANCH   5   6
ENDBRANCH   4   5
ENDBRANCH   3   4
ENDBRANCH   2   3
ENDBRANCH   1   2
BRANCH   1  13
ATOM     13  C   UNL     1      24.090  10.940  30.766  1.00  0.00     0.000 C 
BRANCH  13  14
ATOM     14  C   UNL     1      24.990   9.693  30.762  1.00  0.00     0.000 C 
BRANCH  14  15
ATOM     15  C   UNL     1      26.435   9.995  31.202  1.00  0.00     0.000 C 
BRANCH  15  16
ATOM     16  C   UNL     1      27.244  10.880  30.231  1.00  0.00     0.000 C 
BRANCH  16  17
ATOM     17  C   UNL     1      27.863  12.146  30.857  1.00  0.00     0.000 C 
BRANCH  17  18
ATOM     18  C   UNL     1      27.331  12.506  32.257  1.00  0.00     0.000 C 
BRANCH  18  19
ATOM     19  C   UNL     1      28.370  12.280  33.365  1.00  0.00     0.000 C 
BRANCH  19  20
ATOM     20  C   UNL     1      27.751  11.517  34.547  1.00  0.00     0.006 C 
BRANCH  20  21
ATOM     21  C   UNL     1      26.253  11.810  34.707  1.00  0.00     0.053 C 
BRANCH  21  22
ATOM     22  C   UNL     1      26.010  12.967  35.628  1.00  0.00     0.041 C 
ATOM     23  O   UNL     1      24.970  13.005  36.337  1.00  0.00    -0.550 OA
ATOM     24  O   UNL     1      26.948  13.987  35.724  1.00  0.00    -0.550 OA
ENDBRANCH  21  22
ENDBRANCH  20  21
ENDBRANCH  19  20
ENDBRANCH  18  19
ENDBRANCH  17  18
ENDBRANCH  16  17
ENDBRANCH  15  16
ENDBRANCH  14  15
ENDBRANCH  13  14
ENDBRANCH   1  13
TORSDOF 20
ENDMDL
MODEL 8
REMARK VINA RESULT:    -5.261      1.518      2.858
REMARK INTER + INTRA:         -13.313
REMARK INTER:                 -10.435
REMARK INTRA:                  -2.878
REMARK UNBOUND:                -1.902
REMARK SMILES CCCCCCCCCCCCCCCCCCCCCC(=O)[O-]
REMARK SMILES IDX 12 1 11 2 10 3 9 4 8 5 7 6 6 7 5 8 4 9 3 10 2 11 1 12 13 13
REMARK SMILES IDX 14 14 15 15 16 16 17 17 18 18 19 19 20 20 21 21 22 22 23 23
REMARK SMILES IDX 24 24
REMARK H PARENT
REMARK Flexibility Score: inf
ROOT
ATOM      1  C   UNL     1      24.240  11.059  31.977  1.00  0.00     0.000 C 
ENDROOT
BRANCH   1   2
ATOM      2  C   UNL     1      22.810  11.554  32.262  1.00  0.00     0.000 C 
BRANCH   2   3
ATOM      3  C   UNL     1      21.837  11.278  31.102  1.00  0.00     0.000 C 
BRANCH   3   4
ATOM      4  C   UNL     1      20.705  10.316  31.497  1.00  0.00    -0.000 C 
BRANCH   4   5
ATOM      5  C   UNL     1      19.522  11.040  32.165  1.00  0.00    -0.000 C 
BRANCH   5   6
ATOM      6  C   UNL     1      18.920  10.242  33.335  1.00  0.00    -0.000 C 
BRANCH   6   7
ATOM      7  C   UNL     1      18.935  10.962  34.700  1.00  0.00    -0.000 C 
BRANCH   7   8
ATOM      8  C   UNL     1      20.198  10.731  35.547  1.00  0.00    -0.000 C 
BRANCH   8   9
ATOM      9  C   UNL     1      21.120  11.958  35.592  1.00  0.00    -0.000 C 
BRANCH   9  10
ATOM     10  C   UNL     1      20.315  13.257  35.440  1.00  0.00    -0.000 C 
BRANCH  10  11
ATOM     11  C   UNL     1      20.688  14.040  34.171  1.00  0.00    -0.003 C 
ATOM     12  C   UNL     1      19.465  14.515  33.388  1.00  0.00     0.004 C 
ENDBRANCH  10  11
ENDBRANCH   9  10
ENDBRANCH   8   9
ENDBRANCH   7   8
ENDBRANCH   6   7
ENDBRANCH   5   6
ENDBRANCH   4   5
ENDBRANCH   3   4
ENDBRANCH   2   3
ENDBRANCH   1   2
BRANCH   1  13
ATOM     13  C   UNL     1      24.401  10.210  30.702  1.00  0.00     0.000 C 
BRANCH  13  14
ATOM     14  C   UNL     1      25.675   9.348  30.713  1.00  0.00     0.000 C 
BRANCH  14  15
ATOM     15  C   UNL     1      26.959  10.173  30.511  1.00  0.00     0.000 C 
BRANCH  15  16
ATOM     16  C   UNL     1      26.820  11.379  29.559  1.00  0.00     0.000 C 
BRANCH  16  17
ATOM     17  C   UNL     1      27.169  12.748  30.177  1.00  0.00     0.000 C 
BRANCH  17  18
ATOM     18  C   UNL     1      28.134  12.692  31.376  1.00  0.00     0.000 C 
BRANCH  18  19
ATOM     19  C   UNL     1      27.437  12.968  32.716  1.00  0.00     0.000 C 
BRANCH  19  20
ATOM     20  C   UNL     1      27.899  11.970  33.789  1.00  0.00     0.006 C 
BRANCH  20  21
ATOM     21  C   UNL     1      26.725  11.401  34.598  1.00  0.00     0.053 C 
BRANCH  21  22
ATOM     22  C   UNL     1      25.989  12.477  35.337  1.00  0.00     0.041 C 
ATOM     23  O   UNL     1      26.614  13.464  35.807  1.00  0.00    -0.550 OA
ATOM     24  O   UNL     1      24.609  12.403  35.479  1.00  0.00    -0.550 OA
ENDBRANCH  21  22
ENDBRANCH  20  21
ENDBRANCH  19  20
ENDBRANCH  18  19
ENDBRANCH  17  18
ENDBRANCH  16  17
ENDBRANCH  15  16
ENDBRANCH  14  15
ENDBRANCH  13  14
ENDBRANCH   1  13
TORSDOF 20
ENDMDL
MODEL 9
REMARK VINA RESULT:    -5.203      1.343      1.950
REMARK INTER + INTRA:         -13.187
REMARK INTER:                 -11.157
REMARK INTRA:                  -2.031
REMARK UNBOUND:                -1.902
REMARK SMILES CCCCCCCCCCCCCCCCCCCCCC(=O)[O-]
REMARK SMILES IDX 12 1 11 2 10 3 9 4 8 5 7 6 6 7 5 8 4 9 3 10 2 11 1 12 13 13
REMARK SMILES IDX 14 14 15 15 16 16 17 17 18 18 19 19 20 20 21 21 22 22 23 23
REMARK SMILES IDX 24 24
REMARK H PARENT
REMARK Flexibility Score: inf
ROOT
ATOM      1  C   UNL     1      21.309  10.848  31.699  1.00  0.00     0.000 C 
ENDROOT
BRANCH   1   2
ATOM      2  C   UNL     1      20.982  12.081  32.561  1.00  0.00     0.000 C 
BRANCH   2   3
ATOM      3  C   UNL     1      22.026  12.339  33.661  1.00  0.00     0.000 C 
BRANCH   3   4
ATOM      4  C   UNL     1      21.401  12.405  35.063  1.00  0.00    -0.000 C 
BRANCH   4   5
ATOM      5  C   UNL     1      20.220  13.390  35.137  1.00  0.00    -0.000 C 
BRANCH   5   6
ATOM      6  C   UNL     1      19.077  12.883  36.034  1.00  0.00    -0.000 C 
BRANCH   6   7
ATOM      7  C   UNL     1      18.896  11.351  36.067  1.00  0.00    -0.000 C 
BRANCH   7   8
ATOM      8  C   UNL     1      17.902  10.833  37.121  1.00  0.00    -0.000 C 
BRANCH   8   9
ATOM      9  C   UNL     1      17.932   9.304  37.269  1.00  0.00    -0.000 C 
BRANCH   9  10
ATOM     10  C   UNL     1      18.823   8.664  36.194  1.00  0.00    -0.000 C 
BRANCH  10  11
ATOM     11  C   UNL     1      19.749   7.578  36.764  1.00  0.00    -0.003 C 
ATOM     12  C   UNL     1      19.003   6.294  37.125  1.00  0.00     0.004 C 
ENDBRANCH  10  11
ENDBRANCH   9  10
ENDBRANCH   8   9
ENDBRANCH   7   8
ENDBRANCH   6   7
ENDBRANCH   5   6
ENDBRANCH   4   5
ENDBRANCH   3   4
ENDBRANCH   2   3
ENDBRANCH   1   2
BRANCH   1  13
ATOM     13  C   UNL     1      22.552  10.983  30.799  1.00  0.00     0.000 C 
BRANCH  13  14
ATOM     14  C   UNL     1      23.167   9.625  30.418  1.00  0.00     0.000 C 
BRANCH  14  15
ATOM     15  C   UNL     1      24.490   9.763  29.645  1.00  0.00     0.000 C 
BRANCH  15  16
ATOM     16  C   UNL     1      25.742   9.256  30.391  1.00  0.00     0.000 C 
BRANCH  16  17
ATOM     17  C   UNL     1      26.780  10.340  30.745  1.00  0.00     0.000 C 
BRANCH  17  18
ATOM     18  C   UNL     1      26.284  11.789  30.592  1.00  0.00     0.000 C 
BRANCH  18  19
ATOM     19  C   UNL     1      26.079  12.494  31.941  1.00  0.00     0.000 C 
BRANCH  19  20
ATOM     20  C   UNL     1      25.558  11.509  33.000  1.00  0.00     0.006 C 
BRANCH  20  21
ATOM     21  C   UNL     1      25.678  12.070  34.424  1.00  0.00     0.053 C 
BRANCH  21  22
ATOM     22  C   UNL     1      27.107  12.138  34.873  1.00  0.00     0.041 C 
ATOM     23  O   UNL     1      27.851  11.127  34.774  1.00  0.00    -0.550 OA
ATOM     24  O   UNL     1      27.622  13.327  35.373  1.00  0.00    -0.550 OA
ENDBRANCH  21  22
ENDBRANCH  20  21
ENDBRANCH  19  20
ENDBRANCH  18  19
ENDBRANCH  17  18
ENDBRANCH  16  17
ENDBRANCH  15  16
ENDBRANCH  14  15
ENDBRANCH  13  14
ENDBRANCH   1  13
TORSDOF 20
ENDMDL
