MODEL 1
REMARK VINA RESULT:    -5.508      0.000      0.000
REMARK INTER + INTRA:          -6.608
REMARK INTER:                  -6.474
REMARK INTRA:                  -0.134
REMARK UNBOUND:                -0.134
REMARK SMILES O=C([O-])C=Cc1ccc(O)c(O)c1
REMARK SMILES IDX 6 1 13 2 7 3 11 4 8 5 9 6 5 7 4 8 2 9 1 10 3 11 12 12 10 14
REMARK H PARENT 12 13 10 15
REMARK Flexibility Score: inf
ROOT
ATOM      1  C   UNL     1      18.946  -7.921  20.788  1.00  0.00    -0.022 A 
ATOM      2  C   UNL     1      19.827  -7.940  19.694  1.00  0.00     0.058 A 
ATOM      3  C   UNL     1      17.565  -8.076  20.552  1.00  0.00     0.012 A 
ATOM      4  C   UNL     1      19.348  -8.135  18.390  1.00  0.00     0.157 A 
ATOM      5  C   UNL     1      17.089  -8.271  19.252  1.00  0.00     0.051 A 
ATOM      6  C   UNL     1      17.972  -8.303  18.171  1.00  0.00     0.157 A 
ENDROOT
BRANCH   1   7
ATOM      7  C   UNL     1      19.504  -7.701  22.146  1.00  0.00     0.010 C 
ATOM      8  C   UNL     1      19.312  -8.538  23.175  1.00  0.00     0.025 C 
BRANCH   8   9
ATOM      9  C   UNL     1      19.894  -8.285  24.502  1.00  0.00     0.064 C 
ATOM     10  O   UNL     1      20.818  -7.439  24.623  1.00  0.00    -0.545 OA
ATOM     11  O   UNL     1      19.444  -8.968  25.626  1.00  0.00    -0.545 OA
ENDBRANCH   8   9
ENDBRANCH   1   7
BRANCH   4  12
ATOM     12  O   UNL     1      20.235  -8.161  17.315  1.00  0.00    -0.504 OA
ATOM     13  H   UNL     1      19.913  -8.289  16.363  1.00  0.00     0.293 HD
ENDBRANCH   4  12
BRANCH   6  14
ATOM     14  O   UNL     1      17.464  -8.500  16.886  1.00  0.00    -0.504 OA
ATOM     15  H   UNL     1      17.066  -9.385  16.596  1.00  0.00     0.293 HD
ENDBRANCH   6  14
TORSDOF 4
ENDMDL
MODEL 2
REMARK VINA RESULT:    -5.467      0.810      1.825
REMARK INTER + INTRA:          -6.560
REMARK INTER:                  -6.431
REMARK INTRA:                  -0.129
REMARK UNBOUND:                -0.134
REMARK SMILES O=C([O-])C=Cc1ccc(O)c(O)c1
REMARK SMILES IDX 6 1 13 2 7 3 11 4 8 5 9 6 5 7 4 8 2 9 1 10 3 11 12 12 10 14
REMARK H PARENT 12 13 10 15
REMARK Flexibility Score: inf
ROOT
ATOM      1  C   UNL     1      19.165  -8.052  20.752  1.00  0.00    -0.022 A 
ATOM      2  C   UNL     1      17.829  -7.823  20.383  1.00  0.00     0.058 A 
ATOM      3  C   UNL     1      20.049  -8.598  19.799  1.00  0.00     0.012 A 
ATOM      4  C   UNL     1      17.385  -8.107  19.083  1.00  0.00     0.157 A 
ATOM      5  C   UNL     1      19.606  -8.881  18.504  1.00  0.00     0.051 A 
ATOM      6  C   UNL     1      18.280  -8.635  18.140  1.00  0.00     0.157 A 
ENDROOT
BRANCH   1   7
ATOM      7  C   UNL     1      19.580  -7.745  22.143  1.00  0.00     0.010 C 
ATOM      8  C   UNL     1      19.467  -8.608  23.162  1.00  0.00     0.025 C 
BRANCH   8   9
ATOM      9  C   UNL     1      19.904  -8.264  24.524  1.00  0.00     0.064 C 
ATOM     10  O   UNL     1      20.805  -7.401  24.688  1.00  0.00    -0.545 OA
ATOM     11  O   UNL     1      19.340  -8.881  25.636  1.00  0.00    -0.545 OA
ENDBRANCH   8   9
ENDBRANCH   1   7
BRANCH   4  12
ATOM     12  O   UNL     1      16.058  -7.864  18.728  1.00  0.00    -0.504 OA
ATOM     13  H   UNL     1      15.810  -7.509  17.812  1.00  0.00     0.293 HD
ENDBRANCH   4  12
BRANCH   6  14
ATOM     14  O   UNL     1      17.869  -8.927  16.838  1.00  0.00    -0.504 OA
ATOM     15  H   UNL     1      17.061  -9.506  16.647  1.00  0.00     0.293 HD
ENDBRANCH   6  14
TORSDOF 4
ENDMDL
MODEL 3
REMARK VINA RESULT:    -5.356      7.395      9.932
REMARK INTER + INTRA:          -6.429
REMARK INTER:                  -6.293
REMARK INTRA:                  -0.136
REMARK UNBOUND:                -0.134
REMARK SMILES O=C([O-])C=Cc1ccc(O)c(O)c1
REMARK SMILES IDX 6 1 13 2 7 3 11 4 8 5 9 6 5 7 4 8 2 9 1 10 3 11 12 12 10 14
REMARK H PARENT 12 13 10 15
REMARK Flexibility Score: inf
ROOT
ATOM      1  C   UNL     1      19.300 -14.977  16.209  1.00  0.00    -0.022 A 
ATOM      2  C   UNL     1      20.230 -14.945  17.262  1.00  0.00     0.058 A 
ATOM      3  C   UNL     1      17.935 -14.781  16.501  1.00  0.00     0.012 A 
ATOM      4  C   UNL     1      19.815 -14.696  18.578  1.00  0.00     0.157 A 
ATOM      5  C   UNL     1      17.522 -14.532  17.813  1.00  0.00     0.051 A 
ATOM      6  C   UNL     1      18.455 -14.487  18.853  1.00  0.00     0.157 A 
ENDROOT
BRANCH   1   7
ATOM      7  C   UNL     1      19.791 -15.256  14.836  1.00  0.00     0.010 C 
ATOM      8  C   UNL     1      19.405 -14.566  13.753  1.00  0.00     0.025 C 
BRANCH   8   9
ATOM      9  C   UNL     1      19.927 -14.870  12.412  1.00  0.00     0.064 C 
ATOM     10  O   UNL     1      20.821 -15.745  12.277  1.00  0.00    -0.545 OA
ATOM     11  O   UNL     1      19.451 -14.202  11.288  1.00  0.00    -0.545 OA
ENDBRANCH   8   9
ENDBRANCH   1   7
BRANCH   4  12
ATOM     12  O   UNL     1      20.750 -14.657  19.611  1.00  0.00    -0.504 OA
ATOM     13  H   UNL     1      20.692 -13.971  20.355  1.00  0.00     0.293 HD
ENDBRANCH   4  12
BRANCH   6  14
ATOM     14  O   UNL     1      18.010 -14.235  20.151  1.00  0.00    -0.504 OA
ATOM     15  H   UNL     1      17.488 -14.922  20.683  1.00  0.00     0.293 HD
ENDBRANCH   6  14
TORSDOF 4
ENDMDL
MODEL 4
REMARK VINA RESULT:    -5.338      2.493      3.297
REMARK INTER + INTRA:          -6.408
REMARK INTER:                  -6.281
REMARK INTRA:                  -0.127
REMARK UNBOUND:                -0.134
REMARK SMILES O=C([O-])C=Cc1ccc(O)c(O)c1
REMARK SMILES IDX 6 1 13 2 7 3 11 4 8 5 9 6 5 7 4 8 2 9 1 10 3 11 12 12 10 14
REMARK H PARENT 12 13 10 15
REMARK Flexibility Score: inf
ROOT
ATOM      1  C   UNL     1      19.840  -9.065  23.101  1.00  0.00    -0.022 A 
ATOM      2  C   UNL     1      19.865  -7.713  22.723  1.00  0.00     0.058 A 
ATOM      3  C   UNL     1      20.098 -10.049  22.126  1.00  0.00     0.012 A 
ATOM      4  C   UNL     1      20.168  -7.342  21.404  1.00  0.00     0.157 A 
ATOM      5  C   UNL     1      20.400  -9.679  20.812  1.00  0.00     0.051 A 
ATOM      6  C   UNL     1      20.439  -8.331  20.447  1.00  0.00     0.157 A 
ENDROOT
BRANCH   1   7
ATOM      7  C   UNL     1      19.503  -9.403  24.507  1.00  0.00     0.010 C 
ATOM      8  C   UNL     1      20.180  -8.940  25.567  1.00  0.00     0.025 C 
BRANCH   8   9
ATOM      9  C   UNL     1      19.802  -9.292  26.944  1.00  0.00     0.064 C 
ATOM     10  O   UNL     1      20.690  -9.360  27.834  1.00  0.00    -0.545 OA
ATOM     11  O   UNL     1      18.479  -9.556  27.281  1.00  0.00    -0.545 OA
ENDBRANCH   8   9
ENDBRANCH   1   7
BRANCH   4  12
ATOM     12  O   UNL     1      20.201  -5.995  21.045  1.00  0.00    -0.504 OA
ATOM     13  H   UNL     1      19.447  -5.362  21.286  1.00  0.00     0.293 HD
ENDBRANCH   4  12
BRANCH   6  14
ATOM     14  O   UNL     1      20.745  -7.996  19.127  1.00  0.00    -0.504 OA
ATOM     15  H   UNL     1      20.552  -7.077  18.748  1.00  0.00     0.293 HD
ENDBRANCH   6  14
TORSDOF 4
ENDMDL
MODEL 5
REMARK VINA RESULT:    -5.222      8.220     11.181
REMARK INTER + INTRA:          -6.272
REMARK INTER:                  -6.143
REMARK INTRA:                  -0.129
REMARK UNBOUND:                -0.134
REMARK SMILES O=C([O-])C=Cc1ccc(O)c(O)c1
REMARK SMILES IDX 6 1 13 2 7 3 11 4 8 5 9 6 5 7 4 8 2 9 1 10 3 11 12 12 10 14
REMARK H PARENT 12 13 10 15
REMARK Flexibility Score: inf
ROOT
ATOM      1  C   UNL     1      19.890 -14.283  14.213  1.00  0.00    -0.022 A 
ATOM      2  C   UNL     1      19.932 -15.651  14.528  1.00  0.00     0.058 A 
ATOM      3  C   UNL     1      20.130 -13.343  15.235  1.00  0.00     0.012 A 
ATOM      4  C   UNL     1      20.233 -16.079  15.829  1.00  0.00     0.157 A 
ATOM      5  C   UNL     1      20.429 -13.769  16.531  1.00  0.00     0.051 A 
ATOM      6  C   UNL     1      20.485 -15.132  16.834  1.00  0.00     0.157 A 
ENDROOT
BRANCH   1   7
ATOM      7  C   UNL     1      19.557 -13.884  12.822  1.00  0.00     0.010 C 
ATOM      8  C   UNL     1      20.144 -14.406  11.736  1.00  0.00     0.025 C 
BRANCH   8   9
ATOM      9  C   UNL     1      19.773 -13.988  10.376  1.00  0.00     0.064 C 
ATOM     10  O   UNL     1      18.560 -13.813  10.089  1.00  0.00    -0.545 OA
ATOM     11  O   UNL     1      20.741 -13.786   9.398  1.00  0.00    -0.545 OA
ENDBRANCH   8   9
ENDBRANCH   1   7
BRANCH   4  12
ATOM     12  O   UNL     1      20.282 -17.441  16.124  1.00  0.00    -0.504 OA
ATOM     13  H   UNL     1      19.474 -18.040  16.003  1.00  0.00     0.293 HD
ENDBRANCH   4  12
BRANCH   6  14
ATOM     14  O   UNL     1      20.787 -15.525  18.138  1.00  0.00    -0.504 OA
ATOM     15  H   UNL     1      21.383 -16.320  18.335  1.00  0.00     0.293 HD
ENDBRANCH   6  14
TORSDOF 4
ENDMDL
MODEL 6
REMARK VINA RESULT:    -5.173      3.007      4.924
REMARK INTER + INTRA:          -6.214
REMARK INTER:                  -6.087
REMARK INTRA:                  -0.127
REMARK UNBOUND:                -0.134
REMARK SMILES O=C([O-])C=Cc1ccc(O)c(O)c1
REMARK SMILES IDX 6 1 13 2 7 3 11 4 8 5 9 6 5 7 4 8 2 9 1 10 3 11 12 12 10 14
REMARK H PARENT 12 13 10 15
REMARK Flexibility Score: inf
ROOT
ATOM      1  C   UNL     1      19.436  -7.468  20.923  1.00  0.00    -0.022 A 
ATOM      2  C   UNL     1      19.911  -7.855  22.187  1.00  0.00     0.058 A 
ATOM      3  C   UNL     1      18.870  -8.446  20.081  1.00  0.00     0.012 A 
ATOM      4  C   UNL     1      19.802  -9.185  22.618  1.00  0.00     0.157 A 
ATOM      5  C   UNL     1      18.763  -9.772  20.510  1.00  0.00     0.051 A 
ATOM      6  C   UNL     1      19.223 -10.146  21.775  1.00  0.00     0.157 A 
ENDROOT
BRANCH   1   7
ATOM      7  C   UNL     1      19.584  -6.049  20.512  1.00  0.00     0.010 C 
ATOM      8  C   UNL     1      20.746  -5.503  20.126  1.00  0.00     0.025 C 
BRANCH   8   9
ATOM      9  C   UNL     1      20.844  -4.094  19.715  1.00  0.00     0.064 C 
ATOM     10  O   UNL     1      21.831  -3.713  19.034  1.00  0.00    -0.545 OA
ATOM     11  O   UNL     1      19.863  -3.173  20.069  1.00  0.00    -0.545 OA
ENDBRANCH   8   9
ENDBRANCH   1   7
BRANCH   4  12
ATOM     12  O   UNL     1      20.269  -9.553  23.880  1.00  0.00    -0.504 OA
ATOM     13  H   UNL     1      20.703  -8.882  24.502  1.00  0.00     0.293 HD
ENDBRANCH   4  12
BRANCH   6  14
ATOM     14  O   UNL     1      19.100 -11.477  22.174  1.00  0.00    -0.504 OA
ATOM     15  H   UNL     1      18.483 -12.126  21.700  1.00  0.00     0.293 HD
ENDBRANCH   6  14
TORSDOF 4
ENDMDL
MODEL 7
REMARK VINA RESULT:    -5.171      6.761      9.587
REMARK INTER + INTRA:          -6.212
REMARK INTER:                  -6.082
REMARK INTRA:                  -0.130
REMARK UNBOUND:                -0.134
REMARK SMILES O=C([O-])C=Cc1ccc(O)c(O)c1
REMARK SMILES IDX 6 1 13 2 7 3 11 4 8 5 9 6 5 7 4 8 2 9 1 10 3 11 12 12 10 14
REMARK H PARENT 12 13 10 15
REMARK Flexibility Score: inf
ROOT
ATOM      1  C   UNL     1      18.772 -14.294  15.723  1.00  0.00    -0.022 A 
ATOM      2  C   UNL     1      18.992 -12.952  16.073  1.00  0.00     0.058 A 
ATOM      3  C   UNL     1      17.934 -15.081  16.538  1.00  0.00     0.012 A 
ATOM      4  C   UNL     1      18.371 -12.393  17.200  1.00  0.00     0.157 A 
ATOM      5  C   UNL     1      17.315 -14.524  17.661  1.00  0.00     0.051 A 
ATOM      6  C   UNL     1      17.527 -13.184  17.995  1.00  0.00     0.157 A 
ENDROOT
BRANCH   1   7
ATOM      7  C   UNL     1      19.462 -14.839  14.527  1.00  0.00     0.010 C 
ATOM      8  C   UNL     1      19.369 -14.300  13.303  1.00  0.00     0.025 C 
BRANCH   8   9
ATOM      9  C   UNL     1      20.082 -14.868  12.148  1.00  0.00     0.064 C 
ATOM     10  O   UNL     1      20.909 -15.799  12.325  1.00  0.00    -0.545 OA
ATOM     11  O   UNL     1      19.858 -14.390  10.861  1.00  0.00    -0.545 OA
ENDBRANCH   8   9
ENDBRANCH   1   7
BRANCH   4  12
ATOM     12  O   UNL     1      18.591 -11.057  17.529  1.00  0.00    -0.504 OA
ATOM     13  H   UNL     1      19.004 -10.789  18.415  1.00  0.00     0.293 HD
ENDBRANCH   4  12
BRANCH   6  14
ATOM     14  O   UNL     1      16.893 -12.658  19.121  1.00  0.00    -0.504 OA
ATOM     15  H   UNL     1      16.815 -13.179  19.986  1.00  0.00     0.293 HD
ENDBRANCH   6  14
TORSDOF 4
ENDMDL
MODEL 8
REMARK VINA RESULT:    -5.153      7.377     10.084
REMARK INTER + INTRA:          -6.190
REMARK INTER:                  -6.062
REMARK INTRA:                  -0.128
REMARK UNBOUND:                -0.134
REMARK SMILES O=C([O-])C=Cc1ccc(O)c(O)c1
REMARK SMILES IDX 6 1 13 2 7 3 11 4 8 5 9 6 5 7 4 8 2 9 1 10 3 11 12 12 10 14
REMARK H PARENT 12 13 10 15
REMARK Flexibility Score: inf
ROOT
ATOM      1  C   UNL     1      19.387 -15.002  16.099  1.00  0.00    -0.022 A 
ATOM      2  C   UNL     1      18.014 -14.940  16.391  1.00  0.00     0.058 A 
ATOM      3  C   UNL     1      20.313 -14.786  17.140  1.00  0.00     0.012 A 
ATOM      4  C   UNL     1      17.568 -14.695  17.697  1.00  0.00     0.157 A 
ATOM      5  C   UNL     1      19.868 -14.542  18.442  1.00  0.00     0.051 A 
ATOM      6  C   UNL     1      18.501 -14.498  18.727  1.00  0.00     0.157 A 
ENDROOT
BRANCH   1   7
ATOM      7  C   UNL     1      19.806 -15.254  14.698  1.00  0.00     0.010 C 
ATOM      8  C   UNL     1      19.420 -14.501  13.658  1.00  0.00     0.025 C 
BRANCH   8   9
ATOM      9  C   UNL     1      19.870 -14.781  12.286  1.00  0.00     0.064 C 
ATOM     10  O   UNL     1      19.359 -14.151  11.324  1.00  0.00    -0.545 OA
ATOM     11  O   UNL     1      20.850 -15.735  12.033  1.00  0.00    -0.545 OA
ENDBRANCH   8   9
ENDBRANCH   1   7
BRANCH   4  12
ATOM     12  O   UNL     1      16.202 -14.648  17.974  1.00  0.00    -0.504 OA
ATOM     13  H   UNL     1      15.738 -15.387  18.487  1.00  0.00     0.293 HD
ENDBRANCH   4  12
BRANCH   6  14
ATOM     14  O   UNL     1      18.090 -14.253  20.038  1.00  0.00    -0.504 OA
ATOM     15  H   UNL     1      18.750 -14.066  20.782  1.00  0.00     0.293 HD
ENDBRANCH   6  14
TORSDOF 4
ENDMDL
MODEL 9
REMARK VINA RESULT:    -5.018      3.103      4.715
REMARK INTER + INTRA:          -6.033
REMARK INTER:                  -5.903
REMARK INTRA:                  -0.130
REMARK UNBOUND:                -0.134
REMARK SMILES O=C([O-])C=Cc1ccc(O)c(O)c1
REMARK SMILES IDX 6 1 13 2 7 3 11 4 8 5 9 6 5 7 4 8 2 9 1 10 3 11 12 12 10 14
REMARK H PARENT 12 13 10 15
REMARK Flexibility Score: inf
ROOT
ATOM      1  C   UNL     1      19.452  -7.611  21.136  1.00  0.00    -0.022 A 
ATOM      2  C   UNL     1      18.819  -8.483  20.236  1.00  0.00     0.058 A 
ATOM      3  C   UNL     1      19.922  -8.122  22.362  1.00  0.00     0.012 A 
ATOM      4  C   UNL     1      18.677  -9.846  20.537  1.00  0.00     0.157 A 
ATOM      5  C   UNL     1      19.781  -9.480  22.662  1.00  0.00     0.051 A 
ATOM      6  C   UNL     1      19.164 -10.345  21.755  1.00  0.00     0.157 A 
ENDROOT
BRANCH   1   7
ATOM      7  C   UNL     1      19.567  -6.176  20.773  1.00  0.00     0.010 C 
ATOM      8  C   UNL     1      20.640  -5.642  20.173  1.00  0.00     0.025 C 
BRANCH   8   9
ATOM      9  C   UNL     1      20.704  -4.215  19.821  1.00  0.00     0.064 C 
ATOM     10  O   UNL     1      19.819  -3.430  20.249  1.00  0.00    -0.545 OA
ATOM     11  O   UNL     1      21.727  -3.719  19.020  1.00  0.00    -0.545 OA
ENDBRANCH   8   9
ENDBRANCH   1   7
BRANCH   4  12
ATOM     12  O   UNL     1      18.055 -10.702  19.629  1.00  0.00    -0.504 OA
ATOM     13  H   UNL     1      17.291 -11.307  19.907  1.00  0.00     0.293 HD
ENDBRANCH   4  12
BRANCH   6  14
ATOM     14  O   UNL     1      19.040 -11.696  22.083  1.00  0.00    -0.504 OA
ATOM     15  H   UNL     1      18.157 -12.100  22.372  1.00  0.00     0.293 HD
ENDBRANCH   6  14
TORSDOF 4
ENDMDL
