MODEL 1
REMARK VINA RESULT:    -4.829      0.000      0.000
REMARK INTER + INTRA:         -10.697
REMARK INTER:                  -9.063
REMARK INTRA:                  -1.634
REMARK UNBOUND:                -1.634
REMARK SMILES CCCCCCCCC=CCCCCCCCC(=O)[O-]
REMARK SMILES IDX 10 1 9 2 11 3 12 4 13 5 14 6 15 7 16 8 17 9 18 10 19 11
REMARK SMILES IDX 20 12 8 13 7 14 6 15 5 16 4 17 3 18 2 19 1 20
REMARK H PARENT
REMARK Flexibility Score: inf
ROOT
ATOM      1  C   UNL     1      10.986  15.875  23.186  1.00  0.00    -0.031 C 
ATOM      2  C   UNL     1      10.152  15.238  22.343  1.00  0.00    -0.031 C 
ENDROOT
BRANCH   1   3
ATOM      3  C   UNL     1      11.330  15.410  24.580  1.00  0.00     0.027 C 
BRANCH   3   4
ATOM      4  C   UNL     1      12.632  16.033  25.110  1.00  0.00     0.004 C 
BRANCH   4   5
ATOM      5  C   UNL     1      12.406  17.432  25.703  1.00  0.00     0.000 C 
BRANCH   5   6
ATOM      6  C   UNL     1      13.346  18.460  25.055  1.00  0.00     0.000 C 
BRANCH   6   7
ATOM      7  C   UNL     1      14.157  17.867  23.893  1.00  0.00     0.000 C 
BRANCH   7   8
ATOM      8  C   UNL     1      14.275  18.834  22.702  1.00  0.00     0.006 C 
BRANCH   8   9
ATOM      9  C   UNL     1      12.933  19.035  21.985  1.00  0.00     0.053 C 
BRANCH   9  10
ATOM     10  C   UNL     1      12.556  20.483  21.906  1.00  0.00     0.041 C 
ATOM     11  O   UNL     1      11.816  20.994  22.787  1.00  0.00    -0.550 OA
ATOM     12  O   UNL     1      13.001  21.261  20.845  1.00  0.00    -0.550 OA
ENDBRANCH   9  10
ENDBRANCH   8   9
ENDBRANCH   7   8
ENDBRANCH   6   7
ENDBRANCH   5   6
ENDBRANCH   4   5
ENDBRANCH   3   4
ENDBRANCH   1   3
BRANCH   2  13
ATOM     13  C   UNL     1       9.395  13.974  22.672  1.00  0.00     0.027 C 
BRANCH  13  14
ATOM     14  C   UNL     1       7.941  14.036  22.180  1.00  0.00     0.004 C 
BRANCH  14  15
ATOM     15  C   UNL     1       6.896  13.588  23.223  1.00  0.00     0.000 C 
BRANCH  15  16
ATOM     16  C   UNL     1       6.339  12.168  23.021  1.00  0.00     0.000 C 
BRANCH  16  17
ATOM     17  C   UNL     1       6.835  11.509  21.724  1.00  0.00    -0.000 C 
BRANCH  17  18
ATOM     18  C   UNL     1       7.443  10.129  22.010  1.00  0.00    -0.000 C 
BRANCH  18  19
ATOM     19  C   UNL     1       8.392  10.141  23.218  1.00  0.00    -0.003 C 
ATOM     20  C   UNL     1       9.858  10.295  22.816  1.00  0.00     0.004 C 
ENDBRANCH  18  19
ENDBRANCH  17  18
ENDBRANCH  16  17
ENDBRANCH  15  16
ENDBRANCH  14  15
ENDBRANCH  13  14
ENDBRANCH   2  13
TORSDOF 15
ENDMDL
MODEL 2
REMARK VINA RESULT:    -4.787      1.689      2.854
REMARK INTER + INTRA:         -10.619
REMARK INTER:                  -8.706
REMARK INTRA:                  -1.912
REMARK UNBOUND:                -1.634
REMARK SMILES CCCCCCCCC=CCCCCCCCC(=O)[O-]
REMARK SMILES IDX 10 1 9 2 11 3 12 4 13 5 14 6 15 7 16 8 17 9 18 10 19 11
REMARK SMILES IDX 20 12 8 13 7 14 6 15 5 16 4 17 3 18 2 19 1 20
REMARK H PARENT
REMARK Flexibility Score: inf
ROOT
ATOM      1  C   UNL     1      13.296  15.748  24.798  1.00  0.00    -0.031 C 
ATOM      2  C   UNL     1      12.615  14.909  23.995  1.00  0.00    -0.031 C 
ENDROOT
BRANCH   1   3
ATOM      3  C   UNL     1      12.676  16.645  25.841  1.00  0.00     0.027 C 
BRANCH   3   4
ATOM      4  C   UNL     1      13.007  18.130  25.622  1.00  0.00     0.004 C 
BRANCH   4   5
ATOM      5  C   UNL     1      11.744  18.987  25.449  1.00  0.00     0.000 C 
BRANCH   5   6
ATOM      6  C   UNL     1      11.137  18.792  24.052  1.00  0.00     0.000 C 
BRANCH   6   7
ATOM      7  C   UNL     1      12.037  19.343  22.935  1.00  0.00     0.000 C 
BRANCH   7   8
ATOM      8  C   UNL     1      12.406  18.273  21.893  1.00  0.00     0.006 C 
BRANCH   8   9
ATOM      9  C   UNL     1      13.887  17.876  21.971  1.00  0.00     0.053 C 
BRANCH   9  10
ATOM     10  C   UNL     1      14.684  18.478  20.854  1.00  0.00     0.041 C 
ATOM     11  O   UNL     1      14.602  19.710  20.610  1.00  0.00    -0.550 OA
ATOM     12  O   UNL     1      15.497  17.674  20.067  1.00  0.00    -0.550 OA
ENDBRANCH   9  10
ENDBRANCH   8   9
ENDBRANCH   7   8
ENDBRANCH   6   7
ENDBRANCH   5   6
ENDBRANCH   4   5
ENDBRANCH   3   4
ENDBRANCH   1   3
BRANCH   2  13
ATOM     13  C   UNL     1      11.113  14.760  23.983  1.00  0.00     0.027 C 
BRANCH  13  14
ATOM     14  C   UNL     1      10.513  15.145  22.621  1.00  0.00     0.004 C 
BRANCH  14  15
ATOM     15  C   UNL     1       9.204  14.406  22.271  1.00  0.00     0.000 C 
BRANCH  15  16
ATOM     16  C   UNL     1       9.388  13.058  21.552  1.00  0.00     0.000 C 
BRANCH  16  17
ATOM     17  C   UNL     1       8.055  12.372  21.217  1.00  0.00    -0.000 C 
BRANCH  17  18
ATOM     18  C   UNL     1       6.974  12.747  22.241  1.00  0.00    -0.000 C 
BRANCH  18  19
ATOM     19  C   UNL     1       6.497  11.539  23.063  1.00  0.00    -0.003 C 
ATOM     20  C   UNL     1       5.224  10.908  22.501  1.00  0.00     0.004 C 
ENDBRANCH  18  19
ENDBRANCH  17  18
ENDBRANCH  16  17
ENDBRANCH  15  16
ENDBRANCH  14  15
ENDBRANCH  13  14
ENDBRANCH   2  13
TORSDOF 15
ENDMDL
MODEL 3
REMARK VINA RESULT:    -4.752      3.289      5.749
REMARK INTER + INTRA:         -10.553
REMARK INTER:                  -7.800
REMARK INTRA:                  -2.754
REMARK UNBOUND:                -1.634
REMARK SMILES CCCCCCCCC=CCCCCCCCC(=O)[O-]
REMARK SMILES IDX 10 1 9 2 11 3 12 4 13 5 14 6 15 7 16 8 17 9 18 10 19 11
REMARK SMILES IDX 20 12 8 13 7 14 6 15 5 16 4 17 3 18 2 19 1 20
REMARK H PARENT
REMARK Flexibility Score: inf
ROOT
ATOM      1  C   UNL     1      11.385  17.609  21.894  1.00  0.00    -0.031 C 
ATOM      2  C   UNL     1      10.583  16.658  22.406  1.00  0.00    -0.031 C 
ENDROOT
BRANCH   1   3
ATOM      3  C   UNL     1      12.628  17.347  21.078  1.00  0.00     0.027 C 
BRANCH   3   4
ATOM      4  C   UNL     1      13.921  17.525  21.889  1.00  0.00     0.004 C 
BRANCH   4   5
ATOM      5  C   UNL     1      14.771  18.699  21.377  1.00  0.00     0.000 C 
BRANCH   5   6
ATOM      6  C   UNL     1      14.563  19.947  22.248  1.00  0.00     0.000 C 
BRANCH   6   7
ATOM      7  C   UNL     1      13.362  20.791  21.793  1.00  0.00     0.000 C 
BRANCH   7   8
ATOM      8  C   UNL     1      13.356  21.039  20.274  1.00  0.00     0.006 C 
BRANCH   8   9
ATOM      9  C   UNL     1      11.953  21.371  19.748  1.00  0.00     0.053 C 
BRANCH   9  10
ATOM     10  C   UNL     1      11.451  20.322  18.803  1.00  0.00     0.041 C 
ATOM     11  O   UNL     1      11.981  20.184  17.670  1.00  0.00    -0.550 OA
ATOM     12  O   UNL     1      10.381  19.515  19.164  1.00  0.00    -0.550 OA
ENDBRANCH   9  10
ENDBRANCH   8   9
ENDBRANCH   7   8
ENDBRANCH   6   7
ENDBRANCH   5   6
ENDBRANCH   4   5
ENDBRANCH   3   4
ENDBRANCH   1   3
BRANCH   2  13
ATOM     13  C   UNL     1      10.818  15.172  22.279  1.00  0.00     0.027 C 
BRANCH  13  14
ATOM     14  C   UNL     1      11.232  14.544  23.619  1.00  0.00     0.004 C 
BRANCH  14  15
ATOM     15  C   UNL     1      11.307  15.541  24.794  1.00  0.00     0.000 C 
BRANCH  15  16
ATOM     16  C   UNL     1      12.730  15.930  25.230  1.00  0.00     0.000 C 
BRANCH  16  17
ATOM     17  C   UNL     1      12.770  17.226  26.055  1.00  0.00    -0.000 C 
BRANCH  17  18
ATOM     18  C   UNL     1      13.104  18.431  25.164  1.00  0.00    -0.000 C 
BRANCH  18  19
ATOM     19  C   UNL     1      12.186  19.634  25.431  1.00  0.00    -0.003 C 
ATOM     20  C   UNL     1      10.737  19.373  25.022  1.00  0.00     0.004 C 
ENDBRANCH  18  19
ENDBRANCH  17  18
ENDBRANCH  16  17
ENDBRANCH  15  16
ENDBRANCH  14  15
ENDBRANCH  13  14
ENDBRANCH   2  13
TORSDOF 15
ENDMDL
MODEL 4
REMARK VINA RESULT:    -4.746      1.407      2.191
REMARK INTER + INTRA:         -10.542
REMARK INTER:                  -9.154
REMARK INTRA:                  -1.388
REMARK UNBOUND:                -1.634
REMARK SMILES CCCCCCCCC=CCCCCCCCC(=O)[O-]
REMARK SMILES IDX 10 1 9 2 11 3 12 4 13 5 14 6 15 7 16 8 17 9 18 10 19 11
REMARK SMILES IDX 20 12 8 13 7 14 6 15 5 16 4 17 3 18 2 19 1 20
REMARK H PARENT
REMARK Flexibility Score: inf
ROOT
ATOM      1  C   UNL     1      10.663  15.174  23.053  1.00  0.00    -0.031 C 
ATOM      2  C   UNL     1      10.573  14.111  22.233  1.00  0.00    -0.031 C 
ENDROOT
BRANCH   1   3
ATOM      3  C   UNL     1      11.079  15.119  24.502  1.00  0.00     0.027 C 
BRANCH   3   4
ATOM      4  C   UNL     1      12.580  15.385  24.701  1.00  0.00     0.004 C 
BRANCH   4   5
ATOM      5  C   UNL     1      12.840  16.549  25.670  1.00  0.00     0.000 C 
BRANCH   5   6
ATOM      6  C   UNL     1      13.048  17.864  24.904  1.00  0.00     0.000 C 
BRANCH   6   7
ATOM      7  C   UNL     1      14.057  17.723  23.754  1.00  0.00     0.000 C 
BRANCH   7   8
ATOM      8  C   UNL     1      14.834  19.024  23.488  1.00  0.00     0.006 C 
BRANCH   8   9
ATOM      9  C   UNL     1      14.882  19.374  21.994  1.00  0.00     0.053 C 
BRANCH   9  10
ATOM     10  C   UNL     1      13.972  20.517  21.661  1.00  0.00     0.041 C 
ATOM     11  O   UNL     1      13.133  20.926  22.505  1.00  0.00    -0.550 OA
ATOM     12  O   UNL     1      14.033  21.113  20.408  1.00  0.00    -0.550 OA
ENDBRANCH   9  10
ENDBRANCH   8   9
ENDBRANCH   7   8
ENDBRANCH   6   7
ENDBRANCH   5   6
ENDBRANCH   4   5
ENDBRANCH   3   4
ENDBRANCH   1   3
BRANCH   2  13
ATOM     13  C   UNL     1      10.839  12.683  22.644  1.00  0.00     0.027 C 
BRANCH  13  14
ATOM     14  C   UNL     1      10.727  11.717  21.454  1.00  0.00     0.004 C 
BRANCH  14  15
ATOM     15  C   UNL     1       9.714  12.152  20.374  1.00  0.00     0.000 C 
BRANCH  15  16
ATOM     16  C   UNL     1       8.306  11.549  20.519  1.00  0.00     0.000 C 
BRANCH  16  17
ATOM     17  C   UNL     1       7.284  12.546  21.085  1.00  0.00    -0.000 C 
BRANCH  17  18
ATOM     18  C   UNL     1       7.094  12.337  22.595  1.00  0.00    -0.000 C 
BRANCH  18  19
ATOM     19  C   UNL     1       6.463  10.976  22.926  1.00  0.00    -0.003 C 
ATOM     20  C   UNL     1       4.994  10.890  22.516  1.00  0.00     0.004 C 
ENDBRANCH  18  19
ENDBRANCH  17  18
ENDBRANCH  16  17
ENDBRANCH  15  16
ENDBRANCH  14  15
ENDBRANCH  13  14
ENDBRANCH   2  13
TORSDOF 15
ENDMDL
MODEL 5
REMARK VINA RESULT:    -4.745      1.740      2.939
REMARK INTER + INTRA:         -10.541
REMARK INTER:                  -9.161
REMARK INTRA:                  -1.379
REMARK UNBOUND:                -1.634
REMARK SMILES CCCCCCCCC=CCCCCCCCC(=O)[O-]
REMARK SMILES IDX 10 1 9 2 11 3 12 4 13 5 14 6 15 7 16 8 17 9 18 10 19 11
REMARK SMILES IDX 20 12 8 13 7 14 6 15 5 16 4 17 3 18 2 19 1 20
REMARK H PARENT
REMARK Flexibility Score: inf
ROOT
ATOM      1  C   UNL     1      13.095  16.202  24.621  1.00  0.00    -0.031 C 
ATOM      2  C   UNL     1      12.511  15.008  24.414  1.00  0.00    -0.031 C 
ENDROOT
BRANCH   1   3
ATOM      3  C   UNL     1      12.367  17.522  24.695  1.00  0.00     0.027 C 
BRANCH   3   4
ATOM      4  C   UNL     1      13.320  18.728  24.698  1.00  0.00     0.004 C 
BRANCH   4   5
ATOM      5  C   UNL     1      14.659  18.412  24.013  1.00  0.00     0.000 C 
BRANCH   5   6
ATOM      6  C   UNL     1      15.244  19.666  23.347  1.00  0.00     0.000 C 
BRANCH   6   7
ATOM      7  C   UNL     1      15.137  19.625  21.815  1.00  0.00     0.000 C 
BRANCH   7   8
ATOM      8  C   UNL     1      13.748  20.050  21.309  1.00  0.00     0.006 C 
BRANCH   8   9
ATOM      9  C   UNL     1      13.186  19.071  20.269  1.00  0.00     0.053 C 
BRANCH   9  10
ATOM     10  C   UNL     1      12.500  17.906  20.916  1.00  0.00     0.041 C 
ATOM     11  O   UNL     1      11.280  17.977  21.218  1.00  0.00    -0.550 OA
ATOM     12  O   UNL     1      13.215  16.752  21.210  1.00  0.00    -0.550 OA
ENDBRANCH   9  10
ENDBRANCH   8   9
ENDBRANCH   7   8
ENDBRANCH   6   7
ENDBRANCH   5   6
ENDBRANCH   4   5
ENDBRANCH   3   4
ENDBRANCH   1   3
BRANCH   2  13
ATOM     13  C   UNL     1      11.033  14.801  24.185  1.00  0.00     0.027 C 
BRANCH  13  14
ATOM     14  C   UNL     1      10.655  14.988  22.707  1.00  0.00     0.004 C 
BRANCH  14  15
ATOM     15  C   UNL     1       9.237  14.498  22.346  1.00  0.00     0.000 C 
BRANCH  15  16
ATOM     16  C   UNL     1       9.167  13.084  21.745  1.00  0.00     0.000 C 
BRANCH  16  17
ATOM     17  C   UNL     1       7.732  12.640  21.424  1.00  0.00    -0.000 C 
BRANCH  17  18
ATOM     18  C   UNL     1       6.873  12.603  22.696  1.00  0.00    -0.000 C 
BRANCH  18  19
ATOM     19  C   UNL     1       6.356  11.192  23.017  1.00  0.00    -0.003 C 
ATOM     20  C   UNL     1       4.946  10.944  22.483  1.00  0.00     0.004 C 
ENDBRANCH  18  19
ENDBRANCH  17  18
ENDBRANCH  16  17
ENDBRANCH  15  16
ENDBRANCH  14  15
ENDBRANCH  13  14
ENDBRANCH   2  13
TORSDOF 15
ENDMDL
MODEL 6
REMARK VINA RESULT:    -4.741      1.836      3.195
REMARK INTER + INTRA:         -10.534
REMARK INTER:                  -8.427
REMARK INTRA:                  -2.107
REMARK UNBOUND:                -1.634
REMARK SMILES CCCCCCCCC=CCCCCCCCC(=O)[O-]
REMARK SMILES IDX 10 1 9 2 11 3 12 4 13 5 14 6 15 7 16 8 17 9 18 10 19 11
REMARK SMILES IDX 20 12 8 13 7 14 6 15 5 16 4 17 3 18 2 19 1 20
REMARK H PARENT
REMARK Flexibility Score: inf
ROOT
ATOM      1  C   UNL     1       8.947  14.214  22.001  1.00  0.00    -0.031 C 
ATOM      2  C   UNL     1       7.631  13.989  22.177  1.00  0.00    -0.031 C 
ENDROOT
BRANCH   1   3
ATOM      3  C   UNL     1      10.041  13.709  22.909  1.00  0.00     0.027 C 
BRANCH   3   4
ATOM      4  C   UNL     1      11.407  14.343  22.604  1.00  0.00     0.004 C 
BRANCH   4   5
ATOM      5  C   UNL     1      12.492  13.889  23.593  1.00  0.00     0.000 C 
BRANCH   5   6
ATOM      6  C   UNL     1      13.171  15.097  24.255  1.00  0.00     0.000 C 
BRANCH   6   7
ATOM      7  C   UNL     1      12.164  16.052  24.915  1.00  0.00     0.000 C 
BRANCH   7   8
ATOM      8  C   UNL     1      12.841  17.068  25.851  1.00  0.00     0.006 C 
BRANCH   8   9
ATOM      9  C   UNL     1      12.686  18.510  25.348  1.00  0.00     0.053 C 
BRANCH   9  10
ATOM     10  C   UNL     1      13.565  18.784  24.167  1.00  0.00     0.041 C 
ATOM     11  O   UNL     1      14.802  18.562  24.233  1.00  0.00    -0.550 OA
ATOM     12  O   UNL     1      13.023  19.310  23.002  1.00  0.00    -0.550 OA
ENDBRANCH   9  10
ENDBRANCH   8   9
ENDBRANCH   7   8
ENDBRANCH   6   7
ENDBRANCH   5   6
ENDBRANCH   4   5
ENDBRANCH   3   4
ENDBRANCH   1   3
BRANCH   2  13
ATOM     13  C   UNL     1       7.036  13.225  23.335  1.00  0.00     0.027 C 
BRANCH  13  14
ATOM     14  C   UNL     1       6.084  12.117  22.857  1.00  0.00     0.004 C 
BRANCH  14  15
ATOM     15  C   UNL     1       6.764  11.007  22.027  1.00  0.00     0.000 C 
BRANCH  15  16
ATOM     16  C   UNL     1       8.083  10.472  22.610  1.00  0.00     0.000 C 
BRANCH  16  17
ATOM     17  C   UNL     1       9.228  10.461  21.586  1.00  0.00    -0.000 C 
BRANCH  17  18
ATOM     18  C   UNL     1       8.700  10.740  20.171  1.00  0.00    -0.000 C 
BRANCH  18  19
ATOM     19  C   UNL     1       9.553  11.772  19.417  1.00  0.00    -0.003 C 
ATOM     20  C   UNL     1      11.033  11.704  19.793  1.00  0.00     0.004 C 
ENDBRANCH  18  19
ENDBRANCH  17  18
ENDBRANCH  16  17
ENDBRANCH  15  16
ENDBRANCH  14  15
ENDBRANCH  13  14
ENDBRANCH   2  13
TORSDOF 15
ENDMDL
MODEL 7
REMARK VINA RESULT:    -4.682      3.540      8.153
REMARK INTER + INTRA:         -10.421
REMARK INTER:                  -7.803
REMARK INTRA:                  -2.619
REMARK UNBOUND:                -1.634
REMARK SMILES CCCCCCCCC=CCCCCCCCC(=O)[O-]
REMARK SMILES IDX 10 1 9 2 11 3 12 4 13 5 14 6 15 7 16 8 17 9 18 10 19 11
REMARK SMILES IDX 20 12 8 13 7 14 6 15 5 16 4 17 3 18 2 19 1 20
REMARK H PARENT
REMARK Flexibility Score: inf
ROOT
ATOM      1  C   UNL     1      11.913  19.711  22.614  1.00  0.00    -0.031 C 
ATOM      2  C   UNL     1      13.065  19.660  21.920  1.00  0.00    -0.031 C 
ENDROOT
BRANCH   1   3
ATOM      3  C   UNL     1      11.790  20.119  24.062  1.00  0.00     0.027 C 
BRANCH   3   4
ATOM      4  C   UNL     1      11.318  18.970  24.967  1.00  0.00     0.004 C 
BRANCH   4   5
ATOM      5  C   UNL     1      12.462  18.389  25.812  1.00  0.00     0.000 C 
BRANCH   5   6
ATOM      6  C   UNL     1      12.712  16.916  25.457  1.00  0.00     0.000 C 
BRANCH   6   7
ATOM      7  C   UNL     1      13.632  16.751  24.237  1.00  0.00     0.000 C 
BRANCH   7   8
ATOM      8  C   UNL     1      12.911  16.113  23.037  1.00  0.00     0.006 C 
BRANCH   8   9
ATOM      9  C   UNL     1      11.683  15.299  23.466  1.00  0.00     0.053 C 
BRANCH   9  10
ATOM     10  C   UNL     1      10.499  15.575  22.590  1.00  0.00     0.041 C 
ATOM     11  O   UNL     1       9.827  14.624  22.113  1.00  0.00    -0.550 OA
ATOM     12  O   UNL     1      10.153  16.884  22.279  1.00  0.00    -0.550 OA
ENDBRANCH   9  10
ENDBRANCH   8   9
ENDBRANCH   7   8
ENDBRANCH   6   7
ENDBRANCH   5   6
ENDBRANCH   4   5
ENDBRANCH   3   4
ENDBRANCH   1   3
BRANCH   2  13
ATOM     13  C   UNL     1      14.428  19.968  22.491  1.00  0.00     0.027 C 
BRANCH  13  14
ATOM     14  C   UNL     1      15.555  19.523  21.546  1.00  0.00     0.004 C 
BRANCH  14  15
ATOM     15  C   UNL     1      15.072  19.029  20.167  1.00  0.00     0.000 C 
BRANCH  15  16
ATOM     16  C   UNL     1      15.527  19.883  18.971  1.00  0.00     0.000 C 
BRANCH  16  17
ATOM     17  C   UNL     1      15.172  21.369  19.127  1.00  0.00    -0.000 C 
BRANCH  17  18
ATOM     18  C   UNL     1      14.040  21.765  18.169  1.00  0.00    -0.000 C 
BRANCH  18  19
ATOM     19  C   UNL     1      12.647  21.537  18.777  1.00  0.00    -0.003 C 
ATOM     20  C   UNL     1      12.283  22.585  19.828  1.00  0.00     0.004 C 
ENDBRANCH  18  19
ENDBRANCH  17  18
ENDBRANCH  16  17
ENDBRANCH  15  16
ENDBRANCH  14  15
ENDBRANCH  13  14
ENDBRANCH   2  13
TORSDOF 15
ENDMDL
MODEL 8
REMARK VINA RESULT:    -4.673      3.408      7.628
REMARK INTER + INTRA:         -10.404
REMARK INTER:                  -7.773
REMARK INTRA:                  -2.631
REMARK UNBOUND:                -1.634
REMARK SMILES CCCCCCCCC=CCCCCCCCC(=O)[O-]
REMARK SMILES IDX 10 1 9 2 11 3 12 4 13 5 14 6 15 7 16 8 17 9 18 10 19 11
REMARK SMILES IDX 20 12 8 13 7 14 6 15 5 16 4 17 3 18 2 19 1 20
REMARK H PARENT
REMARK Flexibility Score: inf
ROOT
ATOM      1  C   UNL     1      14.067  17.538  21.808  1.00  0.00    -0.031 C 
ATOM      2  C   UNL     1      12.846  17.264  21.314  1.00  0.00    -0.031 C 
ENDROOT
BRANCH   1   3
ATOM      3  C   UNL     1      14.384  18.663  22.763  1.00  0.00     0.027 C 
BRANCH   3   4
ATOM      4  C   UNL     1      14.329  18.227  24.235  1.00  0.00     0.004 C 
BRANCH   4   5
ATOM      5  C   UNL     1      13.170  18.892  24.995  1.00  0.00     0.000 C 
BRANCH   5   6
ATOM      6  C   UNL     1      12.134  17.848  25.437  1.00  0.00     0.000 C 
BRANCH   6   7
ATOM      7  C   UNL     1      12.566  16.410  25.106  1.00  0.00     0.000 C 
BRANCH   7   8
ATOM      8  C   UNL     1      11.386  15.525  24.667  1.00  0.00     0.006 C 
BRANCH   8   9
ATOM      9  C   UNL     1      11.820  14.428  23.686  1.00  0.00     0.053 C 
BRANCH   9  10
ATOM     10  C   UNL     1      10.678  13.958  22.837  1.00  0.00     0.041 C 
ATOM     11  O   UNL     1      10.384  12.736  22.791  1.00  0.00    -0.550 OA
ATOM     12  O   UNL     1       9.955  14.869  22.077  1.00  0.00    -0.550 OA
ENDBRANCH   9  10
ENDBRANCH   8   9
ENDBRANCH   7   8
ENDBRANCH   6   7
ENDBRANCH   5   6
ENDBRANCH   4   5
ENDBRANCH   3   4
ENDBRANCH   1   3
BRANCH   2  13
ATOM     13  C   UNL     1      11.600  18.064  21.607  1.00  0.00     0.027 C 
BRANCH  13  14
ATOM     14  C   UNL     1      11.667  19.470  20.991  1.00  0.00     0.004 C 
BRANCH  14  15
ATOM     15  C   UNL     1      11.412  19.512  19.470  1.00  0.00     0.000 C 
BRANCH  15  16
ATOM     16  C   UNL     1      12.125  20.649  18.719  1.00  0.00     0.000 C 
BRANCH  16  17
ATOM     17  C   UNL     1      13.147  21.393  19.591  1.00  0.00    -0.000 C 
BRANCH  17  18
ATOM     18  C   UNL     1      14.546  21.344  18.959  1.00  0.00    -0.000 C 
BRANCH  18  19
ATOM     19  C   UNL     1      15.457  20.301  19.625  1.00  0.00    -0.003 C 
ATOM     20  C   UNL     1      15.467  18.966  18.883  1.00  0.00     0.004 C 
ENDBRANCH  18  19
ENDBRANCH  17  18
ENDBRANCH  16  17
ENDBRANCH  15  16
ENDBRANCH  14  15
ENDBRANCH  13  14
ENDBRANCH   2  13
TORSDOF 15
ENDMDL
MODEL 9
REMARK VINA RESULT:    -4.667      3.673      8.747
REMARK INTER + INTRA:         -10.394
REMARK INTER:                  -8.639
REMARK INTRA:                  -1.755
REMARK UNBOUND:                -1.634
REMARK SMILES CCCCCCCCC=CCCCCCCCC(=O)[O-]
REMARK SMILES IDX 10 1 9 2 11 3 12 4 13 5 14 6 15 7 16 8 17 9 18 10 19 11
REMARK SMILES IDX 20 12 8 13 7 14 6 15 5 16 4 17 3 18 2 19 1 20
REMARK H PARENT
REMARK Flexibility Score: inf
ROOT
ATOM      1  C   UNL     1      10.706  17.247  23.057  1.00  0.00    -0.031 C 
ATOM      2  C   UNL     1      10.969  17.999  24.142  1.00  0.00    -0.031 C 
ENDROOT
BRANCH   1   3
ATOM      3  C   UNL     1      11.405  15.956  22.706  1.00  0.00     0.027 C 
BRANCH   3   4
ATOM      4  C   UNL     1      10.660  14.716  23.226  1.00  0.00     0.004 C 
BRANCH   4   5
ATOM      5  C   UNL     1       9.666  14.161  22.194  1.00  0.00     0.000 C 
BRANCH   5   6
ATOM      6  C   UNL     1       9.963  12.686  21.886  1.00  0.00     0.000 C 
BRANCH   6   7
ATOM      7  C   UNL     1       9.345  12.225  20.556  1.00  0.00     0.000 C 
BRANCH   7   8
ATOM      8  C   UNL     1       7.828  11.989  20.660  1.00  0.00     0.006 C 
BRANCH   8   9
ATOM      9  C   UNL     1       7.459  11.134  21.880  1.00  0.00     0.053 C 
BRANCH   9  10
ATOM     10  C   UNL     1       6.314  11.724  22.646  1.00  0.00     0.041 C 
ATOM     11  O   UNL     1       6.483  12.761  23.338  1.00  0.00    -0.550 OA
ATOM     12  O   UNL     1       5.068  11.112  22.617  1.00  0.00    -0.550 OA
ENDBRANCH   9  10
ENDBRANCH   8   9
ENDBRANCH   7   8
ENDBRANCH   6   7
ENDBRANCH   5   6
ENDBRANCH   4   5
ENDBRANCH   3   4
ENDBRANCH   1   3
BRANCH   2  13
ATOM     13  C   UNL     1      12.034  17.688  25.166  1.00  0.00     0.027 C 
BRANCH  13  14
ATOM     14  C   UNL     1      13.230  18.647  25.052  1.00  0.00     0.004 C 
BRANCH  14  15
ATOM     15  C   UNL     1      14.355  18.155  24.118  1.00  0.00     0.000 C 
BRANCH  15  16
ATOM     16  C   UNL     1      15.177  19.267  23.443  1.00  0.00     0.000 C 
BRANCH  16  17
ATOM     17  C   UNL     1      14.679  19.605  22.030  1.00  0.00    -0.000 C 
BRANCH  17  18
ATOM     18  C   UNL     1      13.688  20.777  22.065  1.00  0.00    -0.000 C 
BRANCH  18  19
ATOM     19  C   UNL     1      12.261  20.353  21.682  1.00  0.00    -0.003 C 
ATOM     20  C   UNL     1      12.229  19.394  20.493  1.00  0.00     0.004 C 
ENDBRANCH  18  19
ENDBRANCH  17  18
ENDBRANCH  16  17
ENDBRANCH  15  16
ENDBRANCH  14  15
ENDBRANCH  13  14
ENDBRANCH   2  13
TORSDOF 15
ENDMDL
