MODEL 1
REMARK VINA RESULT:    -6.274      0.000      0.000
REMARK INTER + INTRA:          -7.188
REMARK INTER:                  -7.558
REMARK INTRA:                   0.370
REMARK UNBOUND:                 0.370
REMARK SMILES O=c1c(O)c(-c2ccc(O)c(O)c2)oc2cc(O)cc(O)c12
REMARK SMILES IDX 5 1 3 2 2 3 1 4 22 5 20 6 19 7 17 8 16 9 15 10 14 11 6 12
REMARK SMILES IDX 7 13 8 14 9 15 13 16 11 17 10 18 12 20 4 22 21 24 18 26
REMARK H PARENT 10 19 12 21 4 23 21 25 18 27
REMARK Flexibility Score: inf
ROOT
ATOM      1  C   UNL     1      17.767  40.881   5.876  1.00  0.00     0.180 A 
ATOM      2  C   UNL     1      17.935  41.797   4.823  1.00  0.00     0.208 A 
ATOM      3  C   UNL     1      18.837  41.491   3.791  1.00  0.00     0.238 A 
ATOM      4  O   UNL     1      19.023  42.339   2.880  1.00  0.00    -0.285 OA
ATOM      5  C   UNL     1      19.548  40.268   3.817  1.00  0.00     0.111 A 
ATOM      6  C   UNL     1      20.457  39.837   2.805  1.00  0.00     0.134 A 
ATOM      7  C   UNL     1      21.204  38.667   2.999  1.00  0.00     0.093 A 
ATOM      8  C   UNL     1      21.024  37.879   4.139  1.00  0.00     0.123 A 
ATOM      9  C   UNL     1      20.097  38.261   5.104  1.00  0.00     0.094 A 
ATOM     10  C   UNL     1      19.364  39.441   4.956  1.00  0.00     0.146 A 
ATOM     11  O   UNL     1      18.497  39.772   5.906  1.00  0.00    -0.452 OA
ENDROOT
BRANCH   1  12
ATOM     12  C   UNL     1      16.817  41.122   6.986  1.00  0.00     0.025 A 
ATOM     13  C   UNL     1      17.025  40.565   8.260  1.00  0.00     0.016 A 
ATOM     14  C   UNL     1      16.128  40.825   9.300  1.00  0.00     0.051 A 
ATOM     15  C   UNL     1      15.020  41.654   9.087  1.00  0.00     0.157 A 
ATOM     16  C   UNL     1      15.716  41.969   6.783  1.00  0.00     0.062 A 
ATOM     17  C   UNL     1      14.815  42.232   7.822  1.00  0.00     0.158 A 
BRANCH  15  18
ATOM     18  O   UNL     1      14.125  41.910  10.125  1.00  0.00    -0.504 OA
ATOM     19  H   UNL     1      14.085  42.814  10.581  1.00  0.00     0.293 HD
ENDBRANCH  15  18
BRANCH  17  20
ATOM     20  O   UNL     1      13.726  43.067   7.579  1.00  0.00    -0.504 OA
ATOM     21  H   UNL     1      13.724  44.042   7.852  1.00  0.00     0.293 HD
ENDBRANCH  17  20
ENDBRANCH   1  12
BRANCH   2  22
ATOM     22  O   UNL     1      17.239  43.009   4.828  1.00  0.00    -0.502 OA
ATOM     23  H   UNL     1      17.708  43.906   4.797  1.00  0.00     0.293 HD
ENDBRANCH   2  22
BRANCH   6  24
ATOM     24  O   UNL     1      20.642  40.500   1.589  1.00  0.00    -0.507 OA
ATOM     25  H   UNL     1      20.262  41.407   1.365  1.00  0.00     0.293 HD
ENDBRANCH   6  24
BRANCH   8  26
ATOM     26  O   UNL     1      21.760  36.710   4.316  1.00  0.00    -0.508 OA
ATOM     27  H   UNL     1      21.939  36.330   5.237  1.00  0.00     0.293 HD
ENDBRANCH   8  26
TORSDOF 6
ENDMDL
MODEL 2
REMARK VINA RESULT:    -5.835      2.045      2.092
REMARK INTER + INTRA:          -6.659
REMARK INTER:                  -6.371
REMARK INTRA:                  -0.288
REMARK UNBOUND:                 0.370
REMARK SMILES O=c1c(O)c(-c2ccc(O)c(O)c2)oc2cc(O)cc(O)c12
REMARK SMILES IDX 5 1 3 2 2 3 1 4 22 5 20 6 19 7 17 8 16 9 15 10 14 11 6 12
REMARK SMILES IDX 7 13 8 14 9 15 13 16 11 17 10 18 12 20 4 22 21 24 18 26
REMARK H PARENT 10 19 12 21 4 23 21 25 18 27
REMARK Flexibility Score: inf
ROOT
ATOM      1  C   UNL     1      18.595  41.329   6.892  1.00  0.00     0.180 A 
ATOM      2  C   UNL     1      19.692  42.188   7.071  1.00  0.00     0.208 A 
ATOM      3  C   UNL     1      20.800  42.066   6.217  1.00  0.00     0.238 A 
ATOM      4  O   UNL     1      21.801  42.802   6.417  1.00  0.00    -0.285 OA
ATOM      5  C   UNL     1      20.790  41.098   5.185  1.00  0.00     0.111 A 
ATOM      6  C   UNL     1      21.841  40.913   4.236  1.00  0.00     0.134 A 
ATOM      7  C   UNL     1      21.782  39.838   3.340  1.00  0.00     0.093 A 
ATOM      8  C   UNL     1      20.678  38.981   3.315  1.00  0.00     0.123 A 
ATOM      9  C   UNL     1      19.622  39.189   4.197  1.00  0.00     0.094 A 
ATOM     10  C   UNL     1      19.668  40.231   5.127  1.00  0.00     0.146 A 
ATOM     11  O   UNL     1      18.643  40.386   5.957  1.00  0.00    -0.452 OA
ENDROOT
BRANCH   1  12
ATOM     12  C   UNL     1      17.381  41.412   7.737  1.00  0.00     0.025 A 
ATOM     13  C   UNL     1      17.354  40.867   9.032  1.00  0.00     0.016 A 
ATOM     14  C   UNL     1      16.205  40.978   9.821  1.00  0.00     0.051 A 
ATOM     15  C   UNL     1      15.075  41.647   9.334  1.00  0.00     0.157 A 
ATOM     16  C   UNL     1      16.253  42.100   7.261  1.00  0.00     0.062 A 
ATOM     17  C   UNL     1      15.101  42.214   8.048  1.00  0.00     0.158 A 
BRANCH  15  18
ATOM     18  O   UNL     1      13.930  41.755  10.122  1.00  0.00    -0.504 OA
ATOM     19  H   UNL     1      13.008  41.568   9.746  1.00  0.00     0.293 HD
ENDBRANCH  15  18
BRANCH  17  20
ATOM     20  O   UNL     1      13.996  42.892   7.536  1.00  0.00    -0.504 OA
ATOM     21  H   UNL     1      13.460  42.536   6.755  1.00  0.00     0.293 HD
ENDBRANCH  17  20
ENDBRANCH   1  12
BRANCH   2  22
ATOM     22  O   UNL     1      19.690  43.123   8.110  1.00  0.00    -0.502 OA
ATOM     23  H   UNL     1      18.935  43.784   8.247  1.00  0.00     0.293 HD
ENDBRANCH   2  22
BRANCH   6  24
ATOM     24  O   UNL     1      22.941  41.767   4.115  1.00  0.00    -0.507 OA
ATOM     25  H   UNL     1      23.437  42.179   4.891  1.00  0.00     0.293 HD
ENDBRANCH   6  24
BRANCH   8  26
ATOM     26  O   UNL     1      20.622  37.924   2.411  1.00  0.00    -0.508 OA
ATOM     27  H   UNL     1      21.222  37.890   1.595  1.00  0.00     0.293 HD
ENDBRANCH   8  26
TORSDOF 6
ENDMDL
MODEL 3
REMARK VINA RESULT:    -5.143      1.902      7.082
REMARK INTER + INTRA:          -5.826
REMARK INTER:                  -5.611
REMARK INTRA:                  -0.215
REMARK UNBOUND:                 0.370
REMARK SMILES O=c1c(O)c(-c2ccc(O)c(O)c2)oc2cc(O)cc(O)c12
REMARK SMILES IDX 5 1 3 2 2 3 1 4 22 5 20 6 19 7 17 8 16 9 15 10 14 11 6 12
REMARK SMILES IDX 7 13 8 14 9 15 13 16 11 17 10 18 12 20 4 22 21 24 18 26
REMARK H PARENT 10 19 12 21 4 23 21 25 18 27
REMARK Flexibility Score: inf
ROOT
ATOM      1  C   UNL     1      19.157  40.708   6.103  1.00  0.00     0.180 A 
ATOM      2  C   UNL     1      19.701  41.643   7.000  1.00  0.00     0.208 A 
ATOM      3  C   UNL     1      18.870  42.214   7.977  1.00  0.00     0.238 A 
ATOM      4  O   UNL     1      19.351  43.090   8.742  1.00  0.00    -0.285 OA
ATOM      5  C   UNL     1      17.509  41.832   8.055  1.00  0.00     0.111 A 
ATOM      6  C   UNL     1      16.586  42.316   9.030  1.00  0.00     0.134 A 
ATOM      7  C   UNL     1      15.233  41.969   8.932  1.00  0.00     0.093 A 
ATOM      8  C   UNL     1      14.782  41.102   7.933  1.00  0.00     0.123 A 
ATOM      9  C   UNL     1      15.686  40.578   7.013  1.00  0.00     0.094 A 
ATOM     10  C   UNL     1      17.035  40.934   7.063  1.00  0.00     0.146 A 
ATOM     11  O   UNL     1      17.861  40.419   6.159  1.00  0.00    -0.452 OA
ENDROOT
BRANCH   1  12
ATOM     12  C   UNL     1      19.975  40.045   5.062  1.00  0.00     0.025 A 
ATOM     13  C   UNL     1      20.471  40.759   3.957  1.00  0.00     0.016 A 
ATOM     14  C   UNL     1      21.261  40.118   2.998  1.00  0.00     0.051 A 
ATOM     15  C   UNL     1      21.578  38.761   3.137  1.00  0.00     0.157 A 
ATOM     16  C   UNL     1      20.313  38.690   5.206  1.00  0.00     0.062 A 
ATOM     17  C   UNL     1      21.104  38.044   4.249  1.00  0.00     0.158 A 
BRANCH  15  18
ATOM     18  O   UNL     1      22.365  38.124   2.178  1.00  0.00    -0.504 OA
ATOM     19  H   UNL     1      22.785  37.217   2.353  1.00  0.00     0.293 HD
ENDBRANCH  15  18
BRANCH  17  20
ATOM     20  O   UNL     1      21.408  36.695   4.419  1.00  0.00    -0.504 OA
ATOM     21  H   UNL     1      20.880  36.099   5.045  1.00  0.00     0.293 HD
ENDBRANCH  17  20
ENDBRANCH   1  12
BRANCH   2  22
ATOM     22  O   UNL     1      21.042  42.022   6.891  1.00  0.00    -0.502 OA
ATOM     23  H   UNL     1      21.713  41.500   6.340  1.00  0.00     0.293 HD
ENDBRANCH   2  22
BRANCH   6  24
ATOM     24  O   UNL     1      16.949  43.111  10.121  1.00  0.00    -0.507 OA
ATOM     25  H   UNL     1      16.885  44.117  10.145  1.00  0.00     0.293 HD
ENDBRANCH   6  24
BRANCH   8  26
ATOM     26  O   UNL     1      13.437  40.751   7.852  1.00  0.00    -0.508 OA
ATOM     27  H   UNL     1      12.937  40.378   8.651  1.00  0.00     0.293 HD
ENDBRANCH   8  26
TORSDOF 6
ENDMDL
MODEL 4
REMARK VINA RESULT:    -4.674      2.524      6.701
REMARK INTER + INTRA:          -5.261
REMARK INTER:                  -5.075
REMARK INTRA:                  -0.186
REMARK UNBOUND:                 0.370
REMARK SMILES O=c1c(O)c(-c2ccc(O)c(O)c2)oc2cc(O)cc(O)c12
REMARK SMILES IDX 5 1 3 2 2 3 1 4 22 5 20 6 19 7 17 8 16 9 15 10 14 11 6 12
REMARK SMILES IDX 7 13 8 14 9 15 13 16 11 17 10 18 12 20 4 22 21 24 18 26
REMARK H PARENT 10 19 12 21 4 23 21 25 18 27
REMARK Flexibility Score: inf
ROOT
ATOM      1  C   UNL     1      18.116  41.952   4.988  1.00  0.00     0.180 A 
ATOM      2  C   UNL     1      19.105  42.423   5.868  1.00  0.00     0.208 A 
ATOM      3  C   UNL     1      18.946  42.215   7.248  1.00  0.00     0.238 A 
ATOM      4  O   UNL     1      19.808  42.687   8.034  1.00  0.00    -0.285 OA
ATOM      5  C   UNL     1      17.807  41.525   7.729  1.00  0.00     0.111 A 
ATOM      6  C   UNL     1      17.562  41.223   9.102  1.00  0.00     0.134 A 
ATOM      7  C   UNL     1      16.340  40.651   9.476  1.00  0.00     0.093 A 
ATOM      8  C   UNL     1      15.381  40.310   8.519  1.00  0.00     0.123 A 
ATOM      9  C   UNL     1      15.635  40.547   7.171  1.00  0.00     0.094 A 
ATOM     10  C   UNL     1      16.830  41.149   6.770  1.00  0.00     0.146 A 
ATOM     11  O   UNL     1      17.028  41.367   5.474  1.00  0.00    -0.452 OA
ENDROOT
BRANCH   1  12
ATOM     12  C   UNL     1      18.226  42.111   3.520  1.00  0.00     0.025 A 
ATOM     13  C   UNL     1      17.367  42.969   2.812  1.00  0.00     0.016 A 
ATOM     14  C   UNL     1      17.504  43.122   1.429  1.00  0.00     0.051 A 
ATOM     15  C   UNL     1      18.508  42.433   0.737  1.00  0.00     0.157 A 
ATOM     16  C   UNL     1      19.245  41.439   2.825  1.00  0.00     0.062 A 
ATOM     17  C   UNL     1      19.385  41.589   1.441  1.00  0.00     0.158 A 
BRANCH  15  18
ATOM     18  O   UNL     1      18.641  42.587  -0.642  1.00  0.00    -0.504 OA
ATOM     19  H   UNL     1      18.653  43.503  -1.075  1.00  0.00     0.293 HD
ENDBRANCH  15  18
BRANCH  17  20
ATOM     20  O   UNL     1      20.399  40.895   0.783  1.00  0.00    -0.504 OA
ATOM     21  H   UNL     1      21.189  41.368   0.361  1.00  0.00     0.293 HD
ENDBRANCH  17  20
ENDBRANCH   1  12
BRANCH   2  22
ATOM     22  O   UNL     1      20.211  43.121   5.374  1.00  0.00    -0.502 OA
ATOM     23  H   UNL     1      20.119  43.952   4.802  1.00  0.00     0.293 HD
ENDBRANCH   2  22
BRANCH   6  24
ATOM     24  O   UNL     1      18.490  41.438  10.125  1.00  0.00    -0.507 OA
ATOM     25  H   UNL     1      19.479  41.578   9.984  1.00  0.00     0.293 HD
ENDBRANCH   6  24
BRANCH   8  26
ATOM     26  O   UNL     1      14.174  39.728   8.899  1.00  0.00    -0.508 OA
ATOM     27  H   UNL     1      14.130  39.027   9.629  1.00  0.00     0.293 HD
ENDBRANCH   8  26
TORSDOF 6
ENDMDL
MODEL 5
REMARK VINA RESULT:    -4.454      2.935      6.987
REMARK INTER + INTRA:          -4.995
REMARK INTER:                  -4.673
REMARK INTRA:                  -0.323
REMARK UNBOUND:                 0.370
REMARK SMILES O=c1c(O)c(-c2ccc(O)c(O)c2)oc2cc(O)cc(O)c12
REMARK SMILES IDX 5 1 3 2 2 3 1 4 22 5 20 6 19 7 17 8 16 9 15 10 14 11 6 12
REMARK SMILES IDX 7 13 8 14 9 15 13 16 11 17 10 18 12 20 4 22 21 24 18 26
REMARK H PARENT 10 19 12 21 4 23 21 25 18 27
REMARK Flexibility Score: inf
ROOT
ATOM      1  C   UNL     1      19.722  41.977   5.220  1.00  0.00     0.180 A 
ATOM      2  C   UNL     1      20.971  42.266   5.796  1.00  0.00     0.208 A 
ATOM      3  C   UNL     1      21.030  42.622   7.153  1.00  0.00     0.238 A 
ATOM      4  O   UNL     1      22.145  42.932   7.649  1.00  0.00    -0.285 OA
ATOM      5  C   UNL     1      19.842  42.670   7.921  1.00  0.00     0.111 A 
ATOM      6  C   UNL     1      19.789  42.979   9.314  1.00  0.00     0.134 A 
ATOM      7  C   UNL     1      18.545  43.125   9.941  1.00  0.00     0.093 A 
ATOM      8  C   UNL     1      17.355  42.907   9.242  1.00  0.00     0.123 A 
ATOM      9  C   UNL     1      17.399  42.548   7.898  1.00  0.00     0.094 A 
ATOM     10  C   UNL     1      18.623  42.430   7.235  1.00  0.00     0.146 A 
ATOM     11  O   UNL     1      18.618  42.095   5.950  1.00  0.00    -0.452 OA
ENDROOT
BRANCH   1  12
ATOM     12  C   UNL     1      19.582  41.571   3.803  1.00  0.00     0.025 A 
ATOM     13  C   UNL     1      19.376  42.520   2.788  1.00  0.00     0.016 A 
ATOM     14  C   UNL     1      19.270  42.116   1.454  1.00  0.00     0.051 A 
ATOM     15  C   UNL     1      19.384  40.762   1.114  1.00  0.00     0.157 A 
ATOM     16  C   UNL     1      19.716  40.217   3.455  1.00  0.00     0.062 A 
ATOM     17  C   UNL     1      19.611  39.808   2.121  1.00  0.00     0.158 A 
BRANCH  15  18
ATOM     18  O   UNL     1      19.276  40.362  -0.217  1.00  0.00    -0.504 OA
ATOM     19  H   UNL     1      19.917  40.699  -0.926  1.00  0.00     0.293 HD
ENDBRANCH  15  18
BRANCH  17  20
ATOM     20  O   UNL     1      19.736  38.454   1.815  1.00  0.00    -0.504 OA
ATOM     21  H   UNL     1      20.124  38.134   0.936  1.00  0.00     0.293 HD
ENDBRANCH  17  20
ENDBRANCH   1  12
BRANCH   2  22
ATOM     22  O   UNL     1      22.130  42.234   5.015  1.00  0.00    -0.502 OA
ATOM     23  H   UNL     1      23.044  42.040   5.405  1.00  0.00     0.293 HD
ENDBRANCH   2  22
BRANCH   6  24
ATOM     24  O   UNL     1      20.918  43.124  10.124  1.00  0.00    -0.507 OA
ATOM     25  H   UNL     1      20.898  43.189  11.130  1.00  0.00     0.293 HD
ENDBRANCH   6  24
BRANCH   8  26
ATOM     26  O   UNL     1      16.123  43.040   9.879  1.00  0.00    -0.508 OA
ATOM     27  H   UNL     1      16.007  43.634  10.691  1.00  0.00     0.293 HD
ENDBRANCH   8  26
TORSDOF 6
ENDMDL
MODEL 6
REMARK VINA RESULT:    -3.865      2.394      6.892
REMARK INTER + INTRA:          -4.286
REMARK INTER:                  -4.106
REMARK INTRA:                  -0.180
REMARK UNBOUND:                 0.370
REMARK SMILES O=c1c(O)c(-c2ccc(O)c(O)c2)oc2cc(O)cc(O)c12
REMARK SMILES IDX 5 1 3 2 2 3 1 4 22 5 20 6 19 7 17 8 16 9 15 10 14 11 6 12
REMARK SMILES IDX 7 13 8 14 9 15 13 16 11 17 10 18 12 20 4 22 21 24 18 26
REMARK H PARENT 10 19 12 21 4 23 21 25 18 27
REMARK Flexibility Score: inf
ROOT
ATOM      1  C   UNL     1      18.857  41.986   5.033  1.00  0.00     0.180 A 
ATOM      2  C   UNL     1      19.950  42.335   5.845  1.00  0.00     0.208 A 
ATOM      3  C   UNL     1      19.722  42.666   7.190  1.00  0.00     0.238 A 
ATOM      4  O   UNL     1      20.697  43.030   7.897  1.00  0.00    -0.285 OA
ATOM      5  C   UNL     1      18.406  42.629   7.711  1.00  0.00     0.111 A 
ATOM      6  C   UNL     1      18.064  42.906   9.069  1.00  0.00     0.134 A 
ATOM      7  C   UNL     1      16.715  42.966   9.442  1.00  0.00     0.093 A 
ATOM      8  C   UNL     1      15.699  42.694   8.522  1.00  0.00     0.123 A 
ATOM      9  C   UNL     1      16.026  42.365   7.209  1.00  0.00     0.094 A 
ATOM     10  C   UNL     1      17.361  42.332   6.798  1.00  0.00     0.146 A 
ATOM     11  O   UNL     1      17.627  42.024   5.534  1.00  0.00    -0.452 OA
ENDROOT
BRANCH   1  12
ATOM     12  C   UNL     1      19.021  41.601   3.612  1.00  0.00     0.025 A 
ATOM     13  C   UNL     1      19.744  40.453   3.245  1.00  0.00     0.016 A 
ATOM     14  C   UNL     1      19.865  40.095   1.899  1.00  0.00     0.051 A 
ATOM     15  C   UNL     1      19.256  40.870   0.904  1.00  0.00     0.157 A 
ATOM     16  C   UNL     1      18.394  42.362   2.612  1.00  0.00     0.062 A 
ATOM     17  C   UNL     1      18.514  42.008   1.264  1.00  0.00     0.158 A 
BRANCH  15  18
ATOM     18  O   UNL     1      19.381  40.512  -0.437  1.00  0.00    -0.504 OA
ATOM     19  H   UNL     1      19.795  39.629  -0.715  1.00  0.00     0.293 HD
ENDBRANCH  15  18
BRANCH  17  20
ATOM     20  O   UNL     1      17.890  42.796   0.298  1.00  0.00    -0.504 OA
ATOM     21  H   UNL     1      17.890  43.807   0.346  1.00  0.00     0.293 HD
ENDBRANCH  17  20
ENDBRANCH   1  12
BRANCH   2  22
ATOM     22  O   UNL     1      21.238  42.387   5.305  1.00  0.00    -0.502 OA
ATOM     23  H   UNL     1      21.411  42.594   4.328  1.00  0.00     0.293 HD
ENDBRANCH   2  22
BRANCH   6  24
ATOM     24  O   UNL     1      19.002  43.100  10.086  1.00  0.00    -0.507 OA
ATOM     25  H   UNL     1      19.408  42.363  10.641  1.00  0.00     0.293 HD
ENDBRANCH   6  24
BRANCH   8  26
ATOM     26  O   UNL     1      14.362  42.742   8.906  1.00  0.00    -0.508 OA
ATOM     27  H   UNL     1      13.755  43.502   8.622  1.00  0.00     0.293 HD
ENDBRANCH   8  26
TORSDOF 6
ENDMDL
