MODEL 1
REMARK VINA RESULT:    -2.848      0.000      0.000
REMARK INTER + INTRA:         -12.666
REMARK INTER:                  -7.176
REMARK INTRA:                  -5.490
REMARK UNBOUND:                -5.490
REMARK SMILES CCCCCCCCCCCCCCCCCCCCCCCCCCCC(=O)[O-]
REMARK SMILES IDX 15 1 16 2 17 3 18 4 19 5 20 6 21 7 22 8 23 9 24 10 25 11
REMARK SMILES IDX 26 12 27 13 28 14 29 15 30 16 14 17 13 18 12 19 11 20 10 21
REMARK SMILES IDX 9 22 8 23 7 24 6 25 5 26 4 27 3 28 2 29 1 30
REMARK H PARENT
REMARK Flexibility Score: inf
ROOT
ATOM      1  C   UNL     1      52.160  44.750  19.701  1.00  0.00     0.000 C 
ENDROOT
BRANCH   1   2
ATOM      2  C   UNL     1      51.703  46.098  19.109  1.00  0.00     0.000 C 
BRANCH   2   3
ATOM      3  C   UNL     1      52.416  46.514  17.809  1.00  0.00     0.000 C 
BRANCH   3   4
ATOM      4  C   UNL     1      51.447  46.712  16.634  1.00  0.00     0.000 C 
BRANCH   4   5
ATOM      5  C   UNL     1      51.778  45.753  15.481  1.00  0.00     0.000 C 
BRANCH   5   6
ATOM      6  C   UNL     1      50.997  46.078  14.198  1.00  0.00     0.000 C 
BRANCH   6   7
ATOM      7  C   UNL     1      50.358  47.478  14.235  1.00  0.00     0.000 C 
BRANCH   7   8
ATOM      8  C   UNL     1      51.314  48.576  13.739  1.00  0.00     0.000 C 
BRANCH   8   9
ATOM      9  C   UNL     1      52.223  48.101  12.596  1.00  0.00     0.000 C 
BRANCH   9  10
ATOM     10  C   UNL     1      53.701  48.162  13.011  1.00  0.00     0.000 C 
BRANCH  10  11
ATOM     11  C   UNL     1      53.902  48.688  14.444  1.00  0.00     0.000 C 
BRANCH  11  12
ATOM     12  C   UNL     1      54.866  47.856  15.315  1.00  0.00     0.006 C 
BRANCH  12  13
ATOM     13  C   UNL     1      55.305  46.523  14.687  1.00  0.00     0.053 C 
BRANCH  13  14
ATOM     14  C   UNL     1      56.781  46.478  14.437  1.00  0.00     0.041 C 
ATOM     15  O   UNL     1      57.527  45.774  15.168  1.00  0.00    -0.550 OA
ATOM     16  O   UNL     1      57.328  47.187  13.374  1.00  0.00    -0.550 OA
ENDBRANCH  13  14
ENDBRANCH  12  13
ENDBRANCH  11  12
ENDBRANCH  10  11
ENDBRANCH   9  10
ENDBRANCH   8   9
ENDBRANCH   7   8
ENDBRANCH   6   7
ENDBRANCH   5   6
ENDBRANCH   4   5
ENDBRANCH   3   4
ENDBRANCH   2   3
ENDBRANCH   1   2
BRANCH   1  17
ATOM     17  C   UNL     1      53.271  44.033  18.909  1.00  0.00     0.000 C 
BRANCH  17  18
ATOM     18  C   UNL     1      52.899  42.628  18.394  1.00  0.00     0.000 C 
BRANCH  18  19
ATOM     19  C   UNL     1      51.397  42.406  18.141  1.00  0.00     0.000 C 
BRANCH  19  20
ATOM     20  C   UNL     1      51.038  42.417  16.648  1.00  0.00     0.000 C 
BRANCH  20  21
ATOM     21  C   UNL     1      49.583  42.854  16.433  1.00  0.00     0.000 C 
BRANCH  21  22
ATOM     22  C   UNL     1      49.139  43.830  17.532  1.00  0.00    -0.000 C 
BRANCH  22  23
ATOM     23  C   UNL     1      48.231  44.954  17.003  1.00  0.00    -0.000 C 
BRANCH  23  24
ATOM     24  C   UNL     1      47.900  44.869  15.499  1.00  0.00    -0.000 C 
BRANCH  24  25
ATOM     25  C   UNL     1      46.485  44.355  15.165  1.00  0.00    -0.000 C 
BRANCH  25  26
ATOM     26  C   UNL     1      46.444  43.008  14.421  1.00  0.00    -0.000 C 
BRANCH  26  27
ATOM     27  C   UNL     1      45.675  41.924  15.195  1.00  0.00    -0.000 C 
BRANCH  27  28
ATOM     28  C   UNL     1      46.550  40.709  15.536  1.00  0.00    -0.000 C 
BRANCH  28  29
ATOM     29  C   UNL     1      46.726  40.518  17.050  1.00  0.00    -0.003 C 
ATOM     30  C   UNL     1      46.042  41.638  17.828  1.00  0.00     0.004 C 
ENDBRANCH  28  29
ENDBRANCH  27  28
ENDBRANCH  26  27
ENDBRANCH  25  26
ENDBRANCH  24  25
ENDBRANCH  23  24
ENDBRANCH  22  23
ENDBRANCH  21  22
ENDBRANCH  20  21
ENDBRANCH  19  20
ENDBRANCH  18  19
ENDBRANCH  17  18
ENDBRANCH   1  17
TORSDOF 26
ENDMDL
MODEL 2
REMARK VINA RESULT:    -2.812      3.749      9.013
REMARK INTER + INTRA:         -12.576
REMARK INTER:                  -8.553
REMARK INTRA:                  -4.023
REMARK UNBOUND:                -5.490
REMARK SMILES CCCCCCCCCCCCCCCCCCCCCCCCCCCC(=O)[O-]
REMARK SMILES IDX 15 1 16 2 17 3 18 4 19 5 20 6 21 7 22 8 23 9 24 10 25 11
REMARK SMILES IDX 26 12 27 13 28 14 29 15 30 16 14 17 13 18 12 19 11 20 10 21
REMARK SMILES IDX 9 22 8 23 7 24 6 25 5 26 4 27 3 28 2 29 1 30
REMARK H PARENT
REMARK Flexibility Score: inf
ROOT
ATOM      1  C   UNL     1      51.659  48.833  16.340  1.00  0.00     0.000 C 
ENDROOT
BRANCH   1   2
ATOM      2  C   UNL     1      52.990  48.072  16.180  1.00  0.00     0.000 C 
BRANCH   2   3
ATOM      3  C   UNL     1      52.970  46.932  15.146  1.00  0.00     0.000 C 
BRANCH   3   4
ATOM      4  C   UNL     1      52.884  45.541  15.793  1.00  0.00     0.000 C 
BRANCH   4   5
ATOM      5  C   UNL     1      51.440  45.016  15.777  1.00  0.00     0.000 C 
BRANCH   5   6
ATOM      6  C   UNL     1      50.633  45.541  14.577  1.00  0.00     0.000 C 
BRANCH   6   7
ATOM      7  C   UNL     1      49.200  45.949  14.964  1.00  0.00     0.000 C 
BRANCH   7   8
ATOM      8  C   UNL     1      48.453  44.836  15.717  1.00  0.00     0.000 C 
BRANCH   8   9
ATOM      9  C   UNL     1      46.941  45.088  15.804  1.00  0.00     0.000 C 
BRANCH   9  10
ATOM     10  C   UNL     1      46.160  43.995  15.058  1.00  0.00     0.000 C 
BRANCH  10  11
ATOM     11  C   UNL     1      47.070  42.905  14.463  1.00  0.00     0.000 C 
BRANCH  11  12
ATOM     12  C   UNL     1      46.639  41.456  14.771  1.00  0.00     0.006 C 
BRANCH  12  13
ATOM     13  C   UNL     1      45.506  41.332  15.803  1.00  0.00     0.053 C 
BRANCH  13  14
ATOM     14  C   UNL     1      46.018  40.946  17.157  1.00  0.00     0.041 C 
ATOM     15  O   UNL     1      45.748  39.813  17.637  1.00  0.00    -0.550 OA
ATOM     16  O   UNL     1      46.822  41.825  17.873  1.00  0.00    -0.550 OA
ENDBRANCH  13  14
ENDBRANCH  12  13
ENDBRANCH  11  12
ENDBRANCH  10  11
ENDBRANCH   9  10
ENDBRANCH   8   9
ENDBRANCH   7   8
ENDBRANCH   6   7
ENDBRANCH   5   6
ENDBRANCH   4   5
ENDBRANCH   3   4
ENDBRANCH   2   3
ENDBRANCH   1   2
BRANCH   1  17
ATOM     17  C   UNL     1      51.665  50.277  15.800  1.00  0.00     0.000 C 
BRANCH  17  18
ATOM     18  C   UNL     1      50.629  50.561  14.694  1.00  0.00     0.000 C 
BRANCH  18  19
ATOM     19  C   UNL     1      50.244  49.343  13.836  1.00  0.00     0.000 C 
BRANCH  19  20
ATOM     20  C   UNL     1      51.048  49.258  12.530  1.00  0.00     0.000 C 
BRANCH  20  21
ATOM     21  C   UNL     1      51.421  50.655  12.019  1.00  0.00     0.000 C 
BRANCH  21  22
ATOM     22  C   UNL     1      52.946  50.810  11.918  1.00  0.00    -0.000 C 
BRANCH  22  23
ATOM     23  C   UNL     1      53.710  49.665  12.606  1.00  0.00    -0.000 C 
BRANCH  23  24
ATOM     24  C   UNL     1      55.159  50.003  13.012  1.00  0.00    -0.000 C 
BRANCH  24  25
ATOM     25  C   UNL     1      55.824  48.994  13.971  1.00  0.00    -0.000 C 
BRANCH  25  26
ATOM     26  C   UNL     1      56.021  47.582  13.391  1.00  0.00    -0.000 C 
BRANCH  26  27
ATOM     27  C   UNL     1      57.368  46.957  13.792  1.00  0.00    -0.000 C 
BRANCH  27  28
ATOM     28  C   UNL     1      57.230  45.937  14.932  1.00  0.00    -0.000 C 
BRANCH  28  29
ATOM     29  C   UNL     1      57.608  46.528  16.298  1.00  0.00    -0.003 C 
ATOM     30  C   UNL     1      56.365  46.833  17.129  1.00  0.00     0.004 C 
ENDBRANCH  28  29
ENDBRANCH  27  28
ENDBRANCH  26  27
ENDBRANCH  25  26
ENDBRANCH  24  25
ENDBRANCH  23  24
ENDBRANCH  22  23
ENDBRANCH  21  22
ENDBRANCH  20  21
ENDBRANCH  19  20
ENDBRANCH  18  19
ENDBRANCH  17  18
ENDBRANCH   1  17
TORSDOF 26
ENDMDL
MODEL 3
REMARK VINA RESULT:    -2.800      1.463      2.663
REMARK INTER + INTRA:         -12.545
REMARK INTER:                  -7.684
REMARK INTRA:                  -4.860
REMARK UNBOUND:                -5.490
REMARK SMILES CCCCCCCCCCCCCCCCCCCCCCCCCCCC(=O)[O-]
REMARK SMILES IDX 15 1 16 2 17 3 18 4 19 5 20 6 21 7 22 8 23 9 24 10 25 11
REMARK SMILES IDX 26 12 27 13 28 14 29 15 30 16 14 17 13 18 12 19 11 20 10 21
REMARK SMILES IDX 9 22 8 23 7 24 6 25 5 26 4 27 3 28 2 29 1 30
REMARK H PARENT
REMARK Flexibility Score: inf
ROOT
ATOM      1  C   UNL     1      51.168  47.294  17.644  1.00  0.00     0.000 C 
ENDROOT
BRANCH   1   2
ATOM      2  C   UNL     1      50.087  47.780  16.659  1.00  0.00     0.000 C 
BRANCH   2   3
ATOM      3  C   UNL     1      50.579  48.769  15.587  1.00  0.00     0.000 C 
BRANCH   3   4
ATOM      4  C   UNL     1      50.230  48.322  14.159  1.00  0.00     0.000 C 
BRANCH   4   5
ATOM      5  C   UNL     1      51.003  47.050  13.778  1.00  0.00     0.000 C 
BRANCH   5   6
ATOM      6  C   UNL     1      52.203  47.338  12.861  1.00  0.00     0.000 C 
BRANCH   6   7
ATOM      7  C   UNL     1      52.056  48.668  12.099  1.00  0.00     0.000 C 
BRANCH   7   8
ATOM      8  C   UNL     1      53.308  49.553  12.212  1.00  0.00     0.000 C 
BRANCH   8   9
ATOM      9  C   UNL     1      53.161  50.660  13.266  1.00  0.00     0.000 C 
BRANCH   9  10
ATOM     10  C   UNL     1      53.751  50.214  14.613  1.00  0.00     0.000 C 
BRANCH  10  11
ATOM     11  C   UNL     1      55.122  49.529  14.472  1.00  0.00     0.000 C 
BRANCH  11  12
ATOM     12  C   UNL     1      55.199  48.099  15.046  1.00  0.00     0.006 C 
BRANCH  12  13
ATOM     13  C   UNL     1      56.604  47.666  15.495  1.00  0.00     0.053 C 
BRANCH  13  14
ATOM     14  C   UNL     1      57.217  46.676  14.551  1.00  0.00     0.041 C 
ATOM     15  O   UNL     1      57.405  45.485  14.916  1.00  0.00    -0.550 OA
ATOM     16  O   UNL     1      57.547  47.061  13.258  1.00  0.00    -0.550 OA
ENDBRANCH  13  14
ENDBRANCH  12  13
ENDBRANCH  11  12
ENDBRANCH  10  11
ENDBRANCH   9  10
ENDBRANCH   8   9
ENDBRANCH   7   8
ENDBRANCH   6   7
ENDBRANCH   5   6
ENDBRANCH   4   5
ENDBRANCH   3   4
ENDBRANCH   2   3
ENDBRANCH   1   2
BRANCH   1  17
ATOM     17  C   UNL     1      52.390  46.619  16.990  1.00  0.00     0.000 C 
BRANCH  17  18
ATOM     18  C   UNL     1      52.439  45.085  17.134  1.00  0.00     0.000 C 
BRANCH  18  19
ATOM     19  C   UNL     1      51.583  44.309  16.117  1.00  0.00     0.000 C 
BRANCH  19  20
ATOM     20  C   UNL     1      50.523  43.422  16.786  1.00  0.00     0.000 C 
BRANCH  20  21
ATOM     21  C   UNL     1      49.295  43.253  15.883  1.00  0.00     0.000 C 
BRANCH  21  22
ATOM     22  C   UNL     1      48.887  44.596  15.261  1.00  0.00    -0.000 C 
BRANCH  22  23
ATOM     23  C   UNL     1      47.361  44.764  15.146  1.00  0.00    -0.000 C 
BRANCH  23  24
ATOM     24  C   UNL     1      46.602  43.509  14.673  1.00  0.00    -0.000 C 
BRANCH  24  25
ATOM     25  C   UNL     1      45.377  43.121  15.525  1.00  0.00    -0.000 C 
BRANCH  25  26
ATOM     26  C   UNL     1      45.667  42.117  16.655  1.00  0.00    -0.000 C 
BRANCH  26  27
ATOM     27  C   UNL     1      45.498  42.732  18.055  1.00  0.00    -0.000 C 
BRANCH  27  28
ATOM     28  C   UNL     1      46.811  43.306  18.609  1.00  0.00    -0.000 C 
BRANCH  28  29
ATOM     29  C   UNL     1      46.762  44.832  18.772  1.00  0.00    -0.003 C 
ATOM     30  C   UNL     1      48.167  45.421  18.862  1.00  0.00     0.004 C 
ENDBRANCH  28  29
ENDBRANCH  27  28
ENDBRANCH  26  27
ENDBRANCH  25  26
ENDBRANCH  24  25
ENDBRANCH  23  24
ENDBRANCH  22  23
ENDBRANCH  21  22
ENDBRANCH  20  21
ENDBRANCH  19  20
ENDBRANCH  18  19
ENDBRANCH  17  18
ENDBRANCH   1  17
TORSDOF 26
ENDMDL
MODEL 4
REMARK VINA RESULT:    -2.767     10.377     13.060
REMARK INTER + INTRA:         -12.463
REMARK INTER:                  -7.378
REMARK INTRA:                  -5.084
REMARK UNBOUND:                -5.490
REMARK SMILES CCCCCCCCCCCCCCCCCCCCCCCCCCCC(=O)[O-]
REMARK SMILES IDX 15 1 16 2 17 3 18 4 19 5 20 6 21 7 22 8 23 9 24 10 25 11
REMARK SMILES IDX 26 12 27 13 28 14 29 15 30 16 14 17 13 18 12 19 11 20 10 21
REMARK SMILES IDX 9 22 8 23 7 24 6 25 5 26 4 27 3 28 2 29 1 30
REMARK H PARENT
REMARK Flexibility Score: inf
ROOT
ATOM      1  C   UNL     1      60.288  32.390  12.259  1.00  0.00     0.000 C 
ENDROOT
BRANCH   1   2
ATOM      2  C   UNL     1      60.256  33.930  12.216  1.00  0.00     0.000 C 
BRANCH   2   3
ATOM      3  C   UNL     1      61.141  34.630  13.264  1.00  0.00     0.000 C 
BRANCH   3   4
ATOM      4  C   UNL     1      62.295  33.744  13.757  1.00  0.00     0.000 C 
BRANCH   4   5
ATOM      5  C   UNL     1      62.209  33.525  15.275  1.00  0.00     0.000 C 
BRANCH   5   6
ATOM      6  C   UNL     1      60.811  33.830  15.838  1.00  0.00     0.000 C 
BRANCH   6   7
ATOM      7  C   UNL     1      59.956  32.562  16.015  1.00  0.00     0.000 C 
BRANCH   7   8
ATOM      8  C   UNL     1      58.466  32.810  15.732  1.00  0.00     0.000 C 
BRANCH   8   9
ATOM      9  C   UNL     1      58.159  34.280  15.409  1.00  0.00     0.000 C 
BRANCH   9  10
ATOM     10  C   UNL     1      56.848  34.724  16.075  1.00  0.00     0.000 C 
BRANCH  10  11
ATOM     11  C   UNL     1      56.883  36.186  16.557  1.00  0.00     0.000 C 
BRANCH  11  12
ATOM     12  C   UNL     1      57.065  36.367  18.078  1.00  0.00     0.006 C 
BRANCH  12  13
ATOM     13  C   UNL     1      56.134  37.413  18.713  1.00  0.00     0.053 C 
BRANCH  13  14
ATOM     14  C   UNL     1      54.854  37.565  17.948  1.00  0.00     0.041 C 
ATOM     15  O   UNL     1      54.661  38.583  17.232  1.00  0.00    -0.550 OA
ATOM     16  O   UNL     1      53.891  36.564  17.999  1.00  0.00    -0.550 OA
ENDBRANCH  13  14
ENDBRANCH  12  13
ENDBRANCH  11  12
ENDBRANCH  10  11
ENDBRANCH   9  10
ENDBRANCH   8   9
ENDBRANCH   7   8
ENDBRANCH   6   7
ENDBRANCH   5   6
ENDBRANCH   4   5
ENDBRANCH   3   4
ENDBRANCH   2   3
ENDBRANCH   1   2
BRANCH   1  17
ATOM     17  C   UNL     1      58.915  31.705  12.100  1.00  0.00     0.000 C 
BRANCH  17  18
ATOM     18  C   UNL     1      57.781  32.628  11.612  1.00  0.00     0.000 C 
BRANCH  18  19
ATOM     19  C   UNL     1      56.502  32.596  12.468  1.00  0.00     0.000 C 
BRANCH  19  20
ATOM     20  C   UNL     1      55.839  33.975  12.598  1.00  0.00     0.000 C 
BRANCH  20  21
ATOM     21  C   UNL     1      56.825  35.097  12.251  1.00  0.00     0.000 C 
BRANCH  21  22
ATOM     22  C   UNL     1      56.113  36.457  12.217  1.00  0.00    -0.000 C 
BRANCH  22  23
ATOM     23  C   UNL     1      54.642  36.374  12.660  1.00  0.00    -0.000 C 
BRANCH  23  24
ATOM     24  C   UNL     1      54.339  37.007  14.033  1.00  0.00    -0.000 C 
BRANCH  24  25
ATOM     25  C   UNL     1      52.907  36.780  14.559  1.00  0.00    -0.000 C 
BRANCH  25  26
ATOM     26  C   UNL     1      51.933  36.162  13.540  1.00  0.00    -0.000 C 
BRANCH  26  27
ATOM     27  C   UNL     1      51.395  34.792  13.987  1.00  0.00    -0.000 C 
BRANCH  27  28
ATOM     28  C   UNL     1      52.304  33.632  13.553  1.00  0.00    -0.000 C 
BRANCH  28  29
ATOM     29  C   UNL     1      52.465  32.569  14.651  1.00  0.00    -0.003 C 
ATOM     30  C   UNL     1      53.744  32.795  15.451  1.00  0.00     0.004 C 
ENDBRANCH  28  29
ENDBRANCH  27  28
ENDBRANCH  26  27
ENDBRANCH  25  26
ENDBRANCH  24  25
ENDBRANCH  23  24
ENDBRANCH  22  23
ENDBRANCH  21  22
ENDBRANCH  20  21
ENDBRANCH  19  20
ENDBRANCH  18  19
ENDBRANCH  17  18
ENDBRANCH   1  17
TORSDOF 26
ENDMDL
MODEL 5
REMARK VINA RESULT:    -2.763      3.509      9.340
REMARK INTER + INTRA:         -12.453
REMARK INTER:                  -9.152
REMARK INTRA:                  -3.301
REMARK UNBOUND:                -5.490
REMARK SMILES CCCCCCCCCCCCCCCCCCCCCCCCCCCC(=O)[O-]
REMARK SMILES IDX 15 1 16 2 17 3 18 4 19 5 20 6 21 7 22 8 23 9 24 10 25 11
REMARK SMILES IDX 26 12 27 13 28 14 29 15 30 16 14 17 13 18 12 19 11 20 10 21
REMARK SMILES IDX 9 22 8 23 7 24 6 25 5 26 4 27 3 28 2 29 1 30
REMARK H PARENT
REMARK Flexibility Score: inf
ROOT
ATOM      1  C   UNL     1      51.389  47.865  14.945  1.00  0.00     0.000 C 
ENDROOT
BRANCH   1   2
ATOM      2  C   UNL     1      51.262  46.787  13.851  1.00  0.00     0.000 C 
BRANCH   2   3
ATOM      3  C   UNL     1      50.613  45.467  14.307  1.00  0.00     0.000 C 
BRANCH   3   4
ATOM      4  C   UNL     1      51.343  44.822  15.494  1.00  0.00     0.000 C 
BRANCH   4   5
ATOM      5  C   UNL     1      50.367  44.523  16.642  1.00  0.00     0.000 C 
BRANCH   5   6
ATOM      6  C   UNL     1      49.695  43.146  16.504  1.00  0.00     0.000 C 
BRANCH   6   7
ATOM      7  C   UNL     1      48.163  43.247  16.387  1.00  0.00     0.000 C 
BRANCH   7   8
ATOM      8  C   UNL     1      47.681  43.234  14.927  1.00  0.00     0.000 C 
BRANCH   8   9
ATOM      9  C   UNL     1      46.157  43.372  14.803  1.00  0.00     0.000 C 
BRANCH   9  10
ATOM     10  C   UNL     1      45.441  42.334  15.681  1.00  0.00     0.000 C 
BRANCH  10  11
ATOM     11  C   UNL     1      45.542  40.902  15.125  1.00  0.00     0.000 C 
BRANCH  11  12
ATOM     12  C   UNL     1      45.864  39.816  16.173  1.00  0.00     0.006 C 
BRANCH  12  13
ATOM     13  C   UNL     1      46.203  40.358  17.571  1.00  0.00     0.053 C 
BRANCH  13  14
ATOM     14  C   UNL     1      47.516  39.840  18.073  1.00  0.00     0.041 C 
ATOM     15  O   UNL     1      48.529  39.851  17.325  1.00  0.00    -0.550 OA
ATOM     16  O   UNL     1      47.628  39.376  19.378  1.00  0.00    -0.550 OA
ENDBRANCH  13  14
ENDBRANCH  12  13
ENDBRANCH  11  12
ENDBRANCH  10  11
ENDBRANCH   9  10
ENDBRANCH   8   9
ENDBRANCH   7   8
ENDBRANCH   6   7
ENDBRANCH   5   6
ENDBRANCH   4   5
ENDBRANCH   3   4
ENDBRANCH   2   3
ENDBRANCH   1   2
BRANCH   1  17
ATOM     17  C   UNL     1      50.535  49.128  14.717  1.00  0.00     0.000 C 
BRANCH  17  18
ATOM     18  C   UNL     1      49.769  49.162  13.380  1.00  0.00     0.000 C 
BRANCH  18  19
ATOM     19  C   UNL     1      50.133  50.334  12.452  1.00  0.00     0.000 C 
BRANCH  19  20
ATOM     20  C   UNL     1      50.807  49.875  11.150  1.00  0.00     0.000 C 
BRANCH  20  21
ATOM     21  C   UNL     1      52.226  49.358  11.415  1.00  0.00     0.000 C 
BRANCH  21  22
ATOM     22  C   UNL     1      53.058  50.407  12.168  1.00  0.00    -0.000 C 
BRANCH  22  23
ATOM     23  C   UNL     1      54.384  49.844  12.709  1.00  0.00    -0.000 C 
BRANCH  23  24
ATOM     24  C   UNL     1      54.391  49.532  14.219  1.00  0.00    -0.000 C 
BRANCH  24  25
ATOM     25  C   UNL     1      55.033  48.185  14.608  1.00  0.00    -0.000 C 
BRANCH  25  26
ATOM     26  C   UNL     1      55.722  47.438  13.452  1.00  0.00    -0.000 C 
BRANCH  26  27
ATOM     27  C   UNL     1      57.106  46.889  13.839  1.00  0.00    -0.000 C 
BRANCH  27  28
ATOM     28  C   UNL     1      57.379  46.990  15.348  1.00  0.00    -0.000 C 
BRANCH  28  29
ATOM     29  C   UNL     1      57.785  45.643  15.963  1.00  0.00    -0.003 C 
ATOM     30  C   UNL     1      56.868  44.521  15.485  1.00  0.00     0.004 C 
ENDBRANCH  28  29
ENDBRANCH  27  28
ENDBRANCH  26  27
ENDBRANCH  25  26
ENDBRANCH  24  25
ENDBRANCH  23  24
ENDBRANCH  22  23
ENDBRANCH  21  22
ENDBRANCH  20  21
ENDBRANCH  19  20
ENDBRANCH  18  19
ENDBRANCH  17  18
ENDBRANCH   1  17
TORSDOF 26
ENDMDL
MODEL 6
REMARK VINA RESULT:    -2.748      3.915      8.881
REMARK INTER + INTRA:         -12.414
REMARK INTER:                  -8.780
REMARK INTRA:                  -3.634
REMARK UNBOUND:                -5.490
REMARK SMILES CCCCCCCCCCCCCCCCCCCCCCCCCCCC(=O)[O-]
REMARK SMILES IDX 15 1 16 2 17 3 18 4 19 5 20 6 21 7 22 8 23 9 24 10 25 11
REMARK SMILES IDX 26 12 27 13 28 14 29 15 30 16 14 17 13 18 12 19 11 20 10 21
REMARK SMILES IDX 9 22 8 23 7 24 6 25 5 26 4 27 3 28 2 29 1 30
REMARK H PARENT
REMARK Flexibility Score: inf
ROOT
ATOM      1  C   UNL     1      57.047  47.321  13.399  1.00  0.00     0.000 C 
ENDROOT
BRANCH   1   2
ATOM      2  C   UNL     1      57.035  48.809  13.799  1.00  0.00     0.000 C 
BRANCH   2   3
ATOM      3  C   UNL     1      55.720  49.553  13.504  1.00  0.00     0.000 C 
BRANCH   3   4
ATOM      4  C   UNL     1      54.536  48.602  13.272  1.00  0.00     0.000 C 
BRANCH   4   5
ATOM      5  C   UNL     1      53.539  49.202  12.268  1.00  0.00     0.000 C 
BRANCH   5   6
ATOM      6  C   UNL     1      52.935  50.529  12.756  1.00  0.00     0.000 C 
BRANCH   6   7
ATOM      7  C   UNL     1      51.498  50.364  13.283  1.00  0.00     0.000 C 
BRANCH   7   8
ATOM      8  C   UNL     1      51.451  50.125  14.802  1.00  0.00     0.000 C 
BRANCH   8   9
ATOM      9  C   UNL     1      51.150  48.664  15.165  1.00  0.00     0.000 C 
BRANCH   9  10
ATOM     10  C   UNL     1      50.611  47.898  13.948  1.00  0.00     0.000 C 
BRANCH  10  11
ATOM     11  C   UNL     1      51.304  46.540  13.736  1.00  0.00     0.000 C 
BRANCH  11  12
ATOM     12  C   UNL     1      50.853  45.419  14.695  1.00  0.00     0.006 C 
BRANCH  12  13
ATOM     13  C   UNL     1      49.338  45.371  14.953  1.00  0.00     0.053 C 
BRANCH  13  14
ATOM     14  C   UNL     1      48.866  43.987  15.278  1.00  0.00     0.041 C 
ATOM     15  O   UNL     1      49.630  43.178  15.868  1.00  0.00    -0.550 OA
ATOM     16  O   UNL     1      47.569  43.602  14.959  1.00  0.00    -0.550 OA
ENDBRANCH  13  14
ENDBRANCH  12  13
ENDBRANCH  11  12
ENDBRANCH  10  11
ENDBRANCH   9  10
ENDBRANCH   8   9
ENDBRANCH   7   8
ENDBRANCH   6   7
ENDBRANCH   5   6
ENDBRANCH   4   5
ENDBRANCH   3   4
ENDBRANCH   2   3
ENDBRANCH   1   2
BRANCH   1  17
ATOM     17  C   UNL     1      57.252  46.334  14.565  1.00  0.00     0.000 C 
BRANCH  17  18
ATOM     18  C   UNL     1      57.030  46.932  15.969  1.00  0.00     0.000 C 
BRANCH  18  19
ATOM     19  C   UNL     1      55.713  46.518  16.651  1.00  0.00     0.000 C 
BRANCH  19  20
ATOM     20  C   UNL     1      54.771  45.754  15.709  1.00  0.00     0.000 C 
BRANCH  20  21
ATOM     21  C   UNL     1      54.540  44.320  16.203  1.00  0.00     0.000 C 
BRANCH  21  22
ATOM     22  C   UNL     1      55.371  44.037  17.463  1.00  0.00    -0.000 C 
BRANCH  22  23
ATOM     23  C   UNL     1      56.527  43.053  17.208  1.00  0.00    -0.000 C 
BRANCH  23  24
ATOM     24  C   UNL     1      57.528  42.910  18.373  1.00  0.00    -0.000 C 
BRANCH  24  25
ATOM     25  C   UNL     1      58.379  44.163  18.665  1.00  0.00    -0.000 C 
BRANCH  25  26
ATOM     26  C   UNL     1      59.256  44.637  17.493  1.00  0.00    -0.000 C 
BRANCH  26  27
ATOM     27  C   UNL     1      60.119  45.859  17.852  1.00  0.00    -0.000 C 
BRANCH  27  28
ATOM     28  C   UNL     1      61.618  45.528  17.902  1.00  0.00    -0.000 C 
BRANCH  28  29
ATOM     29  C   UNL     1      61.997  44.377  16.958  1.00  0.00    -0.003 C 
ATOM     30  C   UNL     1      63.367  44.612  16.328  1.00  0.00     0.004 C 
ENDBRANCH  28  29
ENDBRANCH  27  28
ENDBRANCH  26  27
ENDBRANCH  25  26
ENDBRANCH  24  25
ENDBRANCH  23  24
ENDBRANCH  22  23
ENDBRANCH  21  22
ENDBRANCH  20  21
ENDBRANCH  19  20
ENDBRANCH  18  19
ENDBRANCH  17  18
ENDBRANCH   1  17
TORSDOF 26
ENDMDL
MODEL 7
REMARK VINA RESULT:    -2.681      1.643      4.545
REMARK INTER + INTRA:         -12.245
REMARK INTER:                  -6.867
REMARK INTRA:                  -5.378
REMARK UNBOUND:                -5.490
REMARK SMILES CCCCCCCCCCCCCCCCCCCCCCCCCCCC(=O)[O-]
REMARK SMILES IDX 15 1 16 2 17 3 18 4 19 5 20 6 21 7 22 8 23 9 24 10 25 11
REMARK SMILES IDX 26 12 27 13 28 14 29 15 30 16 14 17 13 18 12 19 11 20 10 21
REMARK SMILES IDX 9 22 8 23 7 24 6 25 5 26 4 27 3 28 2 29 1 30
REMARK H PARENT
REMARK Flexibility Score: inf
ROOT
ATOM      1  C   UNL     1      50.513  46.836  16.139  1.00  0.00     0.000 C 
ENDROOT
BRANCH   1   2
ATOM      2  C   UNL     1      51.427  46.201  15.072  1.00  0.00     0.000 C 
BRANCH   2   3
ATOM      3  C   UNL     1      51.151  46.651  13.626  1.00  0.00     0.000 C 
BRANCH   3   4
ATOM      4  C   UNL     1      52.352  47.364  12.984  1.00  0.00     0.000 C 
BRANCH   4   5
ATOM      5  C   UNL     1      51.992  48.807  12.600  1.00  0.00     0.000 C 
BRANCH   5   6
ATOM      6  C   UNL     1      50.546  49.176  12.973  1.00  0.00     0.000 C 
BRANCH   6   7
ATOM      7  C   UNL     1      50.477  50.248  14.076  1.00  0.00     0.000 C 
BRANCH   7   8
ATOM      8  C   UNL     1      51.869  50.687  14.560  1.00  0.00     0.000 C 
BRANCH   8   9
ATOM      9  C   UNL     1      52.224  50.119  15.941  1.00  0.00     0.000 C 
BRANCH   9  10
ATOM     10  C   UNL     1      53.727  49.814  16.037  1.00  0.00     0.000 C 
BRANCH  10  11
ATOM     11  C   UNL     1      54.026  48.317  16.236  1.00  0.00     0.000 C 
BRANCH  11  12
ATOM     12  C   UNL     1      55.227  47.779  15.431  1.00  0.00     0.006 C 
BRANCH  12  13
ATOM     13  C   UNL     1      55.170  46.273  15.128  1.00  0.00     0.053 C 
BRANCH  13  14
ATOM     14  C   UNL     1      56.417  45.564  15.563  1.00  0.00     0.041 C 
ATOM     15  O   UNL     1      57.427  45.539  14.811  1.00  0.00    -0.550 OA
ATOM     16  O   UNL     1      56.473  44.961  16.814  1.00  0.00    -0.550 OA
ENDBRANCH  13  14
ENDBRANCH  12  13
ENDBRANCH  11  12
ENDBRANCH  10  11
ENDBRANCH   9  10
ENDBRANCH   8   9
ENDBRANCH   7   8
ENDBRANCH   6   7
ENDBRANCH   5   6
ENDBRANCH   4   5
ENDBRANCH   3   4
ENDBRANCH   2   3
ENDBRANCH   1   2
BRANCH   1  17
ATOM     17  C   UNL     1      49.064  47.098  15.682  1.00  0.00     0.000 C 
BRANCH  17  18
ATOM     18  C   UNL     1      48.017  46.118  16.249  1.00  0.00     0.000 C 
BRANCH  18  19
ATOM     19  C   UNL     1      47.492  45.076  15.246  1.00  0.00     0.000 C 
BRANCH  19  20
ATOM     20  C   UNL     1      48.422  43.861  15.109  1.00  0.00     0.000 C 
BRANCH  20  21
ATOM     21  C   UNL     1      47.923  42.685  15.957  1.00  0.00     0.000 C 
BRANCH  21  22
ATOM     22  C   UNL     1      48.964  42.296  17.017  1.00  0.00    -0.000 C 
BRANCH  22  23
ATOM     23  C   UNL     1      50.308  43.022  16.830  1.00  0.00    -0.000 C 
BRANCH  23  24
ATOM     24  C   UNL     1      50.820  43.773  18.076  1.00  0.00    -0.000 C 
BRANCH  24  25
ATOM     25  C   UNL     1      52.354  43.840  18.219  1.00  0.00    -0.000 C 
BRANCH  25  26
ATOM     26  C   UNL     1      53.131  43.774  16.892  1.00  0.00    -0.000 C 
BRANCH  26  27
ATOM     27  C   UNL     1      53.877  42.442  16.704  1.00  0.00    -0.000 C 
BRANCH  27  28
ATOM     28  C   UNL     1      53.716  41.502  17.909  1.00  0.00    -0.000 C 
BRANCH  28  29
ATOM     29  C   UNL     1      52.695  40.384  17.650  1.00  0.00    -0.003 C 
ATOM     30  C   UNL     1      52.570  40.090  16.158  1.00  0.00     0.004 C 
ENDBRANCH  28  29
ENDBRANCH  27  28
ENDBRANCH  26  27
ENDBRANCH  25  26
ENDBRANCH  24  25
ENDBRANCH  23  24
ENDBRANCH  22  23
ENDBRANCH  21  22
ENDBRANCH  20  21
ENDBRANCH  19  20
ENDBRANCH  18  19
ENDBRANCH  17  18
ENDBRANCH   1  17
TORSDOF 26
ENDMDL
MODEL 8
REMARK VINA RESULT:    -2.675      2.527      4.504
REMARK INTER + INTRA:         -12.230
REMARK INTER:                  -6.362
REMARK INTRA:                  -5.868
REMARK UNBOUND:                -5.490
REMARK SMILES CCCCCCCCCCCCCCCCCCCCCCCCCCCC(=O)[O-]
REMARK SMILES IDX 15 1 16 2 17 3 18 4 19 5 20 6 21 7 22 8 23 9 24 10 25 11
REMARK SMILES IDX 26 12 27 13 28 14 29 15 30 16 14 17 13 18 12 19 11 20 10 21
REMARK SMILES IDX 9 22 8 23 7 24 6 25 5 26 4 27 3 28 2 29 1 30
REMARK H PARENT
REMARK Flexibility Score: inf
ROOT
ATOM      1  C   UNL     1      49.812  46.506  18.327  1.00  0.00     0.000 C 
ENDROOT
BRANCH   1   2
ATOM      2  C   UNL     1      49.480  45.101  18.865  1.00  0.00     0.000 C 
BRANCH   2   3
ATOM      3  C   UNL     1      50.186  43.941  18.139  1.00  0.00     0.000 C 
BRANCH   3   4
ATOM      4  C   UNL     1      49.567  43.631  16.768  1.00  0.00     0.000 C 
BRANCH   4   5
ATOM      5  C   UNL     1      50.528  44.013  15.632  1.00  0.00     0.000 C 
BRANCH   5   6
ATOM      6  C   UNL     1      49.868  44.914  14.575  1.00  0.00     0.000 C 
BRANCH   6   7
ATOM      7  C   UNL     1      50.272  46.392  14.726  1.00  0.00     0.000 C 
BRANCH   7   8
ATOM      8  C   UNL     1      51.698  46.668  14.222  1.00  0.00     0.000 C 
BRANCH   8   9
ATOM      9  C   UNL     1      52.557  47.421  15.248  1.00  0.00     0.000 C 
BRANCH   9  10
ATOM     10  C   UNL     1      53.685  46.524  15.779  1.00  0.00     0.000 C 
BRANCH  10  11
ATOM     11  C   UNL     1      53.282  45.727  17.033  1.00  0.00     0.000 C 
BRANCH  11  12
ATOM     12  C   UNL     1      54.195  44.529  17.367  1.00  0.00     0.006 C 
BRANCH  12  13
ATOM     13  C   UNL     1      54.018  43.314  16.442  1.00  0.00     0.053 C 
BRANCH  13  14
ATOM     14  C   UNL     1      53.326  42.177  17.131  1.00  0.00     0.041 C 
ATOM     15  O   UNL     1      52.739  41.290  16.458  1.00  0.00    -0.550 OA
ATOM     16  O   UNL     1      53.361  42.081  18.517  1.00  0.00    -0.550 OA
ENDBRANCH  13  14
ENDBRANCH  12  13
ENDBRANCH  11  12
ENDBRANCH  10  11
ENDBRANCH   9  10
ENDBRANCH   8   9
ENDBRANCH   7   8
ENDBRANCH   6   7
ENDBRANCH   5   6
ENDBRANCH   4   5
ENDBRANCH   3   4
ENDBRANCH   2   3
ENDBRANCH   1   2
BRANCH   1  17
ATOM     17  C   UNL     1      48.597  47.322  17.842  1.00  0.00     0.000 C 
BRANCH  17  18
ATOM     18  C   UNL     1      47.264  46.547  17.811  1.00  0.00     0.000 C 
BRANCH  18  19
ATOM     19  C   UNL     1      46.840  46.040  16.421  1.00  0.00     0.000 C 
BRANCH  19  20
ATOM     20  C   UNL     1      45.372  45.590  16.376  1.00  0.00     0.000 C 
BRANCH  20  21
ATOM     21  C   UNL     1      45.212  44.309  15.546  1.00  0.00     0.000 C 
BRANCH  21  22
ATOM     22  C   UNL     1      46.495  44.006  14.759  1.00  0.00    -0.000 C 
BRANCH  22  23
ATOM     23  C   UNL     1      46.731  42.499  14.555  1.00  0.00    -0.000 C 
BRANCH  23  24
ATOM     24  C   UNL     1      45.836  41.580  15.411  1.00  0.00    -0.000 C 
BRANCH  24  25
ATOM     25  C   UNL     1      46.482  41.060  16.711  1.00  0.00    -0.000 C 
BRANCH  25  26
ATOM     26  C   UNL     1      45.822  41.563  18.008  1.00  0.00    -0.000 C 
BRANCH  26  27
ATOM     27  C   UNL     1      46.529  42.797  18.595  1.00  0.00    -0.000 C 
BRANCH  27  28
ATOM     28  C   UNL     1      45.616  43.614  19.521  1.00  0.00    -0.000 C 
BRANCH  28  29
ATOM     29  C   UNL     1      46.395  44.320  20.642  1.00  0.00    -0.003 C 
ATOM     30  C   UNL     1      46.862  43.323  21.698  1.00  0.00     0.004 C 
ENDBRANCH  28  29
ENDBRANCH  27  28
ENDBRANCH  26  27
ENDBRANCH  25  26
ENDBRANCH  24  25
ENDBRANCH  23  24
ENDBRANCH  22  23
ENDBRANCH  21  22
ENDBRANCH  20  21
ENDBRANCH  19  20
ENDBRANCH  18  19
ENDBRANCH  17  18
ENDBRANCH   1  17
TORSDOF 26
ENDMDL
MODEL 9
REMARK VINA RESULT:    -2.672      9.058     12.165
REMARK INTER + INTRA:         -12.222
REMARK INTER:                  -6.202
REMARK INTRA:                  -6.020
REMARK UNBOUND:                -5.490
REMARK SMILES CCCCCCCCCCCCCCCCCCCCCCCCCCCC(=O)[O-]
REMARK SMILES IDX 15 1 16 2 17 3 18 4 19 5 20 6 21 7 22 8 23 9 24 10 25 11
REMARK SMILES IDX 26 12 27 13 28 14 29 15 30 16 14 17 13 18 12 19 11 20 10 21
REMARK SMILES IDX 9 22 8 23 7 24 6 25 5 26 4 27 3 28 2 29 1 30
REMARK H PARENT
REMARK Flexibility Score: inf
ROOT
ATOM      1  C   UNL     1      54.969  35.923  12.433  1.00  0.00     0.000 C 
ENDROOT
BRANCH   1   2
ATOM      2  C   UNL     1      56.502  35.980  12.281  1.00  0.00     0.000 C 
BRANCH   2   3
ATOM      3  C   UNL     1      57.228  34.639  12.492  1.00  0.00     0.000 C 
BRANCH   3   4
ATOM      4  C   UNL     1      56.264  33.447  12.588  1.00  0.00     0.000 C 
BRANCH   4   5
ATOM      5  C   UNL     1      56.452  32.693  13.913  1.00  0.00     0.000 C 
BRANCH   5   6
ATOM      6  C   UNL     1      55.247  32.845  14.857  1.00  0.00     0.000 C 
BRANCH   6   7
ATOM      7  C   UNL     1      55.629  33.487  16.203  1.00  0.00     0.000 C 
BRANCH   7   8
ATOM      8  C   UNL     1      55.687  35.021  16.129  1.00  0.00     0.000 C 
BRANCH   8   9
ATOM      9  C   UNL     1      57.124  35.562  16.098  1.00  0.00     0.000 C 
BRANCH   9  10
ATOM     10  C   UNL     1      57.974  34.918  17.203  1.00  0.00     0.000 C 
BRANCH  10  11
ATOM     11  C   UNL     1      59.076  33.993  16.653  1.00  0.00     0.000 C 
BRANCH  11  12
ATOM     12  C   UNL     1      59.556  34.328  15.226  1.00  0.00     0.006 C 
BRANCH  12  13
ATOM     13  C   UNL     1      60.100  33.126  14.436  1.00  0.00     0.053 C 
BRANCH  13  14
ATOM     14  C   UNL     1      61.041  33.546  13.349  1.00  0.00     0.041 C 
ATOM     15  O   UNL     1      62.019  32.815  13.040  1.00  0.00    -0.550 OA
ATOM     16  O   UNL     1      60.816  34.728  12.653  1.00  0.00    -0.550 OA
ENDBRANCH  13  14
ENDBRANCH  12  13
ENDBRANCH  11  12
ENDBRANCH  10  11
ENDBRANCH   9  10
ENDBRANCH   8   9
ENDBRANCH   7   8
ENDBRANCH   6   7
ENDBRANCH   5   6
ENDBRANCH   4   5
ENDBRANCH   3   4
ENDBRANCH   2   3
ENDBRANCH   1   2
BRANCH   1  17
ATOM     17  C   UNL     1      54.371  36.971  13.394  1.00  0.00     0.000 C 
BRANCH  17  18
ATOM     18  C   UNL     1      52.882  36.763  13.736  1.00  0.00     0.000 C 
BRANCH  18  19
ATOM     19  C   UNL     1      52.455  35.295  13.916  1.00  0.00     0.000 C 
BRANCH  19  20
ATOM     20  C   UNL     1      52.144  34.942  15.378  1.00  0.00     0.000 C 
BRANCH  20  21
ATOM     21  C   UNL     1      51.600  36.158  16.137  1.00  0.00     0.000 C 
BRANCH  21  22
ATOM     22  C   UNL     1      52.455  36.454  17.377  1.00  0.00    -0.000 C 
BRANCH  22  23
ATOM     23  C   UNL     1      52.980  37.900  17.412  1.00  0.00    -0.000 C 
BRANCH  23  24
ATOM     24  C   UNL     1      54.433  38.077  16.927  1.00  0.00    -0.000 C 
BRANCH  24  25
ATOM     25  C   UNL     1      55.291  39.047  17.765  1.00  0.00    -0.000 C 
BRANCH  25  26
ATOM     26  C   UNL     1      56.380  38.376  18.620  1.00  0.00    -0.000 C 
BRANCH  26  27
ATOM     27  C   UNL     1      56.048  38.387  20.122  1.00  0.00    -0.000 C 
BRANCH  27  28
ATOM     28  C   UNL     1      55.247  37.150  20.557  1.00  0.00    -0.000 C 
BRANCH  28  29
ATOM     29  C   UNL     1      55.814  35.847  19.976  1.00  0.00    -0.003 C 
ATOM     30  C   UNL     1      54.702  34.842  19.692  1.00  0.00     0.004 C 
ENDBRANCH  28  29
ENDBRANCH  27  28
ENDBRANCH  26  27
ENDBRANCH  25  26
ENDBRANCH  24  25
ENDBRANCH  23  24
ENDBRANCH  22  23
ENDBRANCH  21  22
ENDBRANCH  20  21
ENDBRANCH  19  20
ENDBRANCH  18  19
ENDBRANCH  17  18
ENDBRANCH   1  17
TORSDOF 26
ENDMDL
