MODEL 1
REMARK VINA RESULT:    -9.025      0.000      0.000
REMARK INTER + INTRA:         -10.123
REMARK INTER:                 -10.607
REMARK INTRA:                   0.485
REMARK UNBOUND:                 0.485
REMARK SMILES O=c1c(O)c(-c2ccc(O)cc2)oc2cc(O)cc(O)c12
REMARK SMILES IDX 5 1 3 2 2 3 1 4 21 5 19 6 18 7 16 8 15 9 14 10 13 11 6 12
REMARK SMILES IDX 7 13 8 14 9 15 12 16 11 17 10 18 4 20 20 22 17 24
REMARK H PARENT 10 19 4 21 20 23 17 25
REMARK Flexibility Score: inf
ROOT
ATOM      1  C   UNL     1     -12.879 -30.541 -10.845  1.00  0.00     0.180 A 
ATOM      2  C   UNL     1     -14.088 -31.209 -11.125  1.00  0.00     0.208 A 
ATOM      3  C   UNL     1     -15.041 -30.572 -11.935  1.00  0.00     0.238 A 
ATOM      4  O   UNL     1     -16.132 -31.154 -12.184  1.00  0.00    -0.285 OA
ATOM      5  C   UNL     1     -14.765 -29.295 -12.466  1.00  0.00     0.111 A 
ATOM      6  C   UNL     1     -15.670 -28.588 -13.294  1.00  0.00     0.134 A 
ATOM      7  C   UNL     1     -15.317 -27.323 -13.790  1.00  0.00     0.093 A 
ATOM      8  C   UNL     1     -14.081 -26.756 -13.477  1.00  0.00     0.123 A 
ATOM      9  C   UNL     1     -13.182 -27.449 -12.659  1.00  0.00     0.094 A 
ATOM     10  C   UNL     1     -13.516 -28.709 -12.153  1.00  0.00     0.146 A 
ATOM     11  O   UNL     1     -12.646 -29.344 -11.375  1.00  0.00    -0.452 OA
ENDROOT
BRANCH   1  12
ATOM     12  C   UNL     1     -11.833 -31.138  -9.985  1.00  0.00     0.021 A 
ATOM     13  C   UNL     1     -11.928 -32.466  -9.528  1.00  0.00     0.016 A 
ATOM     14  C   UNL     1     -10.940 -33.000  -8.696  1.00  0.00     0.047 A 
ATOM     15  C   UNL     1      -9.852 -32.215  -8.299  1.00  0.00     0.115 A 
ATOM     16  C   UNL     1     -10.750 -30.349  -9.565  1.00  0.00     0.016 A 
ATOM     17  C   UNL     1      -9.761 -30.886  -8.733  1.00  0.00     0.047 A 
BRANCH  15  18
ATOM     18  O   UNL     1      -8.875 -32.760  -7.471  1.00  0.00    -0.508 OA
ATOM     19  H   UNL     1      -7.894 -32.738  -7.724  1.00  0.00     0.293 HD
ENDBRANCH  15  18
ENDBRANCH   1  12
BRANCH   2  20
ATOM     20  O   UNL     1     -14.317 -32.493 -10.628  1.00  0.00    -0.502 OA
ATOM     21  H   UNL     1     -13.902 -33.318 -11.044  1.00  0.00     0.293 HD
ENDBRANCH   2  20
BRANCH   6  22
ATOM     22  O   UNL     1     -16.913 -29.128 -13.625  1.00  0.00    -0.507 OA
ATOM     23  H   UNL     1     -17.642 -28.568 -14.051  1.00  0.00     0.293 HD
ENDBRANCH   6  22
BRANCH   8  24
ATOM     24  O   UNL     1     -13.754 -25.500 -13.984  1.00  0.00    -0.508 OA
ATOM     25  H   UNL     1     -12.836 -25.093 -13.841  1.00  0.00     0.293 HD
ENDBRANCH   8  24
TORSDOF 5
ENDMDL
MODEL 2
REMARK VINA RESULT:    -8.800      3.779      6.918
REMARK INTER + INTRA:          -9.859
REMARK INTER:                  -9.813
REMARK INTRA:                  -0.046
REMARK UNBOUND:                 0.485
REMARK SMILES O=c1c(O)c(-c2ccc(O)cc2)oc2cc(O)cc(O)c12
REMARK SMILES IDX 5 1 3 2 2 3 1 4 21 5 19 6 18 7 16 8 15 9 14 10 13 11 6 12
REMARK SMILES IDX 7 13 8 14 9 15 12 16 11 17 10 18 4 20 20 22 17 24
REMARK H PARENT 10 19 4 21 20 23 17 25
REMARK Flexibility Score: inf
ROOT
ATOM      1  C   UNL     1     -15.079 -30.999 -13.625  1.00  0.00     0.180 A 
ATOM      2  C   UNL     1     -15.225 -31.654 -12.386  1.00  0.00     0.208 A 
ATOM      3  C   UNL     1     -15.202 -33.057 -12.357  1.00  0.00     0.238 A 
ATOM      4  O   UNL     1     -15.343 -33.657 -11.255  1.00  0.00    -0.285 OA
ATOM      5  C   UNL     1     -15.015 -33.778 -13.554  1.00  0.00     0.111 A 
ATOM      6  C   UNL     1     -14.976 -35.193 -13.608  1.00  0.00     0.134 A 
ATOM      7  C   UNL     1     -14.777 -35.836 -14.840  1.00  0.00     0.093 A 
ATOM      8  C   UNL     1     -14.616 -35.096 -16.012  1.00  0.00     0.123 A 
ATOM      9  C   UNL     1     -14.654 -33.698 -15.965  1.00  0.00     0.094 A 
ATOM     10  C   UNL     1     -14.853 -33.038 -14.748  1.00  0.00     0.146 A 
ATOM     11  O   UNL     1     -14.890 -31.711 -14.732  1.00  0.00    -0.452 OA
ENDROOT
BRANCH   1  12
ATOM     12  C   UNL     1     -15.111 -29.523 -13.742  1.00  0.00     0.021 A 
ATOM     13  C   UNL     1     -16.189 -28.771 -13.241  1.00  0.00     0.016 A 
ATOM     14  C   UNL     1     -16.209 -27.380 -13.385  1.00  0.00     0.047 A 
ATOM     15  C   UNL     1     -15.161 -26.725 -14.041  1.00  0.00     0.115 A 
ATOM     16  C   UNL     1     -14.073 -28.861 -14.418  1.00  0.00     0.016 A 
ATOM     17  C   UNL     1     -14.094 -27.470 -14.559  1.00  0.00     0.047 A 
BRANCH  15  18
ATOM     18  O   UNL     1     -15.194 -25.340 -14.176  1.00  0.00    -0.508 OA
ATOM     19  H   UNL     1     -14.612 -24.738 -13.603  1.00  0.00     0.293 HD
ENDBRANCH  15  18
ENDBRANCH   1  12
BRANCH   2  20
ATOM     20  O   UNL     1     -15.359 -30.917 -11.208  1.00  0.00    -0.502 OA
ATOM     21  H   UNL     1     -15.103 -29.939 -11.148  1.00  0.00     0.293 HD
ENDBRANCH   2  20
BRANCH   6  22
ATOM     22  O   UNL     1     -15.134 -35.961 -12.454  1.00  0.00    -0.507 OA
ATOM     23  H   UNL     1     -14.660 -36.849 -12.335  1.00  0.00     0.293 HD
ENDBRANCH   6  22
BRANCH   8  24
ATOM     24  O   UNL     1     -14.418 -35.760 -17.221  1.00  0.00    -0.508 OA
ATOM     25  H   UNL     1     -14.784 -35.394 -18.092  1.00  0.00     0.293 HD
ENDBRANCH   8  24
TORSDOF 5
ENDMDL
MODEL 3
REMARK VINA RESULT:    -7.746      3.440      6.791
REMARK INTER + INTRA:          -8.620
REMARK INTER:                  -8.510
REMARK INTRA:                  -0.110
REMARK UNBOUND:                 0.485
REMARK SMILES O=c1c(O)c(-c2ccc(O)cc2)oc2cc(O)cc(O)c12
REMARK SMILES IDX 5 1 3 2 2 3 1 4 21 5 19 6 18 7 16 8 15 9 14 10 13 11 6 12
REMARK SMILES IDX 7 13 8 14 9 15 12 16 11 17 10 18 4 20 20 22 17 24
REMARK H PARENT 10 19 4 21 20 23 17 25
REMARK Flexibility Score: inf
ROOT
ATOM      1  C   UNL     1     -14.878 -30.063 -13.509  1.00  0.00     0.180 A 
ATOM      2  C   UNL     1     -14.867 -30.498 -12.169  1.00  0.00     0.208 A 
ATOM      3  C   UNL     1     -14.961 -31.873 -11.902  1.00  0.00     0.238 A 
ATOM      4  O   UNL     1     -14.964 -32.274 -10.706  1.00  0.00    -0.285 OA
ATOM      5  C   UNL     1     -15.045 -32.787 -12.972  1.00  0.00     0.111 A 
ATOM      6  C   UNL     1     -15.138 -34.188 -12.789  1.00  0.00     0.134 A 
ATOM      7  C   UNL     1     -15.209 -35.033 -13.907  1.00  0.00     0.093 A 
ATOM      8  C   UNL     1     -15.186 -34.507 -15.199  1.00  0.00     0.123 A 
ATOM      9  C   UNL     1     -15.094 -33.124 -15.388  1.00  0.00     0.094 A 
ATOM     10  C   UNL     1     -15.025 -32.265 -14.286  1.00  0.00     0.146 A 
ATOM     11  O   UNL     1     -14.943 -30.955 -14.493  1.00  0.00    -0.452 OA
ENDROOT
BRANCH   1  12
ATOM     12  C   UNL     1     -14.801 -28.630 -13.871  1.00  0.00     0.021 A 
ATOM     13  C   UNL     1     -15.773 -27.711 -13.437  1.00  0.00     0.016 A 
ATOM     14  C   UNL     1     -15.693 -26.366 -13.813  1.00  0.00     0.047 A 
ATOM     15  C   UNL     1     -14.650 -25.925 -14.635  1.00  0.00     0.115 A 
ATOM     16  C   UNL     1     -13.769 -28.184 -14.714  1.00  0.00     0.016 A 
ATOM     17  C   UNL     1     -13.690 -26.839 -15.087  1.00  0.00     0.047 A 
BRANCH  15  18
ATOM     18  O   UNL     1     -14.583 -24.583 -15.000  1.00  0.00    -0.508 OA
ATOM     19  H   UNL     1     -14.234 -24.299 -15.908  1.00  0.00     0.293 HD
ENDBRANCH  15  18
ENDBRANCH   1  12
BRANCH   2  20
ATOM     20  O   UNL     1     -14.733 -29.576 -11.129  1.00  0.00    -0.502 OA
ATOM     21  H   UNL     1     -13.977 -29.622 -10.456  1.00  0.00     0.293 HD
ENDBRANCH   2  20
BRANCH   6  22
ATOM     22  O   UNL     1     -15.163 -34.745 -11.509  1.00  0.00    -0.507 OA
ATOM     23  H   UNL     1     -15.787 -35.507 -11.271  1.00  0.00     0.293 HD
ENDBRANCH   6  22
BRANCH   8  24
ATOM     24  O   UNL     1     -15.255 -35.369 -16.292  1.00  0.00    -0.508 OA
ATOM     25  H   UNL     1     -14.430 -35.611 -16.829  1.00  0.00     0.293 HD
ENDBRANCH   8  24
TORSDOF 5
ENDMDL
MODEL 4
REMARK VINA RESULT:    -7.699      1.193      6.417
REMARK INTER + INTRA:          -8.565
REMARK INTER:                  -8.267
REMARK INTRA:                  -0.298
REMARK UNBOUND:                 0.485
REMARK SMILES O=c1c(O)c(-c2ccc(O)cc2)oc2cc(O)cc(O)c12
REMARK SMILES IDX 5 1 3 2 2 3 1 4 21 5 19 6 18 7 16 8 15 9 14 10 13 11 6 12
REMARK SMILES IDX 7 13 8 14 9 15 12 16 11 17 10 18 4 20 20 22 17 24
REMARK H PARENT 10 19 4 21 20 23 17 25
REMARK Flexibility Score: inf
ROOT
ATOM      1  C   UNL     1     -13.857 -29.375 -12.164  1.00  0.00     0.180 A 
ATOM      2  C   UNL     1     -14.838 -30.373 -12.002  1.00  0.00     0.208 A 
ATOM      3  C   UNL     1     -14.549 -31.480 -11.189  1.00  0.00     0.238 A 
ATOM      4  O   UNL     1     -15.415 -32.387 -11.045  1.00  0.00    -0.285 OA
ATOM      5  C   UNL     1     -13.302 -31.561 -10.538  1.00  0.00     0.111 A 
ATOM      6  C   UNL     1     -12.935 -32.641  -9.698  1.00  0.00     0.134 A 
ATOM      7  C   UNL     1     -11.676 -32.644  -9.078  1.00  0.00     0.093 A 
ATOM      8  C   UNL     1     -10.781 -31.593  -9.280  1.00  0.00     0.123 A 
ATOM      9  C   UNL     1     -11.137 -30.523 -10.109  1.00  0.00     0.094 A 
ATOM     10  C   UNL     1     -12.386 -30.502 -10.737  1.00  0.00     0.146 A 
ATOM     11  O   UNL     1     -12.697 -29.477 -11.522  1.00  0.00    -0.452 OA
ENDROOT
BRANCH   1  12
ATOM     12  C   UNL     1     -14.078 -28.187 -13.019  1.00  0.00     0.021 A 
ATOM     13  C   UNL     1     -13.761 -28.202 -14.390  1.00  0.00     0.016 A 
ATOM     14  C   UNL     1     -13.955 -27.060 -15.173  1.00  0.00     0.047 A 
ATOM     15  C   UNL     1     -14.455 -25.887 -14.597  1.00  0.00     0.115 A 
ATOM     16  C   UNL     1     -14.559 -27.000 -12.443  1.00  0.00     0.016 A 
ATOM     17  C   UNL     1     -14.754 -25.859 -13.229  1.00  0.00     0.047 A 
BRANCH  15  18
ATOM     18  O   UNL     1     -14.644 -24.757 -15.389  1.00  0.00    -0.508 OA
ATOM     19  H   UNL     1     -14.102 -23.913 -15.245  1.00  0.00     0.293 HD
ENDBRANCH  15  18
ENDBRANCH   1  12
BRANCH   2  20
ATOM     20  O   UNL     1     -16.084 -30.245 -12.619  1.00  0.00    -0.502 OA
ATOM     21  H   UNL     1     -16.951 -30.459 -12.140  1.00  0.00     0.293 HD
ENDBRANCH   2  20
BRANCH   6  22
ATOM     22  O   UNL     1     -13.808 -33.707  -9.476  1.00  0.00    -0.507 OA
ATOM     23  H   UNL     1     -13.836 -34.511 -10.092  1.00  0.00     0.293 HD
ENDBRANCH   6  22
BRANCH   8  24
ATOM     24  O   UNL     1      -9.538 -31.619  -8.651  1.00  0.00    -0.508 OA
ATOM     25  H   UNL     1      -8.873 -32.364  -8.823  1.00  0.00     0.293 HD
ENDBRANCH   8  24
TORSDOF 5
ENDMDL
MODEL 5
REMARK VINA RESULT:    -7.582      3.671      4.749
REMARK INTER + INTRA:          -8.427
REMARK INTER:                  -8.815
REMARK INTRA:                   0.388
REMARK UNBOUND:                 0.485
REMARK SMILES O=c1c(O)c(-c2ccc(O)cc2)oc2cc(O)cc(O)c12
REMARK SMILES IDX 5 1 3 2 2 3 1 4 21 5 19 6 18 7 16 8 15 9 14 10 13 11 6 12
REMARK SMILES IDX 7 13 8 14 9 15 12 16 11 17 10 18 4 20 20 22 17 24
REMARK H PARENT 10 19 4 21 20 23 17 25
REMARK Flexibility Score: inf
ROOT
ATOM      1  C   UNL     1     -15.038 -30.880 -13.167  1.00  0.00     0.180 A 
ATOM      2  C   UNL     1     -15.305 -30.396 -11.871  1.00  0.00     0.208 A 
ATOM      3  C   UNL     1     -15.212 -29.016 -11.632  1.00  0.00     0.238 A 
ATOM      4  O   UNL     1     -15.438 -28.571 -10.473  1.00  0.00    -0.285 OA
ATOM      5  C   UNL     1     -14.877 -28.145 -12.688  1.00  0.00     0.111 A 
ATOM      6  C   UNL     1     -14.768 -26.742 -12.530  1.00  0.00     0.134 A 
ATOM      7  C   UNL     1     -14.437 -25.941 -13.635  1.00  0.00     0.093 A 
ATOM      8  C   UNL     1     -14.217 -26.513 -14.888  1.00  0.00     0.123 A 
ATOM      9  C   UNL     1     -14.323 -27.899 -15.051  1.00  0.00     0.094 A 
ATOM     10  C   UNL     1     -14.649 -28.714 -13.962  1.00  0.00     0.146 A 
ATOM     11  O   UNL     1     -14.738 -30.027 -14.143  1.00  0.00    -0.452 OA
ENDROOT
BRANCH   1  12
ATOM     12  C   UNL     1     -15.095 -32.322 -13.495  1.00  0.00     0.021 A 
ATOM     13  C   UNL     1     -15.009 -33.306 -12.493  1.00  0.00     0.016 A 
ATOM     14  C   UNL     1     -15.041 -34.663 -12.829  1.00  0.00     0.047 A 
ATOM     15  C   UNL     1     -15.147 -35.054 -14.168  1.00  0.00     0.115 A 
ATOM     16  C   UNL     1     -15.180 -32.723 -14.839  1.00  0.00     0.016 A 
ATOM     17  C   UNL     1     -15.213 -34.081 -15.172  1.00  0.00     0.047 A 
BRANCH  15  18
ATOM     18  O   UNL     1     -15.178 -36.410 -14.488  1.00  0.00    -0.508 OA
ATOM     19  H   UNL     1     -14.986 -37.122 -13.793  1.00  0.00     0.293 HD
ENDBRANCH  15  18
ENDBRANCH   1  12
BRANCH   2  20
ATOM     20  O   UNL     1     -15.683 -31.274 -10.854  1.00  0.00    -0.502 OA
ATOM     21  H   UNL     1     -15.077 -31.494 -10.073  1.00  0.00     0.293 HD
ENDBRANCH   2  20
BRANCH   6  22
ATOM     22  O   UNL     1     -14.983 -26.139 -11.290  1.00  0.00    -0.507 OA
ATOM     23  H   UNL     1     -14.387 -25.394 -10.948  1.00  0.00     0.293 HD
ENDBRANCH   6  22
BRANCH   8  24
ATOM     24  O   UNL     1     -13.892 -25.696 -15.969  1.00  0.00    -0.508 OA
ATOM     25  H   UNL     1     -13.843 -24.688 -15.874  1.00  0.00     0.293 HD
ENDBRANCH   8  24
TORSDOF 5
ENDMDL
MODEL 6
REMARK VINA RESULT:    -6.940      3.954      5.707
REMARK INTER + INTRA:          -7.673
REMARK INTER:                  -7.392
REMARK INTRA:                  -0.280
REMARK UNBOUND:                 0.485
REMARK SMILES O=c1c(O)c(-c2ccc(O)cc2)oc2cc(O)cc(O)c12
REMARK SMILES IDX 5 1 3 2 2 3 1 4 21 5 19 6 18 7 16 8 15 9 14 10 13 11 6 12
REMARK SMILES IDX 7 13 8 14 9 15 12 16 11 17 10 18 4 20 20 22 17 24
REMARK H PARENT 10 19 4 21 20 23 17 25
REMARK Flexibility Score: inf
ROOT
ATOM      1  C   UNL     1     -14.854 -33.073 -13.465  1.00  0.00     0.180 A 
ATOM      2  C   UNL     1     -14.977 -33.394 -12.098  1.00  0.00     0.208 A 
ATOM      3  C   UNL     1     -15.100 -32.352 -11.166  1.00  0.00     0.238 A 
ATOM      4  O   UNL     1     -15.200 -32.626  -9.939  1.00  0.00    -0.285 OA
ATOM      5  C   UNL     1     -15.120 -31.015 -11.613  1.00  0.00     0.111 A 
ATOM      6  C   UNL     1     -15.245 -29.908 -10.739  1.00  0.00     0.134 A 
ATOM      7  C   UNL     1     -15.265 -28.606 -11.263  1.00  0.00     0.093 A 
ATOM      8  C   UNL     1     -15.164 -28.391 -12.638  1.00  0.00     0.123 A 
ATOM      9  C   UNL     1     -15.039 -29.480 -13.507  1.00  0.00     0.094 A 
ATOM     10  C   UNL     1     -15.015 -30.785 -13.004  1.00  0.00     0.146 A 
ATOM     11  O   UNL     1     -14.891 -31.801 -13.851  1.00  0.00    -0.452 OA
ENDROOT
BRANCH   1  12
ATOM     12  C   UNL     1     -14.702 -34.113 -14.506  1.00  0.00     0.021 A 
ATOM     13  C   UNL     1     -15.818 -34.776 -15.050  1.00  0.00     0.016 A 
ATOM     14  C   UNL     1     -15.647 -35.773 -16.015  1.00  0.00     0.047 A 
ATOM     15  C   UNL     1     -14.363 -36.130 -16.440  1.00  0.00     0.115 A 
ATOM     16  C   UNL     1     -13.414 -34.493 -14.921  1.00  0.00     0.016 A 
ATOM     17  C   UNL     1     -13.247 -35.490 -15.888  1.00  0.00     0.047 A 
BRANCH  15  18
ATOM     18  O   UNL     1     -14.208 -37.125 -17.402  1.00  0.00    -0.508 OA
ATOM     19  H   UNL     1     -14.110 -36.899 -18.385  1.00  0.00     0.293 HD
ENDBRANCH  15  18
ENDBRANCH   1  12
BRANCH   2  20
ATOM     20  O   UNL     1     -15.005 -34.728 -11.686  1.00  0.00    -0.502 OA
ATOM     21  H   UNL     1     -15.645 -35.406 -12.084  1.00  0.00     0.293 HD
ENDBRANCH   2  20
BRANCH   6  22
ATOM     22  O   UNL     1     -15.349 -30.090  -9.359  1.00  0.00    -0.507 OA
ATOM     23  H   UNL     1     -15.408 -31.013  -8.946  1.00  0.00     0.293 HD
ENDBRANCH   6  22
BRANCH   8  24
ATOM     24  O   UNL     1     -15.188 -27.088 -13.132  1.00  0.00    -0.508 OA
ATOM     25  H   UNL     1     -14.678 -26.339 -12.677  1.00  0.00     0.293 HD
ENDBRANCH   8  24
TORSDOF 5
ENDMDL
MODEL 7
REMARK VINA RESULT:    -6.226      3.905      6.805
REMARK INTER + INTRA:          -6.834
REMARK INTER:                  -6.572
REMARK INTRA:                  -0.261
REMARK UNBOUND:                 0.485
REMARK SMILES O=c1c(O)c(-c2ccc(O)cc2)oc2cc(O)cc(O)c12
REMARK SMILES IDX 5 1 3 2 2 3 1 4 21 5 19 6 18 7 16 8 15 9 14 10 13 11 6 12
REMARK SMILES IDX 7 13 8 14 9 15 12 16 11 17 10 18 4 20 20 22 17 24
REMARK H PARENT 10 19 4 21 20 23 17 25
REMARK Flexibility Score: inf
ROOT
ATOM      1  C   UNL     1     -14.755 -30.670 -14.064  1.00  0.00     0.180 A 
ATOM      2  C   UNL     1     -14.486 -30.824 -15.438  1.00  0.00     0.208 A 
ATOM      3  C   UNL     1     -14.442 -32.119 -15.979  1.00  0.00     0.238 A 
ATOM      4  O   UNL     1     -14.190 -32.270 -17.206  1.00  0.00    -0.285 OA
ATOM      5  C   UNL     1     -14.687 -33.231 -15.148  1.00  0.00     0.111 A 
ATOM      6  C   UNL     1     -14.666 -34.567 -15.615  1.00  0.00     0.134 A 
ATOM      7  C   UNL     1     -14.928 -35.620 -14.725  1.00  0.00     0.093 A 
ATOM      8  C   UNL     1     -15.212 -35.364 -13.383  1.00  0.00     0.123 A 
ATOM      9  C   UNL     1     -15.235 -34.045 -12.914  1.00  0.00     0.094 A 
ATOM     10  C   UNL     1     -14.973 -32.983 -13.785  1.00  0.00     0.146 A 
ATOM     11  O   UNL     1     -14.996 -31.741 -13.313  1.00  0.00    -0.452 OA
ENDROOT
BRANCH   1  12
ATOM     12  C   UNL     1     -14.800 -29.340 -13.416  1.00  0.00     0.021 A 
ATOM     13  C   UNL     1     -15.934 -28.513 -13.516  1.00  0.00     0.016 A 
ATOM     14  C   UNL     1     -15.943 -27.250 -12.916  1.00  0.00     0.047 A 
ATOM     15  C   UNL     1     -14.819 -26.792 -12.221  1.00  0.00     0.115 A 
ATOM     16  C   UNL     1     -13.667 -28.865 -12.734  1.00  0.00     0.016 A 
ATOM     17  C   UNL     1     -13.680 -27.602 -12.134  1.00  0.00     0.047 A 
BRANCH  15  18
ATOM     18  O   UNL     1     -14.844 -25.532 -11.627  1.00  0.00    -0.508 OA
ATOM     19  H   UNL     1     -14.832 -25.422 -10.620  1.00  0.00     0.293 HD
ENDBRANCH  15  18
ENDBRANCH   1  12
BRANCH   2  20
ATOM     20  O   UNL     1     -14.296 -29.704 -16.250  1.00  0.00    -0.502 OA
ATOM     21  H   UNL     1     -14.891 -28.886 -16.195  1.00  0.00     0.293 HD
ENDBRANCH   2  20
BRANCH   6  22
ATOM     22  O   UNL     1     -14.385 -34.856 -16.952  1.00  0.00    -0.507 OA
ATOM     23  H   UNL     1     -15.095 -35.213 -17.580  1.00  0.00     0.293 HD
ENDBRANCH   6  22
BRANCH   8  24
ATOM     24  O   UNL     1     -15.472 -36.427 -12.521  1.00  0.00    -0.508 OA
ATOM     25  H   UNL     1     -14.755 -36.801 -11.910  1.00  0.00     0.293 HD
ENDBRANCH   8  24
TORSDOF 5
ENDMDL
