MODEL 1
REMARK VINA RESULT:    -2.566      0.000      0.000
REMARK INTER + INTRA:          -4.529
REMARK INTER:                  -4.066
REMARK INTRA:                  -0.462
REMARK UNBOUND:                -0.462
REMARK SMILES CCCCCCCCCCCC(=O)[O-]
REMARK SMILES IDX 7 1 8 2 9 3 10 4 11 5 12 6 13 7 14 8 6 9 5 10 4 11 3 12 2 13
REMARK SMILES IDX 1 14
REMARK H PARENT
REMARK Flexibility Score: inf
ROOT
ATOM      1  C   UNL     1       9.905  20.631  55.570  1.00  0.00     0.000 C 
ENDROOT
BRANCH   1   2
ATOM      2  C   UNL     1       8.469  20.437  56.089  1.00  0.00     0.000 C 
BRANCH   2   3
ATOM      3  C   UNL     1       7.644  21.733  56.037  1.00  0.00     0.000 C 
BRANCH   3   4
ATOM      4  C   UNL     1       6.135  21.472  55.907  1.00  0.00     0.006 C 
BRANCH   4   5
ATOM      5  C   UNL     1       5.748  21.211  54.448  1.00  0.00     0.053 C 
BRANCH   5   6
ATOM      6  C   UNL     1       4.263  21.097  54.312  1.00  0.00     0.041 C 
ATOM      7  O   UNL     1       3.590  22.068  53.876  1.00  0.00    -0.550 OA
ATOM      8  O   UNL     1       3.627  19.901  54.620  1.00  0.00    -0.550 OA
ENDBRANCH   5   6
ENDBRANCH   4   5
ENDBRANCH   3   4
ENDBRANCH   2   3
ENDBRANCH   1   2
BRANCH   1   9
ATOM      9  C   UNL     1      10.566  21.904  56.124  1.00  0.00     0.000 C 
BRANCH   9  10
ATOM     10  C   UNL     1      12.100  21.825  56.125  1.00  0.00    -0.000 C 
BRANCH  10  11
ATOM     11  C   UNL     1      12.599  20.842  55.059  1.00  0.00    -0.000 C 
BRANCH  11  12
ATOM     12  C   UNL     1      14.131  20.804  55.018  1.00  0.00    -0.000 C 
BRANCH  12  13
ATOM     13  C   UNL     1      14.733  21.759  56.057  1.00  0.00    -0.003 C 
ATOM     14  C   UNL     1      16.218  21.991  55.795  1.00  0.00     0.004 C 
ENDBRANCH  12  13
ENDBRANCH  11  12
ENDBRANCH  10  11
ENDBRANCH   9  10
ENDBRANCH   1   9
TORSDOF 10
ENDMDL
MODEL 2
REMARK VINA RESULT:    -1.484      4.397      8.256
REMARK INTER + INTRA:          -2.814
REMARK INTER:                  -2.570
REMARK INTRA:                  -0.245
REMARK UNBOUND:                -0.462
REMARK SMILES CCCCCCCCCCCC(=O)[O-]
REMARK SMILES IDX 7 1 8 2 9 3 10 4 11 5 12 6 13 7 14 8 6 9 5 10 4 11 3 12 2 13
REMARK SMILES IDX 1 14
REMARK H PARENT
REMARK Flexibility Score: inf
ROOT
ATOM      1  C   UNL     1       7.957  20.327  55.956  1.00  0.00     0.000 C 
ENDROOT
BRANCH   1   2
ATOM      2  C   UNL     1       9.281  21.106  55.861  1.00  0.00     0.000 C 
BRANCH   2   3
ATOM      3  C   UNL     1      10.509  20.213  56.094  1.00  0.00     0.000 C 
BRANCH   3   4
ATOM      4  C   UNL     1      11.825  21.005  56.124  1.00  0.00     0.006 C 
BRANCH   4   5
ATOM      5  C   UNL     1      12.730  20.609  54.954  1.00  0.00     0.053 C 
BRANCH   5   6
ATOM      6  C   UNL     1      14.133  20.392  55.426  1.00  0.00     0.041 C 
ATOM      7  O   UNL     1      14.544  19.228  55.676  1.00  0.00    -0.550 OA
ATOM      8  O   UNL     1      15.001  21.469  55.543  1.00  0.00    -0.550 OA
ENDBRANCH   5   6
ENDBRANCH   4   5
ENDBRANCH   3   4
ENDBRANCH   2   3
ENDBRANCH   1   2
BRANCH   1   9
ATOM      9  C   UNL     1       6.824  20.990  55.156  1.00  0.00     0.000 C 
BRANCH   9  10
ATOM     10  C   UNL     1       5.966  21.934  56.012  1.00  0.00    -0.000 C 
BRANCH  10  11
ATOM     11  C   UNL     1       4.560  22.085  55.420  1.00  0.00    -0.000 C 
BRANCH  11  12
ATOM     12  C   UNL     1       4.055  20.753  54.853  1.00  0.00    -0.000 C 
BRANCH  12  13
ATOM     13  C   UNL     1       3.660  20.897  53.378  1.00  0.00    -0.003 C 
ATOM     14  C   UNL     1       4.871  20.723  52.466  1.00  0.00     0.004 C 
ENDBRANCH  12  13
ENDBRANCH  11  12
ENDBRANCH  10  11
ENDBRANCH   9  10
ENDBRANCH   1   9
TORSDOF 10
ENDMDL
