MODEL 1
REMARK VINA RESULT:    -4.491      0.000      0.000
REMARK INTER + INTRA:         -16.636
REMARK INTER:                 -11.842
REMARK INTRA:                  -4.794
REMARK UNBOUND:                -4.794
REMARK SMILES CCCCCCCCCCCCCCCCCCCCCCCCCCCCCC(=O)[O-]
REMARK SMILES IDX 16 1 17 2 18 3 19 4 20 5 21 6 22 7 23 8 24 9 25 10 26 11
REMARK SMILES IDX 27 12 28 13 29 14 30 15 31 16 32 17 15 18 14 19 13 20 12 21
REMARK SMILES IDX 11 22 10 23 9 24 8 25 7 26 6 27 5 28 4 29 3 30 2 31 1 32
REMARK H PARENT
REMARK Flexibility Score: inf
ROOT
ATOM      1  C   UNL     1      48.396  -7.336  73.669  1.00  0.00     0.000 C 
ENDROOT
BRANCH   1   2
ATOM      2  C   UNL     1      47.515  -7.233  74.932  1.00  0.00     0.000 C 
BRANCH   2   3
ATOM      3  C   UNL     1      46.378  -8.272  75.046  1.00  0.00     0.000 C 
BRANCH   3   4
ATOM      4  C   UNL     1      45.706  -8.343  76.431  1.00  0.00     0.000 C 
BRANCH   4   5
ATOM      5  C   UNL     1      46.698  -8.222  77.602  1.00  0.00     0.000 C 
BRANCH   5   6
ATOM      6  C   UNL     1      47.467  -9.525  77.867  1.00  0.00     0.000 C 
BRANCH   6   7
ATOM      7  C   UNL     1      48.888  -9.271  78.398  1.00  0.00     0.000 C 
BRANCH   7   8
ATOM      8  C   UNL     1      49.901  -8.952  77.275  1.00  0.00     0.000 C 
BRANCH   8   9
ATOM      9  C   UNL     1      50.720  -7.668  77.518  1.00  0.00     0.000 C 
BRANCH   9  10
ATOM     10  C   UNL     1      49.910  -6.496  78.096  1.00  0.00     0.000 C 
BRANCH  10  11
ATOM     11  C   UNL     1      50.621  -5.130  77.953  1.00  0.00     0.000 C 
BRANCH  11  12
ATOM     12  C   UNL     1      50.023  -4.061  78.882  1.00  0.00     0.000 C 
BRANCH  12  13
ATOM     13  C   UNL     1      48.490  -3.985  78.798  1.00  0.00     0.006 C 
BRANCH  13  14
ATOM     14  C   UNL     1      47.928  -2.673  79.361  1.00  0.00     0.053 C 
BRANCH  14  15
ATOM     15  C   UNL     1      46.447  -2.775  79.549  1.00  0.00     0.041 C 
ATOM     16  O   UNL     1      45.675  -1.974  78.958  1.00  0.00    -0.550 OA
ATOM     17  O   UNL     1      45.913  -3.789  80.336  1.00  0.00    -0.550 OA
ENDBRANCH  14  15
ENDBRANCH  13  14
ENDBRANCH  12  13
ENDBRANCH  11  12
ENDBRANCH  10  11
ENDBRANCH   9  10
ENDBRANCH   8   9
ENDBRANCH   7   8
ENDBRANCH   6   7
ENDBRANCH   5   6
ENDBRANCH   4   5
ENDBRANCH   3   4
ENDBRANCH   2   3
ENDBRANCH   1   2
BRANCH   1  18
ATOM     18  C   UNL     1      47.699  -7.006  72.335  1.00  0.00     0.000 C 
BRANCH  18  19
ATOM     19  C   UNL     1      47.281  -5.533  72.162  1.00  0.00     0.000 C 
BRANCH  19  20
ATOM     20  C   UNL     1      48.352  -4.506  72.572  1.00  0.00     0.000 C 
BRANCH  20  21
ATOM     21  C   UNL     1      47.915  -3.507  73.661  1.00  0.00     0.000 C 
BRANCH  21  22
ATOM     22  C   UNL     1      48.820  -3.507  74.912  1.00  0.00     0.000 C 
BRANCH  22  23
ATOM     23  C   UNL     1      49.056  -2.091  75.469  1.00  0.00     0.000 C 
BRANCH  23  24
ATOM     24  C   UNL     1      47.753  -1.383  75.871  1.00  0.00    -0.000 C 
BRANCH  24  25
ATOM     25  C   UNL     1      47.595  -0.008  75.196  1.00  0.00    -0.000 C 
BRANCH  25  26
ATOM     26  C   UNL     1      48.665   0.239  74.119  1.00  0.00    -0.000 C 
BRANCH  26  27
ATOM     27  C   UNL     1      48.119   0.027  72.697  1.00  0.00    -0.000 C 
BRANCH  27  28
ATOM     28  C   UNL     1      49.164  -0.587  71.752  1.00  0.00    -0.000 C 
BRANCH  28  29
ATOM     29  C   UNL     1      50.576  -0.597  72.364  1.00  0.00    -0.000 C 
BRANCH  29  30
ATOM     30  C   UNL     1      51.212  -1.995  72.358  1.00  0.00    -0.000 C 
BRANCH  30  31
ATOM     31  C   UNL     1      52.747  -1.945  72.400  1.00  0.00    -0.003 C 
ATOM     32  C   UNL     1      53.277  -0.746  71.619  1.00  0.00     0.004 C 
ENDBRANCH  30  31
ENDBRANCH  29  30
ENDBRANCH  28  29
ENDBRANCH  27  28
ENDBRANCH  26  27
ENDBRANCH  25  26
ENDBRANCH  24  25
ENDBRANCH  23  24
ENDBRANCH  22  23
ENDBRANCH  21  22
ENDBRANCH  20  21
ENDBRANCH  19  20
ENDBRANCH  18  19
ENDBRANCH   1  18
TORSDOF 28
ENDMDL
MODEL 2
REMARK VINA RESULT:    -4.482      4.099      6.176
REMARK INTER + INTRA:         -16.613
REMARK INTER:                 -10.380
REMARK INTRA:                  -6.233
REMARK UNBOUND:                -4.794
REMARK SMILES CCCCCCCCCCCCCCCCCCCCCCCCCCCCCC(=O)[O-]
REMARK SMILES IDX 16 1 17 2 18 3 19 4 20 5 21 6 22 7 23 8 24 9 25 10 26 11
REMARK SMILES IDX 27 12 28 13 29 14 30 15 31 16 32 17 15 18 14 19 13 20 12 21
REMARK SMILES IDX 11 22 10 23 9 24 8 25 7 26 6 27 5 28 4 29 3 30 2 31 1 32
REMARK H PARENT
REMARK Flexibility Score: inf
ROOT
ATOM      1  C   UNL     1      47.705  -7.847  78.207  1.00  0.00     0.000 C 
ENDROOT
BRANCH   1   2
ATOM      2  C   UNL     1      49.124  -8.415  77.992  1.00  0.00     0.000 C 
BRANCH   2   3
ATOM      3  C   UNL     1      49.408  -9.007  76.594  1.00  0.00     0.000 C 
BRANCH   3   4
ATOM      4  C   UNL     1      49.009  -8.097  75.417  1.00  0.00     0.000 C 
BRANCH   4   5
ATOM      5  C   UNL     1      50.200  -7.361  74.777  1.00  0.00     0.000 C 
BRANCH   5   6
ATOM      6  C   UNL     1      50.479  -5.999  75.434  1.00  0.00     0.000 C 
BRANCH   6   7
ATOM      7  C   UNL     1      51.933  -5.867  75.918  1.00  0.00     0.000 C 
BRANCH   7   8
ATOM      8  C   UNL     1      52.121  -6.316  77.384  1.00  0.00     0.000 C 
BRANCH   8   9
ATOM      9  C   UNL     1      52.823  -7.681  77.536  1.00  0.00     0.000 C 
BRANCH   9  10
ATOM     10  C   UNL     1      53.567  -8.157  76.278  1.00  0.00     0.000 C 
BRANCH  10  11
ATOM     11  C   UNL     1      53.041  -9.503  75.728  1.00  0.00     0.000 C 
BRANCH  11  12
ATOM     12  C   UNL     1      53.177  -9.602  74.200  1.00  0.00     0.000 C 
BRANCH  12  13
ATOM     13  C   UNL     1      53.580  -8.270  73.548  1.00  0.00     0.006 C 
BRANCH  13  14
ATOM     14  C   UNL     1      54.899  -8.363  72.770  1.00  0.00     0.053 C 
BRANCH  14  15
ATOM     15  C   UNL     1      55.786  -7.205  73.103  1.00  0.00     0.041 C 
ATOM     16  O   UNL     1      55.943  -6.267  72.278  1.00  0.00    -0.550 OA
ATOM     17  O   UNL     1      56.402  -7.134  74.348  1.00  0.00    -0.550 OA
ENDBRANCH  14  15
ENDBRANCH  13  14
ENDBRANCH  12  13
ENDBRANCH  11  12
ENDBRANCH  10  11
ENDBRANCH   9  10
ENDBRANCH   8   9
ENDBRANCH   7   8
ENDBRANCH   6   7
ENDBRANCH   5   6
ENDBRANCH   4   5
ENDBRANCH   3   4
ENDBRANCH   2   3
ENDBRANCH   1   2
BRANCH   1  18
ATOM     18  C   UNL     1      47.613  -6.319  78.386  1.00  0.00     0.000 C 
BRANCH  18  19
ATOM     19  C   UNL     1      48.952  -5.614  78.680  1.00  0.00     0.000 C 
BRANCH  19  20
ATOM     20  C   UNL     1      48.870  -4.078  78.756  1.00  0.00     0.000 C 
BRANCH  20  21
ATOM     21  C   UNL     1      49.601  -3.329  77.625  1.00  0.00     0.000 C 
BRANCH  21  22
ATOM     22  C   UNL     1      48.709  -2.331  76.854  1.00  0.00     0.000 C 
BRANCH  22  23
ATOM     23  C   UNL     1      47.266  -2.842  76.683  1.00  0.00     0.000 C 
BRANCH  23  24
ATOM     24  C   UNL     1      46.957  -3.286  75.246  1.00  0.00    -0.000 C 
BRANCH  24  25
ATOM     25  C   UNL     1      46.927  -4.818  75.094  1.00  0.00    -0.000 C 
BRANCH  25  26
ATOM     26  C   UNL     1      47.316  -5.271  73.677  1.00  0.00    -0.000 C 
BRANCH  26  27
ATOM     27  C   UNL     1      47.722  -4.090  72.779  1.00  0.00    -0.000 C 
BRANCH  27  28
ATOM     28  C   UNL     1      49.164  -4.214  72.262  1.00  0.00    -0.000 C 
BRANCH  28  29
ATOM     29  C   UNL     1      50.154  -3.355  73.069  1.00  0.00    -0.000 C 
BRANCH  29  30
ATOM     30  C   UNL     1      49.666  -1.909  73.253  1.00  0.00    -0.000 C 
BRANCH  30  31
ATOM     31  C   UNL     1      49.682  -1.111  71.941  1.00  0.00    -0.003 C 
ATOM     32  C   UNL     1      48.288  -0.591  71.599  1.00  0.00     0.004 C 
ENDBRANCH  30  31
ENDBRANCH  29  30
ENDBRANCH  28  29
ENDBRANCH  27  28
ENDBRANCH  26  27
ENDBRANCH  25  26
ENDBRANCH  24  25
ENDBRANCH  23  24
ENDBRANCH  22  23
ENDBRANCH  21  22
ENDBRANCH  20  21
ENDBRANCH  19  20
ENDBRANCH  18  19
ENDBRANCH   1  18
TORSDOF 28
ENDMDL
MODEL 3
REMARK VINA RESULT:    -4.478      3.307      7.041
REMARK INTER + INTRA:         -16.602
REMARK INTER:                 -11.615
REMARK INTRA:                  -4.987
REMARK UNBOUND:                -4.794
REMARK SMILES CCCCCCCCCCCCCCCCCCCCCCCCCCCCCC(=O)[O-]
REMARK SMILES IDX 16 1 17 2 18 3 19 4 20 5 21 6 22 7 23 8 24 9 25 10 26 11
REMARK SMILES IDX 27 12 28 13 29 14 30 15 31 16 32 17 15 18 14 19 13 20 12 21
REMARK SMILES IDX 11 22 10 23 9 24 8 25 7 26 6 27 5 28 4 29 3 30 2 31 1 32
REMARK H PARENT
REMARK Flexibility Score: inf
ROOT
ATOM      1  C   UNL     1      48.886  -8.562  76.806  1.00  0.00     0.000 C 
ENDROOT
BRANCH   1   2
ATOM      2  C   UNL     1      47.986  -8.649  78.057  1.00  0.00     0.000 C 
BRANCH   2   3
ATOM      3  C   UNL     1      47.402  -7.312  78.561  1.00  0.00     0.000 C 
BRANCH   3   4
ATOM      4  C   UNL     1      47.891  -6.066  77.799  1.00  0.00     0.000 C 
BRANCH   4   5
ATOM      5  C   UNL     1      48.371  -4.930  78.720  1.00  0.00     0.000 C 
BRANCH   5   6
ATOM      6  C   UNL     1      49.886  -4.687  78.623  1.00  0.00     0.000 C 
BRANCH   6   7
ATOM      7  C   UNL     1      50.557  -5.571  77.559  1.00  0.00     0.000 C 
BRANCH   7   8
ATOM      8  C   UNL     1      51.003  -4.777  76.311  1.00  0.00     0.000 C 
BRANCH   8   9
ATOM      9  C   UNL     1      49.870  -4.511  75.300  1.00  0.00     0.000 C 
BRANCH   9  10
ATOM     10  C   UNL     1      49.794  -3.061  74.794  1.00  0.00     0.000 C 
BRANCH  10  11
ATOM     11  C   UNL     1      48.556  -2.784  73.911  1.00  0.00     0.000 C 
BRANCH  11  12
ATOM     12  C   UNL     1      48.938  -2.438  72.462  1.00  0.00     0.000 C 
BRANCH  12  13
ATOM     13  C   UNL     1      50.442  -2.592  72.187  1.00  0.00     0.006 C 
BRANCH  13  14
ATOM     14  C   UNL     1      51.211  -1.271  72.322  1.00  0.00     0.053 C 
BRANCH  14  15
ATOM     15  C   UNL     1      52.684  -1.526  72.379  1.00  0.00     0.041 C 
ATOM     16  O   UNL     1      53.164  -2.286  73.261  1.00  0.00    -0.550 OA
ATOM     17  O   UNL     1      53.525  -0.964  71.424  1.00  0.00    -0.550 OA
ENDBRANCH  14  15
ENDBRANCH  13  14
ENDBRANCH  12  13
ENDBRANCH  11  12
ENDBRANCH  10  11
ENDBRANCH   9  10
ENDBRANCH   8   9
ENDBRANCH   7   8
ENDBRANCH   6   7
ENDBRANCH   5   6
ENDBRANCH   4   5
ENDBRANCH   3   4
ENDBRANCH   2   3
ENDBRANCH   1   2
BRANCH   1  18
ATOM     18  C   UNL     1      48.316  -9.198  75.523  1.00  0.00     0.000 C 
BRANCH  18  19
ATOM     19  C   UNL     1      46.924  -9.840  75.674  1.00  0.00     0.000 C 
BRANCH  19  20
ATOM     20  C   UNL     1      45.798  -9.130  74.900  1.00  0.00     0.000 C 
BRANCH  20  21
ATOM     21  C   UNL     1      45.311  -7.807  75.525  1.00  0.00     0.000 C 
BRANCH  21  22
ATOM     22  C   UNL     1      44.173  -7.123  74.736  1.00  0.00     0.000 C 
BRANCH  22  23
ATOM     23  C   UNL     1      44.531  -5.686  74.314  1.00  0.00     0.000 C 
BRANCH  23  24
ATOM     24  C   UNL     1      46.046  -5.452  74.220  1.00  0.00    -0.000 C 
BRANCH  24  25
ATOM     25  C   UNL     1      46.588  -5.656  72.793  1.00  0.00    -0.000 C 
BRANCH  25  26
ATOM     26  C   UNL     1      47.957  -6.357  72.784  1.00  0.00    -0.000 C 
BRANCH  26  27
ATOM     27  C   UNL     1      47.897  -7.742  72.118  1.00  0.00    -0.000 C 
BRANCH  27  28
ATOM     28  C   UNL     1      46.521  -8.038  71.500  1.00  0.00    -0.000 C 
BRANCH  28  29
ATOM     29  C   UNL     1      46.383  -9.503  71.050  1.00  0.00    -0.000 C 
BRANCH  29  30
ATOM     30  C   UNL     1      47.377 -10.435  71.761  1.00  0.00    -0.000 C 
BRANCH  30  31
ATOM     31  C   UNL     1      46.808 -11.844  71.984  1.00  0.00    -0.003 C 
ATOM     32  C   UNL     1      47.275 -12.802  70.891  1.00  0.00     0.004 C 
ENDBRANCH  30  31
ENDBRANCH  29  30
ENDBRANCH  28  29
ENDBRANCH  27  28
ENDBRANCH  26  27
ENDBRANCH  25  26
ENDBRANCH  24  25
ENDBRANCH  23  24
ENDBRANCH  22  23
ENDBRANCH  21  22
ENDBRANCH  20  21
ENDBRANCH  19  20
ENDBRANCH  18  19
ENDBRANCH   1  18
TORSDOF 28
ENDMDL
MODEL 4
REMARK VINA RESULT:    -4.466      2.315      4.882
REMARK INTER + INTRA:         -16.571
REMARK INTER:                 -10.432
REMARK INTRA:                  -6.139
REMARK UNBOUND:                -4.794
REMARK SMILES CCCCCCCCCCCCCCCCCCCCCCCCCCCCCC(=O)[O-]
REMARK SMILES IDX 16 1 17 2 18 3 19 4 20 5 21 6 22 7 23 8 24 9 25 10 26 11
REMARK SMILES IDX 27 12 28 13 29 14 30 15 31 16 32 17 15 18 14 19 13 20 12 21
REMARK SMILES IDX 11 22 10 23 9 24 8 25 7 26 6 27 5 28 4 29 3 30 2 31 1 32
REMARK H PARENT
REMARK Flexibility Score: inf
ROOT
ATOM      1  C   UNL     1      47.373  -7.400  76.455  1.00  0.00     0.000 C 
ENDROOT
BRANCH   1   2
ATOM      2  C   UNL     1      48.186  -8.464  75.686  1.00  0.00     0.000 C 
BRANCH   2   3
ATOM      3  C   UNL     1      49.056  -7.936  74.524  1.00  0.00     0.000 C 
BRANCH   3   4
ATOM      4  C   UNL     1      48.331  -7.838  73.169  1.00  0.00     0.000 C 
BRANCH   4   5
ATOM      5  C   UNL     1      48.008  -6.393  72.748  1.00  0.00     0.000 C 
BRANCH   5   6
ATOM      6  C   UNL     1      46.581  -5.967  73.128  1.00  0.00     0.000 C 
BRANCH   6   7
ATOM      7  C   UNL     1      46.554  -4.662  73.942  1.00  0.00     0.000 C 
BRANCH   7   8
ATOM      8  C   UNL     1      47.877  -4.397  74.696  1.00  0.00     0.000 C 
BRANCH   8   9
ATOM      9  C   UNL     1      47.842  -3.148  75.600  1.00  0.00     0.000 C 
BRANCH   9  10
ATOM     10  C   UNL     1      48.905  -2.089  75.263  1.00  0.00     0.000 C 
BRANCH  10  11
ATOM     11  C   UNL     1      49.620  -1.522  76.511  1.00  0.00     0.000 C 
BRANCH  11  12
ATOM     12  C   UNL     1      48.816  -1.755  77.801  1.00  0.00     0.000 C 
BRANCH  12  13
ATOM     13  C   UNL     1      49.686  -1.700  79.067  1.00  0.00     0.006 C 
BRANCH  13  14
ATOM     14  C   UNL     1      51.092  -2.274  78.848  1.00  0.00     0.053 C 
BRANCH  14  15
ATOM     15  C   UNL     1      51.935  -2.074  80.068  1.00  0.00     0.041 C 
ATOM     16  O   UNL     1      51.777  -1.054  80.789  1.00  0.00    -0.550 OA
ATOM     17  O   UNL     1      52.862  -3.042  80.440  1.00  0.00    -0.550 OA
ENDBRANCH  14  15
ENDBRANCH  13  14
ENDBRANCH  12  13
ENDBRANCH  11  12
ENDBRANCH  10  11
ENDBRANCH   9  10
ENDBRANCH   8   9
ENDBRANCH   7   8
ENDBRANCH   6   7
ENDBRANCH   5   6
ENDBRANCH   4   5
ENDBRANCH   3   4
ENDBRANCH   2   3
ENDBRANCH   1   2
BRANCH   1  18
ATOM     18  C   UNL     1      47.686  -7.274  77.959  1.00  0.00     0.000 C 
BRANCH  18  19
ATOM     19  C   UNL     1      47.907  -5.835  78.462  1.00  0.00     0.000 C 
BRANCH  19  20
ATOM     20  C   UNL     1      49.369  -5.353  78.418  1.00  0.00     0.000 C 
BRANCH  20  21
ATOM     21  C   UNL     1      50.419  -6.469  78.251  1.00  0.00     0.000 C 
BRANCH  21  22
ATOM     22  C   UNL     1      51.321  -6.301  77.009  1.00  0.00     0.000 C 
BRANCH  22  23
ATOM     23  C   UNL     1      51.070  -4.971  76.275  1.00  0.00     0.000 C 
BRANCH  23  24
ATOM     24  C   UNL     1      51.217  -5.094  74.751  1.00  0.00    -0.000 C 
BRANCH  24  25
ATOM     25  C   UNL     1      52.393  -4.265  74.202  1.00  0.00    -0.000 C 
BRANCH  25  26
ATOM     26  C   UNL     1      52.121  -3.736  72.784  1.00  0.00    -0.000 C 
BRANCH  26  27
ATOM     27  C   UNL     1      50.646  -3.898  72.375  1.00  0.00    -0.000 C 
BRANCH  27  28
ATOM     28  C   UNL     1      50.041  -2.595  71.829  1.00  0.00    -0.000 C 
BRANCH  28  29
ATOM     29  C   UNL     1      50.935  -1.372  72.102  1.00  0.00    -0.000 C 
BRANCH  29  30
ATOM     30  C   UNL     1      50.122  -0.096  72.369  1.00  0.00    -0.000 C 
BRANCH  30  31
ATOM     31  C   UNL     1      48.636  -0.260  72.018  1.00  0.00    -0.003 C 
ATOM     32  C   UNL     1      47.764   0.628  72.903  1.00  0.00     0.004 C 
ENDBRANCH  30  31
ENDBRANCH  29  30
ENDBRANCH  28  29
ENDBRANCH  27  28
ENDBRANCH  26  27
ENDBRANCH  25  26
ENDBRANCH  24  25
ENDBRANCH  23  24
ENDBRANCH  22  23
ENDBRANCH  21  22
ENDBRANCH  20  21
ENDBRANCH  19  20
ENDBRANCH  18  19
ENDBRANCH   1  18
TORSDOF 28
ENDMDL
MODEL 5
REMARK VINA RESULT:    -4.462      3.152      6.368
REMARK INTER + INTRA:         -16.560
REMARK INTER:                 -11.109
REMARK INTRA:                  -5.451
REMARK UNBOUND:                -4.794
REMARK SMILES CCCCCCCCCCCCCCCCCCCCCCCCCCCCCC(=O)[O-]
REMARK SMILES IDX 16 1 17 2 18 3 19 4 20 5 21 6 22 7 23 8 24 9 25 10 26 11
REMARK SMILES IDX 27 12 28 13 29 14 30 15 31 16 32 17 15 18 14 19 13 20 12 21
REMARK SMILES IDX 11 22 10 23 9 24 8 25 7 26 6 27 5 28 4 29 3 30 2 31 1 32
REMARK H PARENT
REMARK Flexibility Score: inf
ROOT
ATOM      1  C   UNL     1      49.748  -2.716  76.538  1.00  0.00     0.000 C 
ENDROOT
BRANCH   1   2
ATOM      2  C   UNL     1      50.114  -2.699  78.038  1.00  0.00     0.000 C 
BRANCH   2   3
ATOM      3  C   UNL     1      49.804  -3.993  78.822  1.00  0.00     0.000 C 
BRANCH   3   4
ATOM      4  C   UNL     1      50.486  -5.260  78.271  1.00  0.00     0.000 C 
BRANCH   4   5
ATOM      5  C   UNL     1      49.513  -6.429  78.035  1.00  0.00     0.000 C 
BRANCH   5   6
ATOM      6  C   UNL     1      48.060  -6.073  78.386  1.00  0.00     0.000 C 
BRANCH   6   7
ATOM      7  C   UNL     1      47.114  -7.279  78.262  1.00  0.00     0.000 C 
BRANCH   7   8
ATOM      8  C   UNL     1      47.853  -8.634  78.342  1.00  0.00     0.000 C 
BRANCH   8   9
ATOM      9  C   UNL     1      47.446  -9.635  77.243  1.00  0.00     0.000 C 
BRANCH   9  10
ATOM     10  C   UNL     1      46.945  -8.985  75.943  1.00  0.00     0.000 C 
BRANCH  10  11
ATOM     11  C   UNL     1      47.725  -9.443  74.689  1.00  0.00     0.000 C 
BRANCH  11  12
ATOM     12  C   UNL     1      48.393  -8.268  73.956  1.00  0.00     0.000 C 
BRANCH  12  13
ATOM     13  C   UNL     1      48.241  -8.351  72.429  1.00  0.00     0.006 C 
BRANCH  13  14
ATOM     14  C   UNL     1      46.835  -7.967  71.949  1.00  0.00     0.053 C 
BRANCH  14  15
ATOM     15  C   UNL     1      46.340  -8.951  70.937  1.00  0.00     0.041 C 
ATOM     16  O   UNL     1      46.527 -10.185  71.107  1.00  0.00    -0.550 OA
ATOM     17  O   UNL     1      45.623  -8.511  69.830  1.00  0.00    -0.550 OA
ENDBRANCH  14  15
ENDBRANCH  13  14
ENDBRANCH  12  13
ENDBRANCH  11  12
ENDBRANCH  10  11
ENDBRANCH   9  10
ENDBRANCH   8   9
ENDBRANCH   7   8
ENDBRANCH   6   7
ENDBRANCH   5   6
ENDBRANCH   4   5
ENDBRANCH   3   4
ENDBRANCH   2   3
ENDBRANCH   1   2
BRANCH   1  18
ATOM     18  C   UNL     1      49.433  -1.346  75.909  1.00  0.00     0.000 C 
BRANCH  18  19
ATOM     19  C   UNL     1      48.093  -1.267  75.151  1.00  0.00     0.000 C 
BRANCH  19  20
ATOM     20  C   UNL     1      48.217  -0.934  73.653  1.00  0.00     0.000 C 
BRANCH  20  21
ATOM     21  C   UNL     1      48.965   0.376  73.335  1.00  0.00     0.000 C 
BRANCH  21  22
ATOM     22  C   UNL     1      50.171   0.196  72.388  1.00  0.00     0.000 C 
BRANCH  22  23
ATOM     23  C   UNL     1      50.427  -1.280  72.034  1.00  0.00     0.000 C 
BRANCH  23  24
ATOM     24  C   UNL     1      51.816  -1.767  72.474  1.00  0.00    -0.000 C 
BRANCH  24  25
ATOM     25  C   UNL     1      51.934  -3.302  72.466  1.00  0.00    -0.000 C 
BRANCH  25  26
ATOM     26  C   UNL     1      51.593  -3.920  73.832  1.00  0.00    -0.000 C 
BRANCH  26  27
ATOM     27  C   UNL     1      50.417  -4.908  73.747  1.00  0.00    -0.000 C 
BRANCH  27  28
ATOM     28  C   UNL     1      49.482  -4.608  72.564  1.00  0.00    -0.000 C 
BRANCH  28  29
ATOM     29  C   UNL     1      48.000  -4.578  72.980  1.00  0.00    -0.000 C 
BRANCH  29  30
ATOM     30  C   UNL     1      47.798  -4.908  74.466  1.00  0.00    -0.000 C 
BRANCH  30  31
ATOM     31  C   UNL     1      46.375  -4.594  74.952  1.00  0.00    -0.003 C 
ATOM     32  C   UNL     1      45.401  -5.695  74.539  1.00  0.00     0.004 C 
ENDBRANCH  30  31
ENDBRANCH  29  30
ENDBRANCH  28  29
ENDBRANCH  27  28
ENDBRANCH  26  27
ENDBRANCH  25  26
ENDBRANCH  24  25
ENDBRANCH  23  24
ENDBRANCH  22  23
ENDBRANCH  21  22
ENDBRANCH  20  21
ENDBRANCH  19  20
ENDBRANCH  18  19
ENDBRANCH   1  18
TORSDOF 28
ENDMDL
MODEL 6
REMARK VINA RESULT:    -4.431      2.992      7.610
REMARK INTER + INTRA:         -16.479
REMARK INTER:                 -10.587
REMARK INTRA:                  -5.892
REMARK UNBOUND:                -4.794
REMARK SMILES CCCCCCCCCCCCCCCCCCCCCCCCCCCCCC(=O)[O-]
REMARK SMILES IDX 16 1 17 2 18 3 19 4 20 5 21 6 22 7 23 8 24 9 25 10 26 11
REMARK SMILES IDX 27 12 28 13 29 14 30 15 31 16 32 17 15 18 14 19 13 20 12 21
REMARK SMILES IDX 11 22 10 23 9 24 8 25 7 26 6 27 5 28 4 29 3 30 2 31 1 32
REMARK H PARENT
REMARK Flexibility Score: inf
ROOT
ATOM      1  C   UNL     1      48.365   0.528  74.900  1.00  0.00     0.000 C 
ENDROOT
BRANCH   1   2
ATOM      2  C   UNL     1      48.710   0.769  73.415  1.00  0.00     0.000 C 
BRANCH   2   3
ATOM      3  C   UNL     1      48.202  -0.301  72.423  1.00  0.00     0.000 C 
BRANCH   3   4
ATOM      4  C   UNL     1      49.307  -1.007  71.615  1.00  0.00     0.000 C 
BRANCH   4   5
ATOM      5  C   UNL     1      50.576  -1.301  72.435  1.00  0.00     0.000 C 
BRANCH   5   6
ATOM      6  C   UNL     1      50.696  -2.780  72.835  1.00  0.00     0.000 C 
BRANCH   6   7
ATOM      7  C   UNL     1      50.059  -3.722  71.800  1.00  0.00     0.000 C 
BRANCH   7   8
ATOM      8  C   UNL     1      49.091  -4.747  72.433  1.00  0.00     0.000 C 
BRANCH   8   9
ATOM      9  C   UNL     1      47.773  -4.131  72.943  1.00  0.00     0.000 C 
BRANCH   9  10
ATOM     10  C   UNL     1      47.562  -4.244  74.462  1.00  0.00     0.000 C 
BRANCH  10  11
ATOM     11  C   UNL     1      46.567  -5.358  74.861  1.00  0.00     0.000 C 
BRANCH  11  12
ATOM     12  C   UNL     1      45.428  -5.515  73.840  1.00  0.00     0.000 C 
BRANCH  12  13
ATOM     13  C   UNL     1      45.235  -6.968  73.378  1.00  0.00     0.006 C 
BRANCH  13  14
ATOM     14  C   UNL     1      46.395  -7.476  72.512  1.00  0.00     0.053 C 
BRANCH  14  15
ATOM     15  C   UNL     1      46.094  -8.842  71.981  1.00  0.00     0.041 C 
ATOM     16  O   UNL     1      45.718  -8.991  70.789  1.00  0.00    -0.550 OA
ATOM     17  O   UNL     1      46.279  -9.959  72.788  1.00  0.00    -0.550 OA
ENDBRANCH  14  15
ENDBRANCH  13  14
ENDBRANCH  12  13
ENDBRANCH  11  12
ENDBRANCH  10  11
ENDBRANCH   9  10
ENDBRANCH   8   9
ENDBRANCH   7   8
ENDBRANCH   6   7
ENDBRANCH   5   6
ENDBRANCH   4   5
ENDBRANCH   3   4
ENDBRANCH   2   3
ENDBRANCH   1   2
BRANCH   1  18
ATOM     18  C   UNL     1      48.394  -0.940  75.367  1.00  0.00     0.000 C 
BRANCH  18  19
ATOM     19  C   UNL     1      49.216  -1.205  76.643  1.00  0.00     0.000 C 
BRANCH  19  20
ATOM     20  C   UNL     1      50.113  -2.455  76.586  1.00  0.00     0.000 C 
BRANCH  20  21
ATOM     21  C   UNL     1      50.439  -3.086  77.954  1.00  0.00     0.000 C 
BRANCH  21  22
ATOM     22  C   UNL     1      49.198  -3.575  78.732  1.00  0.00     0.000 C 
BRANCH  22  23
ATOM     23  C   UNL     1      48.429  -4.678  77.981  1.00  0.00     0.000 C 
BRANCH  23  24
ATOM     24  C   UNL     1      48.438  -6.022  78.723  1.00  0.00    -0.000 C 
BRANCH  24  25
ATOM     25  C   UNL     1      47.485  -7.053  78.091  1.00  0.00    -0.000 C 
BRANCH  25  26
ATOM     26  C   UNL     1      48.191  -8.379  77.767  1.00  0.00    -0.000 C 
BRANCH  26  27
ATOM     27  C   UNL     1      47.718  -8.980  76.432  1.00  0.00    -0.000 C 
BRANCH  27  28
ATOM     28  C   UNL     1      48.442  -8.367  75.222  1.00  0.00    -0.000 C 
BRANCH  28  29
ATOM     29  C   UNL     1      49.973  -8.379  75.386  1.00  0.00    -0.000 C 
BRANCH  29  30
ATOM     30  C   UNL     1      50.655  -7.226  74.635  1.00  0.00    -0.000 C 
BRANCH  30  31
ATOM     31  C   UNL     1      50.863  -5.988  75.520  1.00  0.00    -0.003 C 
ATOM     32  C   UNL     1      51.655  -6.339  76.776  1.00  0.00     0.004 C 
ENDBRANCH  30  31
ENDBRANCH  29  30
ENDBRANCH  28  29
ENDBRANCH  27  28
ENDBRANCH  26  27
ENDBRANCH  25  26
ENDBRANCH  24  25
ENDBRANCH  23  24
ENDBRANCH  22  23
ENDBRANCH  21  22
ENDBRANCH  20  21
ENDBRANCH  19  20
ENDBRANCH  18  19
ENDBRANCH   1  18
TORSDOF 28
ENDMDL
MODEL 7
REMARK VINA RESULT:    -4.401      2.739      6.977
REMARK INTER + INTRA:         -16.397
REMARK INTER:                 -10.125
REMARK INTRA:                  -6.273
REMARK UNBOUND:                -4.794
REMARK SMILES CCCCCCCCCCCCCCCCCCCCCCCCCCCCCC(=O)[O-]
REMARK SMILES IDX 16 1 17 2 18 3 19 4 20 5 21 6 22 7 23 8 24 9 25 10 26 11
REMARK SMILES IDX 27 12 28 13 29 14 30 15 31 16 32 17 15 18 14 19 13 20 12 21
REMARK SMILES IDX 11 22 10 23 9 24 8 25 7 26 6 27 5 28 4 29 3 30 2 31 1 32
REMARK H PARENT
REMARK Flexibility Score: inf
ROOT
ATOM      1  C   UNL     1      47.959  -5.354  78.489  1.00  0.00     0.000 C 
ENDROOT
BRANCH   1   2
ATOM      2  C   UNL     1      48.813  -4.613  77.437  1.00  0.00     0.000 C 
BRANCH   2   3
ATOM      3  C   UNL     1      50.005  -3.801  77.988  1.00  0.00     0.000 C 
BRANCH   3   4
ATOM      4  C   UNL     1      49.934  -3.495  79.496  1.00  0.00     0.000 C 
BRANCH   4   5
ATOM      5  C   UNL     1      50.001  -1.992  79.823  1.00  0.00     0.000 C 
BRANCH   5   6
ATOM      6  C   UNL     1      48.615  -1.378  80.080  1.00  0.00     0.000 C 
BRANCH   6   7
ATOM      7  C   UNL     1      47.620  -2.396  80.660  1.00  0.00     0.000 C 
BRANCH   7   8
ATOM      8  C   UNL     1      46.332  -2.526  79.816  1.00  0.00     0.000 C 
BRANCH   8   9
ATOM      9  C   UNL     1      46.231  -1.503  78.666  1.00  0.00     0.000 C 
BRANCH   9  10
ATOM     10  C   UNL     1      46.010  -2.125  77.278  1.00  0.00     0.000 C 
BRANCH  10  11
ATOM     11  C   UNL     1      46.688  -1.333  76.136  1.00  0.00     0.000 C 
BRANCH  11  12
ATOM     12  C   UNL     1      48.171  -1.046  76.426  1.00  0.00     0.000 C 
BRANCH  12  13
ATOM     13  C   UNL     1      49.090  -1.398  75.246  1.00  0.00     0.006 C 
BRANCH  13  14
ATOM     14  C   UNL     1      48.440  -1.123  73.883  1.00  0.00     0.053 C 
BRANCH  14  15
ATOM     15  C   UNL     1      49.325  -0.254  73.046  1.00  0.00     0.041 C 
ATOM     16  O   UNL     1      50.293  -0.755  72.415  1.00  0.00    -0.550 OA
ATOM     17  O   UNL     1      49.051   1.103  72.920  1.00  0.00    -0.550 OA
ENDBRANCH  14  15
ENDBRANCH  13  14
ENDBRANCH  12  13
ENDBRANCH  11  12
ENDBRANCH  10  11
ENDBRANCH   9  10
ENDBRANCH   8   9
ENDBRANCH   7   8
ENDBRANCH   6   7
ENDBRANCH   5   6
ENDBRANCH   4   5
ENDBRANCH   3   4
ENDBRANCH   2   3
ENDBRANCH   1   2
BRANCH   1  18
ATOM     18  C   UNL     1      47.829  -6.877  78.295  1.00  0.00     0.000 C 
BRANCH  18  19
ATOM     19  C   UNL     1      49.154  -7.619  78.035  1.00  0.00     0.000 C 
BRANCH  19  20
ATOM     20  C   UNL     1      49.148  -8.537  76.798  1.00  0.00     0.000 C 
BRANCH  20  21
ATOM     21  C   UNL     1      49.927  -7.998  75.582  1.00  0.00     0.000 C 
BRANCH  21  22
ATOM     22  C   UNL     1      49.028  -7.531  74.417  1.00  0.00     0.000 C 
BRANCH  22  23
ATOM     23  C   UNL     1      49.214  -6.038  74.091  1.00  0.00     0.000 C 
BRANCH  23  24
ATOM     24  C   UNL     1      48.646  -5.653  72.717  1.00  0.00    -0.000 C 
BRANCH  24  25
ATOM     25  C   UNL     1      47.374  -4.791  72.824  1.00  0.00    -0.000 C 
BRANCH  25  26
ATOM     26  C   UNL     1      46.994  -4.491  74.284  1.00  0.00    -0.000 C 
BRANCH  26  27
ATOM     27  C   UNL     1      45.685  -5.185  74.698  1.00  0.00    -0.000 C 
BRANCH  27  28
ATOM     28  C   UNL     1      45.170  -6.158  73.625  1.00  0.00    -0.000 C 
BRANCH  28  29
ATOM     29  C   UNL     1      45.215  -7.624  74.093  1.00  0.00    -0.000 C 
BRANCH  29  30
ATOM     30  C   UNL     1      45.018  -7.765  75.610  1.00  0.00    -0.000 C 
BRANCH  30  31
ATOM     31  C   UNL     1      45.623  -9.063  76.165  1.00  0.00    -0.003 C 
ATOM     32  C   UNL     1      46.134  -9.955  75.036  1.00  0.00     0.004 C 
ENDBRANCH  30  31
ENDBRANCH  29  30
ENDBRANCH  28  29
ENDBRANCH  27  28
ENDBRANCH  26  27
ENDBRANCH  25  26
ENDBRANCH  24  25
ENDBRANCH  23  24
ENDBRANCH  22  23
ENDBRANCH  21  22
ENDBRANCH  20  21
ENDBRANCH  19  20
ENDBRANCH  18  19
ENDBRANCH   1  18
TORSDOF 28
ENDMDL
MODEL 8
REMARK VINA RESULT:    -4.400      3.115      5.972
REMARK INTER + INTRA:         -16.395
REMARK INTER:                 -10.997
REMARK INTRA:                  -5.398
REMARK UNBOUND:                -4.794
REMARK SMILES CCCCCCCCCCCCCCCCCCCCCCCCCCCCCC(=O)[O-]
REMARK SMILES IDX 16 1 17 2 18 3 19 4 20 5 21 6 22 7 23 8 24 9 25 10 26 11
REMARK SMILES IDX 27 12 28 13 29 14 30 15 31 16 32 17 15 18 14 19 13 20 12 21
REMARK SMILES IDX 11 22 10 23 9 24 8 25 7 26 6 27 5 28 4 29 3 30 2 31 1 32
REMARK H PARENT
REMARK Flexibility Score: inf
ROOT
ATOM      1  C   UNL     1      48.197  -4.272  79.026  1.00  0.00     0.000 C 
ENDROOT
BRANCH   1   2
ATOM      2  C   UNL     1      47.850  -5.466  78.111  1.00  0.00     0.000 C 
BRANCH   2   3
ATOM      3  C   UNL     1      48.883  -6.614  78.079  1.00  0.00     0.000 C 
BRANCH   3   4
ATOM      4  C   UNL     1      48.292  -8.005  77.786  1.00  0.00     0.000 C 
BRANCH   4   5
ATOM      5  C   UNL     1      46.900  -7.957  77.131  1.00  0.00     0.000 C 
BRANCH   5   6
ATOM      6  C   UNL     1      46.864  -8.645  75.757  1.00  0.00     0.000 C 
BRANCH   6   7
ATOM      7  C   UNL     1      45.446  -8.705  75.166  1.00  0.00     0.000 C 
BRANCH   7   8
ATOM      8  C   UNL     1      44.645  -7.402  75.391  1.00  0.00     0.000 C 
BRANCH   8   9
ATOM      9  C   UNL     1      44.809  -6.364  74.263  1.00  0.00     0.000 C 
BRANCH   9  10
ATOM     10  C   UNL     1      45.826  -5.250  74.566  1.00  0.00     0.000 C 
BRANCH  10  11
ATOM     11  C   UNL     1      47.118  -5.355  73.723  1.00  0.00     0.000 C 
BRANCH  11  12
ATOM     12  C   UNL     1      46.875  -6.032  72.364  1.00  0.00     0.000 C 
BRANCH  12  13
ATOM     13  C   UNL     1      47.580  -7.392  72.239  1.00  0.00     0.006 C 
BRANCH  13  14
ATOM     14  C   UNL     1      46.647  -8.500  71.733  1.00  0.00     0.053 C 
BRANCH  14  15
ATOM     15  C   UNL     1      47.257  -9.846  71.970  1.00  0.00     0.041 C 
ATOM     16  O   UNL     1      48.504 -10.003  71.885  1.00  0.00    -0.550 OA
ATOM     17  O   UNL     1      46.453 -10.920  72.337  1.00  0.00    -0.550 OA
ENDBRANCH  14  15
ENDBRANCH  13  14
ENDBRANCH  12  13
ENDBRANCH  11  12
ENDBRANCH  10  11
ENDBRANCH   9  10
ENDBRANCH   8   9
ENDBRANCH   7   8
ENDBRANCH   6   7
ENDBRANCH   5   6
ENDBRANCH   4   5
ENDBRANCH   3   4
ENDBRANCH   2   3
ENDBRANCH   1   2
BRANCH   1  18
ATOM     18  C   UNL     1      46.999  -3.460  79.553  1.00  0.00     0.000 C 
BRANCH  18  19
ATOM     19  C   UNL     1      46.903  -2.016  79.023  1.00  0.00     0.000 C 
BRANCH  19  20
ATOM     20  C   UNL     1      45.747  -1.766  78.037  1.00  0.00     0.000 C 
BRANCH  20  21
ATOM     21  C   UNL     1      46.163  -1.669  76.555  1.00  0.00     0.000 C 
BRANCH  21  22
ATOM     22  C   UNL     1      47.676  -1.446  76.342  1.00  0.00     0.000 C 
BRANCH  22  23
ATOM     23  C   UNL     1      48.351  -2.629  75.624  1.00  0.00     0.000 C 
BRANCH  23  24
ATOM     24  C   UNL     1      49.848  -2.745  75.944  1.00  0.00    -0.000 C 
BRANCH  24  25
ATOM     25  C   UNL     1      50.496  -3.984  75.298  1.00  0.00    -0.000 C 
BRANCH  25  26
ATOM     26  C   UNL     1      51.418  -3.616  74.124  1.00  0.00    -0.000 C 
BRANCH  26  27
ATOM     27  C   UNL     1      50.923  -4.202  72.790  1.00  0.00    -0.000 C 
BRANCH  27  28
ATOM     28  C   UNL     1      49.777  -3.382  72.177  1.00  0.00    -0.000 C 
BRANCH  28  29
ATOM     29  C   UNL     1      50.108  -1.881  72.093  1.00  0.00    -0.000 C 
BRANCH  29  30
ATOM     30  C   UNL     1      48.849  -1.001  72.056  1.00  0.00    -0.000 C 
BRANCH  30  31
ATOM     31  C   UNL     1      48.846   0.071  73.156  1.00  0.00    -0.003 C 
ATOM     32  C   UNL     1      47.917   1.225  72.793  1.00  0.00     0.004 C 
ENDBRANCH  30  31
ENDBRANCH  29  30
ENDBRANCH  28  29
ENDBRANCH  27  28
ENDBRANCH  26  27
ENDBRANCH  25  26
ENDBRANCH  24  25
ENDBRANCH  23  24
ENDBRANCH  22  23
ENDBRANCH  21  22
ENDBRANCH  20  21
ENDBRANCH  19  20
ENDBRANCH  18  19
ENDBRANCH   1  18
TORSDOF 28
ENDMDL
MODEL 9
REMARK VINA RESULT:    -4.354      2.226      5.271
REMARK INTER + INTRA:         -16.274
REMARK INTER:                 -10.056
REMARK INTRA:                  -6.218
REMARK UNBOUND:                -4.794
REMARK SMILES CCCCCCCCCCCCCCCCCCCCCCCCCCCCCC(=O)[O-]
REMARK SMILES IDX 16 1 17 2 18 3 19 4 20 5 21 6 22 7 23 8 24 9 25 10 26 11
REMARK SMILES IDX 27 12 28 13 29 14 30 15 31 16 32 17 15 18 14 19 13 20 12 21
REMARK SMILES IDX 11 22 10 23 9 24 8 25 7 26 6 27 5 28 4 29 3 30 2 31 1 32
REMARK H PARENT
REMARK Flexibility Score: inf
ROOT
ATOM      1  C   UNL     1      48.213  -7.741  78.315  1.00  0.00     0.000 C 
ENDROOT
BRANCH   1   2
ATOM      2  C   UNL     1      48.524  -8.479  76.994  1.00  0.00     0.000 C 
BRANCH   2   3
ATOM      3  C   UNL     1      48.221  -7.696  75.698  1.00  0.00     0.000 C 
BRANCH   3   4
ATOM      4  C   UNL     1      48.414  -8.500  74.399  1.00  0.00     0.000 C 
BRANCH   4   5
ATOM      5  C   UNL     1      47.333  -8.226  73.339  1.00  0.00     0.000 C 
BRANCH   5   6
ATOM      6  C   UNL     1      47.736  -7.120  72.350  1.00  0.00     0.000 C 
BRANCH   6   7
ATOM      7  C   UNL     1      46.826  -5.884  72.448  1.00  0.00     0.000 C 
BRANCH   7   8
ATOM      8  C   UNL     1      45.696  -6.051  73.490  1.00  0.00     0.000 C 
BRANCH   8   9
ATOM      9  C   UNL     1      45.725  -5.000  74.617  1.00  0.00     0.000 C 
BRANCH   9  10
ATOM     10  C   UNL     1      47.120  -4.427  74.919  1.00  0.00     0.000 C 
BRANCH  10  11
ATOM     11  C   UNL     1      47.089  -3.205  75.866  1.00  0.00     0.000 C 
BRANCH  11  12
ATOM     12  C   UNL     1      48.429  -2.452  75.892  1.00  0.00     0.000 C 
BRANCH  12  13
ATOM     13  C   UNL     1      48.408  -1.223  76.813  1.00  0.00     0.006 C 
BRANCH  13  14
ATOM     14  C   UNL     1      48.573  -1.587  78.295  1.00  0.00     0.053 C 
BRANCH  14  15
ATOM     15  C   UNL     1      49.908  -1.137  78.799  1.00  0.00     0.041 C 
ATOM     16  O   UNL     1      50.962  -1.485  78.205  1.00  0.00    -0.550 OA
ATOM     17  O   UNL     1      49.987  -0.289  79.898  1.00  0.00    -0.550 OA
ENDBRANCH  14  15
ENDBRANCH  13  14
ENDBRANCH  12  13
ENDBRANCH  11  12
ENDBRANCH  10  11
ENDBRANCH   9  10
ENDBRANCH   8   9
ENDBRANCH   7   8
ENDBRANCH   6   7
ENDBRANCH   5   6
ENDBRANCH   4   5
ENDBRANCH   3   4
ENDBRANCH   2   3
ENDBRANCH   1   2
BRANCH   1  18
ATOM     18  C   UNL     1      47.723  -6.287  78.172  1.00  0.00     0.000 C 
BRANCH  18  19
ATOM     19  C   UNL     1      48.713  -5.212  78.661  1.00  0.00     0.000 C 
BRANCH  19  20
ATOM     20  C   UNL     1      50.010  -5.106  77.837  1.00  0.00     0.000 C 
BRANCH  20  21
ATOM     21  C   UNL     1      51.302  -4.975  78.668  1.00  0.00     0.000 C 
BRANCH  21  22
ATOM     22  C   UNL     1      52.370  -6.040  78.338  1.00  0.00     0.000 C 
BRANCH  22  23
ATOM     23  C   UNL     1      51.775  -7.274  77.636  1.00  0.00     0.000 C 
BRANCH  23  24
ATOM     24  C   UNL     1      52.452  -7.580  76.292  1.00  0.00    -0.000 C 
BRANCH  24  25
ATOM     25  C   UNL     1      51.764  -6.874  75.109  1.00  0.00    -0.000 C 
BRANCH  25  26
ATOM     26  C   UNL     1      52.674  -5.828  74.445  1.00  0.00    -0.000 C 
BRANCH  26  27
ATOM     27  C   UNL     1      51.897  -4.574  74.009  1.00  0.00    -0.000 C 
BRANCH  27  28
ATOM     28  C   UNL     1      50.452  -4.893  73.593  1.00  0.00    -0.000 C 
BRANCH  28  29
ATOM     29  C   UNL     1      50.045  -4.177  72.292  1.00  0.00    -0.000 C 
BRANCH  29  30
ATOM     30  C   UNL     1      49.927  -2.656  72.468  1.00  0.00    -0.000 C 
BRANCH  30  31
ATOM     31  C   UNL     1      48.485  -2.153  72.306  1.00  0.00    -0.003 C 
ATOM     32  C   UNL     1      48.460  -0.728  71.761  1.00  0.00     0.004 C 
ENDBRANCH  30  31
ENDBRANCH  29  30
ENDBRANCH  28  29
ENDBRANCH  27  28
ENDBRANCH  26  27
ENDBRANCH  25  26
ENDBRANCH  24  25
ENDBRANCH  23  24
ENDBRANCH  22  23
ENDBRANCH  21  22
ENDBRANCH  20  21
ENDBRANCH  19  20
ENDBRANCH  18  19
ENDBRANCH   1  18
TORSDOF 28
ENDMDL
