MODEL 1
REMARK VINA RESULT:    -5.052      0.000      0.000
REMARK INTER + INTRA:         -15.579
REMARK INTER:                 -11.549
REMARK INTRA:                  -4.030
REMARK UNBOUND:                -4.030
REMARK SMILES CCCCCCCCCCCCCCCCCCCCCCCC(=O)[O-]
REMARK SMILES IDX 13 1 14 2 15 3 16 4 17 5 18 6 19 7 20 8 21 9 22 10 23 11
REMARK SMILES IDX 24 12 25 13 26 14 12 15 11 16 10 17 9 18 8 19 7 20 6 21 5 22
REMARK SMILES IDX 4 23 3 24 2 25 1 26
REMARK H PARENT
REMARK Flexibility Score: inf
ROOT
ATOM      1  C   UNL     1     -12.656  -8.110   8.004  1.00  0.00     0.000 C 
ENDROOT
BRANCH   1   2
ATOM      2  C   UNL     1     -13.668  -7.043   7.560  1.00  0.00     0.000 C 
BRANCH   2   3
ATOM      3  C   UNL     1     -15.126  -7.478   7.773  1.00  0.00     0.000 C 
BRANCH   3   4
ATOM      4  C   UNL     1     -15.912  -6.497   8.661  1.00  0.00     0.000 C 
BRANCH   4   5
ATOM      5  C   UNL     1     -15.288  -6.333  10.056  1.00  0.00     0.000 C 
BRANCH   5   6
ATOM      6  C   UNL     1     -15.015  -4.863  10.413  1.00  0.00     0.000 C 
BRANCH   6   7
ATOM      7  C   UNL     1     -13.617  -4.434   9.953  1.00  0.00     0.000 C 
BRANCH   7   8
ATOM      8  C   UNL     1     -13.706  -3.367   8.854  1.00  0.00     0.000 C 
BRANCH   8   9
ATOM      9  C   UNL     1     -15.140  -2.837   8.713  1.00  0.00     0.000 C 
BRANCH   9  10
ATOM     10  C   UNL     1     -15.617  -2.773   7.251  1.00  0.00     0.006 C 
BRANCH  10  11
ATOM     11  C   UNL     1     -14.898  -3.761   6.315  1.00  0.00     0.053 C 
BRANCH  11  12
ATOM     12  C   UNL     1     -14.310  -3.086   5.113  1.00  0.00     0.041 C 
ATOM     13  O   UNL     1     -14.173  -3.721   4.034  1.00  0.00    -0.550 OA
ATOM     14  O   UNL     1     -13.878  -1.768   5.193  1.00  0.00    -0.550 OA
ENDBRANCH  11  12
ENDBRANCH  10  11
ENDBRANCH   9  10
ENDBRANCH   8   9
ENDBRANCH   7   8
ENDBRANCH   6   7
ENDBRANCH   5   6
ENDBRANCH   4   5
ENDBRANCH   3   4
ENDBRANCH   2   3
ENDBRANCH   1   2
BRANCH   1  15
ATOM     15  C   UNL     1     -11.898  -7.657   9.258  1.00  0.00     0.000 C 
BRANCH  15  16
ATOM     16  C   UNL     1     -12.342  -8.461  10.490  1.00  0.00     0.000 C 
BRANCH  16  17
ATOM     17  C   UNL     1     -13.360  -9.565  10.152  1.00  0.00     0.000 C 
BRANCH  17  18
ATOM     18  C   UNL     1     -13.478 -10.687  11.200  1.00  0.00    -0.000 C 
BRANCH  18  19
ATOM     19  C   UNL     1     -12.503 -11.846  10.952  1.00  0.00    -0.000 C 
BRANCH  19  20
ATOM     20  C   UNL     1     -12.242 -12.034   9.453  1.00  0.00    -0.000 C 
BRANCH  20  21
ATOM     21  C   UNL     1     -10.739 -12.040   9.149  1.00  0.00    -0.000 C 
BRANCH  21  22
ATOM     22  C   UNL     1      -9.969 -11.177  10.159  1.00  0.00    -0.000 C 
BRANCH  22  23
ATOM     23  C   UNL     1      -9.130 -10.077   9.474  1.00  0.00    -0.000 C 
BRANCH  23  24
ATOM     24  C   UNL     1      -8.906 -10.313   7.967  1.00  0.00    -0.000 C 
BRANCH  24  25
ATOM     25  C   UNL     1      -7.983  -9.290   7.284  1.00  0.00    -0.003 C 
ATOM     26  C   UNL     1      -8.596  -7.891   7.211  1.00  0.00     0.004 C 
ENDBRANCH  24  25
ENDBRANCH  23  24
ENDBRANCH  22  23
ENDBRANCH  21  22
ENDBRANCH  20  21
ENDBRANCH  19  20
ENDBRANCH  18  19
ENDBRANCH  17  18
ENDBRANCH  16  17
ENDBRANCH  15  16
ENDBRANCH   1  15
TORSDOF 22
ENDMDL
MODEL 2
REMARK VINA RESULT:    -5.038      3.236      5.507
REMARK INTER + INTRA:         -15.547
REMARK INTER:                 -12.905
REMARK INTRA:                  -2.642
REMARK UNBOUND:                -4.030
REMARK SMILES CCCCCCCCCCCCCCCCCCCCCCCC(=O)[O-]
REMARK SMILES IDX 13 1 14 2 15 3 16 4 17 5 18 6 19 7 20 8 21 9 22 10 23 11
REMARK SMILES IDX 24 12 25 13 26 14 12 15 11 16 10 17 9 18 8 19 7 20 6 21 5 22
REMARK SMILES IDX 4 23 3 24 2 25 1 26
REMARK H PARENT
REMARK Flexibility Score: inf
ROOT
ATOM      1  C   UNL     1     -15.671  -9.470  10.421  1.00  0.00     0.000 C 
ENDROOT
BRANCH   1   2
ATOM      2  C   UNL     1     -15.894  -7.978  10.129  1.00  0.00     0.000 C 
BRANCH   2   3
ATOM      3  C   UNL     1     -16.027  -7.677   8.629  1.00  0.00     0.000 C 
BRANCH   3   4
ATOM      4  C   UNL     1     -15.272  -6.402   8.213  1.00  0.00     0.000 C 
BRANCH   4   5
ATOM      5  C   UNL     1     -15.175  -5.375   9.353  1.00  0.00     0.000 C 
BRANCH   5   6
ATOM      6  C   UNL     1     -13.731  -5.156   9.831  1.00  0.00     0.000 C 
BRANCH   6   7
ATOM      7  C   UNL     1     -12.767  -6.124   9.135  1.00  0.00     0.000 C 
BRANCH   7   8
ATOM      8  C   UNL     1     -12.284  -7.208  10.107  1.00  0.00     0.000 C 
BRANCH   8   9
ATOM      9  C   UNL     1     -10.780  -7.469   9.941  1.00  0.00     0.000 C 
BRANCH   9  10
ATOM     10  C   UNL     1     -10.460  -8.433   8.784  1.00  0.00     0.006 C 
BRANCH  10  11
ATOM     11  C   UNL     1      -9.092  -9.125   8.908  1.00  0.00     0.053 C 
BRANCH  11  12
ATOM     12  C   UNL     1      -8.367  -9.199   7.598  1.00  0.00     0.041 C 
ATOM     13  O   UNL     1      -8.287  -8.182   6.860  1.00  0.00    -0.550 OA
ATOM     14  O   UNL     1      -7.810 -10.400   7.175  1.00  0.00    -0.550 OA
ENDBRANCH  11  12
ENDBRANCH  10  11
ENDBRANCH   9  10
ENDBRANCH   8   9
ENDBRANCH   7   8
ENDBRANCH   6   7
ENDBRANCH   5   6
ENDBRANCH   4   5
ENDBRANCH   3   4
ENDBRANCH   2   3
ENDBRANCH   1   2
BRANCH   1  15
ATOM     15  C   UNL     1     -14.179  -9.821  10.364  1.00  0.00     0.000 C 
BRANCH  15  16
ATOM     16  C   UNL     1     -13.825 -10.892  11.407  1.00  0.00     0.000 C 
BRANCH  16  17
ATOM     17  C   UNL     1     -12.469 -10.638  12.092  1.00  0.00     0.000 C 
BRANCH  17  18
ATOM     18  C   UNL     1     -11.233 -10.957  11.232  1.00  0.00    -0.000 C 
BRANCH  18  19
ATOM     19  C   UNL     1     -11.306 -12.336  10.562  1.00  0.00    -0.000 C 
BRANCH  19  20
ATOM     20  C   UNL     1     -10.509 -12.354   9.252  1.00  0.00    -0.000 C 
BRANCH  20  21
ATOM     21  C   UNL     1     -11.386 -12.806   8.078  1.00  0.00    -0.000 C 
BRANCH  21  22
ATOM     22  C   UNL     1     -12.606 -13.598   8.573  1.00  0.00    -0.000 C 
BRANCH  22  23
ATOM     23  C   UNL     1     -12.411 -15.124   8.438  1.00  0.00    -0.000 C 
BRANCH  23  24
ATOM     24  C   UNL     1     -10.940 -15.574   8.530  1.00  0.00    -0.000 C 
BRANCH  24  25
ATOM     25  C   UNL     1     -10.650 -16.613   9.627  1.00  0.00    -0.003 C 
ATOM     26  C   UNL     1     -11.521 -17.865   9.505  1.00  0.00     0.004 C 
ENDBRANCH  24  25
ENDBRANCH  23  24
ENDBRANCH  22  23
ENDBRANCH  21  22
ENDBRANCH  20  21
ENDBRANCH  19  20
ENDBRANCH  18  19
ENDBRANCH  17  18
ENDBRANCH  16  17
ENDBRANCH  15  16
ENDBRANCH   1  15
TORSDOF 22
ENDMDL
MODEL 3
REMARK VINA RESULT:    -4.978      2.542      7.653
REMARK INTER + INTRA:         -15.409
REMARK INTER:                 -11.766
REMARK INTRA:                  -3.644
REMARK UNBOUND:                -4.030
REMARK SMILES CCCCCCCCCCCCCCCCCCCCCCCC(=O)[O-]
REMARK SMILES IDX 13 1 14 2 15 3 16 4 17 5 18 6 19 7 20 8 21 9 22 10 23 11
REMARK SMILES IDX 24 12 25 13 26 14 12 15 11 16 10 17 9 18 8 19 7 20 6 21 5 22
REMARK SMILES IDX 4 23 3 24 2 25 1 26
REMARK H PARENT
REMARK Flexibility Score: inf
ROOT
ATOM      1  C   UNL     1     -13.036  -8.684   9.255  1.00  0.00     0.000 C 
ENDROOT
BRANCH   1   2
ATOM      2  C   UNL     1     -12.094  -8.216  10.375  1.00  0.00     0.000 C 
BRANCH   2   3
ATOM      3  C   UNL     1     -11.632  -9.365  11.284  1.00  0.00     0.000 C 
BRANCH   3   4
ATOM      4  C   UNL     1     -12.596 -10.564  11.258  1.00  0.00     0.000 C 
BRANCH   4   5
ATOM      5  C   UNL     1     -11.907 -11.867  10.820  1.00  0.00     0.000 C 
BRANCH   5   6
ATOM      6  C   UNL     1     -12.770 -12.697   9.857  1.00  0.00     0.000 C 
BRANCH   6   7
ATOM      7  C   UNL     1     -11.985 -13.066   8.592  1.00  0.00     0.000 C 
BRANCH   7   8
ATOM      8  C   UNL     1     -10.474 -13.001   8.847  1.00  0.00     0.000 C 
BRANCH   8   9
ATOM      9  C   UNL     1      -9.762 -12.203   7.745  1.00  0.00     0.000 C 
BRANCH   9  10
ATOM     10  C   UNL     1     -10.150 -10.714   7.733  1.00  0.00     0.006 C 
BRANCH  10  11
ATOM     11  C   UNL     1      -9.143  -9.799   8.452  1.00  0.00     0.053 C 
BRANCH  11  12
ATOM     12  C   UNL     1      -8.268  -9.047   7.496  1.00  0.00     0.041 C 
ATOM     13  O   UNL     1      -8.629  -7.923   7.057  1.00  0.00    -0.550 OA
ATOM     14  O   UNL     1      -7.071  -9.601   7.061  1.00  0.00    -0.550 OA
ENDBRANCH  11  12
ENDBRANCH  10  11
ENDBRANCH   9  10
ENDBRANCH   8   9
ENDBRANCH   7   8
ENDBRANCH   6   7
ENDBRANCH   5   6
ENDBRANCH   4   5
ENDBRANCH   3   4
ENDBRANCH   2   3
ENDBRANCH   1   2
BRANCH   1  15
ATOM     15  C   UNL     1     -12.704  -7.982   7.933  1.00  0.00     0.000 C 
BRANCH  15  16
ATOM     16  C   UNL     1     -13.924  -7.221   7.392  1.00  0.00     0.000 C 
BRANCH  16  17
ATOM     17  C   UNL     1     -15.226  -7.564   8.140  1.00  0.00     0.000 C 
BRANCH  17  18
ATOM     18  C   UNL     1     -15.919  -6.372   8.824  1.00  0.00    -0.000 C 
BRANCH  18  19
ATOM     19  C   UNL     1     -15.534  -6.221  10.303  1.00  0.00    -0.000 C 
BRANCH  19  20
ATOM     20  C   UNL     1     -14.936  -4.835  10.576  1.00  0.00    -0.000 C 
BRANCH  20  21
ATOM     21  C   UNL     1     -13.587  -4.666   9.867  1.00  0.00    -0.000 C 
BRANCH  21  22
ATOM     22  C   UNL     1     -13.429  -3.242   9.314  1.00  0.00    -0.000 C 
BRANCH  22  23
ATOM     23  C   UNL     1     -14.788  -2.562   9.043  1.00  0.00    -0.000 C 
BRANCH  23  24
ATOM     24  C   UNL     1     -15.109  -2.387   7.546  1.00  0.00    -0.000 C 
BRANCH  24  25
ATOM     25  C   UNL     1     -14.921  -3.653   6.693  1.00  0.00    -0.003 C 
ATOM     26  C   UNL     1     -14.181  -3.383   5.382  1.00  0.00     0.004 C 
ENDBRANCH  24  25
ENDBRANCH  23  24
ENDBRANCH  22  23
ENDBRANCH  21  22
ENDBRANCH  20  21
ENDBRANCH  19  20
ENDBRANCH  18  19
ENDBRANCH  17  18
ENDBRANCH  16  17
ENDBRANCH  15  16
ENDBRANCH   1  15
TORSDOF 22
ENDMDL
MODEL 4
REMARK VINA RESULT:    -4.953      3.102      5.605
REMARK INTER + INTRA:         -15.352
REMARK INTER:                 -12.673
REMARK INTRA:                  -2.679
REMARK UNBOUND:                -4.030
REMARK SMILES CCCCCCCCCCCCCCCCCCCCCCCC(=O)[O-]
REMARK SMILES IDX 13 1 14 2 15 3 16 4 17 5 18 6 19 7 20 8 21 9 22 10 23 11
REMARK SMILES IDX 24 12 25 13 26 14 12 15 11 16 10 17 9 18 8 19 7 20 6 21 5 22
REMARK SMILES IDX 4 23 3 24 2 25 1 26
REMARK H PARENT
REMARK Flexibility Score: inf
ROOT
ATOM      1  C   UNL     1     -16.049  -6.707  10.638  1.00  0.00     0.000 C 
ENDROOT
BRANCH   1   2
ATOM      2  C   UNL     1     -15.964  -5.432   9.786  1.00  0.00     0.000 C 
BRANCH   2   3
ATOM      3  C   UNL     1     -14.755  -4.555  10.143  1.00  0.00     0.000 C 
BRANCH   3   4
ATOM      4  C   UNL     1     -13.621  -4.664   9.108  1.00  0.00     0.000 C 
BRANCH   4   5
ATOM      5  C   UNL     1     -13.772  -5.889   8.192  1.00  0.00     0.000 C 
BRANCH   5   6
ATOM      6  C   UNL     1     -12.781  -7.012   8.538  1.00  0.00     0.000 C 
BRANCH   6   7
ATOM      7  C   UNL     1     -12.106  -6.755   9.890  1.00  0.00     0.000 C 
BRANCH   7   8
ATOM      8  C   UNL     1     -10.788  -7.531  10.001  1.00  0.00     0.000 C 
BRANCH   8   9
ATOM      9  C   UNL     1     -10.613  -8.494   8.818  1.00  0.00     0.000 C 
BRANCH   9  10
ATOM     10  C   UNL     1      -9.442  -9.475   9.008  1.00  0.00     0.006 C 
BRANCH  10  11
ATOM     11  C   UNL     1      -8.913 -10.079   7.695  1.00  0.00     0.053 C 
BRANCH  11  12
ATOM     12  C   UNL     1      -7.721  -9.343   7.165  1.00  0.00     0.041 C 
ATOM     13  O   UNL     1      -6.653  -9.962   6.916  1.00  0.00    -0.550 OA
ATOM     14  O   UNL     1      -7.776  -7.967   6.979  1.00  0.00    -0.550 OA
ENDBRANCH  11  12
ENDBRANCH  10  11
ENDBRANCH   9  10
ENDBRANCH   8   9
ENDBRANCH   7   8
ENDBRANCH   6   7
ENDBRANCH   5   6
ENDBRANCH   4   5
ENDBRANCH   3   4
ENDBRANCH   2   3
ENDBRANCH   1   2
BRANCH   1  15
ATOM     15  C   UNL     1     -16.114  -7.956   9.749  1.00  0.00     0.000 C 
BRANCH  15  16
ATOM     16  C   UNL     1     -15.805  -9.225  10.558  1.00  0.00     0.000 C 
BRANCH  16  17
ATOM     17  C   UNL     1     -14.353  -9.708  10.384  1.00  0.00     0.000 C 
BRANCH  17  18
ATOM     18  C   UNL     1     -13.862 -10.700  11.455  1.00  0.00    -0.000 C 
BRANCH  18  19
ATOM     19  C   UNL     1     -12.517 -10.296  12.076  1.00  0.00    -0.000 C 
BRANCH  19  20
ATOM     20  C   UNL     1     -11.369 -11.123  11.485  1.00  0.00    -0.000 C 
BRANCH  20  21
ATOM     21  C   UNL     1     -11.866 -12.025  10.349  1.00  0.00    -0.000 C 
BRANCH  21  22
ATOM     22  C   UNL     1     -10.810 -13.077   9.977  1.00  0.00    -0.000 C 
BRANCH  22  23
ATOM     23  C   UNL     1     -11.018 -13.643   8.556  1.00  0.00    -0.000 C 
BRANCH  23  24
ATOM     24  C   UNL     1     -11.523 -15.099   8.535  1.00  0.00    -0.000 C 
BRANCH  24  25
ATOM     25  C   UNL     1     -10.591 -16.116   9.214  1.00  0.00    -0.003 C 
ATOM     26  C   UNL     1      -9.135 -15.981   8.765  1.00  0.00     0.004 C 
ENDBRANCH  24  25
ENDBRANCH  23  24
ENDBRANCH  22  23
ENDBRANCH  21  22
ENDBRANCH  20  21
ENDBRANCH  19  20
ENDBRANCH  18  19
ENDBRANCH  17  18
ENDBRANCH  16  17
ENDBRANCH  15  16
ENDBRANCH   1  15
TORSDOF 22
ENDMDL
MODEL 5
REMARK VINA RESULT:    -4.940      1.976      4.036
REMARK INTER + INTRA:         -15.324
REMARK INTER:                 -12.634
REMARK INTRA:                  -2.690
REMARK UNBOUND:                -4.030
REMARK SMILES CCCCCCCCCCCCCCCCCCCCCCCC(=O)[O-]
REMARK SMILES IDX 13 1 14 2 15 3 16 4 17 5 18 6 19 7 20 8 21 9 22 10 23 11
REMARK SMILES IDX 24 12 25 13 26 14 12 15 11 16 10 17 9 18 8 19 7 20 6 21 5 22
REMARK SMILES IDX 4 23 3 24 2 25 1 26
REMARK H PARENT
REMARK Flexibility Score: inf
ROOT
ATOM      1  C   UNL     1      -9.792  -8.377   7.615  1.00  0.00     0.000 C 
ENDROOT
BRANCH   1   2
ATOM      2  C   UNL     1     -10.663  -7.897   8.786  1.00  0.00     0.000 C 
BRANCH   2   3
ATOM      3  C   UNL     1     -12.091  -8.460   8.737  1.00  0.00     0.000 C 
BRANCH   3   4
ATOM      4  C   UNL     1     -12.843  -8.280  10.067  1.00  0.00     0.000 C 
BRANCH   4   5
ATOM      5  C   UNL     1     -14.274  -8.840  10.018  1.00  0.00     0.000 C 
BRANCH   5   6
ATOM      6  C   UNL     1     -15.284  -7.834   9.444  1.00  0.00     0.000 C 
BRANCH   6   7
ATOM      7  C   UNL     1     -15.118  -6.455  10.094  1.00  0.00     0.000 C 
BRANCH   7   8
ATOM      8  C   UNL     1     -15.242  -5.339   9.049  1.00  0.00     0.000 C 
BRANCH   8   9
ATOM      9  C   UNL     1     -14.390  -5.646   7.809  1.00  0.00     0.000 C 
BRANCH   9  10
ATOM     10  C   UNL     1     -14.436  -4.526   6.754  1.00  0.00     0.006 C 
BRANCH  10  11
ATOM     11  C   UNL     1     -14.444  -5.035   5.302  1.00  0.00     0.053 C 
BRANCH  11  12
ATOM     12  C   UNL     1     -14.482  -3.918   4.304  1.00  0.00     0.041 C 
ATOM     13  O   UNL     1     -14.188  -2.745   4.654  1.00  0.00    -0.550 OA
ATOM     14  O   UNL     1     -14.877  -4.165   2.995  1.00  0.00    -0.550 OA
ENDBRANCH  11  12
ENDBRANCH  10  11
ENDBRANCH   9  10
ENDBRANCH   8   9
ENDBRANCH   7   8
ENDBRANCH   6   7
ENDBRANCH   5   6
ENDBRANCH   4   5
ENDBRANCH   3   4
ENDBRANCH   2   3
ENDBRANCH   1   2
BRANCH   1  15
ATOM     15  C   UNL     1      -8.628  -9.240   8.118  1.00  0.00     0.000 C 
BRANCH  15  16
ATOM     16  C   UNL     1      -8.645 -10.627   7.457  1.00  0.00     0.000 C 
BRANCH  16  17
ATOM     17  C   UNL     1      -9.676 -11.581   8.089  1.00  0.00     0.000 C 
BRANCH  17  18
ATOM     18  C   UNL     1      -9.910 -11.383   9.598  1.00  0.00    -0.000 C 
BRANCH  18  19
ATOM     19  C   UNL     1     -10.913 -12.385  10.186  1.00  0.00    -0.000 C 
BRANCH  19  20
ATOM     20  C   UNL     1     -12.353 -11.990   9.839  1.00  0.00    -0.000 C 
BRANCH  20  21
ATOM     21  C   UNL     1     -13.165 -13.209   9.382  1.00  0.00    -0.000 C 
BRANCH  21  22
ATOM     22  C   UNL     1     -12.379 -14.045   8.362  1.00  0.00    -0.000 C 
BRANCH  22  23
ATOM     23  C   UNL     1     -12.762 -15.540   8.406  1.00  0.00    -0.000 C 
BRANCH  23  24
ATOM     24  C   UNL     1     -11.571 -16.480   8.677  1.00  0.00    -0.000 C 
BRANCH  24  25
ATOM     25  C   UNL     1     -10.402 -15.837   9.440  1.00  0.00    -0.003 C 
ATOM     26  C   UNL     1      -9.087 -15.876   8.659  1.00  0.00     0.004 C 
ENDBRANCH  24  25
ENDBRANCH  23  24
ENDBRANCH  22  23
ENDBRANCH  21  22
ENDBRANCH  20  21
ENDBRANCH  19  20
ENDBRANCH  18  19
ENDBRANCH  17  18
ENDBRANCH  16  17
ENDBRANCH  15  16
ENDBRANCH   1  15
TORSDOF 22
ENDMDL
MODEL 6
REMARK VINA RESULT:    -4.851      1.510      3.358
REMARK INTER + INTRA:         -15.121
REMARK INTER:                 -11.904
REMARK INTRA:                  -3.217
REMARK UNBOUND:                -4.030
REMARK SMILES CCCCCCCCCCCCCCCCCCCCCCCC(=O)[O-]
REMARK SMILES IDX 13 1 14 2 15 3 16 4 17 5 18 6 19 7 20 8 21 9 22 10 23 11
REMARK SMILES IDX 24 12 25 13 26 14 12 15 11 16 10 17 9 18 8 19 7 20 6 21 5 22
REMARK SMILES IDX 4 23 3 24 2 25 1 26
REMARK H PARENT
REMARK Flexibility Score: inf
ROOT
ATOM      1  C   UNL     1     -12.104 -11.086  11.860  1.00  0.00     0.000 C 
ENDROOT
BRANCH   1   2
ATOM      2  C   UNL     1     -13.470 -10.930  11.175  1.00  0.00     0.000 C 
BRANCH   2   3
ATOM      3  C   UNL     1     -13.561  -9.665  10.309  1.00  0.00     0.000 C 
BRANCH   3   4
ATOM      4  C   UNL     1     -14.974  -9.053  10.304  1.00  0.00     0.000 C 
BRANCH   4   5
ATOM      5  C   UNL     1     -14.995  -7.621   9.744  1.00  0.00     0.000 C 
BRANCH   5   6
ATOM      6  C   UNL     1     -13.701  -6.849  10.045  1.00  0.00     0.000 C 
BRANCH   6   7
ATOM      7  C   UNL     1     -13.471  -5.735   9.017  1.00  0.00     0.000 C 
BRANCH   7   8
ATOM      8  C   UNL     1     -14.549  -4.650   9.136  1.00  0.00     0.000 C 
BRANCH   8   9
ATOM      9  C   UNL     1     -14.134  -3.375   8.387  1.00  0.00     0.000 C 
BRANCH   9  10
ATOM     10  C   UNL     1     -15.014  -3.085   7.158  1.00  0.00     0.006 C 
BRANCH  10  11
ATOM     11  C   UNL     1     -14.402  -3.551   5.826  1.00  0.00     0.053 C 
BRANCH  11  12
ATOM     12  C   UNL     1     -14.944  -4.874   5.376  1.00  0.00     0.041 C 
ATOM     13  O   UNL     1     -15.971  -4.923   4.649  1.00  0.00    -0.550 OA
ATOM     14  O   UNL     1     -14.339  -6.054   5.790  1.00  0.00    -0.550 OA
ENDBRANCH  11  12
ENDBRANCH  10  11
ENDBRANCH   9  10
ENDBRANCH   8   9
ENDBRANCH   7   8
ENDBRANCH   6   7
ENDBRANCH   5   6
ENDBRANCH   4   5
ENDBRANCH   3   4
ENDBRANCH   2   3
ENDBRANCH   1   2
BRANCH   1  15
ATOM     15  C   UNL     1     -11.033 -11.525  10.853  1.00  0.00     0.000 C 
BRANCH  15  16
ATOM     16  C   UNL     1     -11.298 -12.953  10.355  1.00  0.00     0.000 C 
BRANCH  16  17
ATOM     17  C   UNL     1     -10.573 -13.273   9.035  1.00  0.00     0.000 C 
BRANCH  17  18
ATOM     18  C   UNL     1     -11.183 -12.622   7.780  1.00  0.00    -0.000 C 
BRANCH  18  19
ATOM     19  C   UNL     1     -10.184 -11.744   7.013  1.00  0.00    -0.000 C 
BRANCH  19  20
ATOM     20  C   UNL     1      -8.877 -11.585   7.798  1.00  0.00    -0.000 C 
BRANCH  20  21
ATOM     21  C   UNL     1      -7.995 -10.490   7.185  1.00  0.00    -0.000 C 
BRANCH  21  22
ATOM     22  C   UNL     1      -8.233  -9.139   7.875  1.00  0.00    -0.000 C 
BRANCH  22  23
ATOM     23  C   UNL     1      -9.006  -9.285   9.204  1.00  0.00    -0.000 C 
BRANCH  23  24
ATOM     24  C   UNL     1     -10.308  -8.463   9.261  1.00  0.00    -0.000 C 
BRANCH  24  25
ATOM     25  C   UNL     1     -10.790  -7.922   7.905  1.00  0.00    -0.003 C 
ATOM     26  C   UNL     1     -11.971  -8.711   7.335  1.00  0.00     0.004 C 
ENDBRANCH  24  25
ENDBRANCH  23  24
ENDBRANCH  22  23
ENDBRANCH  21  22
ENDBRANCH  20  21
ENDBRANCH  19  20
ENDBRANCH  18  19
ENDBRANCH  17  18
ENDBRANCH  16  17
ENDBRANCH  15  16
ENDBRANCH   1  15
TORSDOF 22
ENDMDL
MODEL 7
REMARK VINA RESULT:    -4.803      3.988      8.265
REMARK INTER + INTRA:         -15.010
REMARK INTER:                 -11.698
REMARK INTRA:                  -3.311
REMARK UNBOUND:                -4.030
REMARK SMILES CCCCCCCCCCCCCCCCCCCCCCCC(=O)[O-]
REMARK SMILES IDX 13 1 14 2 15 3 16 4 17 5 18 6 19 7 20 8 21 9 22 10 23 11
REMARK SMILES IDX 24 12 25 13 26 14 12 15 11 16 10 17 9 18 8 19 7 20 6 21 5 22
REMARK SMILES IDX 4 23 3 24 2 25 1 26
REMARK H PARENT
REMARK Flexibility Score: inf
ROOT
ATOM      1  C   UNL     1     -12.704  -8.310   7.074  1.00  0.00     0.000 C 
ENDROOT
BRANCH   1   2
ATOM      2  C   UNL     1     -11.409  -8.947   7.601  1.00  0.00     0.000 C 
BRANCH   2   3
ATOM      3  C   UNL     1     -10.686  -8.065   8.629  1.00  0.00     0.000 C 
BRANCH   3   4
ATOM      4  C   UNL     1     -10.486  -8.774   9.981  1.00  0.00     0.000 C 
BRANCH   4   5
ATOM      5  C   UNL     1     -11.723  -8.673  10.889  1.00  0.00     0.000 C 
BRANCH   5   6
ATOM      6  C   UNL     1     -11.928  -9.930  11.750  1.00  0.00     0.000 C 
BRANCH   6   7
ATOM      7  C   UNL     1     -13.138 -10.738  11.267  1.00  0.00     0.000 C 
BRANCH   7   8
ATOM      8  C   UNL     1     -12.732 -11.730  10.170  1.00  0.00     0.000 C 
BRANCH   8   9
ATOM      9  C   UNL     1     -11.352 -12.339  10.459  1.00  0.00     0.000 C 
BRANCH   9  10
ATOM     10  C   UNL     1     -10.535 -12.612   9.184  1.00  0.00     0.006 C 
BRANCH  10  11
ATOM     11  C   UNL     1     -11.300 -13.405   8.109  1.00  0.00     0.053 C 
BRANCH  11  12
ATOM     12  C   UNL     1     -11.468 -14.849   8.473  1.00  0.00     0.041 C 
ATOM     13  O   UNL     1     -10.474 -15.529   8.841  1.00  0.00    -0.550 OA
ATOM     14  O   UNL     1     -12.715 -15.454   8.371  1.00  0.00    -0.550 OA
ENDBRANCH  11  12
ENDBRANCH  10  11
ENDBRANCH   9  10
ENDBRANCH   8   9
ENDBRANCH   7   8
ENDBRANCH   6   7
ENDBRANCH   5   6
ENDBRANCH   4   5
ENDBRANCH   3   4
ENDBRANCH   2   3
ENDBRANCH   1   2
BRANCH   1  15
ATOM     15  C   UNL     1     -13.211  -7.227   8.034  1.00  0.00     0.000 C 
BRANCH  15  16
ATOM     16  C   UNL     1     -14.609  -7.574   8.568  1.00  0.00     0.000 C 
BRANCH  16  17
ATOM     17  C   UNL     1     -14.840  -7.085  10.010  1.00  0.00     0.000 C 
BRANCH  17  18
ATOM     18  C   UNL     1     -15.861  -5.942  10.156  1.00  0.00    -0.000 C 
BRANCH  18  19
ATOM     19  C   UNL     1     -15.221  -4.618  10.596  1.00  0.00    -0.000 C 
BRANCH  19  20
ATOM     20  C   UNL     1     -15.255  -3.587   9.461  1.00  0.00    -0.000 C 
BRANCH  20  21
ATOM     21  C   UNL     1     -13.952  -3.612   8.653  1.00  0.00    -0.000 C 
BRANCH  21  22
ATOM     22  C   UNL     1     -14.228  -3.417   7.155  1.00  0.00    -0.000 C 
BRANCH  22  23
ATOM     23  C   UNL     1     -15.196  -4.480   6.592  1.00  0.00    -0.000 C 
BRANCH  23  24
ATOM     24  C   UNL     1     -14.758  -5.063   5.234  1.00  0.00    -0.000 C 
BRANCH  24  25
ATOM     25  C   UNL     1     -15.420  -4.410   4.009  1.00  0.00    -0.003 C 
ATOM     26  C   UNL     1     -14.407  -3.804   3.036  1.00  0.00     0.004 C 
ENDBRANCH  24  25
ENDBRANCH  23  24
ENDBRANCH  22  23
ENDBRANCH  21  22
ENDBRANCH  20  21
ENDBRANCH  19  20
ENDBRANCH  18  19
ENDBRANCH  17  18
ENDBRANCH  16  17
ENDBRANCH  15  16
ENDBRANCH   1  15
TORSDOF 22
ENDMDL
MODEL 8
REMARK VINA RESULT:    -4.766      4.270      8.455
REMARK INTER + INTRA:         -14.926
REMARK INTER:                 -11.784
REMARK INTRA:                  -3.142
REMARK UNBOUND:                -4.030
REMARK SMILES CCCCCCCCCCCCCCCCCCCCCCCC(=O)[O-]
REMARK SMILES IDX 13 1 14 2 15 3 16 4 17 5 18 6 19 7 20 8 21 9 22 10 23 11
REMARK SMILES IDX 24 12 25 13 26 14 12 15 11 16 10 17 9 18 8 19 7 20 6 21 5 22
REMARK SMILES IDX 4 23 3 24 2 25 1 26
REMARK H PARENT
REMARK Flexibility Score: inf
ROOT
ATOM      1  C   UNL     1     -12.866 -10.645  11.654  1.00  0.00     0.000 C 
ENDROOT
BRANCH   1   2
ATOM      2  C   UNL     1     -11.648  -9.716  11.540  1.00  0.00     0.000 C 
BRANCH   2   3
ATOM      3  C   UNL     1     -11.921  -8.478  10.673  1.00  0.00     0.000 C 
BRANCH   3   4
ATOM      4  C   UNL     1     -10.748  -8.144   9.734  1.00  0.00     0.000 C 
BRANCH   4   5
ATOM      5  C   UNL     1     -11.105  -8.340   8.251  1.00  0.00     0.000 C 
BRANCH   5   6
ATOM      6  C   UNL     1     -10.901  -9.789   7.780  1.00  0.00     0.000 C 
BRANCH   6   7
ATOM      7  C   UNL     1      -9.561 -10.346   8.273  1.00  0.00     0.000 C 
BRANCH   7   8
ATOM      8  C   UNL     1      -9.758 -11.678   9.008  1.00  0.00     0.000 C 
BRANCH   8   9
ATOM      9  C   UNL     1     -11.180 -12.219   8.799  1.00  0.00     0.000 C 
BRANCH   9  10
ATOM     10  C   UNL     1     -11.428 -13.554   9.522  1.00  0.00     0.006 C 
BRANCH  10  11
ATOM     11  C   UNL     1     -11.361 -14.786   8.601  1.00  0.00     0.053 C 
BRANCH  11  12
ATOM     12  C   UNL     1     -10.301 -15.758   9.021  1.00  0.00     0.041 C 
ATOM     13  O   UNL     1     -10.548 -16.623   9.902  1.00  0.00    -0.550 OA
ATOM     14  O   UNL     1      -9.029 -15.687   8.466  1.00  0.00    -0.550 OA
ENDBRANCH  11  12
ENDBRANCH  10  11
ENDBRANCH   9  10
ENDBRANCH   8   9
ENDBRANCH   7   8
ENDBRANCH   6   7
ENDBRANCH   5   6
ENDBRANCH   4   5
ENDBRANCH   3   4
ENDBRANCH   2   3
ENDBRANCH   1   2
BRANCH   1  15
ATOM     15  C   UNL     1     -13.891 -10.340  10.554  1.00  0.00     0.000 C 
BRANCH  15  16
ATOM     16  C   UNL     1     -15.185  -9.765  11.151  1.00  0.00     0.000 C 
BRANCH  16  17
ATOM     17  C   UNL     1     -16.063  -9.052  10.106  1.00  0.00     0.000 C 
BRANCH  17  18
ATOM     18  C   UNL     1     -15.379  -7.889   9.363  1.00  0.00    -0.000 C 
BRANCH  18  19
ATOM     19  C   UNL     1     -15.411  -6.571  10.150  1.00  0.00    -0.000 C 
BRANCH  19  20
ATOM     20  C   UNL     1     -14.080  -5.822  10.022  1.00  0.00    -0.000 C 
BRANCH  20  21
ATOM     21  C   UNL     1     -13.635  -5.734   8.558  1.00  0.00    -0.000 C 
BRANCH  21  22
ATOM     22  C   UNL     1     -14.220  -4.487   7.877  1.00  0.00    -0.000 C 
BRANCH  22  23
ATOM     23  C   UNL     1     -15.126  -4.842   6.678  1.00  0.00    -0.000 C 
BRANCH  23  24
ATOM     24  C   UNL     1     -14.395  -4.829   5.321  1.00  0.00    -0.000 C 
BRANCH  24  25
ATOM     25  C   UNL     1     -14.629  -3.566   4.475  1.00  0.00    -0.003 C 
ATOM     26  C   UNL     1     -14.526  -3.829   2.972  1.00  0.00     0.004 C 
ENDBRANCH  24  25
ENDBRANCH  23  24
ENDBRANCH  22  23
ENDBRANCH  21  22
ENDBRANCH  20  21
ENDBRANCH  19  20
ENDBRANCH  18  19
ENDBRANCH  17  18
ENDBRANCH  16  17
ENDBRANCH  15  16
ENDBRANCH   1  15
TORSDOF 22
ENDMDL
MODEL 9
REMARK VINA RESULT:    -4.740      1.272      3.147
REMARK INTER + INTRA:         -14.867
REMARK INTER:                 -11.497
REMARK INTRA:                  -3.370
REMARK UNBOUND:                -4.030
REMARK SMILES CCCCCCCCCCCCCCCCCCCCCCCC(=O)[O-]
REMARK SMILES IDX 13 1 14 2 15 3 16 4 17 5 18 6 19 7 20 8 21 9 22 10 23 11
REMARK SMILES IDX 24 12 25 13 26 14 12 15 11 16 10 17 9 18 8 19 7 20 6 21 5 22
REMARK SMILES IDX 4 23 3 24 2 25 1 26
REMARK H PARENT
REMARK Flexibility Score: inf
ROOT
ATOM      1  C   UNL     1     -12.607  -7.558   9.188  1.00  0.00     0.000 C 
ENDROOT
BRANCH   1   2
ATOM      2  C   UNL     1     -13.559  -7.475   7.986  1.00  0.00     0.000 C 
BRANCH   2   3
ATOM      3  C   UNL     1     -15.029  -7.312   8.399  1.00  0.00     0.000 C 
BRANCH   3   4
ATOM      4  C   UNL     1     -15.262  -7.621   9.889  1.00  0.00     0.000 C 
BRANCH   4   5
ATOM      5  C   UNL     1     -15.766  -6.398  10.673  1.00  0.00     0.000 C 
BRANCH   5   6
ATOM      6  C   UNL     1     -15.929  -5.153   9.787  1.00  0.00     0.000 C 
BRANCH   6   7
ATOM      7  C   UNL     1     -14.950  -4.049  10.203  1.00  0.00     0.000 C 
BRANCH   7   8
ATOM      8  C   UNL     1     -13.767  -3.971   9.229  1.00  0.00     0.000 C 
BRANCH   8   9
ATOM      9  C   UNL     1     -14.121  -3.130   7.995  1.00  0.00     0.000 C 
BRANCH   9  10
ATOM     10  C   UNL     1     -14.341  -3.978   6.730  1.00  0.00     0.006 C 
BRANCH  10  11
ATOM     11  C   UNL     1     -14.165  -3.198   5.415  1.00  0.00     0.053 C 
BRANCH  11  12
ATOM     12  C   UNL     1     -14.469  -4.033   4.208  1.00  0.00     0.041 C 
ATOM     13  O   UNL     1     -14.051  -3.681   3.073  1.00  0.00    -0.550 OA
ATOM     14  O   UNL     1     -15.242  -5.181   4.329  1.00  0.00    -0.550 OA
ENDBRANCH  11  12
ENDBRANCH  10  11
ENDBRANCH   9  10
ENDBRANCH   8   9
ENDBRANCH   7   8
ENDBRANCH   6   7
ENDBRANCH   5   6
ENDBRANCH   4   5
ENDBRANCH   3   4
ENDBRANCH   2   3
ENDBRANCH   1   2
BRANCH   1  15
ATOM     15  C   UNL     1     -11.168  -7.828   8.730  1.00  0.00     0.000 C 
BRANCH  15  16
ATOM     16  C   UNL     1     -10.382  -8.595   9.804  1.00  0.00     0.000 C 
BRANCH  16  17
ATOM     17  C   UNL     1      -9.268  -9.481   9.215  1.00  0.00     0.000 C 
BRANCH  17  18
ATOM     18  C   UNL     1      -9.577 -10.088   7.834  1.00  0.00    -0.000 C 
BRANCH  18  19
ATOM     19  C   UNL     1     -10.337 -11.419   7.920  1.00  0.00    -0.000 C 
BRANCH  19  20
ATOM     20  C   UNL     1     -10.022 -12.148   9.232  1.00  0.00    -0.000 C 
BRANCH  20  21
ATOM     21  C   UNL     1     -10.853 -13.430   9.365  1.00  0.00    -0.000 C 
BRANCH  21  22
ATOM     22  C   UNL     1     -12.328 -13.169   9.026  1.00  0.00    -0.000 C 
BRANCH  22  23
ATOM     23  C   UNL     1     -13.116 -12.600  10.225  1.00  0.00    -0.000 C 
BRANCH  23  24
ATOM     24  C   UNL     1     -13.206 -11.061  10.238  1.00  0.00    -0.000 C 
BRANCH  24  25
ATOM     25  C   UNL     1     -13.263 -10.429  11.638  1.00  0.00    -0.003 C 
ATOM     26  C   UNL     1     -12.000 -10.690  12.461  1.00  0.00     0.004 C 
ENDBRANCH  24  25
ENDBRANCH  23  24
ENDBRANCH  22  23
ENDBRANCH  21  22
ENDBRANCH  20  21
ENDBRANCH  19  20
ENDBRANCH  18  19
ENDBRANCH  17  18
ENDBRANCH  16  17
ENDBRANCH  15  16
ENDBRANCH   1  15
TORSDOF 22
ENDMDL
