MODEL 1
REMARK VINA RESULT:    -7.833      0.000      0.000
REMARK INTER + INTRA:          -9.215
REMARK INTER:                  -9.207
REMARK INTRA:                  -0.008
REMARK UNBOUND:                -0.008
REMARK SMILES O=c1c(O)c(-c2ccc(O)cc2)oc2cc(O)cc(O)c12
REMARK SMILES IDX 5 1 3 2 2 3 1 4 21 5 19 6 18 7 16 8 15 9 14 10 13 11 6 12
REMARK SMILES IDX 7 13 8 14 9 15 12 16 11 17 10 18 4 20 20 22 17 24
REMARK H PARENT 10 19 4 21 20 23 17 25
REMARK Flexibility Score: inf
ROOT
ATOM      1  C   UNL     1     168.734 146.072 152.399  1.00  0.00     0.180 A 
ATOM      2  C   UNL     1     169.582 145.068 151.893  1.00  0.00     0.208 A 
ATOM      3  C   UNL     1     170.665 144.637 152.675  1.00  0.00     0.238 A 
ATOM      4  O   UNL     1     171.438 143.746 152.227  1.00  0.00    -0.285 OA
ATOM      5  C   UNL     1     170.871 145.199 153.951  1.00  0.00     0.111 A 
ATOM      6  C   UNL     1     171.935 144.817 154.803  1.00  0.00     0.134 A 
ATOM      7  C   UNL     1     172.067 145.417 156.064  1.00  0.00     0.093 A 
ATOM      8  C   UNL     1     171.157 146.387 156.489  1.00  0.00     0.123 A 
ATOM      9  C   UNL     1     170.103 146.769 155.653  1.00  0.00     0.094 A 
ATOM     10  C   UNL     1     169.956 146.184 154.391  1.00  0.00     0.146 A 
ATOM     11  O   UNL     1     168.950 146.567 153.614  1.00  0.00    -0.452 OA
ENDROOT
BRANCH   1  12
ATOM     12  C   UNL     1     167.583 146.592 151.628  1.00  0.00     0.021 A 
ATOM     13  C   UNL     1     167.730 147.040 150.302  1.00  0.00     0.016 A 
ATOM     14  C   UNL     1     166.633 147.550 149.603  1.00  0.00     0.047 A 
ATOM     15  C   UNL     1     165.381 147.633 150.218  1.00  0.00     0.115 A 
ATOM     16  C   UNL     1     166.326 146.698 152.248  1.00  0.00     0.016 A 
ATOM     17  C   UNL     1     165.230 147.207 151.545  1.00  0.00     0.047 A 
BRANCH  15  18
ATOM     18  O   UNL     1     164.295 148.142 149.508  1.00  0.00    -0.508 OA
ATOM     19  H   UNL     1     163.387 147.693 149.536  1.00  0.00     0.293 HD
ENDBRANCH  15  18
ENDBRANCH   1  12
BRANCH   2  20
ATOM     20  O   UNL     1     169.328 144.492 150.646  1.00  0.00    -0.502 OA
ATOM     21  H   UNL     1     170.031 143.974 150.134  1.00  0.00     0.293 HD
ENDBRANCH   2  20
BRANCH   6  22
ATOM     22  O   UNL     1     172.861 143.850 154.407  1.00  0.00    -0.507 OA
ATOM     23  H   UNL     1     173.203 143.798 153.455  1.00  0.00     0.293 HD
ENDBRANCH   6  22
BRANCH   8  24
ATOM     24  O   UNL     1     171.309 146.967 157.748  1.00  0.00    -0.508 OA
ATOM     25  H   UNL     1     172.197 147.349 158.052  1.00  0.00     0.293 HD
ENDBRANCH   8  24
TORSDOF 5
ENDMDL
MODEL 2
REMARK VINA RESULT:    -7.690      0.055      1.058
REMARK INTER + INTRA:          -9.047
REMARK INTER:                  -9.120
REMARK INTRA:                   0.073
REMARK UNBOUND:                -0.008
REMARK SMILES O=c1c(O)c(-c2ccc(O)cc2)oc2cc(O)cc(O)c12
REMARK SMILES IDX 5 1 3 2 2 3 1 4 21 5 19 6 18 7 16 8 15 9 14 10 13 11 6 12
REMARK SMILES IDX 7 13 8 14 9 15 12 16 11 17 10 18 4 20 20 22 17 24
REMARK H PARENT 10 19 4 21 20 23 17 25
REMARK Flexibility Score: inf
ROOT
ATOM      1  C   UNL     1     168.741 146.111 152.400  1.00  0.00     0.180 A 
ATOM      2  C   UNL     1     169.579 145.108 151.875  1.00  0.00     0.208 A 
ATOM      3  C   UNL     1     170.666 144.662 152.642  1.00  0.00     0.238 A 
ATOM      4  O   UNL     1     171.430 143.771 152.178  1.00  0.00    -0.285 OA
ATOM      5  C   UNL     1     170.886 145.208 153.923  1.00  0.00     0.111 A 
ATOM      6  C   UNL     1     171.956 144.810 154.761  1.00  0.00     0.134 A 
ATOM      7  C   UNL     1     172.102 145.395 156.028  1.00  0.00     0.093 A 
ATOM      8  C   UNL     1     171.202 146.366 156.472  1.00  0.00     0.123 A 
ATOM      9  C   UNL     1     170.143 146.764 155.649  1.00  0.00     0.094 A 
ATOM     10  C   UNL     1     169.981 146.194 154.382  1.00  0.00     0.146 A 
ATOM     11  O   UNL     1     168.971 146.591 153.618  1.00  0.00    -0.452 OA
ENDROOT
BRANCH   1  12
ATOM     12  C   UNL     1     167.587 146.646 151.644  1.00  0.00     0.021 A 
ATOM     13  C   UNL     1     166.304 146.721 152.218  1.00  0.00     0.016 A 
ATOM     14  C   UNL     1     165.225 147.207 151.476  1.00  0.00     0.047 A 
ATOM     15  C   UNL     1     165.406 147.612 150.150  1.00  0.00     0.115 A 
ATOM     16  C   UNL     1     167.758 147.035 150.304  1.00  0.00     0.016 A 
ATOM     17  C   UNL     1     166.676 147.522 149.565  1.00  0.00     0.047 A 
BRANCH  15  18
ATOM     18  O   UNL     1     164.321 148.097 149.423  1.00  0.00    -0.508 OA
ATOM     19  H   UNL     1     163.516 148.505 149.883  1.00  0.00     0.293 HD
ENDBRANCH  15  18
ENDBRANCH   1  12
BRANCH   2  20
ATOM     20  O   UNL     1     169.311 144.547 150.624  1.00  0.00    -0.502 OA
ATOM     21  H   UNL     1     169.330 143.548 150.461  1.00  0.00     0.293 HD
ENDBRANCH   2  20
BRANCH   6  22
ATOM     22  O   UNL     1     172.872 143.842 154.347  1.00  0.00    -0.507 OA
ATOM     23  H   UNL     1     172.624 142.861 154.296  1.00  0.00     0.293 HD
ENDBRANCH   6  22
BRANCH   8  24
ATOM     24  O   UNL     1     171.368 146.931 157.735  1.00  0.00    -0.508 OA
ATOM     25  H   UNL     1     172.287 147.057 158.143  1.00  0.00     0.293 HD
ENDBRANCH   8  24
TORSDOF 5
ENDMDL
MODEL 3
REMARK VINA RESULT:    -7.545      1.885      3.998
REMARK INTER + INTRA:          -8.877
REMARK INTER:                  -8.737
REMARK INTRA:                  -0.140
REMARK UNBOUND:                -0.008
REMARK SMILES O=c1c(O)c(-c2ccc(O)cc2)oc2cc(O)cc(O)c12
REMARK SMILES IDX 5 1 3 2 2 3 1 4 21 5 19 6 18 7 16 8 15 9 14 10 13 11 6 12
REMARK SMILES IDX 7 13 8 14 9 15 12 16 11 17 10 18 4 20 20 22 17 24
REMARK H PARENT 10 19 4 21 20 23 17 25
REMARK Flexibility Score: inf
ROOT
ATOM      1  C   UNL     1     169.245 145.452 151.866  1.00  0.00     0.180 A 
ATOM      2  C   UNL     1     170.025 145.723 153.006  1.00  0.00     0.208 A 
ATOM      3  C   UNL     1     171.165 144.941 153.249  1.00  0.00     0.238 A 
ATOM      4  O   UNL     1     171.866 145.168 154.274  1.00  0.00    -0.285 OA
ATOM      5  C   UNL     1     171.516 143.920 152.344  1.00  0.00     0.111 A 
ATOM      6  C   UNL     1     172.651 143.090 152.514  1.00  0.00     0.134 A 
ATOM      7  C   UNL     1     172.938 142.100 151.564  1.00  0.00     0.093 A 
ATOM      8  C   UNL     1     172.116 141.924 150.448  1.00  0.00     0.123 A 
ATOM      9  C   UNL     1     170.994 142.739 150.274  1.00  0.00     0.094 A 
ATOM     10  C   UNL     1     170.689 143.731 151.212  1.00  0.00     0.146 A 
ATOM     11  O   UNL     1     169.615 144.490 151.026  1.00  0.00    -0.452 OA
ENDROOT
BRANCH   1  12
ATOM     12  C   UNL     1     168.018 146.219 151.550  1.00  0.00     0.021 A 
ATOM     13  C   UNL     1     166.905 146.210 152.411  1.00  0.00     0.016 A 
ATOM     14  C   UNL     1     165.750 146.923 152.079  1.00  0.00     0.047 A 
ATOM     15  C   UNL     1     165.684 147.641 150.882  1.00  0.00     0.115 A 
ATOM     16  C   UNL     1     167.938 146.926 150.338  1.00  0.00     0.016 A 
ATOM     17  C   UNL     1     166.782 147.639 150.010  1.00  0.00     0.047 A 
BRANCH  15  18
ATOM     18  O   UNL     1     164.527 148.349 150.566  1.00  0.00    -0.508 OA
ATOM     19  H   UNL     1     164.558 149.188 149.998  1.00  0.00     0.293 HD
ENDBRANCH  15  18
ENDBRANCH   1  12
BRANCH   2  20
ATOM     20  O   UNL     1     169.684 146.774 153.861  1.00  0.00    -0.502 OA
ATOM     21  H   UNL     1     170.342 147.176 154.517  1.00  0.00     0.293 HD
ENDBRANCH   2  20
BRANCH   6  22
ATOM     22  O   UNL     1     173.492 143.241 153.618  1.00  0.00    -0.507 OA
ATOM     23  H   UNL     1     173.242 142.881 154.532  1.00  0.00     0.293 HD
ENDBRANCH   6  22
BRANCH   8  24
ATOM     24  O   UNL     1     172.424 140.934 149.517  1.00  0.00    -0.508 OA
ATOM     25  H   UNL     1     172.178 139.963 149.673  1.00  0.00     0.293 HD
ENDBRANCH   8  24
TORSDOF 5
ENDMDL
MODEL 4
REMARK VINA RESULT:    -7.304      2.106      2.700
REMARK INTER + INTRA:          -8.593
REMARK INTER:                  -8.470
REMARK INTRA:                  -0.124
REMARK UNBOUND:                -0.008
REMARK SMILES O=c1c(O)c(-c2ccc(O)cc2)oc2cc(O)cc(O)c12
REMARK SMILES IDX 5 1 3 2 2 3 1 4 21 5 19 6 18 7 16 8 15 9 14 10 13 11 6 12
REMARK SMILES IDX 7 13 8 14 9 15 12 16 11 17 10 18 4 20 20 22 17 24
REMARK H PARENT 10 19 4 21 20 23 17 25
REMARK Flexibility Score: inf
ROOT
ATOM      1  C   UNL     1     168.673 145.622 154.228  1.00  0.00     0.180 A 
ATOM      2  C   UNL     1     168.270 144.476 154.941  1.00  0.00     0.208 A 
ATOM      3  C   UNL     1     168.957 144.129 156.113  1.00  0.00     0.238 A 
ATOM      4  O   UNL     1     168.611 143.099 156.754  1.00  0.00    -0.285 OA
ATOM      5  C   UNL     1     170.020 144.939 156.564  1.00  0.00     0.111 A 
ATOM      6  C   UNL     1     170.761 144.661 157.738  1.00  0.00     0.134 A 
ATOM      7  C   UNL     1     171.799 145.521 158.125  1.00  0.00     0.093 A 
ATOM      8  C   UNL     1     172.109 146.651 157.364  1.00  0.00     0.123 A 
ATOM      9  C   UNL     1     171.381 146.931 156.204  1.00  0.00     0.094 A 
ATOM     10  C   UNL     1     170.343 146.085 155.800  1.00  0.00     0.146 A 
ATOM     11  O   UNL     1     169.670 146.370 154.692  1.00  0.00    -0.452 OA
ENDROOT
BRANCH   1  12
ATOM     12  C   UNL     1     168.010 146.042 152.973  1.00  0.00     0.021 A 
ATOM     13  C   UNL     1     168.708 146.083 151.752  1.00  0.00     0.016 A 
ATOM     14  C   UNL     1     168.066 146.507 150.586  1.00  0.00     0.047 A 
ATOM     15  C   UNL     1     166.728 146.909 150.623  1.00  0.00     0.115 A 
ATOM     16  C   UNL     1     166.671 146.468 153.008  1.00  0.00     0.016 A 
ATOM     17  C   UNL     1     166.032 146.891 151.839  1.00  0.00     0.047 A 
BRANCH  15  18
ATOM     18  O   UNL     1     166.101 147.328 149.452  1.00  0.00    -0.508 OA
ATOM     19  H   UNL     1     165.173 147.736 149.465  1.00  0.00     0.293 HD
ENDBRANCH  15  18
ENDBRANCH   1  12
BRANCH   2  20
ATOM     20  O   UNL     1     167.181 143.718 154.501  1.00  0.00    -0.502 OA
ATOM     21  H   UNL     1     166.318 143.653 155.025  1.00  0.00     0.293 HD
ENDBRANCH   2  20
BRANCH   6  22
ATOM     22  O   UNL     1     170.476 143.541 158.520  1.00  0.00    -0.507 OA
ATOM     23  H   UNL     1     171.201 143.045 159.025  1.00  0.00     0.293 HD
ENDBRANCH   6  22
BRANCH   8  24
ATOM     24  O   UNL     1     173.144 147.490 157.772  1.00  0.00    -0.508 OA
ATOM     25  H   UNL     1     172.964 148.428 158.111  1.00  0.00     0.293 HD
ENDBRANCH   8  24
TORSDOF 5
ENDMDL
MODEL 5
REMARK VINA RESULT:    -7.294      1.974      6.468
REMARK INTER + INTRA:          -8.581
REMARK INTER:                  -8.654
REMARK INTRA:                   0.073
REMARK UNBOUND:                -0.008
REMARK SMILES O=c1c(O)c(-c2ccc(O)cc2)oc2cc(O)cc(O)c12
REMARK SMILES IDX 5 1 3 2 2 3 1 4 21 5 19 6 18 7 16 8 15 9 14 10 13 11 6 12
REMARK SMILES IDX 7 13 8 14 9 15 12 16 11 17 10 18 4 20 20 22 17 24
REMARK H PARENT 10 19 4 21 20 23 17 25
REMARK Flexibility Score: inf
ROOT
ATOM      1  C   UNL     1     168.787 145.607 153.682  1.00  0.00     0.180 A 
ATOM      2  C   UNL     1     169.760 145.694 152.667  1.00  0.00     0.208 A 
ATOM      3  C   UNL     1     169.383 146.182 151.406  1.00  0.00     0.238 A 
ATOM      4  O   UNL     1     170.244 146.255 150.486  1.00  0.00    -0.285 OA
ATOM      5  C   UNL     1     168.053 146.592 151.186  1.00  0.00     0.111 A 
ATOM      6  C   UNL     1     167.593 147.100 149.947  1.00  0.00     0.134 A 
ATOM      7  C   UNL     1     166.254 147.496 149.810  1.00  0.00     0.093 A 
ATOM      8  C   UNL     1     165.369 147.395 150.885  1.00  0.00     0.123 A 
ATOM      9  C   UNL     1     165.816 146.895 152.113  1.00  0.00     0.094 A 
ATOM     10  C   UNL     1     167.147 146.494 152.269  1.00  0.00     0.146 A 
ATOM     11  O   UNL     1     167.545 146.017 153.442  1.00  0.00    -0.452 OA
ENDROOT
BRANCH   1  12
ATOM     12  C   UNL     1     169.102 145.085 155.031  1.00  0.00     0.021 A 
ATOM     13  C   UNL     1     170.233 145.526 155.742  1.00  0.00     0.016 A 
ATOM     14  C   UNL     1     170.523 145.000 157.004  1.00  0.00     0.047 A 
ATOM     15  C   UNL     1     169.699 144.021 157.566  1.00  0.00     0.115 A 
ATOM     16  C   UNL     1     168.290 144.085 155.592  1.00  0.00     0.016 A 
ATOM     17  C   UNL     1     168.582 143.562 156.855  1.00  0.00     0.047 A 
BRANCH  15  18
ATOM     18  O   UNL     1     170.000 143.507 158.826  1.00  0.00    -0.508 OA
ATOM     19  H   UNL     1     169.688 142.585 159.109  1.00  0.00     0.293 HD
ENDBRANCH  15  18
ENDBRANCH   1  12
BRANCH   2  20
ATOM     20  O   UNL     1     171.084 145.328 152.924  1.00  0.00    -0.502 OA
ATOM     21  H   UNL     1     171.693 144.955 152.208  1.00  0.00     0.293 HD
ENDBRANCH   2  20
BRANCH   6  22
ATOM     22  O   UNL     1     168.453 147.213 148.854  1.00  0.00    -0.507 OA
ATOM     23  H   UNL     1     168.316 147.918 148.138  1.00  0.00     0.293 HD
ENDBRANCH   6  22
BRANCH   8  24
ATOM     24  O   UNL     1     164.044 147.797 150.724  1.00  0.00    -0.508 OA
ATOM     25  H   UNL     1     163.324 147.146 150.435  1.00  0.00     0.293 HD
ENDBRANCH   8  24
TORSDOF 5
ENDMDL
MODEL 6
REMARK VINA RESULT:    -7.087      1.428      3.026
REMARK INTER + INTRA:          -8.339
REMARK INTER:                  -8.673
REMARK INTRA:                   0.335
REMARK UNBOUND:                -0.008
REMARK SMILES O=c1c(O)c(-c2ccc(O)cc2)oc2cc(O)cc(O)c12
REMARK SMILES IDX 5 1 3 2 2 3 1 4 21 5 19 6 18 7 16 8 15 9 14 10 13 11 6 12
REMARK SMILES IDX 7 13 8 14 9 15 12 16 11 17 10 18 4 20 20 22 17 24
REMARK H PARENT 10 19 4 21 20 23 17 25
REMARK Flexibility Score: inf
ROOT
ATOM      1  C   UNL     1     168.619 145.787 152.862  1.00  0.00     0.180 A 
ATOM      2  C   UNL     1     168.628 145.856 154.269  1.00  0.00     0.208 A 
ATOM      3  C   UNL     1     169.677 145.244 154.972  1.00  0.00     0.238 A 
ATOM      4  O   UNL     1     169.689 145.290 156.232  1.00  0.00    -0.285 OA
ATOM      5  C   UNL     1     170.705 144.592 154.261  1.00  0.00     0.111 A 
ATOM      6  C   UNL     1     171.800 143.954 154.893  1.00  0.00     0.134 A 
ATOM      7  C   UNL     1     172.789 143.334 154.115  1.00  0.00     0.093 A 
ATOM      8  C   UNL     1     172.706 143.341 152.721  1.00  0.00     0.123 A 
ATOM      9  C   UNL     1     171.627 143.969 152.090  1.00  0.00     0.094 A 
ATOM     10  C   UNL     1     170.630 144.591 152.848  1.00  0.00     0.146 A 
ATOM     11  O   UNL     1     169.614 145.177 152.225  1.00  0.00    -0.452 OA
ENDROOT
BRANCH   1  12
ATOM     12  C   UNL     1     167.538 146.391 152.051  1.00  0.00     0.021 A 
ATOM     13  C   UNL     1     167.790 146.929 150.776  1.00  0.00     0.016 A 
ATOM     14  C   UNL     1     166.758 147.517 150.040  1.00  0.00     0.047 A 
ATOM     15  C   UNL     1     165.466 147.588 150.570  1.00  0.00     0.115 A 
ATOM     16  C   UNL     1     166.242 146.486 152.587  1.00  0.00     0.016 A 
ATOM     17  C   UNL     1     165.211 147.073 151.848  1.00  0.00     0.047 A 
BRANCH  15  18
ATOM     18  O   UNL     1     164.447 148.175 149.824  1.00  0.00    -0.508 OA
ATOM     19  H   UNL     1     164.141 147.780 148.942  1.00  0.00     0.293 HD
ENDBRANCH  15  18
ENDBRANCH   1  12
BRANCH   2  20
ATOM     20  O   UNL     1     167.624 146.551 154.947  1.00  0.00    -0.502 OA
ATOM     21  H   UNL     1     167.256 147.435 154.617  1.00  0.00     0.293 HD
ENDBRANCH   2  20
BRANCH   6  22
ATOM     22  O   UNL     1     171.912 143.930 156.284  1.00  0.00    -0.507 OA
ATOM     23  H   UNL     1     171.446 144.615 156.868  1.00  0.00     0.293 HD
ENDBRANCH   6  22
BRANCH   8  24
ATOM     24  O   UNL     1     173.702 142.720 151.971  1.00  0.00    -0.508 OA
ATOM     25  H   UNL     1     173.933 143.032 151.034  1.00  0.00     0.293 HD
ENDBRANCH   8  24
TORSDOF 5
ENDMDL
MODEL 7
REMARK VINA RESULT:    -7.087      1.878      6.788
REMARK INTER + INTRA:          -8.338
REMARK INTER:                  -8.067
REMARK INTRA:                  -0.271
REMARK UNBOUND:                -0.008
REMARK SMILES O=c1c(O)c(-c2ccc(O)cc2)oc2cc(O)cc(O)c12
REMARK SMILES IDX 5 1 3 2 2 3 1 4 21 5 19 6 18 7 16 8 15 9 14 10 13 11 6 12
REMARK SMILES IDX 7 13 8 14 9 15 12 16 11 17 10 18 4 20 20 22 17 24
REMARK H PARENT 10 19 4 21 20 23 17 25
REMARK Flexibility Score: inf
ROOT
ATOM      1  C   UNL     1     169.594 145.882 153.482  1.00  0.00     0.180 A 
ATOM      2  C   UNL     1     168.212 146.145 153.427  1.00  0.00     0.208 A 
ATOM      3  C   UNL     1     167.616 146.387 152.180  1.00  0.00     0.238 A 
ATOM      4  O   UNL     1     166.380 146.634 152.120  1.00  0.00    -0.285 OA
ATOM      5  C   UNL     1     168.403 146.344 151.012  1.00  0.00     0.111 A 
ATOM      6  C   UNL     1     167.879 146.572 149.716  1.00  0.00     0.134 A 
ATOM      7  C   UNL     1     168.726 146.503 148.600  1.00  0.00     0.093 A 
ATOM      8  C   UNL     1     170.083 146.209 148.754  1.00  0.00     0.123 A 
ATOM      9  C   UNL     1     170.607 145.982 150.030  1.00  0.00     0.094 A 
ATOM     10  C   UNL     1     169.779 146.048 151.155  1.00  0.00     0.146 A 
ATOM     11  O   UNL     1     170.302 145.834 152.357  1.00  0.00    -0.452 OA
ENDROOT
BRANCH   1  12
ATOM     12  C   UNL     1     170.299 145.635 154.761  1.00  0.00     0.021 A 
ATOM     13  C   UNL     1     170.544 144.329 155.223  1.00  0.00     0.016 A 
ATOM     14  C   UNL     1     171.189 144.122 156.446  1.00  0.00     0.047 A 
ATOM     15  C   UNL     1     171.584 145.211 157.227  1.00  0.00     0.115 A 
ATOM     16  C   UNL     1     170.680 146.725 155.561  1.00  0.00     0.016 A 
ATOM     17  C   UNL     1     171.326 146.515 156.783  1.00  0.00     0.047 A 
BRANCH  15  18
ATOM     18  O   UNL     1     172.228 144.989 158.443  1.00  0.00    -0.508 OA
ATOM     19  H   UNL     1     172.990 144.327 158.525  1.00  0.00     0.293 HD
ENDBRANCH  15  18
ENDBRANCH   1  12
BRANCH   2  20
ATOM     20  O   UNL     1     167.444 146.132 154.595  1.00  0.00    -0.502 OA
ATOM     21  H   UNL     1     166.952 145.307 154.913  1.00  0.00     0.293 HD
ENDBRANCH   2  20
BRANCH   6  22
ATOM     22  O   UNL     1     166.528 146.868 149.529  1.00  0.00    -0.507 OA
ATOM     23  H   UNL     1     165.866 146.846 150.297  1.00  0.00     0.293 HD
ENDBRANCH   6  22
BRANCH   8  24
ATOM     24  O   UNL     1     170.903 146.144 147.629  1.00  0.00    -0.508 OA
ATOM     25  H   UNL     1     171.891 145.929 147.704  1.00  0.00     0.293 HD
ENDBRANCH   8  24
TORSDOF 5
ENDMDL
MODEL 8
REMARK VINA RESULT:    -6.722      2.286      3.155
REMARK INTER + INTRA:          -7.909
REMARK INTER:                  -8.045
REMARK INTRA:                   0.136
REMARK UNBOUND:                -0.008
REMARK SMILES O=c1c(O)c(-c2ccc(O)cc2)oc2cc(O)cc(O)c12
REMARK SMILES IDX 5 1 3 2 2 3 1 4 21 5 19 6 18 7 16 8 15 9 14 10 13 11 6 12
REMARK SMILES IDX 7 13 8 14 9 15 12 16 11 17 10 18 4 20 20 22 17 24
REMARK H PARENT 10 19 4 21 20 23 17 25
REMARK Flexibility Score: inf
ROOT
ATOM      1  C   UNL     1     170.154 144.731 150.942  1.00  0.00     0.180 A 
ATOM      2  C   UNL     1     170.655 143.884 149.934  1.00  0.00     0.208 A 
ATOM      3  C   UNL     1     171.788 143.102 150.206  1.00  0.00     0.238 A 
ATOM      4  O   UNL     1     172.252 142.348 149.307  1.00  0.00    -0.285 OA
ATOM      5  C   UNL     1     172.387 143.163 151.480  1.00  0.00     0.111 A 
ATOM      6  C   UNL     1     173.528 142.404 151.836  1.00  0.00     0.134 A 
ATOM      7  C   UNL     1     174.061 142.513 153.129  1.00  0.00     0.093 A 
ATOM      8  C   UNL     1     173.477 143.363 154.071  1.00  0.00     0.123 A 
ATOM      9  C   UNL     1     172.349 144.115 153.726  1.00  0.00     0.094 A 
ATOM     10  C   UNL     1     171.804 144.022 152.441  1.00  0.00     0.146 A 
ATOM     11  O   UNL     1     170.736 144.750 152.137  1.00  0.00    -0.452 OA
ENDROOT
BRANCH   1  12
ATOM     12  C   UNL     1     168.975 145.600 150.726  1.00  0.00     0.021 A 
ATOM     13  C   UNL     1     168.786 146.293 149.516  1.00  0.00     0.016 A 
ATOM     14  C   UNL     1     167.678 147.126 149.345  1.00  0.00     0.047 A 
ATOM     15  C   UNL     1     166.753 147.291 150.380  1.00  0.00     0.115 A 
ATOM     16  C   UNL     1     168.053 145.786 151.770  1.00  0.00     0.016 A 
ATOM     17  C   UNL     1     166.945 146.620 151.595  1.00  0.00     0.047 A 
BRANCH  15  18
ATOM     18  O   UNL     1     165.652 148.124 150.195  1.00  0.00    -0.508 OA
ATOM     19  H   UNL     1     165.748 149.043 149.778  1.00  0.00     0.293 HD
ENDBRANCH  15  18
ENDBRANCH   1  12
BRANCH   2  20
ATOM     20  O   UNL     1     170.013 143.805 148.695  1.00  0.00    -0.502 OA
ATOM     21  H   UNL     1     169.029 144.011 148.580  1.00  0.00     0.293 HD
ENDBRANCH   2  20
BRANCH   6  22
ATOM     22  O   UNL     1     174.136 141.546 150.919  1.00  0.00    -0.507 OA
ATOM     23  H   UNL     1     173.593 140.915 150.339  1.00  0.00     0.293 HD
ENDBRANCH   6  22
BRANCH   8  24
ATOM     24  O   UNL     1     174.024 143.452 155.350  1.00  0.00    -0.508 OA
ATOM     25  H   UNL     1     173.823 144.236 155.959  1.00  0.00     0.293 HD
ENDBRANCH   8  24
TORSDOF 5
ENDMDL
