MODEL 1
REMARK VINA RESULT:     5.514      0.000      0.000
REMARK INTER + INTRA:          11.577
REMARK INTER:                  12.606
REMARK INTRA:                  -1.029
REMARK UNBOUND:                -1.029
REMARK SMILES CCCCCCCCCCCCCCCCCCCCCCCC(=O)[O-]
REMARK SMILES IDX 13 1 14 2 15 3 16 4 17 5 18 6 19 7 20 8 21 9 22 10 23 11
REMARK SMILES IDX 24 12 25 13 26 14 12 15 11 16 10 17 9 18 8 19 7 20 6 21 5 22
REMARK SMILES IDX 4 23 3 24 2 25 1 26
REMARK H PARENT
REMARK Flexibility Score: inf
ROOT
ATOM      1  C   UNL     1      -2.343  36.028  21.492  1.00  0.00     0.000 C 
ENDROOT
BRANCH   1   2
ATOM      2  C   UNL     1      -3.530  35.061  21.342  1.00  0.00     0.000 C 
BRANCH   2   3
ATOM      3  C   UNL     1      -4.115  34.697  22.715  1.00  0.00     0.000 C 
BRANCH   3   4
ATOM      4  C   UNL     1      -5.030  35.797  23.278  1.00  0.00     0.000 C 
BRANCH   4   5
ATOM      5  C   UNL     1      -5.125  35.759  24.810  1.00  0.00     0.000 C 
BRANCH   5   6
ATOM      6  C   UNL     1      -5.124  37.179  25.395  1.00  0.00     0.000 C 
BRANCH   6   7
ATOM      7  C   UNL     1      -4.205  37.317  26.619  1.00  0.00     0.000 C 
BRANCH   7   8
ATOM      8  C   UNL     1      -2.722  37.086  26.277  1.00  0.00     0.000 C 
BRANCH   8   9
ATOM      9  C   UNL     1      -1.808  37.250  27.510  1.00  0.00     0.000 C 
BRANCH   9  10
ATOM     10  C   UNL     1      -1.013  35.981  27.860  1.00  0.00     0.006 C 
BRANCH  10  11
ATOM     11  C   UNL     1      -1.890  34.873  28.454  1.00  0.00     0.053 C 
BRANCH  11  12
ATOM     12  C   UNL     1      -1.299  34.368  29.733  1.00  0.00     0.041 C 
ATOM     13  O   UNL     1      -1.998  34.326  30.780  1.00  0.00    -0.550 OA
ATOM     14  O   UNL     1       0.010  33.901  29.758  1.00  0.00    -0.550 OA
ENDBRANCH  11  12
ENDBRANCH  10  11
ENDBRANCH   9  10
ENDBRANCH   8   9
ENDBRANCH   7   8
ENDBRANCH   6   7
ENDBRANCH   5   6
ENDBRANCH   4   5
ENDBRANCH   3   4
ENDBRANCH   2   3
ENDBRANCH   1   2
BRANCH   1  15
ATOM     15  C   UNL     1      -1.979  36.719  20.168  1.00  0.00     0.000 C 
BRANCH  15  16
ATOM     16  C   UNL     1      -2.877  37.934  19.875  1.00  0.00     0.000 C 
BRANCH  16  17
ATOM     17  C   UNL     1      -3.854  37.678  18.717  1.00  0.00     0.000 C 
BRANCH  17  18
ATOM     18  C   UNL     1      -4.875  36.570  19.031  1.00  0.00    -0.000 C 
BRANCH  18  19
ATOM     19  C   UNL     1      -4.598  35.276  18.238  1.00  0.00    -0.000 C 
BRANCH  19  20
ATOM     20  C   UNL     1      -4.056  35.521  16.815  1.00  0.00    -0.000 C 
BRANCH  20  21
ATOM     21  C   UNL     1      -2.523  35.552  16.701  1.00  0.00    -0.000 C 
BRANCH  21  22
ATOM     22  C   UNL     1      -2.018  36.665  15.770  1.00  0.00    -0.000 C 
BRANCH  22  23
ATOM     23  C   UNL     1      -2.457  36.406  14.320  1.00  0.00    -0.000 C 
BRANCH  23  24
ATOM     24  C   UNL     1      -3.736  37.172  13.935  1.00  0.00    -0.000 C 
BRANCH  24  25
ATOM     25  C   UNL     1      -4.072  38.366  14.845  1.00  0.00    -0.003 C 
ATOM     26  C   UNL     1      -4.682  39.543  14.086  1.00  0.00     0.004 C 
ENDBRANCH  24  25
ENDBRANCH  23  24
ENDBRANCH  22  23
ENDBRANCH  21  22
ENDBRANCH  20  21
ENDBRANCH  19  20
ENDBRANCH  18  19
ENDBRANCH  17  18
ENDBRANCH  16  17
ENDBRANCH  15  16
ENDBRANCH   1  15
TORSDOF 22
ENDMDL
MODEL 2
REMARK VINA RESULT:     5.946      4.897     11.402
REMARK INTER + INTRA:          12.564
REMARK INTER:                  13.418
REMARK INTRA:                  -0.854
REMARK UNBOUND:                -1.029
REMARK SMILES CCCCCCCCCCCCCCCCCCCCCCCC(=O)[O-]
REMARK SMILES IDX 13 1 14 2 15 3 16 4 17 5 18 6 19 7 20 8 21 9 22 10 23 11
REMARK SMILES IDX 24 12 25 13 26 14 12 15 11 16 10 17 9 18 8 19 7 20 6 21 5 22
REMARK SMILES IDX 4 23 3 24 2 25 1 26
REMARK H PARENT
REMARK Flexibility Score: inf
ROOT
ATOM      1  C   UNL     1      -4.059  35.425  22.577  1.00  0.00     0.000 C 
ENDROOT
BRANCH   1   2
ATOM      2  C   UNL     1      -4.579  35.568  21.138  1.00  0.00     0.000 C 
BRANCH   2   3
ATOM      3  C   UNL     1      -5.077  36.997  20.875  1.00  0.00     0.000 C 
BRANCH   3   4
ATOM      4  C   UNL     1      -4.241  37.730  19.814  1.00  0.00     0.000 C 
BRANCH   4   5
ATOM      5  C   UNL     1      -3.000  36.933  19.386  1.00  0.00     0.000 C 
BRANCH   5   6
ATOM      6  C   UNL     1      -1.806  37.868  19.141  1.00  0.00     0.000 C 
BRANCH   6   7
ATOM      7  C   UNL     1      -1.351  37.876  17.674  1.00  0.00     0.000 C 
BRANCH   7   8
ATOM      8  C   UNL     1      -2.525  37.750  16.686  1.00  0.00     0.000 C 
BRANCH   8   9
ATOM      9  C   UNL     1      -2.767  36.289  16.251  1.00  0.00     0.000 C 
BRANCH   9  10
ATOM     10  C   UNL     1      -2.427  36.023  14.775  1.00  0.00     0.006 C 
BRANCH  10  11
ATOM     11  C   UNL     1      -2.679  37.239  13.876  1.00  0.00     0.053 C 
BRANCH  11  12
ATOM     12  C   UNL     1      -4.107  37.675  13.974  1.00  0.00     0.041 C 
ATOM     13  O   UNL     1      -5.035  36.827  13.891  1.00  0.00    -0.550 OA
ATOM     14  O   UNL     1      -4.413  39.011  14.201  1.00  0.00    -0.550 OA
ENDBRANCH  11  12
ENDBRANCH  10  11
ENDBRANCH   9  10
ENDBRANCH   8   9
ENDBRANCH   7   8
ENDBRANCH   6   7
ENDBRANCH   5   6
ENDBRANCH   4   5
ENDBRANCH   3   4
ENDBRANCH   2   3
ENDBRANCH   1   2
BRANCH   1  15
ATOM     15  C   UNL     1      -5.029  34.643  23.478  1.00  0.00     0.000 C 
BRANCH  15  16
ATOM     16  C   UNL     1      -5.124  35.240  24.893  1.00  0.00     0.000 C 
BRANCH  16  17
ATOM     17  C   UNL     1      -4.887  36.759  24.908  1.00  0.00     0.000 C 
BRANCH  17  18
ATOM     18  C   UNL     1      -4.520  37.291  26.305  1.00  0.00    -0.000 C 
BRANCH  18  19
ATOM     19  C   UNL     1      -3.114  37.927  26.339  1.00  0.00    -0.000 C 
BRANCH  19  20
ATOM     20  C   UNL     1      -2.068  37.085  27.098  1.00  0.00    -0.000 C 
BRANCH  20  21
ATOM     21  C   UNL     1      -2.628  35.843  27.811  1.00  0.00    -0.000 C 
BRANCH  21  22
ATOM     22  C   UNL     1      -1.794  35.433  29.035  1.00  0.00    -0.000 C 
BRANCH  22  23
ATOM     23  C   UNL     1      -1.764  33.905  29.190  1.00  0.00    -0.000 C 
BRANCH  23  24
ATOM     24  C   UNL     1      -0.367  33.366  29.548  1.00  0.00    -0.000 C 
BRANCH  24  25
ATOM     25  C   UNL     1       0.764  34.406  29.474  1.00  0.00    -0.003 C 
ATOM     26  C   UNL     1       2.143  33.777  29.277  1.00  0.00     0.004 C 
ENDBRANCH  24  25
ENDBRANCH  23  24
ENDBRANCH  22  23
ENDBRANCH  21  22
ENDBRANCH  20  21
ENDBRANCH  19  20
ENDBRANCH  18  19
ENDBRANCH  17  18
ENDBRANCH  16  17
ENDBRANCH  15  16
ENDBRANCH   1  15
TORSDOF 22
ENDMDL
MODEL 3
REMARK VINA RESULT:     6.394      0.968      1.750
REMARK INTER + INTRA:          13.587
REMARK INTER:                  13.855
REMARK INTRA:                  -0.267
REMARK UNBOUND:                -1.029
REMARK SMILES CCCCCCCCCCCCCCCCCCCCCCCC(=O)[O-]
REMARK SMILES IDX 13 1 14 2 15 3 16 4 17 5 18 6 19 7 20 8 21 9 22 10 23 11
REMARK SMILES IDX 24 12 25 13 26 14 12 15 11 16 10 17 9 18 8 19 7 20 6 21 5 22
REMARK SMILES IDX 4 23 3 24 2 25 1 26
REMARK H PARENT
REMARK Flexibility Score: inf
ROOT
ATOM      1  C   UNL     1      -3.693  35.082  21.864  1.00  0.00     0.000 C 
ENDROOT
BRANCH   1   2
ATOM      2  C   UNL     1      -5.125  35.340  22.362  1.00  0.00     0.000 C 
BRANCH   2   3
ATOM      3  C   UNL     1      -5.119  36.269  23.585  1.00  0.00     0.000 C 
BRANCH   3   4
ATOM      4  C   UNL     1      -5.093  35.498  24.914  1.00  0.00     0.000 C 
BRANCH   4   5
ATOM      5  C   UNL     1      -5.124  36.427  26.137  1.00  0.00     0.000 C 
BRANCH   5   6
ATOM      6  C   UNL     1      -4.441  37.767  25.824  1.00  0.00     0.000 C 
BRANCH   6   7
ATOM      7  C   UNL     1      -3.915  38.472  27.084  1.00  0.00     0.000 C 
BRANCH   7   8
ATOM      8  C   UNL     1      -2.380  38.432  27.189  1.00  0.00     0.000 C 
BRANCH   8   9
ATOM      9  C   UNL     1      -1.827  36.993  27.101  1.00  0.00     0.000 C 
BRANCH   9  10
ATOM     10  C   UNL     1      -1.504  36.374  28.472  1.00  0.00     0.006 C 
BRANCH  10  11
ATOM     11  C   UNL     1      -2.050  34.951  28.628  1.00  0.00     0.053 C 
BRANCH  11  12
ATOM     12  C   UNL     1      -1.161  34.144  29.521  1.00  0.00     0.041 C 
ATOM     13  O   UNL     1      -1.607  33.673  30.600  1.00  0.00    -0.550 OA
ATOM     14  O   UNL     1       0.148  33.874  29.139  1.00  0.00    -0.550 OA
ENDBRANCH  11  12
ENDBRANCH  10  11
ENDBRANCH   9  10
ENDBRANCH   8   9
ENDBRANCH   7   8
ENDBRANCH   6   7
ENDBRANCH   5   6
ENDBRANCH   4   5
ENDBRANCH   3   4
ENDBRANCH   2   3
ENDBRANCH   1   2
BRANCH   1  15
ATOM     15  C   UNL     1      -3.647  34.718  20.370  1.00  0.00     0.000 C 
BRANCH  15  16
ATOM     16  C   UNL     1      -4.885  35.222  19.607  1.00  0.00     0.000 C 
BRANCH  16  17
ATOM     17  C   UNL     1      -4.530  36.262  18.532  1.00  0.00     0.000 C 
BRANCH  17  18
ATOM     18  C   UNL     1      -3.830  37.504  19.112  1.00  0.00    -0.000 C 
BRANCH  18  19
ATOM     19  C   UNL     1      -2.291  37.391  19.049  1.00  0.00    -0.000 C 
BRANCH  19  20
ATOM     20  C   UNL     1      -1.646  38.277  17.964  1.00  0.00    -0.000 C 
BRANCH  20  21
ATOM     21  C   UNL     1      -1.991  37.886  16.517  1.00  0.00    -0.000 C 
BRANCH  21  22
ATOM     22  C   UNL     1      -1.697  36.409  16.213  1.00  0.00    -0.000 C 
BRANCH  22  23
ATOM     23  C   UNL     1      -1.998  36.082  14.743  1.00  0.00    -0.000 C 
BRANCH  23  24
ATOM     24  C   UNL     1      -3.404  36.529  14.305  1.00  0.00    -0.000 C 
BRANCH  24  25
ATOM     25  C   UNL     1      -3.992  37.697  15.116  1.00  0.00    -0.003 C 
ATOM     26  C   UNL     1      -4.357  38.903  14.250  1.00  0.00     0.004 C 
ENDBRANCH  24  25
ENDBRANCH  23  24
ENDBRANCH  22  23
ENDBRANCH  21  22
ENDBRANCH  20  21
ENDBRANCH  19  20
ENDBRANCH  18  19
ENDBRANCH  17  18
ENDBRANCH  16  17
ENDBRANCH  15  16
ENDBRANCH   1  15
TORSDOF 22
ENDMDL
MODEL 4
REMARK VINA RESULT:     6.650      1.264      2.728
REMARK INTER + INTRA:          14.175
REMARK INTER:                  13.735
REMARK INTRA:                   0.440
REMARK UNBOUND:                -1.029
REMARK SMILES CCCCCCCCCCCCCCCCCCCCCCCC(=O)[O-]
REMARK SMILES IDX 13 1 14 2 15 3 16 4 17 5 18 6 19 7 20 8 21 9 22 10 23 11
REMARK SMILES IDX 24 12 25 13 26 14 12 15 11 16 10 17 9 18 8 19 7 20 6 21 5 22
REMARK SMILES IDX 4 23 3 24 2 25 1 26
REMARK H PARENT
REMARK Flexibility Score: inf
ROOT
ATOM      1  C   UNL     1      -3.520  35.055  21.740  1.00  0.00     0.000 C 
ENDROOT
BRANCH   1   2
ATOM      2  C   UNL     1      -4.861  35.358  22.429  1.00  0.00     0.000 C 
BRANCH   2   3
ATOM      3  C   UNL     1      -4.826  34.934  23.905  1.00  0.00     0.000 C 
BRANCH   3   4
ATOM      4  C   UNL     1      -5.123  36.100  24.863  1.00  0.00     0.000 C 
BRANCH   4   5
ATOM      5  C   UNL     1      -5.123  37.461  24.154  1.00  0.00     0.000 C 
BRANCH   5   6
ATOM      6  C   UNL     1      -4.770  38.590  25.135  1.00  0.00     0.000 C 
BRANCH   6   7
ATOM      7  C   UNL     1      -4.354  38.065  26.518  1.00  0.00     0.000 C 
BRANCH   7   8
ATOM      8  C   UNL     1      -3.171  37.082  26.448  1.00  0.00     0.000 C 
BRANCH   8   9
ATOM      9  C   UNL     1      -2.360  37.053  27.761  1.00  0.00     0.000 C 
BRANCH   9  10
ATOM     10  C   UNL     1      -1.524  35.774  27.939  1.00  0.00     0.006 C 
BRANCH  10  11
ATOM     11  C   UNL     1      -1.683  35.144  29.327  1.00  0.00     0.053 C 
BRANCH  11  12
ATOM     12  C   UNL     1      -0.746  33.989  29.489  1.00  0.00     0.041 C 
ATOM     13  O   UNL     1       0.368  33.991  28.901  1.00  0.00    -0.550 OA
ATOM     14  O   UNL     1      -1.083  32.931  30.324  1.00  0.00    -0.550 OA
ENDBRANCH  11  12
ENDBRANCH  10  11
ENDBRANCH   9  10
ENDBRANCH   8   9
ENDBRANCH   7   8
ENDBRANCH   6   7
ENDBRANCH   5   6
ENDBRANCH   4   5
ENDBRANCH   3   4
ENDBRANCH   2   3
ENDBRANCH   1   2
BRANCH   1  15
ATOM     15  C   UNL     1      -3.702  34.345  20.388  1.00  0.00     0.000 C 
BRANCH  15  16
ATOM     16  C   UNL     1      -4.559  35.165  19.407  1.00  0.00     0.000 C 
BRANCH  16  17
ATOM     17  C   UNL     1      -4.930  34.370  18.145  1.00  0.00     0.000 C 
BRANCH  17  18
ATOM     18  C   UNL     1      -4.059  34.739  16.930  1.00  0.00    -0.000 C 
BRANCH  18  19
ATOM     19  C   UNL     1      -4.111  36.248  16.610  1.00  0.00    -0.000 C 
BRANCH  19  20
ATOM     20  C   UNL     1      -3.381  36.634  15.307  1.00  0.00    -0.000 C 
BRANCH  20  21
ATOM     21  C   UNL     1      -1.849  36.507  15.359  1.00  0.00    -0.000 C 
BRANCH  21  22
ATOM     22  C   UNL     1      -1.292  36.600  16.788  1.00  0.00    -0.000 C 
BRANCH  22  23
ATOM     23  C   UNL     1      -2.036  37.674  17.596  1.00  0.00    -0.000 C 
BRANCH  23  24
ATOM     24  C   UNL     1      -1.458  37.867  19.010  1.00  0.00    -0.000 C 
BRANCH  24  25
ATOM     25  C   UNL     1      -2.468  37.666  20.153  1.00  0.00    -0.003 C 
ATOM     26  C   UNL     1      -3.858  38.211  19.825  1.00  0.00     0.004 C 
ENDBRANCH  24  25
ENDBRANCH  23  24
ENDBRANCH  22  23
ENDBRANCH  21  22
ENDBRANCH  20  21
ENDBRANCH  19  20
ENDBRANCH  18  19
ENDBRANCH  17  18
ENDBRANCH  16  17
ENDBRANCH  15  16
ENDBRANCH   1  15
TORSDOF 22
ENDMDL
MODEL 5
REMARK VINA RESULT:     7.004      3.440     10.200
REMARK INTER + INTRA:          14.982
REMARK INTER:                  15.145
REMARK INTRA:                  -0.163
REMARK UNBOUND:                -1.029
REMARK SMILES CCCCCCCCCCCCCCCCCCCCCCCC(=O)[O-]
REMARK SMILES IDX 13 1 14 2 15 3 16 4 17 5 18 6 19 7 20 8 21 9 22 10 23 11
REMARK SMILES IDX 24 12 25 13 26 14 12 15 11 16 10 17 9 18 8 19 7 20 6 21 5 22
REMARK SMILES IDX 4 23 3 24 2 25 1 26
REMARK H PARENT
REMARK Flexibility Score: inf
ROOT
ATOM      1  C   UNL     1      -2.785  35.013  22.066  1.00  0.00     0.000 C 
ENDROOT
BRANCH   1   2
ATOM      2  C   UNL     1      -2.979  35.946  20.860  1.00  0.00     0.000 C 
BRANCH   2   3
ATOM      3  C   UNL     1      -4.471  36.195  20.595  1.00  0.00     0.000 C 
BRANCH   3   4
ATOM      4  C   UNL     1      -5.054  35.235  19.546  1.00  0.00     0.000 C 
BRANCH   4   5
ATOM      5  C   UNL     1      -4.938  35.782  18.116  1.00  0.00     0.000 C 
BRANCH   5   6
ATOM      6  C   UNL     1      -4.243  34.768  17.196  1.00  0.00     0.000 C 
BRANCH   6   7
ATOM      7  C   UNL     1      -2.858  35.242  16.729  1.00  0.00     0.000 C 
BRANCH   7   8
ATOM      8  C   UNL     1      -2.904  35.965  15.371  1.00  0.00     0.000 C 
BRANCH   8   9
ATOM      9  C   UNL     1      -3.337  37.441  15.512  1.00  0.00     0.000 C 
BRANCH   9  10
ATOM     10  C   UNL     1      -2.728  38.146  16.736  1.00  0.00     0.006 C 
BRANCH  10  11
ATOM     11  C   UNL     1      -1.396  37.530  17.179  1.00  0.00     0.053 C 
BRANCH  11  12
ATOM     12  C   UNL     1      -1.142  37.817  18.625  1.00  0.00     0.041 C 
ATOM     13  O   UNL     1      -0.118  37.353  19.192  1.00  0.00    -0.550 OA
ATOM     14  O   UNL     1      -2.013  38.634  19.336  1.00  0.00    -0.550 OA
ENDBRANCH  11  12
ENDBRANCH  10  11
ENDBRANCH   9  10
ENDBRANCH   8   9
ENDBRANCH   7   8
ENDBRANCH   6   7
ENDBRANCH   5   6
ENDBRANCH   4   5
ENDBRANCH   3   4
ENDBRANCH   2   3
ENDBRANCH   1   2
BRANCH   1  15
ATOM     15  C   UNL     1      -3.906  33.967  22.186  1.00  0.00     0.000 C 
BRANCH  15  16
ATOM     16  C   UNL     1      -4.757  34.164  23.453  1.00  0.00     0.000 C 
BRANCH  16  17
ATOM     17  C   UNL     1      -5.120  35.637  23.696  1.00  0.00     0.000 C 
BRANCH  17  18
ATOM     18  C   UNL     1      -5.125  36.013  25.189  1.00  0.00    -0.000 C 
BRANCH  18  19
ATOM     19  C   UNL     1      -4.803  37.505  25.418  1.00  0.00    -0.000 C 
BRANCH  19  20
ATOM     20  C   UNL     1      -4.104  37.792  26.763  1.00  0.00    -0.000 C 
BRANCH  20  21
ATOM     21  C   UNL     1      -2.586  38.019  26.669  1.00  0.00    -0.000 C 
BRANCH  21  22
ATOM     22  C   UNL     1      -1.774  36.745  26.947  1.00  0.00    -0.000 C 
BRANCH  22  23
ATOM     23  C   UNL     1      -1.916  36.315  28.415  1.00  0.00    -0.000 C 
BRANCH  23  24
ATOM     24  C   UNL     1      -1.618  34.820  28.633  1.00  0.00    -0.000 C 
BRANCH  24  25
ATOM     25  C   UNL     1      -1.076  34.467  30.028  1.00  0.00    -0.003 C 
ATOM     26  C   UNL     1      -1.966  33.480  30.784  1.00  0.00     0.004 C 
ENDBRANCH  24  25
ENDBRANCH  23  24
ENDBRANCH  22  23
ENDBRANCH  21  22
ENDBRANCH  20  21
ENDBRANCH  19  20
ENDBRANCH  18  19
ENDBRANCH  17  18
ENDBRANCH  16  17
ENDBRANCH  15  16
ENDBRANCH   1  15
TORSDOF 22
ENDMDL
MODEL 6
REMARK VINA RESULT:     7.255      1.282      1.993
REMARK INTER + INTRA:          15.557
REMARK INTER:                  16.057
REMARK INTRA:                  -0.500
REMARK UNBOUND:                -1.029
REMARK SMILES CCCCCCCCCCCCCCCCCCCCCCCC(=O)[O-]
REMARK SMILES IDX 13 1 14 2 15 3 16 4 17 5 18 6 19 7 20 8 21 9 22 10 23 11
REMARK SMILES IDX 24 12 25 13 26 14 12 15 11 16 10 17 9 18 8 19 7 20 6 21 5 22
REMARK SMILES IDX 4 23 3 24 2 25 1 26
REMARK H PARENT
REMARK Flexibility Score: inf
ROOT
ATOM      1  C   UNL     1      -2.621  35.710  21.658  1.00  0.00     0.000 C 
ENDROOT
BRANCH   1   2
ATOM      2  C   UNL     1      -3.668  34.593  21.511  1.00  0.00     0.000 C 
BRANCH   2   3
ATOM      3  C   UNL     1      -4.970  34.966  22.235  1.00  0.00     0.000 C 
BRANCH   3   4
ATOM      4  C   UNL     1      -5.125  34.246  23.584  1.00  0.00     0.000 C 
BRANCH   4   5
ATOM      5  C   UNL     1      -4.456  35.004  24.739  1.00  0.00     0.000 C 
BRANCH   5   6
ATOM      6  C   UNL     1      -5.123  36.370  24.957  1.00  0.00     0.000 C 
BRANCH   6   7
ATOM      7  C   UNL     1      -4.733  37.014  26.296  1.00  0.00     0.000 C 
BRANCH   7   8
ATOM      8  C   UNL     1      -3.579  38.023  26.155  1.00  0.00     0.000 C 
BRANCH   8   9
ATOM      9  C   UNL     1      -2.403  37.700  27.102  1.00  0.00     0.000 C 
BRANCH   9  10
ATOM     10  C   UNL     1      -2.548  36.349  27.823  1.00  0.00     0.006 C 
BRANCH  10  11
ATOM     11  C   UNL     1      -1.219  35.597  27.953  1.00  0.00     0.053 C 
BRANCH  11  12
ATOM     12  C   UNL     1      -1.267  34.647  29.109  1.00  0.00     0.041 C 
ATOM     13  O   UNL     1      -2.337  34.486  29.752  1.00  0.00    -0.550 OA
ATOM     14  O   UNL     1      -0.140  33.907  29.448  1.00  0.00    -0.550 OA
ENDBRANCH  11  12
ENDBRANCH  10  11
ENDBRANCH   9  10
ENDBRANCH   8   9
ENDBRANCH   7   8
ENDBRANCH   6   7
ENDBRANCH   5   6
ENDBRANCH   4   5
ENDBRANCH   3   4
ENDBRANCH   2   3
ENDBRANCH   1   2
BRANCH   1  15
ATOM     15  C   UNL     1      -2.859  36.871  20.678  1.00  0.00     0.000 C 
BRANCH  15  16
ATOM     16  C   UNL     1      -4.032  37.770  21.110  1.00  0.00     0.000 C 
BRANCH  16  17
ATOM     17  C   UNL     1      -4.946  38.150  19.934  1.00  0.00     0.000 C 
BRANCH  17  18
ATOM     18  C   UNL     1      -4.684  37.301  18.677  1.00  0.00    -0.000 C 
BRANCH  18  19
ATOM     19  C   UNL     1      -5.025  35.812  18.895  1.00  0.00    -0.000 C 
BRANCH  19  20
ATOM     20  C   UNL     1      -4.789  34.930  17.652  1.00  0.00    -0.000 C 
BRANCH  20  21
ATOM     21  C   UNL     1      -3.462  35.186  16.917  1.00  0.00    -0.000 C 
BRANCH  21  22
ATOM     22  C   UNL     1      -3.589  36.245  15.811  1.00  0.00    -0.000 C 
BRANCH  22  23
ATOM     23  C   UNL     1      -2.404  37.222  15.850  1.00  0.00    -0.000 C 
BRANCH  23  24
ATOM     24  C   UNL     1      -1.377  36.875  16.944  1.00  0.00    -0.000 C 
BRANCH  24  25
ATOM     25  C   UNL     1      -1.538  37.666  18.254  1.00  0.00    -0.003 C 
ATOM     26  C   UNL     1      -0.376  38.621  18.522  1.00  0.00     0.004 C 
ENDBRANCH  24  25
ENDBRANCH  23  24
ENDBRANCH  22  23
ENDBRANCH  21  22
ENDBRANCH  20  21
ENDBRANCH  19  20
ENDBRANCH  18  19
ENDBRANCH  17  18
ENDBRANCH  16  17
ENDBRANCH  15  16
ENDBRANCH   1  15
TORSDOF 22
ENDMDL
MODEL 7
REMARK VINA RESULT:     8.160      3.291      9.930
REMARK INTER + INTRA:          17.625
REMARK INTER:                  17.700
REMARK INTRA:                  -0.075
REMARK UNBOUND:                -1.029
REMARK SMILES CCCCCCCCCCCCCCCCCCCCCCCC(=O)[O-]
REMARK SMILES IDX 13 1 14 2 15 3 16 4 17 5 18 6 19 7 20 8 21 9 22 10 23 11
REMARK SMILES IDX 24 12 25 13 26 14 12 15 11 16 10 17 9 18 8 19 7 20 6 21 5 22
REMARK SMILES IDX 4 23 3 24 2 25 1 26
REMARK H PARENT
REMARK Flexibility Score: inf
ROOT
ATOM      1  C   UNL     1      -4.530  37.366  21.037  1.00  0.00     0.000 C 
ENDROOT
BRANCH   1   2
ATOM      2  C   UNL     1      -4.561  37.449  19.502  1.00  0.00     0.000 C 
BRANCH   2   3
ATOM      3  C   UNL     1      -4.748  36.056  18.882  1.00  0.00     0.000 C 
BRANCH   3   4
ATOM      4  C   UNL     1      -3.974  35.886  17.565  1.00  0.00     0.000 C 
BRANCH   4   5
ATOM      5  C   UNL     1      -4.084  37.117  16.652  1.00  0.00     0.000 C 
BRANCH   5   6
ATOM      6  C   UNL     1      -4.260  36.697  15.185  1.00  0.00     0.000 C 
BRANCH   6   7
ATOM      7  C   UNL     1      -3.243  37.368  14.250  1.00  0.00     0.000 C 
BRANCH   7   8
ATOM      8  C   UNL     1      -1.794  36.938  14.543  1.00  0.00     0.000 C 
BRANCH   8   9
ATOM      9  C   UNL     1      -1.601  36.503  16.011  1.00  0.00     0.000 C 
BRANCH   9  10
ATOM     10  C   UNL     1      -0.548  37.333  16.765  1.00  0.00     0.006 C 
BRANCH  10  11
ATOM     11  C   UNL     1      -0.312  36.840  18.197  1.00  0.00     0.053 C 
BRANCH  11  12
ATOM     12  C   UNL     1      -0.982  37.748  19.180  1.00  0.00     0.041 C 
ATOM     13  O   UNL     1      -1.463  38.848  18.799  1.00  0.00    -0.550 OA
ATOM     14  O   UNL     1      -1.114  37.361  20.508  1.00  0.00    -0.550 OA
ENDBRANCH  11  12
ENDBRANCH  10  11
ENDBRANCH   9  10
ENDBRANCH   8   9
ENDBRANCH   7   8
ENDBRANCH   6   7
ENDBRANCH   5   6
ENDBRANCH   4   5
ENDBRANCH   3   4
ENDBRANCH   2   3
ENDBRANCH   1   2
BRANCH   1  15
ATOM     15  C   UNL     1      -5.053  36.019  21.562  1.00  0.00     0.000 C 
BRANCH  15  16
ATOM     16  C   UNL     1      -3.919  35.100  22.049  1.00  0.00     0.000 C 
BRANCH  16  17
ATOM     17  C   UNL     1      -4.141  34.602  23.487  1.00  0.00     0.000 C 
BRANCH  17  18
ATOM     18  C   UNL     1      -5.125  35.483  24.278  1.00  0.00    -0.000 C 
BRANCH  18  19
ATOM     19  C   UNL     1      -4.531  36.866  24.616  1.00  0.00    -0.000 C 
BRANCH  19  20
ATOM     20  C   UNL     1      -5.125  37.505  25.888  1.00  0.00    -0.000 C 
BRANCH  20  21
ATOM     21  C   UNL     1      -4.092  38.115  26.851  1.00  0.00    -0.000 C 
BRANCH  21  22
ATOM     22  C   UNL     1      -2.701  38.262  26.216  1.00  0.00    -0.000 C 
BRANCH  22  23
ATOM     23  C   UNL     1      -1.623  37.623  27.105  1.00  0.00    -0.000 C 
BRANCH  23  24
ATOM     24  C   UNL     1      -2.199  36.604  28.105  1.00  0.00    -0.000 C 
BRANCH  24  25
ATOM     25  C   UNL     1      -1.455  35.258  28.155  1.00  0.00    -0.003 C 
ATOM     26  C   UNL     1      -1.785  34.439  29.402  1.00  0.00     0.004 C 
ENDBRANCH  24  25
ENDBRANCH  23  24
ENDBRANCH  22  23
ENDBRANCH  21  22
ENDBRANCH  20  21
ENDBRANCH  19  20
ENDBRANCH  18  19
ENDBRANCH  17  18
ENDBRANCH  16  17
ENDBRANCH  15  16
ENDBRANCH   1  15
TORSDOF 22
ENDMDL
