MODEL 1
REMARK VINA RESULT:     2.620      0.000      0.000
REMARK INTER + INTRA:           3.757
REMARK INTER:                   3.157
REMARK INTRA:                   0.600
REMARK UNBOUND:                 0.600
REMARK SMILES O=c1c(O)c(-c2ccc(O)cc2O)oc2cc(O)cc(O)c12
REMARK SMILES IDX 5 1 3 2 2 3 1 4 22 5 20 6 19 7 17 8 16 9 15 10 14 11 6 12
REMARK SMILES IDX 8 13 7 14 9 15 11 16 12 17 10 18 13 20 4 22 21 24 18 26
REMARK H PARENT 10 19 13 21 4 23 21 25 18 27
REMARK Flexibility Score: inf
ROOT
ATOM      1  C   UNL     1     -20.042 -20.874 -26.781  1.00  0.00     0.184 A 
ATOM      2  C   UNL     1     -20.115 -22.143 -26.180  1.00  0.00     0.208 A 
ATOM      3  C   UNL     1     -20.150 -22.229 -24.780  1.00  0.00     0.238 A 
ATOM      4  O   UNL     1     -20.205 -23.362 -24.228  1.00  0.00    -0.285 OA
ATOM      5  C   UNL     1     -20.132 -21.047 -24.009  1.00  0.00     0.111 A 
ATOM      6  C   UNL     1     -20.168 -21.044 -22.594  1.00  0.00     0.134 A 
ATOM      7  C   UNL     1     -20.156 -19.826 -21.900  1.00  0.00     0.093 A 
ATOM      8  C   UNL     1     -20.109 -18.611 -22.593  1.00  0.00     0.123 A 
ATOM      9  C   UNL     1     -20.073 -18.608 -23.989  1.00  0.00     0.094 A 
ATOM     10  C   UNL     1     -20.083 -19.812 -24.700  1.00  0.00     0.146 A 
ATOM     11  O   UNL     1     -20.042 -19.780 -26.027  1.00  0.00    -0.451 OA
ENDROOT
BRANCH   1  12
ATOM     12  C   UNL     1     -19.990 -20.714 -28.249  1.00  0.00     0.063 A 
ATOM     13  C   UNL     1     -20.004 -21.742 -30.452  1.00  0.00     0.047 A 
ATOM     14  C   UNL     1     -20.046 -21.857 -29.061  1.00  0.00     0.020 A 
ATOM     15  C   UNL     1     -19.920 -20.482 -31.051  1.00  0.00     0.119 A 
ATOM     16  C   UNL     1     -19.887 -19.332 -30.251  1.00  0.00     0.093 A 
ATOM     17  C   UNL     1     -19.934 -19.440 -28.853  1.00  0.00     0.130 A 
BRANCH  15  18
ATOM     18  O   UNL     1     -19.875 -20.382 -32.440  1.00  0.00    -0.508 OA
ATOM     19  H   UNL     1     -19.869 -19.483 -32.907  1.00  0.00     0.293 HD
ENDBRANCH  15  18
BRANCH  17  20
ATOM     20  O   UNL     1     -19.951 -18.286 -28.069  1.00  0.00    -0.507 OA
ATOM     21  H   UNL     1     -19.680 -18.302 -27.093  1.00  0.00     0.293 HD
ENDBRANCH  17  20
ENDBRANCH   1  12
BRANCH   2  22
ATOM     22  O   UNL     1     -20.177 -23.293 -26.971  1.00  0.00    -0.502 OA
ATOM     23  H   UNL     1     -20.610 -24.151 -26.649  1.00  0.00     0.293 HD
ENDBRANCH   2  22
BRANCH   6  24
ATOM     24  O   UNL     1     -20.217 -22.240 -21.875  1.00  0.00    -0.507 OA
ATOM     25  H   UNL     1     -19.387 -22.798 -21.715  1.00  0.00     0.293 HD
ENDBRANCH   6  24
BRANCH   8  26
ATOM     26  O   UNL     1     -20.097 -17.400 -21.904  1.00  0.00    -0.508 OA
ATOM     27  H   UNL     1     -19.517 -17.262 -21.085  1.00  0.00     0.293 HD
ENDBRANCH   8  26
TORSDOF 6
ENDMDL
MODEL 2
REMARK VINA RESULT:     4.333     23.623     25.747
REMARK INTER + INTRA:           5.819
REMARK INTER:                   5.714
REMARK INTRA:                   0.106
REMARK UNBOUND:                 0.600
REMARK SMILES O=c1c(O)c(-c2ccc(O)cc2O)oc2cc(O)cc(O)c12
REMARK SMILES IDX 5 1 3 2 2 3 1 4 22 5 20 6 19 7 17 8 16 9 15 10 14 11 6 12
REMARK SMILES IDX 8 13 7 14 9 15 11 16 12 17 10 18 13 20 4 22 21 24 18 26
REMARK H PARENT 10 19 13 21 4 23 21 25 18 27
REMARK Flexibility Score: inf
ROOT
ATOM      1  C   UNL     1     -37.605 -35.688 -34.601  1.00  0.00     0.184 A 
ATOM      2  C   UNL     1     -36.202 -35.710 -34.701  1.00  0.00     0.208 A 
ATOM      3  C   UNL     1     -35.614 -35.838 -35.968  1.00  0.00     0.238 A 
ATOM      4  O   UNL     1     -34.357 -35.869 -36.069  1.00  0.00    -0.285 OA
ATOM      5  C   UNL     1     -36.437 -35.921 -37.112  1.00  0.00     0.111 A 
ATOM      6  C   UNL     1     -35.925 -36.047 -38.425  1.00  0.00     0.134 A 
ATOM      7  C   UNL     1     -36.808 -36.115 -39.512  1.00  0.00     0.093 A 
ATOM      8  C   UNL     1     -38.192 -36.058 -39.311  1.00  0.00     0.123 A 
ATOM      9  C   UNL     1     -38.701 -35.934 -38.018  1.00  0.00     0.094 A 
ATOM     10  C   UNL     1     -37.838 -35.866 -36.920  1.00  0.00     0.146 A 
ATOM     11  O   UNL     1     -38.349 -35.753 -35.700  1.00  0.00    -0.451 OA
ENDROOT
BRANCH   1  12
ATOM     12  C   UNL     1     -38.288 -35.568 -33.297  1.00  0.00     0.063 A 
ATOM     13  C   UNL     1     -38.301 -36.026 -30.909  1.00  0.00     0.047 A 
ATOM     14  C   UNL     1     -37.685 -36.125 -32.159  1.00  0.00     0.020 A 
ATOM     15  C   UNL     1     -39.520 -35.356 -30.777  1.00  0.00     0.119 A 
ATOM     16  C   UNL     1     -40.120 -34.776 -31.902  1.00  0.00     0.093 A 
ATOM     17  C   UNL     1     -39.505 -34.867 -33.160  1.00  0.00     0.130 A 
BRANCH  15  18
ATOM     18  O   UNL     1     -40.125 -35.268 -29.525  1.00  0.00    -0.508 OA
ATOM     19  H   UNL     1     -40.739 -34.499 -29.287  1.00  0.00     0.293 HD
ENDBRANCH  15  18
BRANCH  17  20
ATOM     20  O   UNL     1     -40.087 -34.242 -34.264  1.00  0.00    -0.507 OA
ATOM     21  H   UNL     1     -40.890 -34.638 -34.737  1.00  0.00     0.293 HD
ENDBRANCH  17  20
ENDBRANCH   1  12
BRANCH   2  22
ATOM     22  O   UNL     1     -35.415 -35.580 -33.554  1.00  0.00    -0.502 OA
ATOM     23  H   UNL     1     -35.710 -35.930 -32.650  1.00  0.00     0.293 HD
ENDBRANCH   2  22
BRANCH   6  24
ATOM     24  O   UNL     1     -34.549 -36.105 -38.658  1.00  0.00    -0.507 OA
ATOM     25  H   UNL     1     -33.924 -36.594 -38.029  1.00  0.00     0.293 HD
ENDBRANCH   6  24
BRANCH   8  26
ATOM     26  O   UNL     1     -39.070 -36.125 -40.391  1.00  0.00    -0.508 OA
ATOM     27  H   UNL     1     -38.941 -35.549 -41.215  1.00  0.00     0.293 HD
ENDBRANCH   8  26
TORSDOF 6
ENDMDL
