MODEL 1
REMARK VINA RESULT:    -6.273      0.000      0.000
REMARK INTER + INTRA:          -7.850
REMARK INTER:                  -7.557
REMARK INTRA:                  -0.294
REMARK UNBOUND:                -0.294
REMARK SMILES O=c1c(O)c(-c2ccc(O)c(O)c2)oc2cc(O)cc(O)c12
REMARK SMILES IDX 5 1 3 2 2 3 1 4 22 5 20 6 19 7 17 8 16 9 15 10 14 11 6 12
REMARK SMILES IDX 7 13 8 14 9 15 13 16 11 17 10 18 12 20 4 22 21 24 18 26
REMARK H PARENT 10 19 12 21 4 23 21 25 18 27
REMARK Flexibility Score: inf
ROOT
ATOM      1  C   UNL     1      19.310  18.165   8.315  1.00  0.00     0.180 A 
ATOM      2  C   UNL     1      20.119  17.765   7.233  1.00  0.00     0.208 A 
ATOM      3  C   UNL     1      21.503  17.643   7.430  1.00  0.00     0.238 A 
ATOM      4  O   UNL     1      22.239  17.297   6.466  1.00  0.00    -0.285 OA
ATOM      5  C   UNL     1      22.052  17.900   8.703  1.00  0.00     0.111 A 
ATOM      6  C   UNL     1      23.435  17.795   8.986  1.00  0.00     0.134 A 
ATOM      7  C   UNL     1      23.902  18.060  10.282  1.00  0.00     0.093 A 
ATOM      8  C   UNL     1      23.016  18.424  11.298  1.00  0.00     0.123 A 
ATOM      9  C   UNL     1      21.649  18.530  11.025  1.00  0.00     0.094 A 
ATOM     10  C   UNL     1      21.164  18.273   9.739  1.00  0.00     0.146 A 
ATOM     11  O   UNL     1      19.861  18.385   9.505  1.00  0.00    -0.452 OA
ENDROOT
BRANCH   1  12
ATOM     12  C   UNL     1      17.845  18.335   8.182  1.00  0.00     0.025 A 
ATOM     13  C   UNL     1      16.952  17.326   8.583  1.00  0.00     0.016 A 
ATOM     14  C   UNL     1      15.574  17.499   8.426  1.00  0.00     0.051 A 
ATOM     15  C   UNL     1      15.069  18.671   7.855  1.00  0.00     0.157 A 
ATOM     16  C   UNL     1      17.336  19.501   7.589  1.00  0.00     0.062 A 
ATOM     17  C   UNL     1      15.954  19.677   7.430  1.00  0.00     0.158 A 
BRANCH  15  18
ATOM     18  O   UNL     1      13.690  18.816   7.712  1.00  0.00    -0.504 OA
ATOM     19  H   UNL     1      13.037  18.125   8.063  1.00  0.00     0.293 HD
ENDBRANCH  15  18
BRANCH  17  20
ATOM     20  O   UNL     1      15.458  20.845   6.852  1.00  0.00    -0.504 OA
ATOM     21  H   UNL     1      14.579  21.252   7.149  1.00  0.00     0.293 HD
ENDBRANCH  17  20
ENDBRANCH   1  12
BRANCH   2  22
ATOM     22  O   UNL     1      19.545  17.468   5.995  1.00  0.00    -0.502 OA
ATOM     23  H   UNL     1      18.816  16.773   5.888  1.00  0.00     0.293 HD
ENDBRANCH   2  22
BRANCH   6  24
ATOM     24  O   UNL     1      24.346  17.433   7.993  1.00  0.00    -0.507 OA
ATOM     25  H   UNL     1      24.867  18.126   7.468  1.00  0.00     0.293 HD
ENDBRANCH   6  24
BRANCH   8  26
ATOM     26  O   UNL     1      23.505  18.681  12.577  1.00  0.00    -0.508 OA
ATOM     27  H   UNL     1      23.844  17.936  13.174  1.00  0.00     0.293 HD
ENDBRANCH   8  26
TORSDOF 6
ENDMDL
MODEL 2
REMARK VINA RESULT:    -6.250      1.769      6.611
REMARK INTER + INTRA:          -7.822
REMARK INTER:                  -7.491
REMARK INTRA:                  -0.331
REMARK UNBOUND:                -0.294
REMARK SMILES O=c1c(O)c(-c2ccc(O)c(O)c2)oc2cc(O)cc(O)c12
REMARK SMILES IDX 5 1 3 2 2 3 1 4 22 5 20 6 19 7 17 8 16 9 15 10 14 11 6 12
REMARK SMILES IDX 7 13 8 14 9 15 13 16 11 17 10 18 12 20 4 22 21 24 18 26
REMARK H PARENT 10 19 12 21 4 23 21 25 18 27
REMARK Flexibility Score: inf
ROOT
ATOM      1  C   UNL     1      19.973  17.312   8.361  1.00  0.00     0.180 A 
ATOM      2  C   UNL     1      19.915  16.333   7.350  1.00  0.00     0.208 A 
ATOM      3  C   UNL     1      18.915  16.429   6.370  1.00  0.00     0.238 A 
ATOM      4  O   UNL     1      18.846  15.552   5.466  1.00  0.00    -0.285 OA
ATOM      5  C   UNL     1      18.008  17.508   6.403  1.00  0.00     0.111 A 
ATOM      6  C   UNL     1      16.975  17.680   5.450  1.00  0.00     0.134 A 
ATOM      7  C   UNL     1      16.117  18.786   5.546  1.00  0.00     0.093 A 
ATOM      8  C   UNL     1      16.271  19.720   6.572  1.00  0.00     0.123 A 
ATOM      9  C   UNL     1      17.289  19.555   7.517  1.00  0.00     0.094 A 
ATOM     10  C   UNL     1      18.153  18.459   7.439  1.00  0.00     0.146 A 
ATOM     11  O   UNL     1      19.110  18.323   8.352  1.00  0.00    -0.452 OA
ENDROOT
BRANCH   1  12
ATOM     12  C   UNL     1      20.985  17.270   9.441  1.00  0.00     0.025 A 
ATOM     13  C   UNL     1      20.755  16.559  10.632  1.00  0.00     0.016 A 
ATOM     14  C   UNL     1      21.716  16.552  11.647  1.00  0.00     0.051 A 
ATOM     15  C   UNL     1      22.910  17.264  11.496  1.00  0.00     0.157 A 
ATOM     16  C   UNL     1      22.176  18.000   9.301  1.00  0.00     0.062 A 
ATOM     17  C   UNL     1      23.141  17.995  10.319  1.00  0.00     0.158 A 
BRANCH  15  18
ATOM     18  O   UNL     1      23.849  17.237  12.525  1.00  0.00    -0.504 OA
ATOM     19  H   UNL     1      24.788  16.881  12.388  1.00  0.00     0.293 HD
ENDBRANCH  15  18
BRANCH  17  20
ATOM     20  O   UNL     1      24.326  18.713  10.164  1.00  0.00    -0.504 OA
ATOM     21  H   UNL     1      25.041  18.423   9.508  1.00  0.00     0.293 HD
ENDBRANCH  17  20
ENDBRANCH   1  12
BRANCH   2  22
ATOM     22  O   UNL     1      20.857  15.302   7.312  1.00  0.00    -0.502 OA
ATOM     23  H   UNL     1      21.320  15.022   6.456  1.00  0.00     0.293 HD
ENDBRANCH   2  22
BRANCH   6  24
ATOM     24  O   UNL     1      16.795  16.764   4.412  1.00  0.00    -0.507 OA
ATOM     25  H   UNL     1      15.912  16.681   3.922  1.00  0.00     0.293 HD
ENDBRANCH   6  24
BRANCH   8  26
ATOM     26  O   UNL     1      15.407  20.810   6.645  1.00  0.00    -0.508 OA
ATOM     27  H   UNL     1      15.075  21.280   5.811  1.00  0.00     0.293 HD
ENDBRANCH   8  26
TORSDOF 6
ENDMDL
MODEL 3
REMARK VINA RESULT:    -6.143      3.583      5.652
REMARK INTER + INTRA:          -7.694
REMARK INTER:                  -7.460
REMARK INTRA:                  -0.234
REMARK UNBOUND:                -0.294
REMARK SMILES O=c1c(O)c(-c2ccc(O)c(O)c2)oc2cc(O)cc(O)c12
REMARK SMILES IDX 5 1 3 2 2 3 1 4 22 5 20 6 19 7 17 8 16 9 15 10 14 11 6 12
REMARK SMILES IDX 7 13 8 14 9 15 13 16 11 17 10 18 12 20 4 22 21 24 18 26
REMARK H PARENT 10 19 12 21 4 23 21 25 18 27
REMARK Flexibility Score: inf
ROOT
ATOM      1  C   UNL     1      22.484  16.548   7.477  1.00  0.00     0.180 A 
ATOM      2  C   UNL     1      23.234  17.080   6.409  1.00  0.00     0.208 A 
ATOM      3  C   UNL     1      24.018  16.213   5.633  1.00  0.00     0.238 A 
ATOM      4  O   UNL     1      24.702  16.679   4.682  1.00  0.00    -0.285 OA
ATOM      5  C   UNL     1      24.023  14.832   5.920  1.00  0.00     0.111 A 
ATOM      6  C   UNL     1      24.782  13.891   5.183  1.00  0.00     0.134 A 
ATOM      7  C   UNL     1      24.727  12.532   5.526  1.00  0.00     0.093 A 
ATOM      8  C   UNL     1      23.931  12.096   6.587  1.00  0.00     0.123 A 
ATOM      9  C   UNL     1      23.180  13.022   7.319  1.00  0.00     0.094 A 
ATOM     10  C   UNL     1      23.222  14.381   6.994  1.00  0.00     0.146 A 
ATOM     11  O   UNL     1      22.502  15.239   7.709  1.00  0.00    -0.452 OA
ENDROOT
BRANCH   1  12
ATOM     12  C   UNL     1      21.648  17.400   8.353  1.00  0.00     0.025 A 
ATOM     13  C   UNL     1      20.454  17.978   7.888  1.00  0.00     0.016 A 
ATOM     14  C   UNL     1      19.694  18.799   8.726  1.00  0.00     0.051 A 
ATOM     15  C   UNL     1      20.119  19.065  10.031  1.00  0.00     0.157 A 
ATOM     16  C   UNL     1      22.083  17.686   9.657  1.00  0.00     0.062 A 
ATOM     17  C   UNL     1      21.321  18.509  10.500  1.00  0.00     0.158 A 
BRANCH  15  18
ATOM     18  O   UNL     1      19.339  19.886  10.845  1.00  0.00    -0.504 OA
ATOM     19  H   UNL     1      18.482  19.558  11.276  1.00  0.00     0.293 HD
ENDBRANCH  15  18
BRANCH  17  20
ATOM     20  O   UNL     1      21.756  18.776  11.798  1.00  0.00    -0.504 OA
ATOM     21  H   UNL     1      21.120  18.749  12.586  1.00  0.00     0.293 HD
ENDBRANCH  17  20
ENDBRANCH   1  12
BRANCH   2  22
ATOM     22  O   UNL     1      23.172  18.444   6.115  1.00  0.00    -0.502 OA
ATOM     23  H   UNL     1      23.954  18.949   5.716  1.00  0.00     0.293 HD
ENDBRANCH   2  22
BRANCH   6  24
ATOM     24  O   UNL     1      25.587  14.295   4.117  1.00  0.00    -0.507 OA
ATOM     25  H   UNL     1      25.214  14.823   3.337  1.00  0.00     0.293 HD
ENDBRANCH   6  24
BRANCH   8  26
ATOM     26  O   UNL     1      23.894  10.741   6.907  1.00  0.00    -0.508 OA
ATOM     27  H   UNL     1      23.318  10.390   7.663  1.00  0.00     0.293 HD
ENDBRANCH   8  26
TORSDOF 6
ENDMDL
MODEL 4
REMARK VINA RESULT:    -6.121      1.646      7.110
REMARK INTER + INTRA:          -7.667
REMARK INTER:                  -7.404
REMARK INTRA:                  -0.263
REMARK UNBOUND:                -0.294
REMARK SMILES O=c1c(O)c(-c2ccc(O)c(O)c2)oc2cc(O)cc(O)c12
REMARK SMILES IDX 5 1 3 2 2 3 1 4 22 5 20 6 19 7 17 8 16 9 15 10 14 11 6 12
REMARK SMILES IDX 7 13 8 14 9 15 13 16 11 17 10 18 12 20 4 22 21 24 18 26
REMARK H PARENT 10 19 12 21 4 23 21 25 18 27
REMARK Flexibility Score: inf
ROOT
ATOM      1  C   UNL     1      18.936  18.002   8.593  1.00  0.00     0.180 A 
ATOM      2  C   UNL     1      18.196  16.828   8.837  1.00  0.00     0.208 A 
ATOM      3  C   UNL     1      16.856  16.773   8.426  1.00  0.00     0.238 A 
ATOM      4  O   UNL     1      16.181  15.731   8.650  1.00  0.00    -0.285 OA
ATOM      5  C   UNL     1      16.284  17.878   7.762  1.00  0.00     0.111 A 
ATOM      6  C   UNL     1      14.942  17.900   7.312  1.00  0.00     0.134 A 
ATOM      7  C   UNL     1      14.450  19.035   6.651  1.00  0.00     0.093 A 
ATOM      8  C   UNL     1      15.270  20.144   6.430  1.00  0.00     0.123 A 
ATOM      9  C   UNL     1      16.596  20.127   6.873  1.00  0.00     0.094 A 
ATOM     10  C   UNL     1      17.105  19.006   7.536  1.00  0.00     0.146 A 
ATOM     11  O   UNL     1      18.368  19.018   7.951  1.00  0.00    -0.452 OA
ENDROOT
BRANCH   1  12
ATOM     12  C   UNL     1      20.349  18.144   9.012  1.00  0.00     0.025 A 
ATOM     13  C   UNL     1      21.402  18.030   8.088  1.00  0.00     0.016 A 
ATOM     14  C   UNL     1      22.729  18.144   8.512  1.00  0.00     0.051 A 
ATOM     15  C   UNL     1      23.025  18.360   9.861  1.00  0.00     0.157 A 
ATOM     16  C   UNL     1      20.650  18.340  10.370  1.00  0.00     0.062 A 
ATOM     17  C   UNL     1      21.981  18.455  10.797  1.00  0.00     0.158 A 
BRANCH  15  18
ATOM     18  O   UNL     1      24.357  18.471  10.254  1.00  0.00    -0.504 OA
ATOM     19  H   UNL     1      24.678  18.164  11.165  1.00  0.00     0.293 HD
ENDBRANCH  15  18
BRANCH  17  20
ATOM     20  O   UNL     1      22.268  18.662  12.146  1.00  0.00    -0.504 OA
ATOM     21  H   UNL     1      23.045  18.197  12.600  1.00  0.00     0.293 HD
ENDBRANCH  17  20
ENDBRANCH   1  12
BRANCH   2  22
ATOM     22  O   UNL     1      18.801  15.729   9.453  1.00  0.00    -0.502 OA
ATOM     23  H   UNL     1      18.529  14.775   9.248  1.00  0.00     0.293 HD
ENDBRANCH   2  22
BRANCH   6  24
ATOM     24  O   UNL     1      14.097  16.809   7.516  1.00  0.00    -0.507 OA
ATOM     25  H   UNL     1      14.313  15.890   7.146  1.00  0.00     0.293 HD
ENDBRANCH   6  24
BRANCH   8  26
ATOM     26  O   UNL     1      14.757  21.258   5.771  1.00  0.00    -0.508 OA
ATOM     27  H   UNL     1      14.283  22.000   6.273  1.00  0.00     0.293 HD
ENDBRANCH   8  26
TORSDOF 6
ENDMDL
MODEL 5
REMARK VINA RESULT:    -6.105      1.239      2.900
REMARK INTER + INTRA:          -7.648
REMARK INTER:                  -7.321
REMARK INTRA:                  -0.326
REMARK UNBOUND:                -0.294
REMARK SMILES O=c1c(O)c(-c2ccc(O)c(O)c2)oc2cc(O)cc(O)c12
REMARK SMILES IDX 5 1 3 2 2 3 1 4 22 5 20 6 19 7 17 8 16 9 15 10 14 11 6 12
REMARK SMILES IDX 7 13 8 14 9 15 13 16 11 17 10 18 12 20 4 22 21 24 18 26
REMARK H PARENT 10 19 12 21 4 23 21 25 18 27
REMARK Flexibility Score: inf
ROOT
ATOM      1  C   UNL     1      19.214  18.329   8.471  1.00  0.00     0.180 A 
ATOM      2  C   UNL     1      19.859  18.848   9.612  1.00  0.00     0.208 A 
ATOM      3  C   UNL     1      21.238  18.637   9.766  1.00  0.00     0.238 A 
ATOM      4  O   UNL     1      21.823  19.087  10.788  1.00  0.00    -0.285 OA
ATOM      5  C   UNL     1      21.951  17.935   8.773  1.00  0.00     0.111 A 
ATOM      6  C   UNL     1      23.342  17.684   8.851  1.00  0.00     0.134 A 
ATOM      7  C   UNL     1      23.982  16.985   7.817  1.00  0.00     0.093 A 
ATOM      8  C   UNL     1      23.260  16.532   6.710  1.00  0.00     0.123 A 
ATOM      9  C   UNL     1      21.886  16.776   6.629  1.00  0.00     0.094 A 
ATOM     10  C   UNL     1      21.230  17.470   7.650  1.00  0.00     0.146 A 
ATOM     11  O   UNL     1      19.922  17.684   7.549  1.00  0.00    -0.452 OA
ENDROOT
BRANCH   1  12
ATOM     12  C   UNL     1      17.760  18.493   8.246  1.00  0.00     0.025 A 
ATOM     13  C   UNL     1      16.843  17.505   8.647  1.00  0.00     0.016 A 
ATOM     14  C   UNL     1      15.476  17.671   8.402  1.00  0.00     0.051 A 
ATOM     15  C   UNL     1      15.008  18.812   7.745  1.00  0.00     0.157 A 
ATOM     16  C   UNL     1      17.289  19.628   7.568  1.00  0.00     0.062 A 
ATOM     17  C   UNL     1      15.918  19.795   7.322  1.00  0.00     0.158 A 
BRANCH  15  18
ATOM     18  O   UNL     1      13.640  18.950   7.517  1.00  0.00    -0.504 OA
ATOM     19  H   UNL     1      13.100  19.708   7.919  1.00  0.00     0.293 HD
ENDBRANCH  15  18
BRANCH  17  20
ATOM     20  O   UNL     1      15.459  20.933   6.659  1.00  0.00    -0.504 OA
ATOM     21  H   UNL     1      14.766  20.875   5.923  1.00  0.00     0.293 HD
ENDBRANCH  17  20
ENDBRANCH   1  12
BRANCH   2  22
ATOM     22  O   UNL     1      19.138  19.583  10.556  1.00  0.00    -0.502 OA
ATOM     23  H   UNL     1      19.230  19.425  11.552  1.00  0.00     0.293 HD
ENDBRANCH   2  22
BRANCH   6  24
ATOM     24  O   UNL     1      24.091  18.124   9.944  1.00  0.00    -0.507 OA
ATOM     25  H   UNL     1      23.743  18.053  10.892  1.00  0.00     0.293 HD
ENDBRANCH   6  24
BRANCH   8  26
ATOM     26  O   UNL     1      23.919  15.840   5.697  1.00  0.00    -0.508 OA
ATOM     27  H   UNL     1      23.419  15.237   5.054  1.00  0.00     0.293 HD
ENDBRANCH   8  26
TORSDOF 6
ENDMDL
MODEL 6
REMARK VINA RESULT:    -6.074      3.961      6.053
REMARK INTER + INTRA:          -7.611
REMARK INTER:                  -7.317
REMARK INTRA:                  -0.294
REMARK UNBOUND:                -0.294
REMARK SMILES O=c1c(O)c(-c2ccc(O)c(O)c2)oc2cc(O)cc(O)c12
REMARK SMILES IDX 5 1 3 2 2 3 1 4 22 5 20 6 19 7 17 8 16 9 15 10 14 11 6 12
REMARK SMILES IDX 7 13 8 14 9 15 13 16 11 17 10 18 12 20 4 22 21 24 18 26
REMARK H PARENT 10 19 12 21 4 23 21 25 18 27
REMARK Flexibility Score: inf
ROOT
ATOM      1  C   UNL     1      22.214  15.504   8.166  1.00  0.00     0.180 A 
ATOM      2  C   UNL     1      22.154  14.172   8.621  1.00  0.00     0.208 A 
ATOM      3  C   UNL     1      22.874  13.186   7.929  1.00  0.00     0.238 A 
ATOM      4  O   UNL     1      22.819  11.988   8.320  1.00  0.00    -0.285 OA
ATOM      5  C   UNL     1      23.655  13.548   6.812  1.00  0.00     0.111 A 
ATOM      6  C   UNL     1      24.414  12.617   6.064  1.00  0.00     0.134 A 
ATOM      7  C   UNL     1      25.174  13.057   4.970  1.00  0.00     0.093 A 
ATOM      8  C   UNL     1      25.191  14.407   4.612  1.00  0.00     0.123 A 
ATOM      9  C   UNL     1      24.443  15.332   5.347  1.00  0.00     0.094 A 
ATOM     10  C   UNL     1      23.678  14.912   6.439  1.00  0.00     0.146 A 
ATOM     11  O   UNL     1      22.973  15.810   7.119  1.00  0.00    -0.452 OA
ENDROOT
BRANCH   1  12
ATOM     12  C   UNL     1      21.468  16.597   8.830  1.00  0.00     0.025 A 
ATOM     13  C   UNL     1      20.271  17.099   8.290  1.00  0.00     0.016 A 
ATOM     14  C   UNL     1      19.596  18.148   8.922  1.00  0.00     0.051 A 
ATOM     15  C   UNL     1      20.110  18.718  10.090  1.00  0.00     0.157 A 
ATOM     16  C   UNL     1      21.993  17.186   9.992  1.00  0.00     0.062 A 
ATOM     17  C   UNL     1      21.317  18.238  10.627  1.00  0.00     0.158 A 
BRANCH  15  18
ATOM     18  O   UNL     1      19.415  19.761  10.699  1.00  0.00    -0.504 OA
ATOM     19  H   UNL     1      19.575  20.024  11.665  1.00  0.00     0.293 HD
ENDBRANCH  15  18
BRANCH  17  20
ATOM     20  O   UNL     1      21.840  18.807  11.788  1.00  0.00    -0.504 OA
ATOM     21  H   UNL     1      22.211  19.749  11.796  1.00  0.00     0.293 HD
ENDBRANCH  17  20
ENDBRANCH   1  12
BRANCH   2  22
ATOM     22  O   UNL     1      21.412  13.848   9.759  1.00  0.00    -0.502 OA
ATOM     23  H   UNL     1      21.846  13.528  10.617  1.00  0.00     0.293 HD
ENDBRANCH   2  22
BRANCH   6  24
ATOM     24  O   UNL     1      24.419  11.261   6.396  1.00  0.00    -0.507 OA
ATOM     25  H   UNL     1      24.899  10.574   5.827  1.00  0.00     0.293 HD
ENDBRANCH   6  24
BRANCH   8  26
ATOM     26  O   UNL     1      25.954  14.819   3.521  1.00  0.00    -0.508 OA
ATOM     27  H   UNL     1      26.742  15.447   3.632  1.00  0.00     0.293 HD
ENDBRANCH   8  26
TORSDOF 6
ENDMDL
MODEL 7
REMARK VINA RESULT:    -6.064      1.700      6.582
REMARK INTER + INTRA:          -7.599
REMARK INTER:                  -7.419
REMARK INTRA:                  -0.181
REMARK UNBOUND:                -0.294
REMARK SMILES O=c1c(O)c(-c2ccc(O)c(O)c2)oc2cc(O)cc(O)c12
REMARK SMILES IDX 5 1 3 2 2 3 1 4 22 5 20 6 19 7 17 8 16 9 15 10 14 11 6 12
REMARK SMILES IDX 7 13 8 14 9 15 13 16 11 17 10 18 12 20 4 22 21 24 18 26
REMARK H PARENT 10 19 12 21 4 23 21 25 18 27
REMARK Flexibility Score: inf
ROOT
ATOM      1  C   UNL     1      20.443  18.133   8.072  1.00  0.00     0.180 A 
ATOM      2  C   UNL     1      20.819  17.820   6.751  1.00  0.00     0.208 A 
ATOM      3  C   UNL     1      19.922  18.094   5.707  1.00  0.00     0.238 A 
ATOM      4  O   UNL     1      20.244  17.808   4.522  1.00  0.00    -0.285 OA
ATOM      5  C   UNL     1      18.679  18.693   5.995  1.00  0.00     0.111 A 
ATOM      6  C   UNL     1      17.722  19.007   5.001  1.00  0.00     0.134 A 
ATOM      7  C   UNL     1      16.510  19.611   5.367  1.00  0.00     0.093 A 
ATOM      8  C   UNL     1      16.238  19.909   6.705  1.00  0.00     0.123 A 
ATOM      9  C   UNL     1      17.180  19.601   7.691  1.00  0.00     0.094 A 
ATOM     10  C   UNL     1      18.392  18.996   7.346  1.00  0.00     0.146 A 
ATOM     11  O   UNL     1      19.268  18.711   8.304  1.00  0.00    -0.452 OA
ENDROOT
BRANCH   1  12
ATOM     12  C   UNL     1      21.325  17.856   9.229  1.00  0.00     0.025 A 
ATOM     13  C   UNL     1      22.548  18.529   9.393  1.00  0.00     0.016 A 
ATOM     14  C   UNL     1      23.376  18.234  10.480  1.00  0.00     0.051 A 
ATOM     15  C   UNL     1      23.003  17.257  11.409  1.00  0.00     0.157 A 
ATOM     16  C   UNL     1      20.963  16.861  10.151  1.00  0.00     0.062 A 
ATOM     17  C   UNL     1      21.792  16.564  11.242  1.00  0.00     0.158 A 
BRANCH  15  18
ATOM     18  O   UNL     1      23.848  16.986  12.483  1.00  0.00    -0.504 OA
ATOM     19  H   UNL     1      24.817  16.719  12.353  1.00  0.00     0.293 HD
ENDBRANCH  15  18
BRANCH  17  20
ATOM     20  O   UNL     1      21.418  15.582  12.160  1.00  0.00    -0.504 OA
ATOM     21  H   UNL     1      21.160  14.649  11.863  1.00  0.00     0.293 HD
ENDBRANCH  17  20
ENDBRANCH   1  12
BRANCH   2  22
ATOM     22  O   UNL     1      22.077  17.272   6.488  1.00  0.00    -0.502 OA
ATOM     23  H   UNL     1      22.324  16.328   6.758  1.00  0.00     0.293 HD
ENDBRANCH   2  22
BRANCH   6  24
ATOM     24  O   UNL     1      17.964  18.723   3.656  1.00  0.00    -0.507 OA
ATOM     25  H   UNL     1      17.442  19.173   2.913  1.00  0.00     0.293 HD
ENDBRANCH   6  24
BRANCH   8  26
ATOM     26  O   UNL     1      15.028  20.509   7.042  1.00  0.00    -0.508 OA
ATOM     27  H   UNL     1      14.236  19.964   7.363  1.00  0.00     0.293 HD
ENDBRANCH   8  26
TORSDOF 6
ENDMDL
MODEL 8
REMARK VINA RESULT:    -6.055      2.052      2.296
REMARK INTER + INTRA:          -7.588
REMARK INTER:                  -7.256
REMARK INTRA:                  -0.332
REMARK UNBOUND:                -0.294
REMARK SMILES O=c1c(O)c(-c2ccc(O)c(O)c2)oc2cc(O)cc(O)c12
REMARK SMILES IDX 5 1 3 2 2 3 1 4 22 5 20 6 19 7 17 8 16 9 15 10 14 11 6 12
REMARK SMILES IDX 7 13 8 14 9 15 13 16 11 17 10 18 12 20 4 22 21 24 18 26
REMARK H PARENT 10 19 12 21 4 23 21 25 18 27
REMARK Flexibility Score: inf
ROOT
ATOM      1  C   UNL     1      19.251  18.375   7.862  1.00  0.00     0.180 A 
ATOM      2  C   UNL     1      20.450  18.967   7.417  1.00  0.00     0.208 A 
ATOM      3  C   UNL     1      21.641  18.682   8.102  1.00  0.00     0.238 A 
ATOM      4  O   UNL     1      22.719  19.215   7.720  1.00  0.00    -0.285 OA
ATOM      5  C   UNL     1      21.620  17.798   9.200  1.00  0.00     0.111 A 
ATOM      6  C   UNL     1      22.777  17.454   9.940  1.00  0.00     0.134 A 
ATOM      7  C   UNL     1      22.675  16.559  11.015  1.00  0.00     0.093 A 
ATOM      8  C   UNL     1      21.443  16.002  11.363  1.00  0.00     0.123 A 
ATOM      9  C   UNL     1      20.296  16.338  10.636  1.00  0.00     0.094 A 
ATOM     10  C   UNL     1      20.377  17.230   9.563  1.00  0.00     0.146 A 
ATOM     11  O   UNL     1      19.272  17.535   8.891  1.00  0.00    -0.452 OA
ENDROOT
BRANCH   1  12
ATOM     12  C   UNL     1      17.951  18.642   7.205  1.00  0.00     0.025 A 
ATOM     13  C   UNL     1      17.122  19.696   7.625  1.00  0.00     0.016 A 
ATOM     14  C   UNL     1      15.887  19.914   7.005  1.00  0.00     0.051 A 
ATOM     15  C   UNL     1      15.458  19.077   5.971  1.00  0.00     0.157 A 
ATOM     16  C   UNL     1      17.508  17.791   6.180  1.00  0.00     0.062 A 
ATOM     17  C   UNL     1      16.270  18.008   5.557  1.00  0.00     0.158 A 
BRANCH  15  18
ATOM     18  O   UNL     1      14.224  19.320   5.371  1.00  0.00    -0.504 OA
ATOM     19  H   UNL     1      13.857  20.258   5.252  1.00  0.00     0.293 HD
ENDBRANCH  15  18
BRANCH  17  20
ATOM     20  O   UNL     1      15.845  17.165   4.530  1.00  0.00    -0.504 OA
ATOM     21  H   UNL     1      16.210  16.226   4.429  1.00  0.00     0.293 HD
ENDBRANCH  17  20
ENDBRANCH   1  12
BRANCH   2  22
ATOM     22  O   UNL     1      20.451  19.801   6.296  1.00  0.00    -0.502 OA
ATOM     23  H   UNL     1      19.601  20.196   5.913  1.00  0.00     0.293 HD
ENDBRANCH   2  22
BRANCH   6  24
ATOM     24  O   UNL     1      24.023  17.994   9.616  1.00  0.00    -0.507 OA
ATOM     25  H   UNL     1      24.288  18.188   8.658  1.00  0.00     0.293 HD
ENDBRANCH   6  24
BRANCH   8  26
ATOM     26  O   UNL     1      21.369  15.115  12.435  1.00  0.00    -0.508 OA
ATOM     27  H   UNL     1      21.237  15.441  13.385  1.00  0.00     0.293 HD
ENDBRANCH   8  26
TORSDOF 6
ENDMDL
MODEL 9
REMARK VINA RESULT:    -5.965      2.325      6.836
REMARK INTER + INTRA:          -7.479
REMARK INTER:                  -7.297
REMARK INTRA:                  -0.182
REMARK UNBOUND:                -0.294
REMARK SMILES O=c1c(O)c(-c2ccc(O)c(O)c2)oc2cc(O)cc(O)c12
REMARK SMILES IDX 5 1 3 2 2 3 1 4 22 5 20 6 19 7 17 8 16 9 15 10 14 11 6 12
REMARK SMILES IDX 7 13 8 14 9 15 13 16 11 17 10 18 12 20 4 22 21 24 18 26
REMARK H PARENT 10 19 12 21 4 23 21 25 18 27
REMARK Flexibility Score: inf
ROOT
ATOM      1  C   UNL     1      20.475  18.182   8.096  1.00  0.00     0.180 A 
ATOM      2  C   UNL     1      19.223  18.810   8.243  1.00  0.00     0.208 A 
ATOM      3  C   UNL     1      18.456  19.071   7.097  1.00  0.00     0.238 A 
ATOM      4  O   UNL     1      17.339  19.644   7.215  1.00  0.00    -0.285 OA
ATOM      5  C   UNL     1      18.941  18.683   5.831  1.00  0.00     0.111 A 
ATOM      6  C   UNL     1      18.228  18.905   4.628  1.00  0.00     0.134 A 
ATOM      7  C   UNL     1      18.774  18.481   3.408  1.00  0.00     0.093 A 
ATOM      8  C   UNL     1      20.015  17.841   3.366  1.00  0.00     0.123 A 
ATOM      9  C   UNL     1      20.723  17.619   4.551  1.00  0.00     0.094 A 
ATOM     10  C   UNL     1      20.197  18.036   5.777  1.00  0.00     0.146 A 
ATOM     11  O   UNL     1      20.893  17.817   6.888  1.00  0.00    -0.452 OA
ENDROOT
BRANCH   1  12
ATOM     12  C   UNL     1      21.350  17.890   9.254  1.00  0.00     0.025 A 
ATOM     13  C   UNL     1      22.597  18.521   9.406  1.00  0.00     0.016 A 
ATOM     14  C   UNL     1      23.417  18.212  10.495  1.00  0.00     0.051 A 
ATOM     15  C   UNL     1      23.013  17.263  11.438  1.00  0.00     0.157 A 
ATOM     16  C   UNL     1      20.957  16.922  10.191  1.00  0.00     0.062 A 
ATOM     17  C   UNL     1      21.778  16.610  11.285  1.00  0.00     0.158 A 
BRANCH  15  18
ATOM     18  O   UNL     1      23.851  16.977  12.515  1.00  0.00    -0.504 OA
ATOM     19  H   UNL     1      24.399  16.125  12.559  1.00  0.00     0.293 HD
ENDBRANCH  15  18
BRANCH  17  20
ATOM     20  O   UNL     1      21.371  15.656  12.217  1.00  0.00    -0.504 OA
ATOM     21  H   UNL     1      21.865  14.779  12.329  1.00  0.00     0.293 HD
ENDBRANCH  17  20
ENDBRANCH   1  12
BRANCH   2  22
ATOM     22  O   UNL     1      18.744  19.140   9.513  1.00  0.00    -0.502 OA
ATOM     23  H   UNL     1      19.324  19.589  10.212  1.00  0.00     0.293 HD
ENDBRANCH   2  22
BRANCH   6  24
ATOM     24  O   UNL     1      16.987  19.542   4.636  1.00  0.00    -0.507 OA
ATOM     25  H   UNL     1      16.731  20.220   3.928  1.00  0.00     0.293 HD
ENDBRANCH   6  24
BRANCH   8  26
ATOM     26  O   UNL     1      20.535  17.429   2.141  1.00  0.00    -0.508 OA
ATOM     27  H   UNL     1      21.158  16.633   2.070  1.00  0.00     0.293 HD
ENDBRANCH   8  26
TORSDOF 6
ENDMDL
