MODEL 1
REMARK VINA RESULT:    -3.734      0.000      0.000
REMARK INTER + INTRA:          -8.521
REMARK INTER:                  -6.353
REMARK INTRA:                  -2.168
REMARK UNBOUND:                -2.168
REMARK SMILES CCCCCCCCCCCCCC(=O)[O-]
REMARK SMILES IDX 8 1 9 2 10 3 11 4 12 5 13 6 14 7 15 8 16 9 7 10 6 11 5 12
REMARK SMILES IDX 4 13 3 14 2 15 1 16
REMARK H PARENT
REMARK Flexibility Score: inf
ROOT
ATOM      1  C   UNL     1      41.777  22.838 226.346  1.00  0.00     0.000 C 
ENDROOT
BRANCH   1   2
ATOM      2  C   UNL     1      42.088  23.493 224.995  1.00  0.00     0.000 C 
BRANCH   2   3
ATOM      3  C   UNL     1      40.848  24.201 224.428  1.00  0.00     0.000 C 
BRANCH   3   4
ATOM      4  C   UNL     1      40.513  23.755 222.996  1.00  0.00     0.000 C 
BRANCH   4   5
ATOM      5  C   UNL     1      39.003  23.551 222.778  1.00  0.00     0.006 C 
BRANCH   5   6
ATOM      6  C   UNL     1      38.209  23.666 224.086  1.00  0.00     0.053 C 
BRANCH   6   7
ATOM      7  C   UNL     1      36.894  24.356 223.882  1.00  0.00     0.041 C 
ATOM      8  O   UNL     1      35.819  23.710 223.987  1.00  0.00    -0.550 OA
ATOM      9  O   UNL     1      36.857  25.716 223.608  1.00  0.00    -0.550 OA
ENDBRANCH   6   7
ENDBRANCH   5   6
ENDBRANCH   4   5
ENDBRANCH   3   4
ENDBRANCH   2   3
ENDBRANCH   1   2
BRANCH   1  10
ATOM     10  C   UNL     1      41.580  21.325 226.193  1.00  0.00     0.000 C 
BRANCH  10  11
ATOM     11  C   UNL     1      40.093  20.971 226.078  1.00  0.00    -0.000 C 
BRANCH  11  12
ATOM     12  C   UNL     1      39.803  20.236 224.761  1.00  0.00    -0.000 C 
BRANCH  12  13
ATOM     13  C   UNL     1      41.078  19.711 224.083  1.00  0.00    -0.000 C 
BRANCH  13  14
ATOM     14  C   UNL     1      41.205  20.176 222.621  1.00  0.00    -0.000 C 
BRANCH  14  15
ATOM     15  C   UNL     1      42.608  20.712 222.294  1.00  0.00    -0.003 C 
ATOM     16  C   UNL     1      43.698  20.078 223.157  1.00  0.00     0.004 C 
ENDBRANCH  14  15
ENDBRANCH  13  14
ENDBRANCH  12  13
ENDBRANCH  11  12
ENDBRANCH  10  11
ENDBRANCH   1  10
TORSDOF 12
ENDMDL
MODEL 2
REMARK VINA RESULT:    -3.662      3.078      4.904
REMARK INTER + INTRA:          -8.399
REMARK INTER:                  -6.387
REMARK INTRA:                  -2.013
REMARK UNBOUND:                -2.168
REMARK SMILES CCCCCCCCCCCCCC(=O)[O-]
REMARK SMILES IDX 8 1 9 2 10 3 11 4 12 5 13 6 14 7 15 8 16 9 7 10 6 11 5 12
REMARK SMILES IDX 4 13 3 14 2 15 1 16
REMARK H PARENT
REMARK Flexibility Score: inf
ROOT
ATOM      1  C   UNL     1      37.634  24.497 226.798  1.00  0.00     0.000 C 
ENDROOT
BRANCH   1   2
ATOM      2  C   UNL     1      38.935  23.693 226.689  1.00  0.00     0.000 C 
BRANCH   2   3
ATOM      3  C   UNL     1      38.702  22.218 227.051  1.00  0.00     0.000 C 
BRANCH   3   4
ATOM      4  C   UNL     1      38.709  21.297 225.821  1.00  0.00     0.000 C 
BRANCH   4   5
ATOM      5  C   UNL     1      37.298  20.820 225.432  1.00  0.00     0.006 C 
BRANCH   5   6
ATOM      6  C   UNL     1      36.463  20.423 226.656  1.00  0.00     0.053 C 
BRANCH   6   7
ATOM      7  C   UNL     1      35.888  19.046 226.517  1.00  0.00     0.041 C 
ATOM      8  O   UNL     1      35.367  18.685 225.429  1.00  0.00    -0.550 OA
ATOM      9  O   UNL     1      35.956  18.152 227.578  1.00  0.00    -0.550 OA
ENDBRANCH   6   7
ENDBRANCH   5   6
ENDBRANCH   4   5
ENDBRANCH   3   4
ENDBRANCH   2   3
ENDBRANCH   1   2
BRANCH   1  10
ATOM     10  C   UNL     1      36.850  24.459 225.480  1.00  0.00     0.000 C 
BRANCH  10  11
ATOM     11  C   UNL     1      37.742  24.849 224.297  1.00  0.00    -0.000 C 
BRANCH  11  12
ATOM     12  C   UNL     1      37.605  23.838 223.147  1.00  0.00    -0.000 C 
BRANCH  12  13
ATOM     13  C   UNL     1      38.961  23.448 222.539  1.00  0.00    -0.000 C 
BRANCH  13  14
ATOM     14  C   UNL     1      40.142  24.165 223.216  1.00  0.00    -0.000 C 
BRANCH  14  15
ATOM     15  C   UNL     1      41.226  23.188 223.698  1.00  0.00    -0.003 C 
ATOM     16  C   UNL     1      42.092  23.771 224.814  1.00  0.00     0.004 C 
ENDBRANCH  14  15
ENDBRANCH  13  14
ENDBRANCH  12  13
ENDBRANCH  11  12
ENDBRANCH  10  11
ENDBRANCH   1  10
TORSDOF 12
ENDMDL
MODEL 3
REMARK VINA RESULT:    -3.610      2.434      4.866
REMARK INTER + INTRA:          -8.311
REMARK INTER:                  -6.371
REMARK INTRA:                  -1.940
REMARK UNBOUND:                -2.168
REMARK SMILES CCCCCCCCCCCCCC(=O)[O-]
REMARK SMILES IDX 8 1 9 2 10 3 11 4 12 5 13 6 14 7 15 8 16 9 7 10 6 11 5 12
REMARK SMILES IDX 4 13 3 14 2 15 1 16
REMARK H PARENT
REMARK Flexibility Score: inf
ROOT
ATOM      1  C   UNL     1      42.512  24.982 225.634  1.00  0.00     0.000 C 
ENDROOT
BRANCH   1   2
ATOM      2  C   UNL     1      41.845  23.676 225.184  1.00  0.00     0.000 C 
BRANCH   2   3
ATOM      3  C   UNL     1      41.318  23.795 223.746  1.00  0.00     0.000 C 
BRANCH   3   4
ATOM      4  C   UNL     1      40.469  22.586 223.323  1.00  0.00     0.000 C 
BRANCH   4   5
ATOM      5  C   UNL     1      39.149  22.487 224.109  1.00  0.00     0.006 C 
BRANCH   5   6
ATOM      6  C   UNL     1      38.059  23.396 223.527  1.00  0.00     0.053 C 
BRANCH   6   7
ATOM      7  C   UNL     1      36.709  23.088 224.101  1.00  0.00     0.041 C 
ATOM      8  O   UNL     1      35.711  23.784 223.779  1.00  0.00    -0.550 OA
ATOM      9  O   UNL     1      36.549  22.013 224.966  1.00  0.00    -0.550 OA
ENDBRANCH   6   7
ENDBRANCH   5   6
ENDBRANCH   4   5
ENDBRANCH   3   4
ENDBRANCH   2   3
ENDBRANCH   1   2
BRANCH   1  10
ATOM     10  C   UNL     1      42.476  25.122 227.160  1.00  0.00     0.000 C 
BRANCH  10  11
ATOM     11  C   UNL     1      41.997  26.517 227.575  1.00  0.00    -0.000 C 
BRANCH  11  12
ATOM     12  C   UNL     1      41.425  27.283 226.372  1.00  0.00    -0.000 C 
BRANCH  12  13
ATOM     13  C   UNL     1      39.903  27.469 226.459  1.00  0.00    -0.000 C 
BRANCH  13  14
ATOM     14  C   UNL     1      39.131  26.421 225.637  1.00  0.00    -0.000 C 
BRANCH  14  15
ATOM     15  C   UNL     1      38.112  25.643 226.483  1.00  0.00    -0.003 C 
ATOM     16  C   UNL     1      38.745  24.480 227.246  1.00  0.00     0.004 C 
ENDBRANCH  14  15
ENDBRANCH  13  14
ENDBRANCH  12  13
ENDBRANCH  11  12
ENDBRANCH  10  11
ENDBRANCH   1  10
TORSDOF 12
ENDMDL
MODEL 4
REMARK VINA RESULT:    -3.595      2.616      4.475
REMARK INTER + INTRA:          -8.284
REMARK INTER:                  -6.588
REMARK INTRA:                  -1.696
REMARK UNBOUND:                -2.168
REMARK SMILES CCCCCCCCCCCCCC(=O)[O-]
REMARK SMILES IDX 8 1 9 2 10 3 11 4 12 5 13 6 14 7 15 8 16 9 7 10 6 11 5 12
REMARK SMILES IDX 4 13 3 14 2 15 1 16
REMARK H PARENT
REMARK Flexibility Score: inf
ROOT
ATOM      1  C   UNL     1      38.482  25.913 225.683  1.00  0.00     0.000 C 
ENDROOT
BRANCH   1   2
ATOM      2  C   UNL     1      37.919  26.019 224.261  1.00  0.00     0.000 C 
BRANCH   2   3
ATOM      3  C   UNL     1      36.931  24.879 223.974  1.00  0.00     0.000 C 
BRANCH   3   4
ATOM      4  C   UNL     1      36.867  23.849 225.113  1.00  0.00     0.000 C 
BRANCH   4   5
ATOM      5  C   UNL     1      37.077  22.407 224.619  1.00  0.00     0.006 C 
BRANCH   5   6
ATOM      6  C   UNL     1      37.922  21.578 225.595  1.00  0.00     0.053 C 
BRANCH   6   7
ATOM      7  C   UNL     1      37.103  21.049 226.733  1.00  0.00     0.041 C 
ATOM      8  O   UNL     1      35.884  20.783 226.565  1.00  0.00    -0.550 OA
ATOM      9  O   UNL     1      37.693  20.821 227.969  1.00  0.00    -0.550 OA
ENDBRANCH   6   7
ENDBRANCH   5   6
ENDBRANCH   4   5
ENDBRANCH   3   4
ENDBRANCH   2   3
ENDBRANCH   1   2
BRANCH   1  10
ATOM     10  C   UNL     1      39.643  26.894 225.892  1.00  0.00     0.000 C 
BRANCH  10  11
ATOM     11  C   UNL     1      40.925  26.153 226.289  1.00  0.00    -0.000 C 
BRANCH  11  12
ATOM     12  C   UNL     1      40.808  24.651 225.991  1.00  0.00    -0.000 C 
BRANCH  12  13
ATOM     13  C   UNL     1      41.713  24.206 224.832  1.00  0.00    -0.000 C 
BRANCH  13  14
ATOM     14  C   UNL     1      41.570  22.707 224.511  1.00  0.00    -0.000 C 
BRANCH  14  15
ATOM     15  C   UNL     1      40.851  22.456 223.176  1.00  0.00    -0.003 C 
ATOM     16  C   UNL     1      40.193  23.716 222.615  1.00  0.00     0.004 C 
ENDBRANCH  14  15
ENDBRANCH  13  14
ENDBRANCH  12  13
ENDBRANCH  11  12
ENDBRANCH  10  11
ENDBRANCH   1  10
TORSDOF 12
ENDMDL
MODEL 5
REMARK VINA RESULT:    -3.561      3.400      5.327
REMARK INTER + INTRA:          -8.228
REMARK INTER:                  -6.243
REMARK INTRA:                  -1.985
REMARK UNBOUND:                -2.168
REMARK SMILES CCCCCCCCCCCCCC(=O)[O-]
REMARK SMILES IDX 8 1 9 2 10 3 11 4 12 5 13 6 14 7 15 8 16 9 7 10 6 11 5 12
REMARK SMILES IDX 4 13 3 14 2 15 1 16
REMARK H PARENT
REMARK Flexibility Score: inf
ROOT
ATOM      1  C   UNL     1      40.670  23.988 225.831  1.00  0.00     0.000 C 
ENDROOT
BRANCH   1   2
ATOM      2  C   UNL     1      41.692  23.505 224.794  1.00  0.00     0.000 C 
BRANCH   2   3
ATOM      3  C   UNL     1      41.168  23.715 223.366  1.00  0.00     0.000 C 
BRANCH   3   4
ATOM      4  C   UNL     1      40.313  22.539 222.869  1.00  0.00     0.000 C 
BRANCH   4   5
ATOM      5  C   UNL     1      40.907  21.172 223.255  1.00  0.00     0.006 C 
BRANCH   5   6
ATOM      6  C   UNL     1      41.982  20.707 222.264  1.00  0.00     0.053 C 
BRANCH   6   7
ATOM      7  C   UNL     1      43.281  20.406 222.949  1.00  0.00     0.041 C 
ATOM      8  O   UNL     1      44.367  20.791 222.443  1.00  0.00    -0.550 OA
ATOM      9  O   UNL     1      43.288  19.727 224.160  1.00  0.00    -0.550 OA
ENDBRANCH   6   7
ENDBRANCH   5   6
ENDBRANCH   4   5
ENDBRANCH   3   4
ENDBRANCH   2   3
ENDBRANCH   1   2
BRANCH   1  10
ATOM     10  C   UNL     1      40.136  22.818 226.665  1.00  0.00     0.000 C 
BRANCH  10  11
ATOM     11  C   UNL     1      38.630  22.958 226.910  1.00  0.00    -0.000 C 
BRANCH  11  12
ATOM     12  C   UNL     1      37.846  21.876 226.152  1.00  0.00    -0.000 C 
BRANCH  12  13
ATOM     13  C   UNL     1      37.210  22.405 224.857  1.00  0.00    -0.000 C 
BRANCH  13  14
ATOM     14  C   UNL     1      36.870  23.904 224.934  1.00  0.00    -0.000 C 
BRANCH  14  15
ATOM     15  C   UNL     1      37.475  24.706 223.771  1.00  0.00    -0.003 C 
ATOM     16  C   UNL     1      38.076  26.036 224.222  1.00  0.00     0.004 C 
ENDBRANCH  14  15
ENDBRANCH  13  14
ENDBRANCH  12  13
ENDBRANCH  11  12
ENDBRANCH  10  11
ENDBRANCH   1  10
TORSDOF 12
ENDMDL
MODEL 6
REMARK VINA RESULT:    -3.523      2.328      4.258
REMARK INTER + INTRA:          -8.162
REMARK INTER:                  -5.953
REMARK INTRA:                  -2.209
REMARK UNBOUND:                -2.168
REMARK SMILES CCCCCCCCCCCCCC(=O)[O-]
REMARK SMILES IDX 8 1 9 2 10 3 11 4 12 5 13 6 14 7 15 8 16 9 7 10 6 11 5 12
REMARK SMILES IDX 4 13 3 14 2 15 1 16
REMARK H PARENT
REMARK Flexibility Score: inf
ROOT
ATOM      1  C   UNL     1      41.239  22.498 226.213  1.00  0.00     0.000 C 
ENDROOT
BRANCH   1   2
ATOM      2  C   UNL     1      41.519  23.459 225.050  1.00  0.00     0.000 C 
BRANCH   2   3
ATOM      3  C   UNL     1      40.777  23.015 223.780  1.00  0.00     0.000 C 
BRANCH   3   4
ATOM      4  C   UNL     1      39.878  24.119 223.202  1.00  0.00     0.000 C 
BRANCH   4   5
ATOM      5  C   UNL     1      38.398  23.934 223.581  1.00  0.00     0.006 C 
BRANCH   5   6
ATOM      6  C   UNL     1      37.710  25.269 223.894  1.00  0.00     0.053 C 
BRANCH   6   7
ATOM      7  C   UNL     1      36.325  25.071 224.432  1.00  0.00     0.041 C 
ATOM      8  O   UNL     1      35.629  24.096 224.045  1.00  0.00    -0.550 OA
ATOM      9  O   UNL     1      35.815  25.946 225.383  1.00  0.00    -0.550 OA
ENDBRANCH   6   7
ENDBRANCH   5   6
ENDBRANCH   4   5
ENDBRANCH   3   4
ENDBRANCH   2   3
ENDBRANCH   1   2
BRANCH   1  10
ATOM     10  C   UNL     1      40.476  23.204 227.340  1.00  0.00     0.000 C 
BRANCH  10  11
ATOM     11  C   UNL     1      38.962  23.108 227.125  1.00  0.00    -0.000 C 
BRANCH  11  12
ATOM     12  C   UNL     1      38.265  24.420 227.520  1.00  0.00    -0.000 C 
BRANCH  12  13
ATOM     13  C   UNL     1      39.261  25.528 227.895  1.00  0.00    -0.000 C 
BRANCH  13  14
ATOM     14  C   UNL     1      39.154  26.757 226.974  1.00  0.00    -0.000 C 
BRANCH  14  15
ATOM     15  C   UNL     1      40.363  26.895 226.035  1.00  0.00    -0.003 C 
ATOM     16  C   UNL     1      41.697  26.739 226.765  1.00  0.00     0.004 C 
ENDBRANCH  14  15
ENDBRANCH  13  14
ENDBRANCH  12  13
ENDBRANCH  11  12
ENDBRANCH  10  11
ENDBRANCH   1  10
TORSDOF 12
ENDMDL
MODEL 7
REMARK VINA RESULT:    -3.505      2.913      4.962
REMARK INTER + INTRA:          -8.132
REMARK INTER:                  -6.062
REMARK INTRA:                  -2.070
REMARK UNBOUND:                -2.168
REMARK SMILES CCCCCCCCCCCCCC(=O)[O-]
REMARK SMILES IDX 8 1 9 2 10 3 11 4 12 5 13 6 14 7 15 8 16 9 7 10 6 11 5 12
REMARK SMILES IDX 4 13 3 14 2 15 1 16
REMARK H PARENT
REMARK Flexibility Score: inf
ROOT
ATOM      1  C   UNL     1      40.931  22.226 225.298  1.00  0.00     0.000 C 
ENDROOT
BRANCH   1   2
ATOM      2  C   UNL     1      40.794  23.015 226.606  1.00  0.00     0.000 C 
BRANCH   2   3
ATOM      3  C   UNL     1      39.406  22.806 227.231  1.00  0.00     0.000 C 
BRANCH   3   4
ATOM      4  C   UNL     1      38.758  21.479 226.805  1.00  0.00     0.000 C 
BRANCH   4   5
ATOM      5  C   UNL     1      37.250  21.621 226.528  1.00  0.00     0.006 C 
BRANCH   5   6
ATOM      6  C   UNL     1      36.812  20.827 225.291  1.00  0.00     0.053 C 
BRANCH   6   7
ATOM      7  C   UNL     1      36.363  19.441 225.646  1.00  0.00     0.041 C 
ATOM      8  O   UNL     1      37.183  18.486 225.626  1.00  0.00    -0.550 OA
ATOM      9  O   UNL     1      35.048  19.212 226.028  1.00  0.00    -0.550 OA
ENDBRANCH   6   7
ENDBRANCH   5   6
ENDBRANCH   4   5
ENDBRANCH   3   4
ENDBRANCH   2   3
ENDBRANCH   1   2
BRANCH   1  10
ATOM     10  C   UNL     1      41.734  23.017 224.258  1.00  0.00     0.000 C 
BRANCH  10  11
ATOM     11  C   UNL     1      40.806  23.680 223.235  1.00  0.00    -0.000 C 
BRANCH  11  12
ATOM     12  C   UNL     1      39.447  22.965 223.178  1.00  0.00    -0.000 C 
BRANCH  12  13
ATOM     13  C   UNL     1      38.270  23.943 223.050  1.00  0.00    -0.000 C 
BRANCH  13  14
ATOM     14  C   UNL     1      37.857  24.553 224.402  1.00  0.00    -0.000 C 
BRANCH  14  15
ATOM     15  C   UNL     1      38.249  26.033 224.525  1.00  0.00    -0.003 C 
ATOM     16  C   UNL     1      39.272  26.282 225.632  1.00  0.00     0.004 C 
ENDBRANCH  14  15
ENDBRANCH  13  14
ENDBRANCH  12  13
ENDBRANCH  11  12
ENDBRANCH  10  11
ENDBRANCH   1  10
TORSDOF 12
ENDMDL
MODEL 8
REMARK VINA RESULT:    -3.498      2.274      3.525
REMARK INTER + INTRA:          -8.120
REMARK INTER:                  -6.024
REMARK INTRA:                  -2.096
REMARK UNBOUND:                -2.168
REMARK SMILES CCCCCCCCCCCCCC(=O)[O-]
REMARK SMILES IDX 8 1 9 2 10 3 11 4 12 5 13 6 14 7 15 8 16 9 7 10 6 11 5 12
REMARK SMILES IDX 4 13 3 14 2 15 1 16
REMARK H PARENT
REMARK Flexibility Score: inf
ROOT
ATOM      1  C   UNL     1      39.371  24.115 227.875  1.00  0.00     0.000 C 
ENDROOT
BRANCH   1   2
ATOM      2  C   UNL     1      38.875  25.520 227.511  1.00  0.00     0.000 C 
BRANCH   2   3
ATOM      3  C   UNL     1      37.878  25.466 226.344  1.00  0.00     0.000 C 
BRANCH   3   4
ATOM      4  C   UNL     1      38.458  26.037 225.041  1.00  0.00     0.000 C 
BRANCH   4   5
ATOM      5  C   UNL     1      37.610  25.676 223.808  1.00  0.00     0.006 C 
BRANCH   5   6
ATOM      6  C   UNL     1      36.321  24.937 224.189  1.00  0.00     0.053 C 
BRANCH   6   7
ATOM      7  C   UNL     1      36.244  23.582 223.552  1.00  0.00     0.041 C 
ATOM      8  O   UNL     1      36.358  22.545 224.256  1.00  0.00    -0.550 OA
ATOM      9  O   UNL     1      36.017  23.467 222.187  1.00  0.00    -0.550 OA
ENDBRANCH   6   7
ENDBRANCH   5   6
ENDBRANCH   4   5
ENDBRANCH   3   4
ENDBRANCH   2   3
ENDBRANCH   1   2
BRANCH   1  10
ATOM     10  C   UNL     1      38.693  23.049 227.006  1.00  0.00     0.000 C 
BRANCH  10  11
ATOM     11  C   UNL     1      39.731  22.230 226.229  1.00  0.00    -0.000 C 
BRANCH  11  12
ATOM     12  C   UNL     1      39.731  22.612 224.741  1.00  0.00    -0.000 C 
BRANCH  12  13
ATOM     13  C   UNL     1      41.144  22.870 224.197  1.00  0.00    -0.000 C 
BRANCH  13  14
ATOM     14  C   UNL     1      42.109  23.389 225.278  1.00  0.00    -0.000 C 
BRANCH  14  15
ATOM     15  C   UNL     1      42.169  24.924 225.326  1.00  0.00    -0.003 C 
ATOM     16  C   UNL     1      42.601  25.455 226.691  1.00  0.00     0.004 C 
ENDBRANCH  14  15
ENDBRANCH  13  14
ENDBRANCH  12  13
ENDBRANCH  11  12
ENDBRANCH  10  11
ENDBRANCH   1  10
TORSDOF 12
ENDMDL
MODEL 9
REMARK VINA RESULT:    -3.494      2.503      4.455
REMARK INTER + INTRA:          -8.113
REMARK INTER:                  -6.231
REMARK INTRA:                  -1.883
REMARK UNBOUND:                -2.168
REMARK SMILES CCCCCCCCCCCCCC(=O)[O-]
REMARK SMILES IDX 8 1 9 2 10 3 11 4 12 5 13 6 14 7 15 8 16 9 7 10 6 11 5 12
REMARK SMILES IDX 4 13 3 14 2 15 1 16
REMARK H PARENT
REMARK Flexibility Score: inf
ROOT
ATOM      1  C   UNL     1      39.092  25.881 225.852  1.00  0.00     0.000 C 
ENDROOT
BRANCH   1   2
ATOM      2  C   UNL     1      38.179  25.176 226.863  1.00  0.00     0.000 C 
BRANCH   2   3
ATOM      3  C   UNL     1      38.784  23.837 227.310  1.00  0.00     0.000 C 
BRANCH   3   4
ATOM      4  C   UNL     1      38.582  22.719 226.274  1.00  0.00     0.000 C 
BRANCH   4   5
ATOM      5  C   UNL     1      37.163  22.716 225.678  1.00  0.00     0.006 C 
BRANCH   5   6
ATOM      6  C   UNL     1      37.179  22.763 224.145  1.00  0.00     0.053 C 
BRANCH   6   7
ATOM      7  C   UNL     1      36.162  23.722 223.604  1.00  0.00     0.041 C 
ATOM      8  O   UNL     1      35.568  24.517 224.379  1.00  0.00    -0.550 OA
ATOM      9  O   UNL     1      35.894  23.758 222.242  1.00  0.00    -0.550 OA
ENDBRANCH   6   7
ENDBRANCH   5   6
ENDBRANCH   4   5
ENDBRANCH   3   4
ENDBRANCH   2   3
ENDBRANCH   1   2
BRANCH   1  10
ATOM     10  C   UNL     1      39.709  27.148 226.456  1.00  0.00     0.000 C 
BRANCH  10  11
ATOM     11  C   UNL     1      41.240  27.080 226.433  1.00  0.00    -0.000 C 
BRANCH  11  12
ATOM     12  C   UNL     1      41.762  26.075 227.471  1.00  0.00    -0.000 C 
BRANCH  12  13
ATOM     13  C   UNL     1      42.738  25.054 226.866  1.00  0.00    -0.000 C 
BRANCH  13  14
ATOM     14  C   UNL     1      42.572  24.907 225.343  1.00  0.00    -0.000 C 
BRANCH  14  15
ATOM     15  C   UNL     1      41.891  23.587 224.949  1.00  0.00    -0.003 C 
ATOM     16  C   UNL     1      41.109  23.695 223.641  1.00  0.00     0.004 C 
ENDBRANCH  14  15
ENDBRANCH  13  14
ENDBRANCH  12  13
ENDBRANCH  11  12
ENDBRANCH  10  11
ENDBRANCH   1  10
TORSDOF 12
ENDMDL
