MODEL 1
REMARK VINA RESULT:    -4.105      0.000      0.000
REMARK INTER + INTRA:          -8.306
REMARK INTER:                  -6.984
REMARK INTRA:                  -1.322
REMARK UNBOUND:                -1.322
REMARK SMILES CCCCCCCCCCCCCC(=O)[O-]
REMARK SMILES IDX 8 1 9 2 10 3 11 4 12 5 13 6 14 7 15 8 16 9 7 10 6 11 5 12
REMARK SMILES IDX 4 13 3 14 2 15 1 16
REMARK H PARENT
REMARK Flexibility Score: inf
ROOT
ATOM      1  C   UNL     1      26.815  25.646 -18.196  1.00  0.00     0.000 C 
ENDROOT
BRANCH   1   2
ATOM      2  C   UNL     1      26.189  24.525 -19.042  1.00  0.00     0.000 C 
BRANCH   2   3
ATOM      3  C   UNL     1      26.961  24.268 -20.347  1.00  0.00     0.000 C 
BRANCH   3   4
ATOM      4  C   UNL     1      27.944  23.087 -20.239  1.00  0.00     0.000 C 
BRANCH   4   5
ATOM      5  C   UNL     1      29.414  23.480 -20.004  1.00  0.00     0.006 C 
BRANCH   5   6
ATOM      6  C   UNL     1      29.890  23.192 -18.575  1.00  0.00     0.053 C 
BRANCH   6   7
ATOM      7  C   UNL     1      29.441  21.834 -18.137  1.00  0.00     0.041 C 
ATOM      8  O   UNL     1      29.953  20.802 -18.648  1.00  0.00    -0.550 OA
ATOM      9  O   UNL     1      28.493  21.705 -17.130  1.00  0.00    -0.550 OA
ENDBRANCH   6   7
ENDBRANCH   5   6
ENDBRANCH   4   5
ENDBRANCH   3   4
ENDBRANCH   2   3
ENDBRANCH   1   2
BRANCH   1  10
ATOM     10  C   UNL     1      27.282  25.159 -16.816  1.00  0.00     0.000 C 
BRANCH  10  11
ATOM     11  C   UNL     1      28.590  25.845 -16.405  1.00  0.00    -0.000 C 
BRANCH  11  12
ATOM     12  C   UNL     1      28.357  27.324 -16.072  1.00  0.00    -0.000 C 
BRANCH  12  13
ATOM     13  C   UNL     1      29.399  28.214 -16.764  1.00  0.00    -0.000 C 
BRANCH  13  14
ATOM     14  C   UNL     1      28.770  29.395 -17.523  1.00  0.00    -0.000 C 
BRANCH  14  15
ATOM     15  C   UNL     1      27.231  29.419 -17.524  1.00  0.00    -0.003 C 
ATOM     16  C   UNL     1      26.646  30.221 -18.686  1.00  0.00     0.004 C 
ENDBRANCH  14  15
ENDBRANCH  13  14
ENDBRANCH  12  13
ENDBRANCH  11  12
ENDBRANCH  10  11
ENDBRANCH   1  10
TORSDOF 12
ENDMDL
MODEL 2
REMARK VINA RESULT:    -3.922      2.011      3.731
REMARK INTER + INTRA:          -7.996
REMARK INTER:                  -6.482
REMARK INTRA:                  -1.514
REMARK UNBOUND:                -1.322
REMARK SMILES CCCCCCCCCCCCCC(=O)[O-]
REMARK SMILES IDX 8 1 9 2 10 3 11 4 12 5 13 6 14 7 15 8 16 9 7 10 6 11 5 12
REMARK SMILES IDX 4 13 3 14 2 15 1 16
REMARK H PARENT
REMARK Flexibility Score: inf
ROOT
ATOM      1  C   UNL     1      29.407  26.499 -13.602  1.00  0.00     0.000 C 
ENDROOT
BRANCH   1   2
ATOM      2  C   UNL     1      28.504  25.389 -14.165  1.00  0.00     0.000 C 
BRANCH   2   3
ATOM      3  C   UNL     1      27.084  25.888 -14.482  1.00  0.00     0.000 C 
BRANCH   3   4
ATOM      4  C   UNL     1      26.394  25.070 -15.589  1.00  0.00     0.000 C 
BRANCH   4   5
ATOM      5  C   UNL     1      27.321  24.590 -16.721  1.00  0.00     0.006 C 
BRANCH   5   6
ATOM      6  C   UNL     1      26.871  25.069 -18.107  1.00  0.00     0.053 C 
BRANCH   6   7
ATOM      7  C   UNL     1      27.297  24.096 -19.160  1.00  0.00     0.041 C 
ATOM      8  O   UNL     1      26.935  24.257 -20.356  1.00  0.00    -0.550 OA
ATOM      9  O   UNL     1      28.137  23.039 -18.832  1.00  0.00    -0.550 OA
ENDBRANCH   6   7
ENDBRANCH   5   6
ENDBRANCH   4   5
ENDBRANCH   3   4
ENDBRANCH   2   3
ENDBRANCH   1   2
BRANCH   1  10
ATOM     10  C   UNL     1      30.616  26.794 -14.504  1.00  0.00     0.000 C 
BRANCH  10  11
ATOM     11  C   UNL     1      30.546  25.978 -15.800  1.00  0.00    -0.000 C 
BRANCH  11  12
ATOM     12  C   UNL     1      30.254  26.879 -17.005  1.00  0.00    -0.000 C 
BRANCH  12  13
ATOM     13  C   UNL     1      29.628  28.209 -16.559  1.00  0.00    -0.000 C 
BRANCH  13  14
ATOM     14  C   UNL     1      28.219  28.433 -17.137  1.00  0.00    -0.000 C 
BRANCH  14  15
ATOM     15  C   UNL     1      28.025  29.773 -17.868  1.00  0.00    -0.003 C 
ATOM     16  C   UNL     1      26.589  29.992 -18.344  1.00  0.00     0.004 C 
ENDBRANCH  14  15
ENDBRANCH  13  14
ENDBRANCH  12  13
ENDBRANCH  11  12
ENDBRANCH  10  11
ENDBRANCH   1  10
TORSDOF 12
ENDMDL
MODEL 3
REMARK VINA RESULT:    -3.893      1.767      4.341
REMARK INTER + INTRA:          -7.947
REMARK INTER:                  -6.267
REMARK INTRA:                  -1.680
REMARK UNBOUND:                -1.322
REMARK SMILES CCCCCCCCCCCCCC(=O)[O-]
REMARK SMILES IDX 8 1 9 2 10 3 11 4 12 5 13 6 14 7 15 8 16 9 7 10 6 11 5 12
REMARK SMILES IDX 4 13 3 14 2 15 1 16
REMARK H PARENT
REMARK Flexibility Score: inf
ROOT
ATOM      1  C   UNL     1      29.736  27.904 -16.669  1.00  0.00     0.000 C 
ENDROOT
BRANCH   1   2
ATOM      2  C   UNL     1      30.492  27.152 -15.561  1.00  0.00     0.000 C 
BRANCH   2   3
ATOM      3  C   UNL     1      31.676  26.334 -16.104  1.00  0.00     0.000 C 
BRANCH   3   4
ATOM      4  C   UNL     1      31.503  25.937 -17.581  1.00  0.00     0.000 C 
BRANCH   4   5
ATOM      5  C   UNL     1      30.769  24.605 -17.818  1.00  0.00     0.006 C 
BRANCH   5   6
ATOM      6  C   UNL     1      31.097  23.543 -16.761  1.00  0.00     0.053 C 
BRANCH   6   7
ATOM      7  C   UNL     1      29.843  23.041 -16.117  1.00  0.00     0.041 C 
ATOM      8  O   UNL     1      29.501  23.465 -14.982  1.00  0.00    -0.550 OA
ATOM      9  O   UNL     1      29.026  22.143 -16.792  1.00  0.00    -0.550 OA
ENDBRANCH   6   7
ENDBRANCH   5   6
ENDBRANCH   4   5
ENDBRANCH   3   4
ENDBRANCH   2   3
ENDBRANCH   1   2
BRANCH   1  10
ATOM     10  C   UNL     1      28.226  27.621 -16.654  1.00  0.00     0.000 C 
BRANCH  10  11
ATOM     11  C   UNL     1      27.896  26.450 -15.720  1.00  0.00    -0.000 C 
BRANCH  11  12
ATOM     12  C   UNL     1      26.874  25.505 -16.360  1.00  0.00    -0.000 C 
BRANCH  12  13
ATOM     13  C   UNL     1      27.293  25.126 -17.788  1.00  0.00    -0.000 C 
BRANCH  13  14
ATOM     14  C   UNL     1      26.096  24.971 -18.743  1.00  0.00    -0.000 C 
BRANCH  14  15
ATOM     15  C   UNL     1      26.464  24.575 -20.184  1.00  0.00    -0.003 C 
ATOM     16  C   UNL     1      27.616  23.573 -20.252  1.00  0.00     0.004 C 
ENDBRANCH  14  15
ENDBRANCH  13  14
ENDBRANCH  12  13
ENDBRANCH  11  12
ENDBRANCH  10  11
ENDBRANCH   1  10
TORSDOF 12
ENDMDL
MODEL 4
REMARK VINA RESULT:    -3.847      2.869      5.221
REMARK INTER + INTRA:          -7.867
REMARK INTER:                  -6.079
REMARK INTRA:                  -1.789
REMARK UNBOUND:                -1.322
REMARK SMILES CCCCCCCCCCCCCC(=O)[O-]
REMARK SMILES IDX 8 1 9 2 10 3 11 4 12 5 13 6 14 7 15 8 16 9 7 10 6 11 5 12
REMARK SMILES IDX 4 13 3 14 2 15 1 16
REMARK H PARENT
REMARK Flexibility Score: inf
ROOT
ATOM      1  C   UNL     1      27.679  23.271 -19.570  1.00  0.00     0.000 C 
ENDROOT
BRANCH   1   2
ATOM      2  C   UNL     1      26.896  24.445 -20.182  1.00  0.00     0.000 C 
BRANCH   2   3
ATOM      3  C   UNL     1      26.022  25.174 -19.147  1.00  0.00     0.000 C 
BRANCH   3   4
ATOM      4  C   UNL     1      26.613  25.131 -17.726  1.00  0.00     0.000 C 
BRANCH   4   5
ATOM      5  C   UNL     1      27.332  26.416 -17.278  1.00  0.00     0.006 C 
BRANCH   5   6
ATOM      6  C   UNL     1      28.768  26.165 -16.802  1.00  0.00     0.053 C 
BRANCH   6   7
ATOM      7  C   UNL     1      29.479  27.462 -16.578  1.00  0.00     0.041 C 
ATOM      8  O   UNL     1      29.032  28.525 -17.083  1.00  0.00    -0.550 OA
ATOM      9  O   UNL     1      30.609  27.505 -15.769  1.00  0.00    -0.550 OA
ENDBRANCH   6   7
ENDBRANCH   5   6
ENDBRANCH   4   5
ENDBRANCH   3   4
ENDBRANCH   2   3
ENDBRANCH   1   2
BRANCH   1  10
ATOM     10  C   UNL     1      29.198  23.498 -19.587  1.00  0.00     0.000 C 
BRANCH  10  11
ATOM     11  C   UNL     1      29.836  23.045 -18.268  1.00  0.00    -0.000 C 
BRANCH  11  12
ATOM     12  C   UNL     1      28.802  22.369 -17.359  1.00  0.00    -0.000 C 
BRANCH  12  13
ATOM     13  C   UNL     1      29.165  22.557 -15.879  1.00  0.00    -0.000 C 
BRANCH  13  14
ATOM     14  C   UNL     1      27.939  22.509 -14.950  1.00  0.00    -0.000 C 
BRANCH  14  15
ATOM     15  C   UNL     1      27.774  23.734 -14.033  1.00  0.00    -0.003 C 
ATOM     16  C   UNL     1      26.408  24.404 -14.172  1.00  0.00     0.004 C 
ENDBRANCH  14  15
ENDBRANCH  13  14
ENDBRANCH  12  13
ENDBRANCH  11  12
ENDBRANCH  10  11
ENDBRANCH   1  10
TORSDOF 12
ENDMDL
MODEL 5
REMARK VINA RESULT:    -3.825      2.866      4.745
REMARK INTER + INTRA:          -7.830
REMARK INTER:                  -6.088
REMARK INTRA:                  -1.742
REMARK UNBOUND:                -1.322
REMARK SMILES CCCCCCCCCCCCCC(=O)[O-]
REMARK SMILES IDX 8 1 9 2 10 3 11 4 12 5 13 6 14 7 15 8 16 9 7 10 6 11 5 12
REMARK SMILES IDX 4 13 3 14 2 15 1 16
REMARK H PARENT
REMARK Flexibility Score: inf
ROOT
ATOM      1  C   UNL     1      30.919  26.661 -16.114  1.00  0.00     0.000 C 
ENDROOT
BRANCH   1   2
ATOM      2  C   UNL     1      29.644  27.463 -16.426  1.00  0.00     0.000 C 
BRANCH   2   3
ATOM      3  C   UNL     1      28.455  26.561 -16.796  1.00  0.00     0.000 C 
BRANCH   3   4
ATOM      4  C   UNL     1      28.822  25.066 -16.820  1.00  0.00     0.000 C 
BRANCH   4   5
ATOM      5  C   UNL     1      27.758  24.141 -17.439  1.00  0.00     0.006 C 
BRANCH   5   6
ATOM      6  C   UNL     1      28.089  23.725 -18.878  1.00  0.00     0.053 C 
BRANCH   6   7
ATOM      7  C   UNL     1      26.973  24.100 -19.801  1.00  0.00     0.041 C 
ATOM      8  O   UNL     1      26.950  23.657 -20.980  1.00  0.00    -0.550 OA
ATOM      9  O   UNL     1      25.932  24.899 -19.345  1.00  0.00    -0.550 OA
ENDBRANCH   6   7
ENDBRANCH   5   6
ENDBRANCH   4   5
ENDBRANCH   3   4
ENDBRANCH   2   3
ENDBRANCH   1   2
BRANCH   1  10
ATOM     10  C   UNL     1      31.352  26.786 -14.645  1.00  0.00     0.000 C 
BRANCH  10  11
ATOM     11  C   UNL     1      30.538  25.842 -13.751  1.00  0.00    -0.000 C 
BRANCH  11  12
ATOM     12  C   UNL     1      29.546  26.625 -12.882  1.00  0.00    -0.000 C 
BRANCH  12  13
ATOM     13  C   UNL     1      28.117  26.094 -13.066  1.00  0.00    -0.000 C 
BRANCH  13  14
ATOM     14  C   UNL     1      28.041  24.557 -13.047  1.00  0.00    -0.000 C 
BRANCH  14  15
ATOM     15  C   UNL     1      26.815  23.961 -13.761  1.00  0.00    -0.003 C 
ATOM     16  C   UNL     1      25.811  25.021 -14.213  1.00  0.00     0.004 C 
ENDBRANCH  14  15
ENDBRANCH  13  14
ENDBRANCH  12  13
ENDBRANCH  11  12
ENDBRANCH  10  11
ENDBRANCH   1  10
TORSDOF 12
ENDMDL
MODEL 6
REMARK VINA RESULT:    -3.820      3.910      5.626
REMARK INTER + INTRA:          -7.822
REMARK INTER:                  -6.513
REMARK INTRA:                  -1.309
REMARK UNBOUND:                -1.322
REMARK SMILES CCCCCCCCCCCCCC(=O)[O-]
REMARK SMILES IDX 8 1 9 2 10 3 11 4 12 5 13 6 14 7 15 8 16 9 7 10 6 11 5 12
REMARK SMILES IDX 4 13 3 14 2 15 1 16
REMARK H PARENT
REMARK Flexibility Score: inf
ROOT
ATOM      1  C   UNL     1      29.881  27.909 -16.664  1.00  0.00     0.000 C 
ENDROOT
BRANCH   1   2
ATOM      2  C   UNL     1      30.598  27.165 -15.524  1.00  0.00     0.000 C 
BRANCH   2   3
ATOM      3  C   UNL     1      31.786  26.326 -16.023  1.00  0.00     0.000 C 
BRANCH   3   4
ATOM      4  C   UNL     1      31.695  25.989 -17.523  1.00  0.00     0.000 C 
BRANCH   4   5
ATOM      5  C   UNL     1      33.008  25.507 -18.166  1.00  0.00     0.006 C 
BRANCH   5   6
ATOM      6  C   UNL     1      33.465  26.394 -19.331  1.00  0.00     0.053 C 
BRANCH   6   7
ATOM      7  C   UNL     1      34.954  26.536 -19.327  1.00  0.00     0.041 C 
ATOM      8  O   UNL     1      35.655  25.844 -18.542  1.00  0.00    -0.550 OA
ATOM      9  O   UNL     1      35.574  27.398 -20.223  1.00  0.00    -0.550 OA
ENDBRANCH   6   7
ENDBRANCH   5   6
ENDBRANCH   4   5
ENDBRANCH   3   4
ENDBRANCH   2   3
ENDBRANCH   1   2
BRANCH   1  10
ATOM     10  C   UNL     1      28.360  27.694 -16.647  1.00  0.00     0.000 C 
BRANCH  10  11
ATOM     11  C   UNL     1      27.968  26.625 -15.620  1.00  0.00    -0.000 C 
BRANCH  11  12
ATOM     12  C   UNL     1      27.298  25.426 -16.300  1.00  0.00    -0.000 C 
BRANCH  12  13
ATOM     13  C   UNL     1      28.347  24.429 -16.815  1.00  0.00    -0.000 C 
BRANCH  13  14
ATOM     14  C   UNL     1      28.373  24.325 -18.350  1.00  0.00    -0.000 C 
BRANCH  14  15
ATOM     15  C   UNL     1      26.989  24.311 -19.022  1.00  0.00    -0.003 C 
ATOM     16  C   UNL     1      27.051  23.988 -20.514  1.00  0.00     0.004 C 
ENDBRANCH  14  15
ENDBRANCH  13  14
ENDBRANCH  12  13
ENDBRANCH  11  12
ENDBRANCH  10  11
ENDBRANCH   1  10
TORSDOF 12
ENDMDL
MODEL 7
REMARK VINA RESULT:    -3.819      2.511      5.378
REMARK INTER + INTRA:          -7.819
REMARK INTER:                  -6.249
REMARK INTRA:                  -1.570
REMARK UNBOUND:                -1.322
REMARK SMILES CCCCCCCCCCCCCC(=O)[O-]
REMARK SMILES IDX 8 1 9 2 10 3 11 4 12 5 13 6 14 7 15 8 16 9 7 10 6 11 5 12
REMARK SMILES IDX 4 13 3 14 2 15 1 16
REMARK H PARENT
REMARK Flexibility Score: inf
ROOT
ATOM      1  C   UNL     1      31.873  24.982 -15.610  1.00  0.00     0.000 C 
ENDROOT
BRANCH   1   2
ATOM      2  C   UNL     1      31.722  26.436 -16.086  1.00  0.00     0.000 C 
BRANCH   2   3
ATOM      3  C   UNL     1      30.517  27.145 -15.445  1.00  0.00     0.000 C 
BRANCH   3   4
ATOM      4  C   UNL     1      29.480  27.619 -16.479  1.00  0.00     0.000 C 
BRANCH   4   5
ATOM      5  C   UNL     1      28.089  26.972 -16.354  1.00  0.00     0.006 C 
BRANCH   5   6
ATOM      6  C   UNL     1      27.810  26.416 -14.952  1.00  0.00     0.053 C 
BRANCH   6   7
ATOM      7  C   UNL     1      27.021  25.149 -15.039  1.00  0.00     0.041 C 
ATOM      8  O   UNL     1      26.113  25.025 -15.903  1.00  0.00    -0.550 OA
ATOM      9  O   UNL     1      27.321  24.083 -14.200  1.00  0.00    -0.550 OA
ENDBRANCH   6   7
ENDBRANCH   5   6
ENDBRANCH   4   5
ENDBRANCH   3   4
ENDBRANCH   2   3
ENDBRANCH   1   2
BRANCH   1  10
ATOM     10  C   UNL     1      30.604  24.147 -15.841  1.00  0.00     0.000 C 
BRANCH  10  11
ATOM     11  C   UNL     1      30.620  23.497 -17.229  1.00  0.00    -0.000 C 
BRANCH  11  12
ATOM     12  C   UNL     1      29.815  24.326 -18.237  1.00  0.00    -0.000 C 
BRANCH  12  13
ATOM     13  C   UNL     1      28.377  23.800 -18.357  1.00  0.00    -0.000 C 
BRANCH  13  14
ATOM     14  C   UNL     1      28.005  23.394 -19.794  1.00  0.00    -0.000 C 
BRANCH  14  15
ATOM     15  C   UNL     1      26.825  24.172 -20.402  1.00  0.00    -0.003 C 
ATOM     16  C   UNL     1      26.073  25.018 -19.375  1.00  0.00     0.004 C 
ENDBRANCH  14  15
ENDBRANCH  13  14
ENDBRANCH  12  13
ENDBRANCH  11  12
ENDBRANCH  10  11
ENDBRANCH   1  10
TORSDOF 12
ENDMDL
MODEL 8
REMARK VINA RESULT:    -3.754      2.320      5.091
REMARK INTER + INTRA:          -7.710
REMARK INTER:                  -5.729
REMARK INTRA:                  -1.981
REMARK UNBOUND:                -1.322
REMARK SMILES CCCCCCCCCCCCCC(=O)[O-]
REMARK SMILES IDX 8 1 9 2 10 3 11 4 12 5 13 6 14 7 15 8 16 9 7 10 6 11 5 12
REMARK SMILES IDX 4 13 3 14 2 15 1 16
REMARK H PARENT
REMARK Flexibility Score: inf
ROOT
ATOM      1  C   UNL     1      30.484  27.015 -15.842  1.00  0.00     0.000 C 
ENDROOT
BRANCH   1   2
ATOM      2  C   UNL     1      29.596  27.865 -16.766  1.00  0.00     0.000 C 
BRANCH   2   3
ATOM      3  C   UNL     1      28.096  27.663 -16.490  1.00  0.00     0.000 C 
BRANCH   3   4
ATOM      4  C   UNL     1      27.538  26.374 -17.120  1.00  0.00     0.000 C 
BRANCH   4   5
ATOM      5  C   UNL     1      26.884  25.393 -16.131  1.00  0.00     0.006 C 
BRANCH   5   6
ATOM      6  C   UNL     1      27.220  25.705 -14.667  1.00  0.00     0.053 C 
BRANCH   6   7
ATOM      7  C   UNL     1      27.575  24.451 -13.933  1.00  0.00     0.041 C 
ATOM      8  O   UNL     1      26.956  23.381 -14.170  1.00  0.00    -0.550 OA
ATOM      9  O   UNL     1      28.625  24.452 -13.022  1.00  0.00    -0.550 OA
ENDBRANCH   6   7
ENDBRANCH   5   6
ENDBRANCH   4   5
ENDBRANCH   3   4
ENDBRANCH   2   3
ENDBRANCH   1   2
BRANCH   1  10
ATOM     10  C   UNL     1      31.128  25.825 -16.569  1.00  0.00     0.000 C 
BRANCH  10  11
ATOM     11  C   UNL     1      30.643  24.495 -15.979  1.00  0.00    -0.000 C 
BRANCH  11  12
ATOM     12  C   UNL     1      30.053  23.591 -17.067  1.00  0.00    -0.000 C 
BRANCH  12  13
ATOM     13  C   UNL     1      30.184  24.240 -18.452  1.00  0.00    -0.000 C 
BRANCH  13  14
ATOM     14  C   UNL     1      29.331  23.541 -19.526  1.00  0.00    -0.000 C 
BRANCH  14  15
ATOM     15  C   UNL     1      27.838  23.404 -19.179  1.00  0.00    -0.003 C 
ATOM     16  C   UNL     1      26.927  24.147 -20.156  1.00  0.00     0.004 C 
ENDBRANCH  14  15
ENDBRANCH  13  14
ENDBRANCH  12  13
ENDBRANCH  11  12
ENDBRANCH  10  11
ENDBRANCH   1  10
TORSDOF 12
ENDMDL
MODEL 9
REMARK VINA RESULT:    -3.753      3.127      5.557
REMARK INTER + INTRA:          -7.707
REMARK INTER:                  -5.888
REMARK INTRA:                  -1.820
REMARK UNBOUND:                -1.322
REMARK SMILES CCCCCCCCCCCCCC(=O)[O-]
REMARK SMILES IDX 8 1 9 2 10 3 11 4 12 5 13 6 14 7 15 8 16 9 7 10 6 11 5 12
REMARK SMILES IDX 4 13 3 14 2 15 1 16
REMARK H PARENT
REMARK Flexibility Score: inf
ROOT
ATOM      1  C   UNL     1      27.673  22.803 -14.575  1.00  0.00     0.000 C 
ENDROOT
BRANCH   1   2
ATOM      2  C   UNL     1      27.112  23.799 -13.547  1.00  0.00     0.000 C 
BRANCH   2   3
ATOM      3  C   UNL     1      26.055  24.739 -14.151  1.00  0.00     0.000 C 
BRANCH   3   4
ATOM      4  C   UNL     1      26.485  25.332 -15.506  1.00  0.00     0.000 C 
BRANCH   4   5
ATOM      5  C   UNL     1      27.655  26.331 -15.440  1.00  0.00     0.006 C 
BRANCH   5   6
ATOM      6  C   UNL     1      27.839  27.124 -16.741  1.00  0.00     0.053 C 
BRANCH   6   7
ATOM      7  C   UNL     1      29.083  27.951 -16.677  1.00  0.00     0.041 C 
ATOM      8  O   UNL     1      30.118  27.498 -16.119  1.00  0.00    -0.550 OA
ATOM      9  O   UNL     1      29.117  29.205 -17.276  1.00  0.00    -0.550 OA
ENDBRANCH   6   7
ENDBRANCH   5   6
ENDBRANCH   4   5
ENDBRANCH   3   4
ENDBRANCH   2   3
ENDBRANCH   1   2
BRANCH   1  10
ATOM     10  C   UNL     1      29.199  22.906 -14.729  1.00  0.00     0.000 C 
BRANCH  10  11
ATOM     11  C   UNL     1      29.623  22.641 -16.179  1.00  0.00    -0.000 C 
BRANCH  11  12
ATOM     12  C   UNL     1      30.080  23.933 -16.865  1.00  0.00    -0.000 C 
BRANCH  12  13
ATOM     13  C   UNL     1      29.407  24.095 -18.236  1.00  0.00    -0.000 C 
BRANCH  13  14
ATOM     14  C   UNL     1      28.059  23.359 -18.333  1.00  0.00    -0.000 C 
BRANCH  14  15
ATOM     15  C   UNL     1      26.945  24.140 -19.054  1.00  0.00    -0.003 C 
ATOM     16  C   UNL     1      27.015  24.014 -20.575  1.00  0.00     0.004 C 
ENDBRANCH  14  15
ENDBRANCH  13  14
ENDBRANCH  12  13
ENDBRANCH  11  12
ENDBRANCH  10  11
ENDBRANCH   1  10
TORSDOF 12
ENDMDL
