MODEL 1
REMARK VINA RESULT:    -4.835      0.000      0.000
REMARK INTER + INTRA:          -5.819
REMARK INTER:                  -5.542
REMARK INTRA:                  -0.277
REMARK UNBOUND:                -0.277
REMARK SMILES O=C([O-])C=Cc1ccc(O)cc1
REMARK SMILES IDX 6 1 7 2 12 3 8 4 11 5 9 6 5 7 4 8 2 9 1 10 3 11 10 12
REMARK H PARENT 10 13
REMARK Flexibility Score: inf
ROOT
ATOM      1  C   UNL     1      46.752  28.474  14.782  1.00  0.00    -0.025 A 
ATOM      2  C   UNL     1      47.068  27.560  15.803  1.00  0.00     0.012 A 
ATOM      3  C   UNL     1      45.476  29.056  14.753  1.00  0.00     0.012 A 
ATOM      4  C   UNL     1      46.137  27.274  16.806  1.00  0.00     0.047 A 
ATOM      5  C   UNL     1      44.546  28.769  15.757  1.00  0.00     0.047 A 
ATOM      6  C   UNL     1      44.874  27.882  16.788  1.00  0.00     0.115 A 
ENDROOT
BRANCH   1   7
ATOM      7  C   UNL     1      47.699  28.750  13.682  1.00  0.00     0.010 C 
ATOM      8  C   UNL     1      48.667  29.681  13.703  1.00  0.00     0.025 C 
BRANCH   8   9
ATOM      9  C   UNL     1      48.848  30.712  14.742  1.00  0.00     0.064 C 
ATOM     10  O   UNL     1      48.099  31.722  14.806  1.00  0.00    -0.545 OA
ATOM     11  O   UNL     1      49.913  30.600  15.627  1.00  0.00    -0.545 OA
ENDBRANCH   8   9
ENDBRANCH   1   7
BRANCH   6  12
ATOM     12  O   UNL     1      43.939  27.607  17.782  1.00  0.00    -0.508 OA
ATOM     13  H   UNL     1      44.139  26.957  18.532  1.00  0.00     0.293 HD
ENDBRANCH   6  12
TORSDOF 3
ENDMDL
MODEL 2
REMARK VINA RESULT:    -4.756      0.460      1.472
REMARK INTER + INTRA:          -5.728
REMARK INTER:                  -5.479
REMARK INTRA:                  -0.249
REMARK UNBOUND:                -0.277
REMARK SMILES O=C([O-])C=Cc1ccc(O)cc1
REMARK SMILES IDX 6 1 7 2 12 3 8 4 11 5 9 6 5 7 4 8 2 9 1 10 3 11 10 12
REMARK H PARENT 10 13
REMARK Flexibility Score: inf
ROOT
ATOM      1  C   UNL     1      47.055  28.717  14.556  1.00  0.00    -0.025 A 
ATOM      2  C   UNL     1      45.790  29.328  14.504  1.00  0.00     0.012 A 
ATOM      3  C   UNL     1      47.333  27.802  15.582  1.00  0.00     0.012 A 
ATOM      4  C   UNL     1      44.804  28.988  15.435  1.00  0.00     0.047 A 
ATOM      5  C   UNL     1      46.345  27.463  16.512  1.00  0.00     0.047 A 
ATOM      6  C   UNL     1      45.079  28.051  16.440  1.00  0.00     0.115 A 
ENDROOT
BRANCH   1   7
ATOM      7  C   UNL     1      48.129  29.100  13.617  1.00  0.00     0.010 C 
ATOM      8  C   UNL     1      49.018  30.087  13.812  1.00  0.00     0.025 C 
BRANCH   8   9
ATOM      9  C   UNL     1      48.977  31.080  14.903  1.00  0.00     0.064 C 
ATOM     10  O   UNL     1      48.116  31.998  14.927  1.00  0.00    -0.545 OA
ATOM     11  O   UNL     1      49.955  31.042  15.889  1.00  0.00    -0.545 OA
ENDBRANCH   8   9
ENDBRANCH   1   7
BRANCH   6  12
ATOM     12  O   UNL     1      44.104  27.702  17.372  1.00  0.00    -0.508 OA
ATOM     13  H   UNL     1      43.468  28.391  17.756  1.00  0.00     0.293 HD
ENDBRANCH   6  12
TORSDOF 3
ENDMDL
MODEL 3
REMARK VINA RESULT:    -4.711      2.550      5.813
REMARK INTER + INTRA:          -5.677
REMARK INTER:                  -5.426
REMARK INTRA:                  -0.250
REMARK UNBOUND:                -0.277
REMARK SMILES O=C([O-])C=Cc1ccc(O)cc1
REMARK SMILES IDX 6 1 7 2 12 3 8 4 11 5 9 6 5 7 4 8 2 9 1 10 3 11 10 12
REMARK H PARENT 10 13
REMARK Flexibility Score: inf
ROOT
ATOM      1  C   UNL     1      44.841  27.100  17.384  1.00  0.00    -0.025 A 
ATOM      2  C   UNL     1      46.191  27.128  16.995  1.00  0.00     0.012 A 
ATOM      3  C   UNL     1      43.908  27.879  16.683  1.00  0.00     0.012 A 
ATOM      4  C   UNL     1      46.591  27.884  15.889  1.00  0.00     0.047 A 
ATOM      5  C   UNL     1      44.310  28.634  15.576  1.00  0.00     0.047 A 
ATOM      6  C   UNL     1      45.649  28.636  15.174  1.00  0.00     0.115 A 
ENDROOT
BRANCH   1   7
ATOM      7  C   UNL     1      44.405  26.353  18.582  1.00  0.00     0.010 C 
ATOM      8  C   UNL     1      43.931  25.096  18.585  1.00  0.00     0.025 C 
BRANCH   8   9
ATOM      9  C   UNL     1      43.591  24.300  17.391  1.00  0.00     0.064 C 
ATOM     10  O   UNL     1      42.567  24.550  16.702  1.00  0.00    -0.545 OA
ATOM     11  O   UNL     1      44.382  23.207  17.058  1.00  0.00    -0.545 OA
ENDBRANCH   8   9
ENDBRANCH   1   7
BRANCH   6  12
ATOM     12  O   UNL     1      46.034  29.392  14.069  1.00  0.00    -0.508 OA
ATOM     13  H   UNL     1      45.895  29.057  13.123  1.00  0.00     0.293 HD
ENDBRANCH   6  12
TORSDOF 3
ENDMDL
MODEL 4
REMARK VINA RESULT:    -4.376      1.761      4.883
REMARK INTER + INTRA:          -5.293
REMARK INTER:                  -5.378
REMARK INTRA:                   0.085
REMARK UNBOUND:                -0.277
REMARK SMILES O=C([O-])C=Cc1ccc(O)cc1
REMARK SMILES IDX 6 1 7 2 12 3 8 4 11 5 9 6 5 7 4 8 2 9 1 10 3 11 10 12
REMARK H PARENT 10 13
REMARK Flexibility Score: inf
ROOT
ATOM      1  C   UNL     1      46.811  30.056  14.716  1.00  0.00    -0.025 A 
ATOM      2  C   UNL     1      47.093  31.314  15.277  1.00  0.00     0.012 A 
ATOM      3  C   UNL     1      47.762  29.446  13.884  1.00  0.00     0.012 A 
ATOM      4  C   UNL     1      48.329  31.926  15.049  1.00  0.00     0.047 A 
ATOM      5  C   UNL     1      48.998  30.060  13.658  1.00  0.00     0.047 A 
ATOM      6  C   UNL     1      49.287  31.298  14.241  1.00  0.00     0.115 A 
ENDROOT
BRANCH   1   7
ATOM      7  C   UNL     1      45.492  29.415  14.899  1.00  0.00     0.010 C 
ATOM      8  C   UNL     1      45.244  28.355  15.684  1.00  0.00     0.025 C 
BRANCH   8   9
ATOM      9  C   UNL     1      46.261  27.529  16.363  1.00  0.00     0.064 C 
ATOM     10  O   UNL     1      46.318  27.453  17.619  1.00  0.00    -0.545 OA
ATOM     11  O   UNL     1      47.219  26.874  15.600  1.00  0.00    -0.545 OA
ENDBRANCH   8   9
ENDBRANCH   1   7
BRANCH   6  12
ATOM     12  O   UNL     1      50.522  31.897  14.007  1.00  0.00    -0.508 OA
ATOM     13  H   UNL     1      51.346  31.634  14.534  1.00  0.00     0.293 HD
ENDBRANCH   6  12
TORSDOF 3
ENDMDL
MODEL 5
REMARK VINA RESULT:    -4.336      2.601      3.182
REMARK INTER + INTRA:          -5.247
REMARK INTER:                  -5.038
REMARK INTRA:                  -0.209
REMARK UNBOUND:                -0.277
REMARK SMILES O=C([O-])C=Cc1ccc(O)cc1
REMARK SMILES IDX 6 1 7 2 12 3 8 4 11 5 9 6 5 7 4 8 2 9 1 10 3 11 10 12
REMARK H PARENT 10 13
REMARK Flexibility Score: inf
ROOT
ATOM      1  C   UNL     1      47.092  28.436  14.891  1.00  0.00    -0.025 A 
ATOM      2  C   UNL     1      45.929  29.153  14.558  1.00  0.00     0.012 A 
ATOM      3  C   UNL     1      47.084  27.599  16.015  1.00  0.00     0.012 A 
ATOM      4  C   UNL     1      44.762  28.991  15.311  1.00  0.00     0.047 A 
ATOM      5  C   UNL     1      45.915  27.438  16.767  1.00  0.00     0.047 A 
ATOM      6  C   UNL     1      44.751  28.129  16.416  1.00  0.00     0.115 A 
ENDROOT
BRANCH   1   7
ATOM      7  C   UNL     1      48.351  28.632  14.143  1.00  0.00     0.010 C 
ATOM      8  C   UNL     1      48.859  27.781  13.236  1.00  0.00     0.025 C 
BRANCH   8   9
ATOM      9  C   UNL     1      48.355  26.424  12.952  1.00  0.00     0.064 C 
ATOM     10  O   UNL     1      47.588  26.196  11.980  1.00  0.00    -0.545 OA
ATOM     11  O   UNL     1      48.680  25.387  13.817  1.00  0.00    -0.545 OA
ENDBRANCH   8   9
ENDBRANCH   1   7
BRANCH   6  12
ATOM     12  O   UNL     1      43.595  27.959  17.173  1.00  0.00    -0.508 OA
ATOM     13  H   UNL     1      43.537  28.281  18.131  1.00  0.00     0.293 HD
ENDBRANCH   6  12
TORSDOF 3
ENDMDL
MODEL 6
REMARK VINA RESULT:    -4.217      1.939      2.431
REMARK INTER + INTRA:          -5.110
REMARK INTER:                  -5.274
REMARK INTRA:                   0.164
REMARK UNBOUND:                -0.277
REMARK SMILES O=C([O-])C=Cc1ccc(O)cc1
REMARK SMILES IDX 6 1 7 2 12 3 8 4 11 5 9 6 5 7 4 8 2 9 1 10 3 11 10 12
REMARK H PARENT 10 13
REMARK Flexibility Score: inf
ROOT
ATOM      1  C   UNL     1      45.210  28.575  15.963  1.00  0.00    -0.025 A 
ATOM      2  C   UNL     1      46.021  27.738  16.749  1.00  0.00     0.012 A 
ATOM      3  C   UNL     1      43.834  28.315  15.877  1.00  0.00     0.012 A 
ATOM      4  C   UNL     1      45.453  26.689  17.479  1.00  0.00     0.047 A 
ATOM      5  C   UNL     1      43.268  27.265  16.608  1.00  0.00     0.047 A 
ATOM      6  C   UNL     1      44.073  26.453  17.413  1.00  0.00     0.115 A 
ENDROOT
BRANCH   1   7
ATOM      7  C   UNL     1      45.794  29.655  15.141  1.00  0.00     0.010 C 
ATOM      8  C   UNL     1      46.830  29.517  14.298  1.00  0.00     0.025 C 
BRANCH   8   9
ATOM      9  C   UNL     1      47.685  28.321  14.170  1.00  0.00     0.064 C 
ATOM     10  O   UNL     1      47.391  27.382  13.385  1.00  0.00    -0.545 OA
ATOM     11  O   UNL     1      48.802  28.198  14.986  1.00  0.00    -0.545 OA
ENDBRANCH   8   9
ENDBRANCH   1   7
BRANCH   6  12
ATOM     12  O   UNL     1      43.495  25.412  18.135  1.00  0.00    -0.508 OA
ATOM     13  H   UNL     1      43.327  24.505  17.716  1.00  0.00     0.293 HD
ENDBRANCH   6  12
TORSDOF 3
ENDMDL
MODEL 7
REMARK VINA RESULT:    -4.147      9.041     10.451
REMARK INTER + INTRA:          -5.030
REMARK INTER:                  -4.731
REMARK INTRA:                  -0.299
REMARK UNBOUND:                -0.277
REMARK SMILES O=C([O-])C=Cc1ccc(O)cc1
REMARK SMILES IDX 6 1 7 2 12 3 8 4 11 5 9 6 5 7 4 8 2 9 1 10 3 11 10 12
REMARK H PARENT 10 13
REMARK Flexibility Score: inf
ROOT
ATOM      1  C   UNL     1      55.096  33.951  19.789  1.00  0.00    -0.025 A 
ATOM      2  C   UNL     1      53.871  34.640  19.780  1.00  0.00     0.012 A 
ATOM      3  C   UNL     1      55.581  33.426  20.996  1.00  0.00     0.012 A 
ATOM      4  C   UNL     1      53.119  34.755  20.954  1.00  0.00     0.047 A 
ATOM      5  C   UNL     1      54.827  33.542  22.169  1.00  0.00     0.047 A 
ATOM      6  C   UNL     1      53.594  34.202  22.151  1.00  0.00     0.115 A 
ENDROOT
BRANCH   1   7
ATOM      7  C   UNL     1      55.933  33.863  18.575  1.00  0.00     0.010 C 
ATOM      8  C   UNL     1      55.846  32.907  17.636  1.00  0.00     0.025 C 
BRANCH   8   9
ATOM      9  C   UNL     1      55.034  31.679  17.731  1.00  0.00     0.064 C 
ATOM     10  O   UNL     1      53.898  31.596  17.193  1.00  0.00    -0.545 OA
ATOM     11  O   UNL     1      55.504  30.614  18.489  1.00  0.00    -0.545 OA
ENDBRANCH   8   9
ENDBRANCH   1   7
BRANCH   6  12
ATOM     12  O   UNL     1      52.854  34.309  23.326  1.00  0.00    -0.508 OA
ATOM     13  H   UNL     1      52.479  35.197  23.636  1.00  0.00     0.293 HD
ENDBRANCH   6  12
TORSDOF 3
ENDMDL
MODEL 8
REMARK VINA RESULT:    -4.007      2.808      4.289
REMARK INTER + INTRA:          -4.870
REMARK INTER:                  -4.654
REMARK INTRA:                  -0.216
REMARK UNBOUND:                -0.277
REMARK SMILES O=C([O-])C=Cc1ccc(O)cc1
REMARK SMILES IDX 6 1 7 2 12 3 8 4 11 5 9 6 5 7 4 8 2 9 1 10 3 11 10 12
REMARK H PARENT 10 13
REMARK Flexibility Score: inf
ROOT
ATOM      1  C   UNL     1      49.646  31.584  13.866  1.00  0.00    -0.025 A 
ATOM      2  C   UNL     1      48.835  32.390  14.684  1.00  0.00     0.012 A 
ATOM      3  C   UNL     1      49.266  30.257  13.617  1.00  0.00     0.012 A 
ATOM      4  C   UNL     1      47.636  31.889  15.200  1.00  0.00     0.047 A 
ATOM      5  C   UNL     1      48.066  29.758  14.134  1.00  0.00     0.047 A 
ATOM      6  C   UNL     1      47.247  30.572  14.922  1.00  0.00     0.115 A 
ENDROOT
BRANCH   1   7
ATOM      7  C   UNL     1      50.943  32.073  13.355  1.00  0.00     0.010 C 
ATOM      8  C   UNL     1      52.151  31.682  13.795  1.00  0.00     0.025 C 
BRANCH   8   9
ATOM      9  C   UNL     1      52.405  30.839  14.978  1.00  0.00     0.064 C 
ATOM     10  O   UNL     1      52.676  29.614  14.869  1.00  0.00    -0.545 OA
ATOM     11  O   UNL     1      52.275  31.394  16.245  1.00  0.00    -0.545 OA
ENDBRANCH   8   9
ENDBRANCH   1   7
BRANCH   6  12
ATOM     12  O   UNL     1      46.054  30.061  15.429  1.00  0.00    -0.508 OA
ATOM     13  H   UNL     1      45.234  29.953  14.844  1.00  0.00     0.293 HD
ENDBRANCH   6  12
TORSDOF 3
ENDMDL
MODEL 9
REMARK VINA RESULT:    -3.988      2.695      3.994
REMARK INTER + INTRA:          -4.848
REMARK INTER:                  -4.631
REMARK INTRA:                  -0.217
REMARK UNBOUND:                -0.277
REMARK SMILES O=C([O-])C=Cc1ccc(O)cc1
REMARK SMILES IDX 6 1 7 2 12 3 8 4 11 5 9 6 5 7 4 8 2 9 1 10 3 11 10 12
REMARK H PARENT 10 13
REMARK Flexibility Score: inf
ROOT
ATOM      1  C   UNL     1      49.290  31.076  14.845  1.00  0.00    -0.025 A 
ATOM      2  C   UNL     1      48.201  31.903  15.173  1.00  0.00     0.012 A 
ATOM      3  C   UNL     1      49.054  29.743  14.481  1.00  0.00     0.012 A 
ATOM      4  C   UNL     1      46.894  31.415  15.086  1.00  0.00     0.047 A 
ATOM      5  C   UNL     1      47.745  29.256  14.394  1.00  0.00     0.047 A 
ATOM      6  C   UNL     1      46.663  30.090  14.692  1.00  0.00     0.115 A 
ENDROOT
BRANCH   1   7
ATOM      7  C   UNL     1      50.682  31.553  14.983  1.00  0.00     0.010 C 
ATOM      8  C   UNL     1      51.422  32.087  13.998  1.00  0.00     0.025 C 
BRANCH   8   9
ATOM      9  C   UNL     1      51.054  32.130  12.570  1.00  0.00     0.064 C 
ATOM     10  O   UNL     1      50.983  31.082  11.875  1.00  0.00    -0.545 OA
ATOM     11  O   UNL     1      50.849  33.361  11.961  1.00  0.00    -0.545 OA
ENDBRANCH   8   9
ENDBRANCH   1   7
BRANCH   6  12
ATOM     12  O   UNL     1      45.365  29.593  14.599  1.00  0.00    -0.508 OA
ATOM     13  H   UNL     1      44.572  30.206  14.458  1.00  0.00     0.293 HD
ENDBRANCH   6  12
TORSDOF 3
ENDMDL
