MODEL 1
REMARK VINA RESULT:   131.940      0.000      0.000
REMARK INTER + INTRA:         143.651
REMARK INTER:                 143.510
REMARK INTRA:                   0.141
REMARK UNBOUND:                 0.141
REMARK SMILES C[C@@H]1[C@H]2C3=CC[C@@H]4[C@@]5(C)CC[C@@H](O)C(C)(C)[C@H]5CC[C@]4(C)[C@]3(C)CC[C@@]2(C(=O)[O-])CC[C@@H]1C
REMARK SMILES IDX 26 1 30 2 25 3 3 4 31 5 24 6 4 7 2 8 32 9 22 10 5 11 1 12
REMARK SMILES IDX 33 13 23 14 20 15 6 16 7 17 19 18 21 19 8 20 18 21 17 22
REMARK SMILES IDX 10 23 9 24 14 25 11 26 12 27 15 28 16 29 27 30 28 31 29 32
REMARK SMILES IDX 13 33
REMARK H PARENT 13 34
REMARK Flexibility Score: inf
ROOT
ATOM      1  C   UNL     1      10.033  49.297  19.834  1.00  0.00     0.017 C 
ATOM      2  C   UNL     1       8.796  49.226  18.874  1.00  0.00     0.014 C 
ATOM      3  C   UNL     1       9.930  48.107  20.817  1.00  0.00     0.014 C 
ATOM      4  C   UNL     1      10.044  50.639  20.649  1.00  0.00     0.030 C 
ATOM      5  C   UNL     1       8.301  50.609  18.448  1.00  0.00     0.004 C 
ATOM      6  C   UNL     1      11.090  48.060  21.811  1.00  0.00     0.013 C 
ATOM      7  C   UNL     1      11.014  50.610  21.845  1.00  0.00    -0.063 C 
ATOM      8  C   UNL     1       8.581  51.083  20.984  1.00  0.00    -0.003 C 
ATOM      9  C   UNL     1       7.810  51.444  19.661  1.00  0.00    -0.011 C 
ATOM     10  C   UNL     1      11.274  49.353  22.685  1.00  0.00    -0.006 C 
ATOM     11  C   UNL     1      11.556  51.783  22.216  1.00  0.00    -0.027 C 
ATOM     12  C   UNL     1       8.465  52.186  22.056  1.00  0.00     0.008 C 
ATOM     13  C   UNL     1       7.870  52.939  19.290  1.00  0.00     0.008 C 
ATOM     14  C   UNL     1      10.160  49.323  23.775  1.00  0.00     0.017 C 
ATOM     15  C   UNL     1      12.752  49.410  23.354  1.00  0.00    -0.020 C 
ATOM     16  C   UNL     1      12.536  51.969  23.331  1.00  0.00     0.032 C 
ATOM     17  C   UNL     1      12.907  50.723  24.213  1.00  0.00     0.006 C 
ATOM     18  C   UNL     1      13.879  49.487  22.277  1.00  0.00     0.008 C 
ATOM     19  C   UNL     1      12.948  48.127  24.223  1.00  0.00     0.012 C 
ATOM     20  C   UNL     1      14.319  50.952  24.957  1.00  0.00    -0.025 C 
ATOM     21  C   UNL     1      15.291  49.547  22.867  1.00  0.00     0.005 C 
ATOM     22  C   UNL     1      15.564  50.563  24.035  1.00  0.00     0.003 C 
ATOM     23  C   UNL     1      14.400  50.182  26.314  1.00  0.00     0.010 C 
ATOM     24  C   UNL     1      14.371  52.476  25.378  1.00  0.00     0.012 C 
ATOM     25  C   UNL     1      16.913  50.180  24.824  1.00  0.00    -0.006 C 
ATOM     26  C   UNL     1      15.720  50.400  27.099  1.00  0.00     0.033 C 
ATOM     27  C   UNL     1      16.937  50.828  26.237  1.00  0.00     0.120 C 
ATOM     28  C   UNL     1      18.124  50.728  24.024  1.00  0.00     0.014 C 
ATOM     29  C   UNL     1      17.140  48.645  24.998  1.00  0.00     0.014 C 
ENDROOT
BRANCH   1  30
ATOM     30  C   UNL     1      11.301  49.164  18.991  1.00  0.00     0.048 C 
ATOM     31  O   UNL     1      11.976  48.099  19.029  1.00  0.00    -0.550 OA
ATOM     32  O   UNL     1      11.700  50.175  18.121  1.00  0.00    -0.550 OA
ENDBRANCH   1  30
BRANCH  27  33
ATOM     33  O   UNL     1      18.125  50.506  26.920  1.00  0.00    -0.393 OA
ATOM     34  H   UNL     1      18.677  51.331  26.952  1.00  0.00     0.210 HD
ENDBRANCH  27  33
TORSDOF 2
ENDMDL
MODEL 2
REMARK VINA RESULT:   133.991      4.299      7.754
REMARK INTER + INTRA:         145.882
REMARK INTER:                 145.940
REMARK INTRA:                  -0.058
REMARK UNBOUND:                 0.141
REMARK SMILES C[C@@H]1[C@H]2C3=CC[C@@H]4[C@@]5(C)CC[C@@H](O)C(C)(C)[C@H]5CC[C@]4(C)[C@]3(C)CC[C@@]2(C(=O)[O-])CC[C@@H]1C
REMARK SMILES IDX 26 1 30 2 25 3 3 4 31 5 24 6 4 7 2 8 32 9 22 10 5 11 1 12
REMARK SMILES IDX 33 13 23 14 20 15 6 16 7 17 19 18 21 19 8 20 18 21 17 22
REMARK SMILES IDX 10 23 9 24 14 25 11 26 12 27 15 28 16 29 27 30 28 31 29 32
REMARK SMILES IDX 13 33
REMARK H PARENT 13 34
REMARK Flexibility Score: inf
ROOT
ATOM      1  C   UNL     1      14.371  50.952  23.242  1.00  0.00     0.017 C 
ATOM      2  C   UNL     1      14.359  49.584  22.473  1.00  0.00     0.014 C 
ATOM      3  C   UNL     1      14.560  52.074  22.194  1.00  0.00     0.014 C 
ATOM      4  C   UNL     1      15.549  51.011  24.279  1.00  0.00     0.030 C 
ATOM      5  C   UNL     1      14.976  48.447  23.288  1.00  0.00     0.004 C 
ATOM      6  C   UNL     1      14.583  53.468  22.820  1.00  0.00     0.013 C 
ATOM      7  C   UNL     1      15.826  52.435  24.795  1.00  0.00    -0.063 C 
ATOM      8  C   UNL     1      16.797  50.243  23.728  1.00  0.00    -0.003 C 
ATOM      9  C   UNL     1      16.474  48.709  23.600  1.00  0.00    -0.011 C 
ATOM     10  C   UNL     1      15.683  53.687  23.921  1.00  0.00    -0.006 C 
ATOM     11  C   UNL     1      16.323  52.544  26.039  1.00  0.00    -0.027 C 
ATOM     12  C   UNL     1      18.112  50.511  24.487  1.00  0.00     0.008 C 
ATOM     13  C   UNL     1      16.874  47.881  24.838  1.00  0.00     0.008 C 
ATOM     14  C   UNL     1      17.042  53.851  23.175  1.00  0.00     0.017 C 
ATOM     15  C   UNL     1      15.354  54.987  24.837  1.00  0.00    -0.020 C 
ATOM     16  C   UNL     1      16.637  53.830  26.736  1.00  0.00     0.032 C 
ATOM     17  C   UNL     1      16.468  55.172  25.936  1.00  0.00     0.006 C 
ATOM     18  C   UNL     1      14.018  54.822  25.627  1.00  0.00     0.008 C 
ATOM     19  C   UNL     1      15.254  56.234  23.903  1.00  0.00     0.012 C 
ATOM     20  C   UNL     1      16.306  56.419  26.945  1.00  0.00    -0.025 C 
ATOM     21  C   UNL     1      13.671  56.025  26.508  1.00  0.00     0.005 C 
ATOM     22  C   UNL     1      14.797  56.618  27.432  1.00  0.00     0.003 C 
ATOM     23  C   UNL     1      16.846  57.748  26.327  1.00  0.00     0.010 C 
ATOM     24  C   UNL     1      17.272  56.145  28.168  1.00  0.00     0.012 C 
ATOM     25  C   UNL     1      14.419  58.105  27.915  1.00  0.00    -0.006 C 
ATOM     26  C   UNL     1      16.757  58.978  27.269  1.00  0.00     0.033 C 
ATOM     27  C   UNL     1      15.684  58.878  28.384  1.00  0.00     0.120 C 
ATOM     28  C   UNL     1      13.446  57.999  29.118  1.00  0.00     0.014 C 
ATOM     29  C   UNL     1      13.706  58.969  26.828  1.00  0.00     0.014 C 
ENDROOT
BRANCH   1  30
ATOM     30  C   UNL     1      13.023  51.118  23.942  1.00  0.00     0.048 C 
ATOM     31  O   UNL     1      12.978  51.468  25.153  1.00  0.00    -0.550 OA
ATOM     32  O   UNL     1      11.824  50.955  23.252  1.00  0.00    -0.550 OA
ENDBRANCH   1  30
BRANCH  27  33
ATOM     33  O   UNL     1      15.349  60.173  28.822  1.00  0.00    -0.393 OA
ATOM     34  H   UNL     1      16.001  60.799  28.411  1.00  0.00     0.210 HD
ENDBRANCH  27  33
TORSDOF 2
ENDMDL
