MODEL 1
REMARK VINA RESULT:    -7.041      0.000      0.000
REMARK INTER + INTRA:          -8.562
REMARK INTER:                  -8.276
REMARK INTRA:                  -0.286
REMARK UNBOUND:                -0.286
REMARK SMILES O=c1cc(-c2ccc(O)c(O)c2)oc2cc(O)cc(O)c12
REMARK SMILES IDX 4 1 3 2 2 3 1 4 21 5 19 6 18 7 16 8 15 9 14 10 13 11 5 12
REMARK SMILES IDX 6 13 7 14 8 15 12 16 10 17 9 18 11 20 20 22 17 24
REMARK H PARENT 9 19 11 21 20 23 17 25
REMARK Flexibility Score: inf
ROOT
ATOM      1  C   UNL     1     -12.583 -40.816 -17.567  1.00  0.00     0.138 A 
ATOM      2  C   UNL     1     -12.666 -39.993 -16.435  1.00  0.00     0.100 A 
ATOM      3  C   UNL     1     -13.797 -40.054 -15.620  1.00  0.00     0.197 A 
ATOM      4  O   UNL     1     -13.816 -39.349 -14.579  1.00  0.00    -0.289 OA
ATOM      5  C   UNL     1     -14.863 -40.921 -15.959  1.00  0.00     0.107 A 
ATOM      6  C   UNL     1     -16.081 -41.035 -15.225  1.00  0.00     0.134 A 
ATOM      7  C   UNL     1     -17.016 -42.013 -15.589  1.00  0.00     0.093 A 
ATOM      8  C   UNL     1     -16.803 -42.837 -16.697  1.00  0.00     0.123 A 
ATOM      9  C   UNL     1     -15.642 -42.696 -17.452  1.00  0.00     0.094 A 
ATOM     10  C   UNL     1     -14.674 -41.754 -17.093  1.00  0.00     0.146 A 
ATOM     11  O   UNL     1     -13.573 -41.662 -17.832  1.00  0.00    -0.456 OA
ENDROOT
BRANCH   1  12
ATOM     12  C   UNL     1     -11.402 -40.792 -18.469  1.00  0.00     0.021 A 
ATOM     13  C   UNL     1     -10.981 -41.940 -19.163  1.00  0.00     0.016 A 
ATOM     14  C   UNL     1      -9.862 -41.891 -19.996  1.00  0.00     0.051 A 
ATOM     15  C   UNL     1      -9.135 -40.706 -20.149  1.00  0.00     0.157 A 
ATOM     16  C   UNL     1     -10.664 -39.605 -18.611  1.00  0.00     0.062 A 
ATOM     17  C   UNL     1      -9.540 -39.548 -19.446  1.00  0.00     0.158 A 
BRANCH  15  18
ATOM     18  O   UNL     1      -8.027 -40.724 -20.999  1.00  0.00    -0.504 OA
ATOM     19  H   UNL     1      -7.649 -39.905 -21.452  1.00  0.00     0.293 HD
ENDBRANCH  15  18
BRANCH  17  20
ATOM     20  O   UNL     1      -8.864 -38.330 -19.545  1.00  0.00    -0.504 OA
ATOM     21  H   UNL     1      -8.149 -38.135 -20.231  1.00  0.00     0.293 HD
ENDBRANCH  17  20
ENDBRANCH   1  12
BRANCH   6  22
ATOM     22  O   UNL     1     -16.431 -40.206 -14.155  1.00  0.00    -0.507 OA
ATOM     23  H   UNL     1     -15.774 -39.695 -13.584  1.00  0.00     0.293 HD
ENDBRANCH   6  22
BRANCH   8  24
ATOM     24  O   UNL     1     -17.746 -43.796 -17.060  1.00  0.00    -0.508 OA
ATOM     25  H   UNL     1     -17.953 -43.994 -18.032  1.00  0.00     0.293 HD
ENDBRANCH   8  24
TORSDOF 5
ENDMDL
MODEL 2
REMARK VINA RESULT:    -7.016      3.337      4.756
REMARK INTER + INTRA:          -8.533
REMARK INTER:                  -8.242
REMARK INTRA:                  -0.291
REMARK UNBOUND:                -0.286
REMARK SMILES O=c1cc(-c2ccc(O)c(O)c2)oc2cc(O)cc(O)c12
REMARK SMILES IDX 4 1 3 2 2 3 1 4 21 5 19 6 18 7 16 8 15 9 14 10 13 11 5 12
REMARK SMILES IDX 6 13 7 14 8 15 12 16 10 17 9 18 11 20 20 22 17 24
REMARK H PARENT 9 19 11 21 20 23 17 25
REMARK Flexibility Score: inf
ROOT
ATOM      1  C   UNL     1     -13.456 -41.266 -16.646  1.00  0.00     0.138 A 
ATOM      2  C   UNL     1     -14.262 -42.360 -16.987  1.00  0.00     0.100 A 
ATOM      3  C   UNL     1     -15.469 -42.148 -17.654  1.00  0.00     0.197 A 
ATOM      4  O   UNL     1     -16.140 -43.153 -18.001  1.00  0.00    -0.289 OA
ATOM      5  C   UNL     1     -15.884 -40.828 -17.953  1.00  0.00     0.107 A 
ATOM      6  C   UNL     1     -17.114 -40.489 -18.594  1.00  0.00     0.134 A 
ATOM      7  C   UNL     1     -17.364 -39.157 -18.944  1.00  0.00     0.093 A 
ATOM      8  C   UNL     1     -16.457 -38.144 -18.622  1.00  0.00     0.123 A 
ATOM      9  C   UNL     1     -15.279 -38.458 -17.949  1.00  0.00     0.094 A 
ATOM     10  C   UNL     1     -14.984 -39.783 -17.617  1.00  0.00     0.146 A 
ATOM     11  O   UNL     1     -13.843 -40.041 -16.988  1.00  0.00    -0.456 OA
ENDROOT
BRANCH   1  12
ATOM     12  C   UNL     1     -12.162 -41.435 -15.935  1.00  0.00     0.021 A 
ATOM     13  C   UNL     1     -11.165 -40.444 -15.971  1.00  0.00     0.016 A 
ATOM     14  C   UNL     1      -9.955 -40.634 -15.303  1.00  0.00     0.051 A 
ATOM     15  C   UNL     1      -9.707 -41.814 -14.593  1.00  0.00     0.157 A 
ATOM     16  C   UNL     1     -11.908 -42.626 -15.235  1.00  0.00     0.062 A 
ATOM     17  C   UNL     1     -10.696 -42.825 -14.560  1.00  0.00     0.158 A 
BRANCH  15  18
ATOM     18  O   UNL     1      -8.477 -41.940 -13.944  1.00  0.00    -0.504 OA
ATOM     19  H   UNL     1      -8.176 -41.348 -13.185  1.00  0.00     0.293 HD
ENDBRANCH  15  18
BRANCH  17  20
ATOM     20  O   UNL     1     -10.520 -44.029 -13.877  1.00  0.00    -0.504 OA
ATOM     21  H   UNL     1     -10.941 -44.240 -12.984  1.00  0.00     0.293 HD
ENDBRANCH  17  20
ENDBRANCH   1  12
BRANCH   6  22
ATOM     22  O   UNL     1     -18.124 -41.411 -18.884  1.00  0.00    -0.507 OA
ATOM     23  H   UNL     1     -18.106 -42.062 -19.654  1.00  0.00     0.293 HD
ENDBRANCH   6  22
BRANCH   8  24
ATOM     24  O   UNL     1     -16.722 -36.819 -18.961  1.00  0.00    -0.508 OA
ATOM     25  H   UNL     1     -17.071 -36.566 -19.877  1.00  0.00     0.293 HD
ENDBRANCH   8  24
TORSDOF 5
ENDMDL
MODEL 3
REMARK VINA RESULT:    -7.016      1.815      7.234
REMARK INTER + INTRA:          -8.532
REMARK INTER:                  -8.243
REMARK INTRA:                  -0.289
REMARK UNBOUND:                -0.286
REMARK SMILES O=c1cc(-c2ccc(O)c(O)c2)oc2cc(O)cc(O)c12
REMARK SMILES IDX 4 1 3 2 2 3 1 4 21 5 19 6 18 7 16 8 15 9 14 10 13 11 5 12
REMARK SMILES IDX 6 13 7 14 8 15 12 16 10 17 9 18 11 20 20 22 17 24
REMARK H PARENT 9 19 11 21 20 23 17 25
REMARK Flexibility Score: inf
ROOT
ATOM      1  C   UNL     1     -11.082 -41.254 -18.595  1.00  0.00     0.138 A 
ATOM      2  C   UNL     1     -10.347 -40.075 -18.779  1.00  0.00     0.100 A 
ATOM      3  C   UNL     1      -9.368 -40.020 -19.772  1.00  0.00     0.197 A 
ATOM      4  O   UNL     1      -8.768 -38.930 -19.954  1.00  0.00    -0.289 OA
ATOM      5  C   UNL     1      -9.104 -41.164 -20.563  1.00  0.00     0.107 A 
ATOM      6  C   UNL     1      -8.102 -41.236 -21.576  1.00  0.00     0.134 A 
ATOM      7  C   UNL     1      -8.010 -42.383 -22.374  1.00  0.00     0.093 A 
ATOM      8  C   UNL     1      -8.844 -43.482 -22.155  1.00  0.00     0.123 A 
ATOM      9  C   UNL     1      -9.789 -43.441 -21.134  1.00  0.00     0.094 A 
ATOM     10  C   UNL     1      -9.928 -42.298 -20.343  1.00  0.00     0.146 A 
ATOM     11  O   UNL     1     -10.853 -42.296 -19.388  1.00  0.00    -0.456 OA
ENDROOT
BRANCH   1  12
ATOM     12  C   UNL     1     -12.136 -41.367 -17.553  1.00  0.00     0.021 A 
ATOM     13  C   UNL     1     -13.193 -42.286 -17.670  1.00  0.00     0.016 A 
ATOM     14  C   UNL     1     -14.175 -42.364 -16.681  1.00  0.00     0.051 A 
ATOM     15  C   UNL     1     -14.131 -41.525 -15.562  1.00  0.00     0.157 A 
ATOM     16  C   UNL     1     -12.099 -40.516 -16.436  1.00  0.00     0.062 A 
ATOM     17  C   UNL     1     -13.080 -40.587 -15.438  1.00  0.00     0.158 A 
BRANCH  15  18
ATOM     18  O   UNL     1     -15.143 -41.656 -14.607  1.00  0.00    -0.504 OA
ATOM     19  H   UNL     1     -15.296 -42.488 -14.057  1.00  0.00     0.293 HD
ENDBRANCH  15  18
BRANCH  17  20
ATOM     20  O   UNL     1     -12.971 -39.716 -14.353  1.00  0.00    -0.504 OA
ATOM     21  H   UNL     1     -13.760 -39.350 -13.840  1.00  0.00     0.293 HD
ENDBRANCH  17  20
ENDBRANCH   1  12
BRANCH   6  22
ATOM     22  O   UNL     1      -7.163 -40.229 -21.821  1.00  0.00    -0.507 OA
ATOM     23  H   UNL     1      -7.342 -39.240 -21.729  1.00  0.00     0.293 HD
ENDBRANCH   6  22
BRANCH   8  24
ATOM     24  O   UNL     1      -8.735 -44.625 -22.945  1.00  0.00    -0.508 OA
ATOM     25  H   UNL     1      -8.216 -45.437 -22.634  1.00  0.00     0.293 HD
ENDBRANCH   8  24
TORSDOF 5
ENDMDL
MODEL 4
REMARK VINA RESULT:    -6.783     12.640     15.091
REMARK INTER + INTRA:          -8.259
REMARK INTER:                  -7.980
REMARK INTRA:                  -0.279
REMARK UNBOUND:                -0.286
REMARK SMILES O=c1cc(-c2ccc(O)c(O)c2)oc2cc(O)cc(O)c12
REMARK SMILES IDX 4 1 3 2 2 3 1 4 21 5 19 6 18 7 16 8 15 9 14 10 13 11 5 12
REMARK SMILES IDX 6 13 7 14 8 15 12 16 10 17 9 18 11 20 20 22 17 24
REMARK H PARENT 9 19 11 21 20 23 17 25
REMARK Flexibility Score: inf
ROOT
ATOM      1  C   UNL     1      -0.375 -47.686 -18.948  1.00  0.00     0.138 A 
ATOM      2  C   UNL     1       0.690 -48.014 -18.099  1.00  0.00     0.100 A 
ATOM      3  C   UNL     1       1.157 -47.073 -17.180  1.00  0.00     0.197 A 
ATOM      4  O   UNL     1       2.073 -47.418 -16.391  1.00  0.00    -0.289 OA
ATOM      5  C   UNL     1       0.571 -45.785 -17.135  1.00  0.00     0.107 A 
ATOM      6  C   UNL     1       0.992 -44.733 -16.268  1.00  0.00     0.134 A 
ATOM      7  C   UNL     1       0.262 -43.539 -16.229  1.00  0.00     0.093 A 
ATOM      8  C   UNL     1      -0.836 -43.337 -17.070  1.00  0.00     0.123 A 
ATOM      9  C   UNL     1      -1.221 -44.338 -17.957  1.00  0.00     0.094 A 
ATOM     10  C   UNL     1      -0.534 -45.554 -17.995  1.00  0.00     0.146 A 
ATOM     11  O   UNL     1      -0.944 -46.488 -18.847  1.00  0.00    -0.456 OA
ENDROOT
BRANCH   1  12
ATOM     12  C   UNL     1      -0.911 -48.649 -19.944  1.00  0.00     0.021 A 
ATOM     13  C   UNL     1      -1.329 -48.235 -21.221  1.00  0.00     0.016 A 
ATOM     14  C   UNL     1      -1.838 -49.160 -22.133  1.00  0.00     0.051 A 
ATOM     15  C   UNL     1      -1.951 -50.512 -21.793  1.00  0.00     0.157 A 
ATOM     16  C   UNL     1      -1.038 -50.005 -19.597  1.00  0.00     0.062 A 
ATOM     17  C   UNL     1      -1.548 -50.940 -20.507  1.00  0.00     0.158 A 
BRANCH  15  18
ATOM     18  O   UNL     1      -2.466 -51.387 -22.753  1.00  0.00    -0.504 OA
ATOM     19  H   UNL     1      -1.911 -52.062 -23.257  1.00  0.00     0.293 HD
ENDBRANCH  15  18
BRANCH  17  20
ATOM     20  O   UNL     1      -1.634 -52.271 -20.094  1.00  0.00    -0.504 OA
ATOM     21  H   UNL     1      -1.784 -52.558 -19.138  1.00  0.00     0.293 HD
ENDBRANCH  17  20
ENDBRANCH   1  12
BRANCH   6  22
ATOM     22  O   UNL     1       2.124 -44.799 -15.450  1.00  0.00    -0.507 OA
ATOM     23  H   UNL     1       3.074 -44.689 -15.772  1.00  0.00     0.293 HD
ENDBRANCH   6  22
BRANCH   8  24
ATOM     24  O   UNL     1      -1.547 -42.139 -17.035  1.00  0.00    -0.508 OA
ATOM     25  H   UNL     1      -1.925 -41.772 -16.169  1.00  0.00     0.293 HD
ENDBRANCH   8  24
TORSDOF 5
ENDMDL
MODEL 5
REMARK VINA RESULT:    -6.693      2.758      4.174
REMARK INTER + INTRA:          -8.153
REMARK INTER:                  -7.844
REMARK INTRA:                  -0.309
REMARK UNBOUND:                -0.286
REMARK SMILES O=c1cc(-c2ccc(O)c(O)c2)oc2cc(O)cc(O)c12
REMARK SMILES IDX 4 1 3 2 2 3 1 4 21 5 19 6 18 7 16 8 15 9 14 10 13 11 5 12
REMARK SMILES IDX 6 13 7 14 8 15 12 16 10 17 9 18 11 20 20 22 17 24
REMARK H PARENT 9 19 11 21 20 23 17 25
REMARK Flexibility Score: inf
ROOT
ATOM      1  C   UNL     1     -11.752 -39.293 -18.272  1.00  0.00     0.138 A 
ATOM      2  C   UNL     1     -13.127 -39.468 -18.068  1.00  0.00     0.100 A 
ATOM      3  C   UNL     1     -13.572 -40.316 -17.053  1.00  0.00     0.197 A 
ATOM      4  O   UNL     1     -14.810 -40.405 -16.855  1.00  0.00    -0.289 OA
ATOM      5  C   UNL     1     -12.632 -41.015 -16.259  1.00  0.00     0.107 A 
ATOM      6  C   UNL     1     -12.970 -41.937 -15.224  1.00  0.00     0.134 A 
ATOM      7  C   UNL     1     -11.955 -42.481 -14.427  1.00  0.00     0.093 A 
ATOM      8  C   UNL     1     -10.612 -42.184 -14.668  1.00  0.00     0.123 A 
ATOM      9  C   UNL     1     -10.268 -41.327 -15.711  1.00  0.00     0.094 A 
ATOM     10  C   UNL     1     -11.260 -40.742 -16.502  1.00  0.00     0.146 A 
ATOM     11  O   UNL     1     -10.890 -39.918 -17.477  1.00  0.00    -0.456 OA
ENDROOT
BRANCH   1  12
ATOM     12  C   UNL     1     -11.224 -38.402 -19.339  1.00  0.00     0.021 A 
ATOM     13  C   UNL     1     -11.987 -37.343 -19.861  1.00  0.00     0.016 A 
ATOM     14  C   UNL     1     -11.470 -36.529 -20.869  1.00  0.00     0.051 A 
ATOM     15  C   UNL     1     -10.190 -36.756 -21.385  1.00  0.00     0.157 A 
ATOM     16  C   UNL     1      -9.944 -38.639 -19.867  1.00  0.00     0.062 A 
ATOM     17  C   UNL     1      -9.417 -37.826 -20.879  1.00  0.00     0.158 A 
BRANCH  15  18
ATOM     18  O   UNL     1      -9.731 -35.903 -22.392  1.00  0.00    -0.504 OA
ATOM     19  H   UNL     1      -8.803 -35.507 -22.416  1.00  0.00     0.293 HD
ENDBRANCH  15  18
BRANCH  17  20
ATOM     20  O   UNL     1      -8.134 -38.116 -21.347  1.00  0.00    -0.504 OA
ATOM     21  H   UNL     1      -7.844 -39.026 -21.674  1.00  0.00     0.293 HD
ENDBRANCH  17  20
ENDBRANCH   1  12
BRANCH   6  22
ATOM     22  O   UNL     1     -14.273 -42.367 -14.955  1.00  0.00    -0.507 OA
ATOM     23  H   UNL     1     -14.539 -42.943 -14.170  1.00  0.00     0.293 HD
ENDBRANCH   6  22
BRANCH   8  24
ATOM     24  O   UNL     1      -9.608 -42.742 -13.879  1.00  0.00    -0.508 OA
ATOM     25  H   UNL     1      -9.697 -42.802 -12.871  1.00  0.00     0.293 HD
ENDBRANCH   8  24
TORSDOF 5
ENDMDL
MODEL 6
REMARK VINA RESULT:    -6.676      3.401      7.107
REMARK INTER + INTRA:          -8.133
REMARK INTER:                  -7.818
REMARK INTRA:                  -0.315
REMARK UNBOUND:                -0.286
REMARK SMILES O=c1cc(-c2ccc(O)c(O)c2)oc2cc(O)cc(O)c12
REMARK SMILES IDX 4 1 3 2 2 3 1 4 21 5 19 6 18 7 16 8 15 9 14 10 13 11 5 12
REMARK SMILES IDX 6 13 7 14 8 15 12 16 10 17 9 18 11 20 20 22 17 24
REMARK H PARENT 9 19 11 21 20 23 17 25
REMARK Flexibility Score: inf
ROOT
ATOM      1  C   UNL     1     -11.502 -39.878 -18.511  1.00  0.00     0.138 A 
ATOM      2  C   UNL     1     -12.601 -39.837 -19.378  1.00  0.00     0.100 A 
ATOM      3  C   UNL     1     -12.531 -39.079 -20.547  1.00  0.00     0.197 A 
ATOM      4  O   UNL     1     -13.510 -39.111 -21.336  1.00  0.00    -0.289 OA
ATOM      5  C   UNL     1     -11.362 -38.333 -20.832  1.00  0.00     0.107 A 
ATOM      6  C   UNL     1     -11.194 -37.492 -21.973  1.00  0.00     0.134 A 
ATOM      7  C   UNL     1      -9.950 -36.894 -22.210  1.00  0.00     0.093 A 
ATOM      8  C   UNL     1      -8.889 -37.057 -21.316  1.00  0.00     0.123 A 
ATOM      9  C   UNL     1      -9.061 -37.832 -20.172  1.00  0.00     0.094 A 
ATOM     10  C   UNL     1     -10.279 -38.470 -19.925  1.00  0.00     0.146 A 
ATOM     11  O   UNL     1     -10.396 -39.212 -18.829  1.00  0.00    -0.456 OA
ENDROOT
BRANCH   1  12
ATOM     12  C   UNL     1     -11.523 -40.669 -17.253  1.00  0.00     0.021 A 
ATOM     13  C   UNL     1     -12.525 -41.622 -16.997  1.00  0.00     0.016 A 
ATOM     14  C   UNL     1     -12.527 -42.343 -15.803  1.00  0.00     0.051 A 
ATOM     15  C   UNL     1     -11.540 -42.126 -14.835  1.00  0.00     0.157 A 
ATOM     16  C   UNL     1     -10.540 -40.441 -16.275  1.00  0.00     0.062 A 
ATOM     17  C   UNL     1     -10.534 -41.161 -15.073  1.00  0.00     0.158 A 
BRANCH  15  18
ATOM     18  O   UNL     1     -11.597 -42.883 -13.662  1.00  0.00    -0.504 OA
ATOM     19  H   UNL     1     -11.840 -42.506 -12.758  1.00  0.00     0.293 HD
ENDBRANCH  15  18
BRANCH  17  20
ATOM     20  O   UNL     1      -9.520 -40.887 -14.154  1.00  0.00    -0.504 OA
ATOM     21  H   UNL     1      -9.472 -40.044 -13.600  1.00  0.00     0.293 HD
ENDBRANCH  17  20
ENDBRANCH   1  12
BRANCH   6  22
ATOM     22  O   UNL     1     -12.213 -37.194 -22.882  1.00  0.00    -0.507 OA
ATOM     23  H   UNL     1     -12.656 -37.865 -23.491  1.00  0.00     0.293 HD
ENDBRANCH   6  22
BRANCH   8  24
ATOM     24  O   UNL     1      -7.659 -36.445 -21.553  1.00  0.00    -0.508 OA
ATOM     25  H   UNL     1      -7.006 -36.815 -22.233  1.00  0.00     0.293 HD
ENDBRANCH   8  24
TORSDOF 5
ENDMDL
MODEL 7
REMARK VINA RESULT:    -6.667      2.320      3.167
REMARK INTER + INTRA:          -8.123
REMARK INTER:                  -7.842
REMARK INTRA:                  -0.280
REMARK UNBOUND:                -0.286
REMARK SMILES O=c1cc(-c2ccc(O)c(O)c2)oc2cc(O)cc(O)c12
REMARK SMILES IDX 4 1 3 2 2 3 1 4 21 5 19 6 18 7 16 8 15 9 14 10 13 11 5 12
REMARK SMILES IDX 6 13 7 14 8 15 12 16 10 17 9 18 11 20 20 22 17 24
REMARK H PARENT 9 19 11 21 20 23 17 25
REMARK Flexibility Score: inf
ROOT
ATOM      1  C   UNL     1     -11.504 -39.545 -18.213  1.00  0.00     0.138 A 
ATOM      2  C   UNL     1     -10.624 -39.996 -17.221  1.00  0.00     0.100 A 
ATOM      3  C   UNL     1     -11.077 -40.890 -16.250  1.00  0.00     0.197 A 
ATOM      4  O   UNL     1     -10.248 -41.324 -15.410  1.00  0.00    -0.289 OA
ATOM      5  C   UNL     1     -12.429 -41.309 -16.256  1.00  0.00     0.107 A 
ATOM      6  C   UNL     1     -13.012 -42.184 -15.292  1.00  0.00     0.134 A 
ATOM      7  C   UNL     1     -14.331 -42.622 -15.467  1.00  0.00     0.093 A 
ATOM      8  C   UNL     1     -15.106 -42.166 -16.537  1.00  0.00     0.123 A 
ATOM      9  C   UNL     1     -14.562 -41.269 -17.453  1.00  0.00     0.094 A 
ATOM     10  C   UNL     1     -13.238 -40.841 -17.325  1.00  0.00     0.146 A 
ATOM     11  O   UNL     1     -12.754 -39.996 -18.229  1.00  0.00    -0.456 OA
ENDROOT
BRANCH   1  12
ATOM     12  C   UNL     1     -11.074 -38.593 -19.270  1.00  0.00     0.021 A 
ATOM     13  C   UNL     1     -11.931 -37.586 -19.749  1.00  0.00     0.016 A 
ATOM     14  C   UNL     1     -11.504 -36.713 -20.751  1.00  0.00     0.051 A 
ATOM     15  C   UNL     1     -10.223 -36.827 -21.302  1.00  0.00     0.157 A 
ATOM     16  C   UNL     1      -9.793 -38.717 -19.834  1.00  0.00     0.062 A 
ATOM     17  C   UNL     1      -9.357 -37.844 -20.839  1.00  0.00     0.158 A 
BRANCH  15  18
ATOM     18  O   UNL     1      -9.857 -35.919 -22.299  1.00  0.00    -0.504 OA
ATOM     19  H   UNL     1      -8.959 -35.918 -22.759  1.00  0.00     0.293 HD
ENDBRANCH  15  18
BRANCH  17  20
ATOM     20  O   UNL     1      -8.067 -38.023 -21.343  1.00  0.00    -0.504 OA
ATOM     21  H   UNL     1      -7.245 -38.131 -20.766  1.00  0.00     0.293 HD
ENDBRANCH  17  20
ENDBRANCH   1  12
BRANCH   6  22
ATOM     22  O   UNL     1     -12.354 -42.631 -14.142  1.00  0.00    -0.507 OA
ATOM     23  H   UNL     1     -11.922 -42.031 -13.456  1.00  0.00     0.293 HD
ENDBRANCH   6  22
BRANCH   8  24
ATOM     24  O   UNL     1     -16.422 -42.595 -16.694  1.00  0.00    -0.508 OA
ATOM     25  H   UNL     1     -16.969 -42.925 -15.908  1.00  0.00     0.293 HD
ENDBRANCH   8  24
TORSDOF 5
ENDMDL
MODEL 8
REMARK VINA RESULT:    -6.594      1.697      7.201
REMARK INTER + INTRA:          -8.036
REMARK INTER:                  -7.729
REMARK INTRA:                  -0.307
REMARK UNBOUND:                -0.286
REMARK SMILES O=c1cc(-c2ccc(O)c(O)c2)oc2cc(O)cc(O)c12
REMARK SMILES IDX 4 1 3 2 2 3 1 4 21 5 19 6 18 7 16 8 15 9 14 10 13 11 5 12
REMARK SMILES IDX 6 13 7 14 8 15 12 16 10 17 9 18 11 20 20 22 17 24
REMARK H PARENT 9 19 11 21 20 23 17 25
REMARK Flexibility Score: inf
ROOT
ATOM      1  C   UNL     1     -12.751 -40.740 -17.802  1.00  0.00     0.138 A 
ATOM      2  C   UNL     1     -12.042 -41.763 -18.446  1.00  0.00     0.100 A 
ATOM      3  C   UNL     1     -11.105 -41.440 -19.429  1.00  0.00     0.197 A 
ATOM      4  O   UNL     1     -10.441 -42.375 -19.946  1.00  0.00    -0.289 OA
ATOM      5  C   UNL     1     -10.902 -40.086 -19.789  1.00  0.00     0.107 A 
ATOM      6  C   UNL     1     -10.003 -39.643 -20.805  1.00  0.00     0.134 A 
ATOM      7  C   UNL     1      -9.800 -38.270 -20.993  1.00  0.00     0.093 A 
ATOM      8  C   UNL     1     -10.507 -37.327 -20.244  1.00  0.00     0.123 A 
ATOM      9  C   UNL     1     -11.426 -37.750 -19.287  1.00  0.00     0.094 A 
ATOM     10  C   UNL     1     -11.626 -39.113 -19.052  1.00  0.00     0.146 A 
ATOM     11  O   UNL     1     -12.501 -39.474 -18.119  1.00  0.00    -0.456 OA
ENDROOT
BRANCH   1  12
ATOM     12  C   UNL     1     -13.759 -41.028 -16.749  1.00  0.00     0.021 A 
ATOM     13  C   UNL     1     -14.509 -42.217 -16.750  1.00  0.00     0.016 A 
ATOM     14  C   UNL     1     -15.457 -42.456 -15.754  1.00  0.00     0.051 A 
ATOM     15  C   UNL     1     -15.685 -41.516 -14.744  1.00  0.00     0.157 A 
ATOM     16  C   UNL     1     -13.998 -40.078 -15.742  1.00  0.00     0.062 A 
ATOM     17  C   UNL     1     -14.948 -40.310 -14.738  1.00  0.00     0.158 A 
BRANCH  15  18
ATOM     18  O   UNL     1     -16.646 -41.819 -13.776  1.00  0.00    -0.504 OA
ATOM     19  H   UNL     1     -17.573 -41.420 -13.757  1.00  0.00     0.293 HD
ENDBRANCH  15  18
BRANCH  17  20
ATOM     20  O   UNL     1     -15.123 -39.324 -13.765  1.00  0.00    -0.504 OA
ATOM     21  H   UNL     1     -15.665 -38.483 -13.903  1.00  0.00     0.293 HD
ENDBRANCH  17  20
ENDBRANCH   1  12
BRANCH   6  22
ATOM     22  O   UNL     1      -9.312 -40.500 -21.666  1.00  0.00    -0.507 OA
ATOM     23  H   UNL     1      -9.746 -41.152 -22.302  1.00  0.00     0.293 HD
ENDBRANCH   6  22
BRANCH   8  24
ATOM     24  O   UNL     1     -10.308 -35.963 -20.449  1.00  0.00    -0.508 OA
ATOM     25  H   UNL     1     -11.079 -35.306 -20.429  1.00  0.00     0.293 HD
ENDBRANCH   8  24
TORSDOF 5
ENDMDL
MODEL 9
REMARK VINA RESULT:    -6.560      2.490      7.722
REMARK INTER + INTRA:          -7.996
REMARK INTER:                  -7.731
REMARK INTRA:                  -0.265
REMARK UNBOUND:                -0.286
REMARK SMILES O=c1cc(-c2ccc(O)c(O)c2)oc2cc(O)cc(O)c12
REMARK SMILES IDX 4 1 3 2 2 3 1 4 21 5 19 6 18 7 16 8 15 9 14 10 13 11 5 12
REMARK SMILES IDX 6 13 7 14 8 15 12 16 10 17 9 18 11 20 20 22 17 24
REMARK H PARENT 9 19 11 21 20 23 17 25
REMARK Flexibility Score: inf
ROOT
ATOM      1  C   UNL     1     -11.012 -40.505 -18.348  1.00  0.00     0.138 A 
ATOM      2  C   UNL     1     -10.973 -41.755 -18.980  1.00  0.00     0.100 A 
ATOM      3  C   UNL     1     -10.076 -41.971 -20.027  1.00  0.00     0.197 A 
ATOM      4  O   UNL     1     -10.022 -43.121 -20.533  1.00  0.00    -0.289 OA
ATOM      5  C   UNL     1      -9.237 -40.918 -20.462  1.00  0.00     0.107 A 
ATOM      6  C   UNL     1      -8.314 -41.012 -21.547  1.00  0.00     0.134 A 
ATOM      7  C   UNL     1      -7.452 -39.941 -21.812  1.00  0.00     0.093 A 
ATOM      8  C   UNL     1      -7.522 -38.758 -21.072  1.00  0.00     0.123 A 
ATOM      9  C   UNL     1      -8.456 -38.637 -20.047  1.00  0.00     0.094 A 
ATOM     10  C   UNL     1      -9.307 -39.701 -19.735  1.00  0.00     0.146 A 
ATOM     11  O   UNL     1     -10.174 -39.550 -18.739  1.00  0.00    -0.456 OA
ENDROOT
BRANCH   1  12
ATOM     12  C   UNL     1     -11.947 -40.220 -17.228  1.00  0.00     0.021 A 
ATOM     13  C   UNL     1     -11.652 -40.598 -15.906  1.00  0.00     0.016 A 
ATOM     14  C   UNL     1     -12.553 -40.328 -14.876  1.00  0.00     0.051 A 
ATOM     15  C   UNL     1     -13.768 -39.685 -15.138  1.00  0.00     0.157 A 
ATOM     16  C   UNL     1     -13.173 -39.588 -17.494  1.00  0.00     0.062 A 
ATOM     17  C   UNL     1     -14.083 -39.312 -16.465  1.00  0.00     0.158 A 
BRANCH  15  18
ATOM     18  O   UNL     1     -14.624 -39.442 -14.062  1.00  0.00    -0.504 OA
ATOM     19  H   UNL     1     -14.803 -38.525 -13.679  1.00  0.00     0.293 HD
ENDBRANCH  15  18
BRANCH  17  20
ATOM     20  O   UNL     1     -15.276 -38.672 -16.805  1.00  0.00    -0.504 OA
ATOM     21  H   UNL     1     -15.513 -37.731 -16.524  1.00  0.00     0.293 HD
ENDBRANCH  17  20
ENDBRANCH   1  12
BRANCH   6  22
ATOM     22  O   UNL     1      -8.221 -42.114 -22.402  1.00  0.00    -0.507 OA
ATOM     23  H   UNL     1      -8.622 -43.021 -22.218  1.00  0.00     0.293 HD
ENDBRANCH   6  22
BRANCH   8  24
ATOM     24  O   UNL     1      -6.670 -37.692 -21.353  1.00  0.00    -0.508 OA
ATOM     25  H   UNL     1      -5.692 -37.839 -21.573  1.00  0.00     0.293 HD
ENDBRANCH   8  24
TORSDOF 5
ENDMDL
