MODEL 1
REMARK VINA RESULT:    -4.474      0.000      0.000
REMARK INTER + INTRA:         -12.484
REMARK INTER:                  -9.706
REMARK INTRA:                  -2.779
REMARK UNBOUND:                -2.779
REMARK SMILES CCCCCCCCCCCCCCCCCCCCCC(=O)[O-]
REMARK SMILES IDX 12 1 11 2 10 3 9 4 8 5 7 6 6 7 5 8 4 9 3 10 2 11 1 12 13 13
REMARK SMILES IDX 14 14 15 15 16 16 17 17 18 18 19 19 20 20 21 21 22 22 23 23
REMARK SMILES IDX 24 24
REMARK H PARENT
REMARK Flexibility Score: inf
ROOT
ATOM      1  C   UNL     1      57.891  33.390  78.636  1.00  0.00     0.000 C 
ENDROOT
BRANCH   1   2
ATOM      2  C   UNL     1      58.336  32.256  77.695  1.00  0.00     0.000 C 
BRANCH   2   3
ATOM      3  C   UNL     1      58.300  32.610  76.196  1.00  0.00     0.000 C 
BRANCH   3   4
ATOM      4  C   UNL     1      59.258  31.751  75.357  1.00  0.00    -0.000 C 
BRANCH   4   5
ATOM      5  C   UNL     1      59.971  30.705  76.229  1.00  0.00    -0.000 C 
BRANCH   5   6
ATOM      6  C   UNL     1      59.518  29.266  75.909  1.00  0.00    -0.000 C 
BRANCH   6   7
ATOM      7  C   UNL     1      58.287  29.194  74.988  1.00  0.00    -0.000 C 
BRANCH   7   8
ATOM      8  C   UNL     1      56.966  29.054  75.762  1.00  0.00    -0.000 C 
BRANCH   8   9
ATOM      9  C   UNL     1      55.782  29.709  75.032  1.00  0.00    -0.000 C 
BRANCH   9  10
ATOM     10  C   UNL     1      56.143  30.152  73.603  1.00  0.00    -0.000 C 
BRANCH  10  11
ATOM     11  C   UNL     1      55.959  31.663  73.393  1.00  0.00    -0.003 C 
ATOM     12  C   UNL     1      57.021  32.264  72.470  1.00  0.00     0.004 C 
ENDBRANCH  10  11
ENDBRANCH   9  10
ENDBRANCH   8   9
ENDBRANCH   7   8
ENDBRANCH   6   7
ENDBRANCH   5   6
ENDBRANCH   4   5
ENDBRANCH   3   4
ENDBRANCH   2   3
ENDBRANCH   1   2
BRANCH   1  13
ATOM     13  C   UNL     1      59.017  33.866  79.569  1.00  0.00     0.000 C 
BRANCH  13  14
ATOM     14  C   UNL     1      58.493  34.290  80.951  1.00  0.00     0.000 C 
BRANCH  14  15
ATOM     15  C   UNL     1      59.010  35.676  81.378  1.00  0.00     0.000 C 
BRANCH  15  16
ATOM     16  C   UNL     1      58.535  36.795  80.426  1.00  0.00     0.000 C 
BRANCH  16  17
ATOM     17  C   UNL     1      57.061  37.192  80.621  1.00  0.00     0.000 C 
BRANCH  17  18
ATOM     18  C   UNL     1      56.360  37.557  79.304  1.00  0.00     0.000 C 
BRANCH  18  19
ATOM     19  C   UNL     1      57.253  37.233  78.097  1.00  0.00     0.000 C 
BRANCH  19  20
ATOM     20  C   UNL     1      56.511  36.448  77.003  1.00  0.00     0.006 C 
BRANCH  20  21
ATOM     21  C   UNL     1      56.386  37.237  75.691  1.00  0.00     0.053 C 
BRANCH  21  22
ATOM     22  C   UNL     1      56.099  36.316  74.546  1.00  0.00     0.041 C 
ATOM     23  O   UNL     1      55.891  36.784  73.395  1.00  0.00    -0.550 OA
ATOM     24  O   UNL     1      56.070  34.941  74.746  1.00  0.00    -0.550 OA
ENDBRANCH  21  22
ENDBRANCH  20  21
ENDBRANCH  19  20
ENDBRANCH  18  19
ENDBRANCH  17  18
ENDBRANCH  16  17
ENDBRANCH  15  16
ENDBRANCH  14  15
ENDBRANCH  13  14
ENDBRANCH   1  13
TORSDOF 20
ENDMDL
MODEL 2
REMARK VINA RESULT:    -4.365      2.600      7.324
REMARK INTER + INTRA:         -12.248
REMARK INTER:                  -8.834
REMARK INTRA:                  -3.413
REMARK UNBOUND:                -2.779
REMARK SMILES CCCCCCCCCCCCCCCCCCCCCC(=O)[O-]
REMARK SMILES IDX 12 1 11 2 10 3 9 4 8 5 7 6 6 7 5 8 4 9 3 10 2 11 1 12 13 13
REMARK SMILES IDX 14 14 15 15 16 16 17 17 18 18 19 19 20 20 21 21 22 22 23 23
REMARK SMILES IDX 24 24
REMARK H PARENT
REMARK Flexibility Score: inf
ROOT
ATOM      1  C   UNL     1      59.591  35.542  73.908  1.00  0.00     0.000 C 
ENDROOT
BRANCH   1   2
ATOM      2  C   UNL     1      58.868  35.849  75.232  1.00  0.00     0.000 C 
BRANCH   2   3
ATOM      3  C   UNL     1      57.444  35.272  75.338  1.00  0.00     0.000 C 
BRANCH   3   4
ATOM      4  C   UNL     1      57.216  34.478  76.633  1.00  0.00    -0.000 C 
BRANCH   4   5
ATOM      5  C   UNL     1      58.282  33.384  76.806  1.00  0.00    -0.000 C 
BRANCH   5   6
ATOM      6  C   UNL     1      58.259  32.760  78.216  1.00  0.00    -0.000 C 
BRANCH   6   7
ATOM      7  C   UNL     1      57.716  33.705  79.304  1.00  0.00    -0.000 C 
BRANCH   7   8
ATOM      8  C   UNL     1      58.771  34.070  80.361  1.00  0.00    -0.000 C 
BRANCH   8   9
ATOM      9  C   UNL     1      58.956  35.589  80.509  1.00  0.00    -0.000 C 
BRANCH   9  10
ATOM     10  C   UNL     1      59.071  36.304  79.151  1.00  0.00    -0.000 C 
BRANCH  10  11
ATOM     11  C   UNL     1      58.216  37.578  79.084  1.00  0.00    -0.003 C 
ATOM     12  C   UNL     1      56.715  37.281  79.037  1.00  0.00     0.004 C 
ENDBRANCH  10  11
ENDBRANCH   9  10
ENDBRANCH   8   9
ENDBRANCH   7   8
ENDBRANCH   6   7
ENDBRANCH   5   6
ENDBRANCH   4   5
ENDBRANCH   3   4
ENDBRANCH   2   3
ENDBRANCH   1   2
BRANCH   1  13
ATOM     13  C   UNL     1      60.325  34.191  73.929  1.00  0.00     0.000 C 
BRANCH  13  14
ATOM     14  C   UNL     1      59.625  33.130  73.064  1.00  0.00     0.000 C 
BRANCH  14  15
ATOM     15  C   UNL     1      58.646  33.748  72.050  1.00  0.00     0.000 C 
BRANCH  15  16
ATOM     16  C   UNL     1      57.224  33.163  72.180  1.00  0.00     0.000 C 
BRANCH  16  17
ATOM     17  C   UNL     1      57.064  32.168  73.343  1.00  0.00     0.000 C 
BRANCH  17  18
ATOM     18  C   UNL     1      55.983  31.110  73.081  1.00  0.00     0.000 C 
BRANCH  18  19
ATOM     19  C   UNL     1      55.920  30.090  74.228  1.00  0.00     0.000 C 
BRANCH  19  20
ATOM     20  C   UNL     1      57.081  30.245  75.223  1.00  0.00     0.006 C 
BRANCH  20  21
ATOM     21  C   UNL     1      57.827  28.925  75.471  1.00  0.00     0.053 C 
BRANCH  21  22
ATOM     22  C   UNL     1      59.298  29.097  75.249  1.00  0.00     0.041 C 
ATOM     23  O   UNL     1      60.021  28.098  74.999  1.00  0.00    -0.550 OA
ATOM     24  O   UNL     1      59.868  30.364  75.309  1.00  0.00    -0.550 OA
ENDBRANCH  21  22
ENDBRANCH  20  21
ENDBRANCH  19  20
ENDBRANCH  18  19
ENDBRANCH  17  18
ENDBRANCH  16  17
ENDBRANCH  15  16
ENDBRANCH  14  15
ENDBRANCH  13  14
ENDBRANCH   1  13
TORSDOF 20
ENDMDL
MODEL 3
REMARK VINA RESULT:    -4.329      2.501      6.128
REMARK INTER + INTRA:         -12.168
REMARK INTER:                  -8.380
REMARK INTRA:                  -3.788
REMARK UNBOUND:                -2.779
REMARK SMILES CCCCCCCCCCCCCCCCCCCCCC(=O)[O-]
REMARK SMILES IDX 12 1 11 2 10 3 9 4 8 5 7 6 6 7 5 8 4 9 3 10 2 11 1 12 13 13
REMARK SMILES IDX 14 14 15 15 16 16 17 17 18 18 19 19 20 20 21 21 22 22 23 23
REMARK SMILES IDX 24 24
REMARK H PARENT
REMARK Flexibility Score: inf
ROOT
ATOM      1  C   UNL     1      56.490  36.141  76.920  1.00  0.00     0.000 C 
ENDROOT
BRANCH   1   2
ATOM      2  C   UNL     1      57.882  35.927  76.299  1.00  0.00     0.000 C 
BRANCH   2   3
ATOM      3  C   UNL     1      57.869  35.423  74.844  1.00  0.00     0.000 C 
BRANCH   3   4
ATOM      4  C   UNL     1      56.870  34.278  74.617  1.00  0.00    -0.000 C 
BRANCH   4   5
ATOM      5  C   UNL     1      55.975  34.558  73.399  1.00  0.00    -0.000 C 
BRANCH   5   6
ATOM      6  C   UNL     1      56.112  36.007  72.890  1.00  0.00    -0.000 C 
BRANCH   6   7
ATOM      7  C   UNL     1      54.879  36.884  73.175  1.00  0.00    -0.000 C 
BRANCH   7   8
ATOM      8  C   UNL     1      55.202  38.107  74.049  1.00  0.00    -0.000 C 
BRANCH   8   9
ATOM      9  C   UNL     1      56.560  38.739  73.699  1.00  0.00    -0.000 C 
BRANCH   9  10
ATOM     10  C   UNL     1      57.277  39.316  74.933  1.00  0.00    -0.000 C 
BRANCH  10  11
ATOM     11  C   UNL     1      58.804  39.176  74.843  1.00  0.00    -0.003 C 
ATOM     12  C   UNL     1      59.541  40.155  75.759  1.00  0.00     0.004 C 
ENDBRANCH  10  11
ENDBRANCH   9  10
ENDBRANCH   8   9
ENDBRANCH   7   8
ENDBRANCH   6   7
ENDBRANCH   5   6
ENDBRANCH   4   5
ENDBRANCH   3   4
ENDBRANCH   2   3
ENDBRANCH   1   2
BRANCH   1  13
ATOM     13  C   UNL     1      56.529  37.019  78.182  1.00  0.00     0.000 C 
BRANCH  13  14
ATOM     14  C   UNL     1      57.753  37.950  78.212  1.00  0.00     0.000 C 
BRANCH  14  15
ATOM     15  C   UNL     1      58.741  37.588  79.334  1.00  0.00     0.000 C 
BRANCH  15  16
ATOM     16  C   UNL     1      58.075  36.765  80.457  1.00  0.00     0.000 C 
BRANCH  16  17
ATOM     17  C   UNL     1      58.768  35.419  80.736  1.00  0.00     0.000 C 
BRANCH  17  18
ATOM     18  C   UNL     1      58.016  34.223  80.136  1.00  0.00     0.000 C 
BRANCH  18  19
ATOM     19  C   UNL     1      58.845  33.549  79.032  1.00  0.00     0.000 C 
BRANCH  19  20
ATOM     20  C   UNL     1      58.000  32.635  78.130  1.00  0.00     0.006 C 
BRANCH  20  21
ATOM     21  C   UNL     1      58.711  32.282  76.815  1.00  0.00     0.053 C 
BRANCH  21  22
ATOM     22  C   UNL     1      58.555  30.825  76.503  1.00  0.00     0.041 C 
ATOM     23  O   UNL     1      57.432  30.368  76.164  1.00  0.00    -0.550 OA
ATOM     24  O   UNL     1      59.652  29.975  76.579  1.00  0.00    -0.550 OA
ENDBRANCH  21  22
ENDBRANCH  20  21
ENDBRANCH  19  20
ENDBRANCH  18  19
ENDBRANCH  17  18
ENDBRANCH  16  17
ENDBRANCH  15  16
ENDBRANCH  14  15
ENDBRANCH  13  14
ENDBRANCH   1  13
TORSDOF 20
ENDMDL
MODEL 4
REMARK VINA RESULT:    -4.276      2.057      3.450
REMARK INTER + INTRA:         -12.055
REMARK INTER:                  -8.731
REMARK INTRA:                  -3.324
REMARK UNBOUND:                -2.779
REMARK SMILES CCCCCCCCCCCCCCCCCCCCCC(=O)[O-]
REMARK SMILES IDX 12 1 11 2 10 3 9 4 8 5 7 6 6 7 5 8 4 9 3 10 2 11 1 12 13 13
REMARK SMILES IDX 14 14 15 15 16 16 17 17 18 18 19 19 20 20 21 21 22 22 23 23
REMARK SMILES IDX 24 24
REMARK H PARENT
REMARK Flexibility Score: inf
ROOT
ATOM      1  C   UNL     1      58.355  34.096  77.519  1.00  0.00     0.000 C 
ENDROOT
BRANCH   1   2
ATOM      2  C   UNL     1      57.222  34.631  76.624  1.00  0.00     0.000 C 
BRANCH   2   3
ATOM      3  C   UNL     1      57.693  35.343  75.343  1.00  0.00     0.000 C 
BRANCH   3   4
ATOM      4  C   UNL     1      56.644  35.311  74.221  1.00  0.00    -0.000 C 
BRANCH   4   5
ATOM      5  C   UNL     1      57.096  34.401  73.067  1.00  0.00    -0.000 C 
BRANCH   5   6
ATOM      6  C   UNL     1      58.609  34.109  73.107  1.00  0.00    -0.000 C 
BRANCH   6   7
ATOM      7  C   UNL     1      58.949  32.611  73.212  1.00  0.00    -0.000 C 
BRANCH   7   8
ATOM      8  C   UNL     1      59.713  32.258  74.499  1.00  0.00    -0.000 C 
BRANCH   8   9
ATOM      9  C   UNL     1      58.983  31.203  75.346  1.00  0.00    -0.000 C 
BRANCH   9  10
ATOM     10  C   UNL     1      57.469  31.168  75.070  1.00  0.00    -0.000 C 
BRANCH  10  11
ATOM     11  C   UNL     1      56.904  29.740  75.077  1.00  0.00    -0.003 C 
ATOM     12  C   UNL     1      55.601  29.616  74.284  1.00  0.00     0.004 C 
ENDBRANCH  10  11
ENDBRANCH   9  10
ENDBRANCH   8   9
ENDBRANCH   7   8
ENDBRANCH   6   7
ENDBRANCH   5   6
ENDBRANCH   4   5
ENDBRANCH   3   4
ENDBRANCH   2   3
ENDBRANCH   1   2
BRANCH   1  13
ATOM     13  C   UNL     1      57.870  33.043  78.529  1.00  0.00     0.000 C 
BRANCH  13  14
ATOM     14  C   UNL     1      57.934  33.548  79.979  1.00  0.00     0.000 C 
BRANCH  14  15
ATOM     15  C   UNL     1      59.116  34.504  80.219  1.00  0.00     0.000 C 
BRANCH  15  16
ATOM     16  C   UNL     1      58.894  35.411  81.448  1.00  0.00     0.000 C 
BRANCH  16  17
ATOM     17  C   UNL     1      58.267  36.776  81.108  1.00  0.00     0.000 C 
BRANCH  17  18
ATOM     18  C   UNL     1      58.461  37.175  79.639  1.00  0.00     0.000 C 
BRANCH  18  19
ATOM     19  C   UNL     1      57.115  37.480  78.968  1.00  0.00     0.000 C 
BRANCH  19  20
ATOM     20  C   UNL     1      57.270  38.254  77.649  1.00  0.00     0.006 C 
BRANCH  20  21
ATOM     21  C   UNL     1      58.604  39.012  77.562  1.00  0.00     0.053 C 
BRANCH  21  22
ATOM     22  C   UNL     1      59.421  38.515  76.410  1.00  0.00     0.041 C 
ATOM     23  O   UNL     1      60.275  37.607  76.587  1.00  0.00    -0.550 OA
ATOM     24  O   UNL     1      59.233  39.048  75.140  1.00  0.00    -0.550 OA
ENDBRANCH  21  22
ENDBRANCH  20  21
ENDBRANCH  19  20
ENDBRANCH  18  19
ENDBRANCH  17  18
ENDBRANCH  16  17
ENDBRANCH  15  16
ENDBRANCH  14  15
ENDBRANCH  13  14
ENDBRANCH   1  13
TORSDOF 20
ENDMDL
MODEL 5
REMARK VINA RESULT:    -4.270      1.322      6.761
REMARK INTER + INTRA:         -12.041
REMARK INTER:                  -9.449
REMARK INTRA:                  -2.592
REMARK UNBOUND:                -2.779
REMARK SMILES CCCCCCCCCCCCCCCCCCCCCC(=O)[O-]
REMARK SMILES IDX 12 1 11 2 10 3 9 4 8 5 7 6 6 7 5 8 4 9 3 10 2 11 1 12 13 13
REMARK SMILES IDX 14 14 15 15 16 16 17 17 18 18 19 19 20 20 21 21 22 22 23 23
REMARK SMILES IDX 24 24
REMARK H PARENT
REMARK Flexibility Score: inf
ROOT
ATOM      1  C   UNL     1      58.923  33.534  79.230  1.00  0.00     0.000 C 
ENDROOT
BRANCH   1   2
ATOM      2  C   UNL     1      58.359  34.022  80.577  1.00  0.00     0.000 C 
BRANCH   2   3
ATOM      3  C   UNL     1      58.648  35.500  80.900  1.00  0.00     0.000 C 
BRANCH   3   4
ATOM      4  C   UNL     1      59.298  36.251  79.728  1.00  0.00    -0.000 C 
BRANCH   4   5
ATOM      5  C   UNL     1      58.477  37.494  79.346  1.00  0.00    -0.000 C 
BRANCH   5   6
ATOM      6  C   UNL     1      56.966  37.295  79.579  1.00  0.00    -0.000 C 
BRANCH   6   7
ATOM      7  C   UNL     1      56.136  37.269  78.283  1.00  0.00    -0.000 C 
BRANCH   7   8
ATOM      8  C   UNL     1      56.525  36.114  77.345  1.00  0.00    -0.000 C 
BRANCH   8   9
ATOM      9  C   UNL     1      56.124  36.380  75.885  1.00  0.00    -0.000 C 
BRANCH   9  10
ATOM     10  C   UNL     1      57.249  37.051  75.077  1.00  0.00    -0.000 C 
BRANCH  10  11
ATOM     11  C   UNL     1      57.109  38.581  75.035  1.00  0.00    -0.003 C 
ATOM     12  C   UNL     1      58.168  39.294  75.877  1.00  0.00     0.004 C 
ENDBRANCH  10  11
ENDBRANCH   9  10
ENDBRANCH   8   9
ENDBRANCH   7   8
ENDBRANCH   6   7
ENDBRANCH   5   6
ENDBRANCH   4   5
ENDBRANCH   3   4
ENDBRANCH   2   3
ENDBRANCH   1   2
BRANCH   1  13
ATOM     13  C   UNL     1      57.830  33.022  78.277  1.00  0.00     0.000 C 
BRANCH  13  14
ATOM     14  C   UNL     1      58.410  32.458  76.969  1.00  0.00     0.000 C 
BRANCH  14  15
ATOM     15  C   UNL     1      58.385  30.920  76.928  1.00  0.00     0.000 C 
BRANCH  15  16
ATOM     16  C   UNL     1      59.265  30.351  75.794  1.00  0.00     0.000 C 
BRANCH  16  17
ATOM     17  C   UNL     1      58.710  29.061  75.165  1.00  0.00     0.000 C 
BRANCH  17  18
ATOM     18  C   UNL     1      57.247  28.791  75.544  1.00  0.00     0.000 C 
BRANCH  18  19
ATOM     19  C   UNL     1      56.311  29.062  74.357  1.00  0.00     0.000 C 
BRANCH  19  20
ATOM     20  C   UNL     1      55.801  30.511  74.322  1.00  0.00     0.006 C 
BRANCH  20  21
ATOM     21  C   UNL     1      56.132  31.222  73.001  1.00  0.00     0.053 C 
BRANCH  21  22
ATOM     22  C   UNL     1      56.875  32.497  73.257  1.00  0.00     0.041 C 
ATOM     23  O   UNL     1      56.243  33.570  73.445  1.00  0.00    -0.550 OA
ATOM     24  O   UNL     1      58.264  32.498  73.298  1.00  0.00    -0.550 OA
ENDBRANCH  21  22
ENDBRANCH  20  21
ENDBRANCH  19  20
ENDBRANCH  18  19
ENDBRANCH  17  18
ENDBRANCH  16  17
ENDBRANCH  15  16
ENDBRANCH  14  15
ENDBRANCH  13  14
ENDBRANCH   1  13
TORSDOF 20
ENDMDL
MODEL 6
REMARK VINA RESULT:    -4.257      2.425      6.925
REMARK INTER + INTRA:         -12.014
REMARK INTER:                  -8.731
REMARK INTRA:                  -3.283
REMARK UNBOUND:                -2.779
REMARK SMILES CCCCCCCCCCCCCCCCCCCCCC(=O)[O-]
REMARK SMILES IDX 12 1 11 2 10 3 9 4 8 5 7 6 6 7 5 8 4 9 3 10 2 11 1 12 13 13
REMARK SMILES IDX 14 14 15 15 16 16 17 17 18 18 19 19 20 20 21 21 22 22 23 23
REMARK SMILES IDX 24 24
REMARK H PARENT
REMARK Flexibility Score: inf
ROOT
ATOM      1  C   UNL     1      57.774  33.498  79.431  1.00  0.00     0.000 C 
ENDROOT
BRANCH   1   2
ATOM      2  C   UNL     1      59.078  33.922  80.131  1.00  0.00     0.000 C 
BRANCH   2   3
ATOM      3  C   UNL     1      58.963  35.191  80.995  1.00  0.00     0.000 C 
BRANCH   3   4
ATOM      4  C   UNL     1      58.707  36.458  80.165  1.00  0.00    -0.000 C 
BRANCH   4   5
ATOM      5  C   UNL     1      57.508  37.247  80.715  1.00  0.00    -0.000 C 
BRANCH   5   6
ATOM      6  C   UNL     1      56.497  37.623  79.613  1.00  0.00    -0.000 C 
BRANCH   6   7
ATOM      7  C   UNL     1      56.738  36.897  78.277  1.00  0.00    -0.000 C 
BRANCH   7   8
ATOM      8  C   UNL     1      57.132  37.853  77.139  1.00  0.00    -0.000 C 
BRANCH   8   9
ATOM      9  C   UNL     1      58.593  38.322  77.242  1.00  0.00    -0.000 C 
BRANCH   9  10
ATOM     10  C   UNL     1      59.527  37.556  76.288  1.00  0.00    -0.000 C 
BRANCH  10  11
ATOM     11  C   UNL     1      59.864  38.361  75.024  1.00  0.00    -0.003 C 
ATOM     12  C   UNL     1      58.840  38.160  73.905  1.00  0.00     0.004 C 
ENDBRANCH  10  11
ENDBRANCH   9  10
ENDBRANCH   8   9
ENDBRANCH   7   8
ENDBRANCH   6   7
ENDBRANCH   5   6
ENDBRANCH   4   5
ENDBRANCH   3   4
ENDBRANCH   2   3
ENDBRANCH   1   2
BRANCH   1  13
ATOM     13  C   UNL     1      58.006  32.978  78.003  1.00  0.00     0.000 C 
BRANCH  13  14
ATOM     14  C   UNL     1      58.319  34.110  77.010  1.00  0.00     0.000 C 
BRANCH  14  15
ATOM     15  C   UNL     1      57.251  34.239  75.909  1.00  0.00     0.000 C 
BRANCH  15  16
ATOM     16  C   UNL     1      57.858  34.656  74.552  1.00  0.00     0.000 C 
BRANCH  16  17
ATOM     17  C   UNL     1      59.260  34.075  74.294  1.00  0.00     0.000 C 
BRANCH  17  18
ATOM     18  C   UNL     1      59.223  32.714  73.585  1.00  0.00     0.000 C 
BRANCH  18  19
ATOM     19  C   UNL     1      59.816  31.613  74.476  1.00  0.00     0.000 C 
BRANCH  19  20
ATOM     20  C   UNL     1      58.739  30.814  75.228  1.00  0.00     0.006 C 
BRANCH  20  21
ATOM     21  C   UNL     1      57.372  30.860  74.529  1.00  0.00     0.053 C 
BRANCH  21  22
ATOM     22  C   UNL     1      56.569  29.639  74.854  1.00  0.00     0.041 C 
ATOM     23  O   UNL     1      55.375  29.546  74.468  1.00  0.00    -0.550 OA
ATOM     24  O   UNL     1      57.143  28.599  75.576  1.00  0.00    -0.550 OA
ENDBRANCH  21  22
ENDBRANCH  20  21
ENDBRANCH  19  20
ENDBRANCH  18  19
ENDBRANCH  17  18
ENDBRANCH  16  17
ENDBRANCH  15  16
ENDBRANCH  14  15
ENDBRANCH  13  14
ENDBRANCH   1  13
TORSDOF 20
ENDMDL
MODEL 7
REMARK VINA RESULT:    -4.251      2.704      7.758
REMARK INTER + INTRA:         -11.999
REMARK INTER:                  -8.847
REMARK INTRA:                  -3.152
REMARK UNBOUND:                -2.779
REMARK SMILES CCCCCCCCCCCCCCCCCCCCCC(=O)[O-]
REMARK SMILES IDX 12 1 11 2 10 3 9 4 8 5 7 6 6 7 5 8 4 9 3 10 2 11 1 12 13 13
REMARK SMILES IDX 14 14 15 15 16 16 17 17 18 18 19 19 20 20 21 21 22 22 23 23
REMARK SMILES IDX 24 24
REMARK H PARENT
REMARK Flexibility Score: inf
ROOT
ATOM      1  C   UNL     1      58.331  33.700  75.040  1.00  0.00     0.000 C 
ENDROOT
BRANCH   1   2
ATOM      2  C   UNL     1      58.495  35.111  75.632  1.00  0.00     0.000 C 
BRANCH   2   3
ATOM      3  C   UNL     1      57.668  36.205  74.931  1.00  0.00     0.000 C 
BRANCH   3   4
ATOM      4  C   UNL     1      56.543  36.763  75.815  1.00  0.00    -0.000 C 
BRANCH   4   5
ATOM      5  C   UNL     1      56.513  36.059  77.182  1.00  0.00    -0.000 C 
BRANCH   5   6
ATOM      6  C   UNL     1      56.730  37.039  78.352  1.00  0.00    -0.000 C 
BRANCH   6   7
ATOM      7  C   UNL     1      58.135  37.667  78.383  1.00  0.00    -0.000 C 
BRANCH   7   8
ATOM      8  C   UNL     1      59.179  36.768  79.065  1.00  0.00    -0.000 C 
BRANCH   8   9
ATOM      9  C   UNL     1      58.623  36.060  80.312  1.00  0.00    -0.000 C 
BRANCH   9  10
ATOM     10  C   UNL     1      59.006  34.571  80.365  1.00  0.00    -0.000 C 
BRANCH  10  11
ATOM     11  C   UNL     1      57.812  33.646  80.084  1.00  0.00    -0.003 C 
ATOM     12  C   UNL     1      57.859  33.029  78.684  1.00  0.00     0.004 C 
ENDBRANCH  10  11
ENDBRANCH   9  10
ENDBRANCH   8   9
ENDBRANCH   7   8
ENDBRANCH   6   7
ENDBRANCH   5   6
ENDBRANCH   4   5
ENDBRANCH   3   4
ENDBRANCH   2   3
ENDBRANCH   1   2
BRANCH   1  13
ATOM     13  C   UNL     1      58.897  33.582  73.615  1.00  0.00     0.000 C 
BRANCH  13  14
ATOM     14  C   UNL     1      57.827  33.166  72.592  1.00  0.00     0.000 C 
BRANCH  14  15
ATOM     15  C   UNL     1      56.499  32.765  73.258  1.00  0.00     0.000 C 
BRANCH  15  16
ATOM     16  C   UNL     1      56.113  31.301  72.959  1.00  0.00     0.000 C 
BRANCH  16  17
ATOM     17  C   UNL     1      56.087  30.398  74.205  1.00  0.00     0.000 C 
BRANCH  17  18
ATOM     18  C   UNL     1      57.486  29.939  74.642  1.00  0.00     0.000 C 
BRANCH  18  19
ATOM     19  C   UNL     1      57.702  30.182  76.142  1.00  0.00     0.000 C 
BRANCH  19  20
ATOM     20  C   UNL     1      59.157  30.543  76.481  1.00  0.00     0.006 C 
BRANCH  20  21
ATOM     21  C   UNL     1      60.167  29.895  75.522  1.00  0.00     0.053 C 
BRANCH  21  22
ATOM     22  C   UNL     1      61.493  29.713  76.193  1.00  0.00     0.041 C 
ATOM     23  O   UNL     1      62.133  30.713  76.611  1.00  0.00    -0.550 OA
ATOM     24  O   UNL     1      62.019  28.437  76.363  1.00  0.00    -0.550 OA
ENDBRANCH  21  22
ENDBRANCH  20  21
ENDBRANCH  19  20
ENDBRANCH  18  19
ENDBRANCH  17  18
ENDBRANCH  16  17
ENDBRANCH  15  16
ENDBRANCH  14  15
ENDBRANCH  13  14
ENDBRANCH   1  13
TORSDOF 20
ENDMDL
MODEL 8
REMARK VINA RESULT:    -4.235      2.101      2.895
REMARK INTER + INTRA:         -11.966
REMARK INTER:                  -8.639
REMARK INTRA:                  -3.327
REMARK UNBOUND:                -2.779
REMARK SMILES CCCCCCCCCCCCCCCCCCCCCC(=O)[O-]
REMARK SMILES IDX 12 1 11 2 10 3 9 4 8 5 7 6 6 7 5 8 4 9 3 10 2 11 1 12 13 13
REMARK SMILES IDX 14 14 15 15 16 16 17 17 18 18 19 19 20 20 21 21 22 22 23 23
REMARK SMILES IDX 24 24
REMARK H PARENT
REMARK Flexibility Score: inf
ROOT
ATOM      1  C   UNL     1      58.783  33.387  78.782  1.00  0.00     0.000 C 
ENDROOT
BRANCH   1   2
ATOM      2  C   UNL     1      57.833  33.074  77.612  1.00  0.00     0.000 C 
BRANCH   2   3
ATOM      3  C   UNL     1      58.041  31.693  76.963  1.00  0.00     0.000 C 
BRANCH   3   4
ATOM      4  C   UNL     1      59.517  31.273  76.913  1.00  0.00    -0.000 C 
BRANCH   4   5
ATOM      5  C   UNL     1      59.848  30.569  75.587  1.00  0.00    -0.000 C 
BRANCH   5   6
ATOM      6  C   UNL     1      60.766  31.417  74.685  1.00  0.00    -0.000 C 
BRANCH   6   7
ATOM      7  C   UNL     1      60.007  32.255  73.640  1.00  0.00    -0.000 C 
BRANCH   7   8
ATOM      8  C   UNL     1      59.821  33.720  74.066  1.00  0.00    -0.000 C 
BRANCH   8   9
ATOM      9  C   UNL     1      58.486  34.310  73.583  1.00  0.00    -0.000 C 
BRANCH   9  10
ATOM     10  C   UNL     1      57.277  33.459  74.007  1.00  0.00    -0.000 C 
BRANCH  10  11
ATOM     11  C   UNL     1      56.644  32.706  72.827  1.00  0.00    -0.003 C 
ATOM     12  C   UNL     1      56.155  31.309  73.211  1.00  0.00     0.004 C 
ENDBRANCH  10  11
ENDBRANCH   9  10
ENDBRANCH   8   9
ENDBRANCH   7   8
ENDBRANCH   6   7
ENDBRANCH   5   6
ENDBRANCH   4   5
ENDBRANCH   3   4
ENDBRANCH   2   3
ENDBRANCH   1   2
BRANCH   1  13
ATOM     13  C   UNL     1      58.037  33.655  80.100  1.00  0.00     0.000 C 
BRANCH  13  14
ATOM     14  C   UNL     1      58.706  34.756  80.939  1.00  0.00     0.000 C 
BRANCH  14  15
ATOM     15  C   UNL     1      59.101  35.981  80.095  1.00  0.00     0.000 C 
BRANCH  15  16
ATOM     16  C   UNL     1      58.279  37.234  80.463  1.00  0.00     0.000 C 
BRANCH  16  17
ATOM     17  C   UNL     1      56.806  37.164  80.021  1.00  0.00     0.000 C 
BRANCH  17  18
ATOM     18  C   UNL     1      56.587  37.664  78.586  1.00  0.00     0.000 C 
BRANCH  18  19
ATOM     19  C   UNL     1      56.477  36.489  77.603  1.00  0.00     0.000 C 
BRANCH  19  20
ATOM     20  C   UNL     1      57.468  36.600  76.433  1.00  0.00     0.006 C 
BRANCH  20  21
ATOM     21  C   UNL     1      58.296  37.892  76.479  1.00  0.00     0.053 C 
BRANCH  21  22
ATOM     22  C   UNL     1      59.759  37.582  76.547  1.00  0.00     0.041 C 
ATOM     23  O   UNL     1      60.433  37.926  77.553  1.00  0.00    -0.550 OA
ATOM     24  O   UNL     1      60.377  36.904  75.502  1.00  0.00    -0.550 OA
ENDBRANCH  21  22
ENDBRANCH  20  21
ENDBRANCH  19  20
ENDBRANCH  18  19
ENDBRANCH  17  18
ENDBRANCH  16  17
ENDBRANCH  15  16
ENDBRANCH  14  15
ENDBRANCH  13  14
ENDBRANCH   1  13
TORSDOF 20
ENDMDL
MODEL 9
REMARK VINA RESULT:    -4.190      2.565      6.491
REMARK INTER + INTRA:         -11.867
REMARK INTER:                  -7.974
REMARK INTRA:                  -3.893
REMARK UNBOUND:                -2.779
REMARK SMILES CCCCCCCCCCCCCCCCCCCCCC(=O)[O-]
REMARK SMILES IDX 12 1 11 2 10 3 9 4 8 5 7 6 6 7 5 8 4 9 3 10 2 11 1 12 13 13
REMARK SMILES IDX 14 14 15 15 16 16 17 17 18 18 19 19 20 20 21 21 22 22 23 23
REMARK SMILES IDX 24 24
REMARK H PARENT
REMARK Flexibility Score: inf
ROOT
ATOM      1  C   UNL     1      60.353  37.992  76.402  1.00  0.00     0.000 C 
ENDROOT
BRANCH   1   2
ATOM      2  C   UNL     1      59.942  37.554  77.819  1.00  0.00     0.000 C 
BRANCH   2   3
ATOM      3  C   UNL     1      59.123  38.596  78.603  1.00  0.00     0.000 C 
BRANCH   3   4
ATOM      4  C   UNL     1      57.620  38.531  78.294  1.00  0.00    -0.000 C 
BRANCH   4   5
ATOM      5  C   UNL     1      57.073  37.109  78.505  1.00  0.00    -0.000 C 
BRANCH   5   6
ATOM      6  C   UNL     1      56.117  36.675  77.376  1.00  0.00    -0.000 C 
BRANCH   6   7
ATOM      7  C   UNL     1      56.577  35.411  76.626  1.00  0.00    -0.000 C 
BRANCH   7   8
ATOM      8  C   UNL     1      57.916  34.861  77.144  1.00  0.00    -0.000 C 
BRANCH   8   9
ATOM      9  C   UNL     1      57.745  33.573  77.966  1.00  0.00    -0.000 C 
BRANCH   9  10
ATOM     10  C   UNL     1      58.721  33.497  79.153  1.00  0.00    -0.000 C 
BRANCH  10  11
ATOM     11  C   UNL     1      58.131  34.099  80.438  1.00  0.00    -0.003 C 
ATOM     12  C   UNL     1      59.011  35.201  81.032  1.00  0.00     0.004 C 
ENDBRANCH  10  11
ENDBRANCH   9  10
ENDBRANCH   8   9
ENDBRANCH   7   8
ENDBRANCH   6   7
ENDBRANCH   5   6
ENDBRANCH   4   5
ENDBRANCH   3   4
ENDBRANCH   2   3
ENDBRANCH   1   2
BRANCH   1  13
ATOM     13  C   UNL     1      59.455  37.389  75.308  1.00  0.00     0.000 C 
BRANCH  13  14
ATOM     14  C   UNL     1      58.878  38.460  74.367  1.00  0.00     0.000 C 
BRANCH  14  15
ATOM     15  C   UNL     1      57.440  38.859  74.739  1.00  0.00     0.000 C 
BRANCH  15  16
ATOM     16  C   UNL     1      56.440  38.575  73.597  1.00  0.00     0.000 C 
BRANCH  16  17
ATOM     17  C   UNL     1      55.268  37.666  74.008  1.00  0.00     0.000 C 
BRANCH  17  18
ATOM     18  C   UNL     1      54.993  36.548  72.992  1.00  0.00     0.000 C 
BRANCH  18  19
ATOM     19  C   UNL     1      56.297  35.861  72.562  1.00  0.00     0.000 C 
BRANCH  19  20
ATOM     20  C   UNL     1      56.391  34.407  73.051  1.00  0.00     0.006 C 
BRANCH  20  21
ATOM     21  C   UNL     1      57.810  34.025  73.501  1.00  0.00     0.053 C 
BRANCH  21  22
ATOM     22  C   UNL     1      57.839  32.624  74.027  1.00  0.00     0.041 C 
ATOM     23  O   UNL     1      58.776  32.251  74.781  1.00  0.00    -0.550 OA
ATOM     24  O   UNL     1      56.827  31.732  73.693  1.00  0.00    -0.550 OA
ENDBRANCH  21  22
ENDBRANCH  20  21
ENDBRANCH  19  20
ENDBRANCH  18  19
ENDBRANCH  17  18
ENDBRANCH  16  17
ENDBRANCH  15  16
ENDBRANCH  14  15
ENDBRANCH  13  14
ENDBRANCH   1  13
TORSDOF 20
ENDMDL
