MODEL 1
REMARK VINA RESULT:     5.020      0.000      0.000
REMARK INTER + INTRA:           5.020
REMARK INTER:                   5.020
REMARK INTRA:                   0.000
REMARK UNBOUND:                 0.000
REMARK SMILES CC1(C)O[C@]2(C)CC[C@H]1CC2
REMARK SMILES IDX 1 1 2 2 9 3 8 4 7 5 5 6 4 7 11 8 10 9 6 10 3 11
REMARK H PARENT
REMARK Flexibility Score: inf
ROOT
ATOM      1  C   UNL     1       0.838 -11.955 -14.756  1.00  0.00     0.042 C 
ATOM      2  C   UNL     1      -0.646 -12.378 -14.825  1.00  0.00     0.066 C 
ATOM      3  C   UNL     1      -0.820 -13.653 -15.738  1.00  0.00     0.021 C 
ATOM      4  C   UNL     1      -2.313 -14.061 -15.729  1.00  0.00     0.009 C 
ATOM      5  C   UNL     1      -2.799 -14.178 -14.264  1.00  0.00     0.035 C 
ATOM      6  C   UNL     1      -1.608 -13.938 -13.293  1.00  0.00     0.066 C 
ATOM      7  O   UNL     1      -1.104 -12.615 -13.485  1.00  0.00    -0.369 OA
ATOM      8  C   UNL     1      -0.483 -14.965 -13.610  1.00  0.00     0.035 C 
ATOM      9  C   UNL     1      -0.051 -14.829 -15.090  1.00  0.00     0.009 C 
ATOM     10  C   UNL     1      -2.068 -14.085 -11.838  1.00  0.00     0.042 C 
ATOM     11  C   UNL     1      -1.438 -11.183 -15.398  1.00  0.00     0.042 C 
ENDROOT
TORSDOF 0
ENDMDL
MODEL 2
REMARK VINA RESULT:     7.751      0.952      3.307
REMARK INTER + INTRA:           7.751
REMARK INTER:                   7.751
REMARK INTRA:                   0.000
REMARK UNBOUND:                 0.000
REMARK SMILES CC1(C)O[C@]2(C)CC[C@H]1CC2
REMARK SMILES IDX 1 1 2 2 9 3 8 4 7 5 5 6 4 7 11 8 10 9 6 10 3 11
REMARK H PARENT
REMARK Flexibility Score: inf
ROOT
ATOM      1  C   UNL     1      -3.419 -14.314 -13.340  1.00  0.00     0.042 C 
ATOM      2  C   UNL     1      -1.906 -14.073 -13.534  1.00  0.00     0.066 C 
ATOM      3  C   UNL     1      -1.379 -14.833 -14.812  1.00  0.00     0.021 C 
ATOM      4  C   UNL     1       0.126 -14.515 -14.985  1.00  0.00     0.009 C 
ATOM      5  C   UNL     1       0.328 -12.980 -14.951  1.00  0.00     0.035 C 
ATOM      6  C   UNL     1      -1.051 -12.270 -14.847  1.00  0.00     0.066 C 
ATOM      7  O   UNL     1      -1.689 -12.657 -13.629  1.00  0.00    -0.369 OA
ATOM      8  C   UNL     1      -1.937 -12.707 -16.050  1.00  0.00     0.035 C 
ATOM      9  C   UNL     1      -2.087 -14.247 -16.057  1.00  0.00     0.009 C 
ATOM     10  C   UNL     1      -0.868 -10.748 -14.847  1.00  0.00     0.042 C 
ATOM     11  C   UNL     1      -1.193 -14.583 -12.262  1.00  0.00     0.042 C 
ENDROOT
TORSDOF 0
ENDMDL
