MODEL 1
REMARK VINA RESULT:     1.328      0.000      0.000
REMARK INTER + INTRA:           3.175
REMARK INTER:                   1.949
REMARK INTRA:                   1.227
REMARK UNBOUND:                 1.227
REMARK SMILES O=c1c(O[C@H]2O[C@H](CO)[C@@H](O)[C@@H](O)[C@@H]2O)c(-c2ccc(O)c(O)c2)oc2cc(O)cc(O)c12
REMARK SMILES IDX 4 1 3 2 16 3 25 4 2 5 26 6 1 7 33 8 27 9 31 10 28 11 30 12
REMARK SMILES IDX 17 13 18 14 19 15 20 16 24 17 22 18 21 19 23 21 32 23 29 25
REMARK SMILES IDX 5 27 14 28 6 29 12 30 7 31 10 32 15 33 13 35 8 37 9 38 11 40
REMARK H PARENT 21 20 23 22 32 24 29 26 15 34 13 36 9 39 11 41
REMARK Flexibility Score: inf
ROOT
ATOM      1  O   UNL     1     -15.689  28.546  14.913  1.00  0.00    -0.454 OA
ENDROOT
BRANCH   1   2
ATOM      2  C   UNL     1     -16.940  29.119  15.170  1.00  0.00     0.214 A 
ATOM      3  C   UNL     1     -17.125  30.518  15.193  1.00  0.00     0.180 A 
ATOM      4  O   UNL     1     -18.345  31.018  15.362  1.00  0.00    -0.452 OA
ATOM      5  C   UNL     1     -18.040  28.286  15.401  1.00  0.00     0.239 A 
ATOM      6  C   UNL     1     -19.422  30.263  15.554  1.00  0.00     0.146 A 
ATOM      7  O   UNL     1     -17.872  27.036  15.415  1.00  0.00    -0.285 OA
ATOM      8  C   UNL     1     -19.315  28.853  15.596  1.00  0.00     0.111 A 
ATOM      9  C   UNL     1     -20.665  30.881  15.724  1.00  0.00     0.094 A 
ATOM     10  C   UNL     1     -20.480  28.079  15.816  1.00  0.00     0.134 A 
ATOM     11  C   UNL     1     -21.812  30.112  15.940  1.00  0.00     0.123 A 
ATOM     12  C   UNL     1     -21.717  28.719  15.987  1.00  0.00     0.093 A 
BRANCH   3  13
ATOM     13  C   UNL     1     -15.997  31.464  15.045  1.00  0.00     0.025 A 
ATOM     14  C   UNL     1     -15.557  32.246  16.125  1.00  0.00     0.016 A 
ATOM     15  C   UNL     1     -14.494  33.135  15.964  1.00  0.00     0.051 A 
ATOM     16  C   UNL     1     -13.861  33.275  14.724  1.00  0.00     0.157 A 
ATOM     17  C   UNL     1     -15.381  31.619  13.794  1.00  0.00     0.062 A 
ATOM     18  C   UNL     1     -14.314  32.511  13.622  1.00  0.00     0.158 A 
BRANCH  16  19
ATOM     19  O   UNL     1     -12.801  34.179  14.631  1.00  0.00    -0.504 OA
ATOM     20  H   UNL     1     -12.122  34.331  15.363  1.00  0.00     0.293 HD
ENDBRANCH  16  19
BRANCH  18  21
ATOM     21  O   UNL     1     -13.740  32.603  12.353  1.00  0.00    -0.504 OA
ATOM     22  H   UNL     1     -13.192  33.390  12.038  1.00  0.00     0.293 HD
ENDBRANCH  18  21
ENDBRANCH   3  13
BRANCH  10  23
ATOM     23  O   UNL     1     -20.419  26.686  15.866  1.00  0.00    -0.507 OA
ATOM     24  H   UNL     1     -19.536  26.189  15.837  1.00  0.00     0.293 HD
ENDBRANCH  10  23
BRANCH  11  25
ATOM     25  O   UNL     1     -23.053  30.721  16.111  1.00  0.00    -0.508 OA
ATOM     26  H   UNL     1     -23.327  31.528  15.563  1.00  0.00     0.293 HD
ENDBRANCH  11  25
ENDBRANCH   1   2
BRANCH   1  27
ATOM     27  C   UNL     1     -14.544  28.780  15.742  1.00  0.00     0.339 C 
ATOM     28  C   UNL     1     -13.568  29.775  15.073  1.00  0.00     0.214 C 
ATOM     29  O   UNL     1     -13.904  27.560  16.075  1.00  0.00    -0.332 OA
ATOM     30  C   UNL     1     -12.786  29.134  13.902  1.00  0.00     0.180 C 
ATOM     31  C   UNL     1     -13.428  26.886  14.922  1.00  0.00     0.179 C 
ATOM     32  C   UNL     1     -12.305  27.703  14.242  1.00  0.00     0.177 C 
BRANCH  28  33
ATOM     33  O   UNL     1     -12.680  30.306  16.027  1.00  0.00    -0.384 OA
ATOM     34  H   UNL     1     -12.367  29.559  16.602  1.00  0.00     0.211 HD
ENDBRANCH  28  33
BRANCH  30  35
ATOM     35  O   UNL     1     -13.540  29.166  12.713  1.00  0.00    -0.387 OA
ATOM     36  H   UNL     1     -14.036  30.021  12.680  1.00  0.00     0.211 HD
ENDBRANCH  30  35
BRANCH  31  37
ATOM     37  C   UNL     1     -12.910  25.510  15.355  1.00  0.00     0.191 C 
BRANCH  37  38
ATOM     38  O   UNL     1     -12.065  24.993  14.364  1.00  0.00    -0.394 OA
ATOM     39  H   UNL     1     -12.560  25.076  13.508  1.00  0.00     0.210 HD
ENDBRANCH  37  38
ENDBRANCH  31  37
BRANCH  32  40
ATOM     40  O   UNL     1     -11.877  27.049  13.075  1.00  0.00    -0.387 OA
ATOM     41  H   UNL     1     -11.642  27.758  12.420  1.00  0.00     0.211 HD
ENDBRANCH  32  40
ENDBRANCH   1  27
TORSDOF 12
ENDMDL
MODEL 2
REMARK VINA RESULT:     2.234      3.295      6.117
REMARK INTER + INTRA:           4.506
REMARK INTER:                   5.404
REMARK INTRA:                  -0.899
REMARK UNBOUND:                 1.227
REMARK SMILES O=c1c(O[C@H]2O[C@H](CO)[C@@H](O)[C@@H](O)[C@@H]2O)c(-c2ccc(O)c(O)c2)oc2cc(O)cc(O)c12
REMARK SMILES IDX 4 1 3 2 16 3 25 4 2 5 26 6 1 7 33 8 27 9 31 10 28 11 30 12
REMARK SMILES IDX 17 13 18 14 19 15 20 16 24 17 22 18 21 19 23 21 32 23 29 25
REMARK SMILES IDX 5 27 14 28 6 29 12 30 7 31 10 32 15 33 13 35 8 37 9 38 11 40
REMARK H PARENT 21 20 23 22 32 24 29 26 15 34 13 36 9 39 11 41
REMARK Flexibility Score: inf
ROOT
ATOM      1  O   UNL     1     -14.201  31.586  13.300  1.00  0.00    -0.454 OA
ENDROOT
BRANCH   1   2
ATOM      2  C   UNL     1     -14.638  30.277  13.066  1.00  0.00     0.214 A 
ATOM      3  C   UNL     1     -14.430  29.635  11.826  1.00  0.00     0.180 A 
ATOM      4  O   UNL     1     -14.791  28.365  11.674  1.00  0.00    -0.452 OA
ATOM      5  C   UNL     1     -15.289  29.580  14.089  1.00  0.00     0.239 A 
ATOM      6  C   UNL     1     -15.385  27.656  12.628  1.00  0.00     0.146 A 
ATOM      7  O   UNL     1     -15.507  30.160  15.187  1.00  0.00    -0.285 OA
ATOM      8  C   UNL     1     -15.675  28.240  13.884  1.00  0.00     0.111 A 
ATOM      9  C   UNL     1     -15.728  26.325  12.374  1.00  0.00     0.094 A 
ATOM     10  C   UNL     1     -16.320  27.460  14.874  1.00  0.00     0.134 A 
ATOM     11  C   UNL     1     -16.365  25.560  13.355  1.00  0.00     0.123 A 
ATOM     12  C   UNL     1     -16.660  26.127  14.597  1.00  0.00     0.093 A 
BRANCH   3  13
ATOM     13  C   UNL     1     -13.829  30.334  10.669  1.00  0.00     0.025 A 
ATOM     14  C   UNL     1     -12.437  30.389  10.496  1.00  0.00     0.016 A 
ATOM     15  C   UNL     1     -11.888  31.056   9.400  1.00  0.00     0.051 A 
ATOM     16  C   UNL     1     -12.713  31.693   8.466  1.00  0.00     0.157 A 
ATOM     17  C   UNL     1     -14.657  30.992   9.748  1.00  0.00     0.062 A 
ATOM     18  C   UNL     1     -14.116  31.666   8.645  1.00  0.00     0.158 A 
BRANCH  16  19
ATOM     19  O   UNL     1     -12.102  32.338   7.389  1.00  0.00    -0.504 OA
ATOM     20  H   UNL     1     -12.528  33.088   6.864  1.00  0.00     0.293 HD
ENDBRANCH  16  19
BRANCH  18  21
ATOM     21  O   UNL     1     -15.002  32.287   7.762  1.00  0.00    -0.504 OA
ATOM     22  H   UNL     1     -15.314  33.243   7.856  1.00  0.00     0.293 HD
ENDBRANCH  18  21
ENDBRANCH   3  13
BRANCH  10  23
ATOM     23  O   UNL     1     -16.627  27.998  16.125  1.00  0.00    -0.507 OA
ATOM     24  H   UNL     1     -16.660  27.423  16.959  1.00  0.00     0.293 HD
ENDBRANCH  10  23
BRANCH  11  25
ATOM     25  O   UNL     1     -16.711  24.233  13.107  1.00  0.00    -0.508 OA
ATOM     26  H   UNL     1     -16.007  23.512  13.003  1.00  0.00     0.293 HD
ENDBRANCH  11  25
ENDBRANCH   1   2
BRANCH   1  27
ATOM     27  C   UNL     1     -12.975  31.885  13.976  1.00  0.00     0.339 C 
ATOM     28  C   UNL     1     -13.135  31.742  15.508  1.00  0.00     0.214 C 
ATOM     29  O   UNL     1     -12.499  33.170  13.616  1.00  0.00    -0.332 OA
ATOM     30  C   UNL     1     -13.943  32.907  16.125  1.00  0.00     0.180 C 
ATOM     31  C   UNL     1     -13.413  34.189  13.984  1.00  0.00     0.179 C 
ATOM     32  C   UNL     1     -13.539  34.275  15.523  1.00  0.00     0.177 C 
BRANCH  28  33
ATOM     33  O   UNL     1     -11.875  31.634  16.125  1.00  0.00    -0.384 OA
ATOM     34  H   UNL     1     -11.406  30.854  15.728  1.00  0.00     0.211 HD
ENDBRANCH  28  33
BRANCH  30  35
ATOM     35  O   UNL     1     -15.328  32.676  16.017  1.00  0.00    -0.387 OA
ATOM     36  H   UNL     1     -15.772  33.059  16.815  1.00  0.00     0.211 HD
ENDBRANCH  30  35
BRANCH  31  37
ATOM     37  C   UNL     1     -12.905  35.516  13.409  1.00  0.00     0.191 C 
BRANCH  37  38
ATOM     38  O   UNL     1     -12.123  36.175  14.366  1.00  0.00    -0.394 OA
ATOM     39  H   UNL     1     -11.620  36.876  13.876  1.00  0.00     0.210 HD
ENDBRANCH  37  38
ENDBRANCH  31  37
BRANCH  32  40
ATOM     40  O   UNL     1     -14.484  35.253  15.873  1.00  0.00    -0.387 OA
ATOM     41  H   UNL     1     -14.214  35.607  16.760  1.00  0.00     0.211 HD
ENDBRANCH  32  40
ENDBRANCH   1  27
TORSDOF 12
ENDMDL
MODEL 3
REMARK VINA RESULT:     3.043      3.385      6.327
REMARK INTER + INTRA:           5.693
REMARK INTER:                   4.573
REMARK INTRA:                   1.120
REMARK UNBOUND:                 1.227
REMARK SMILES O=c1c(O[C@H]2O[C@H](CO)[C@@H](O)[C@@H](O)[C@@H]2O)c(-c2ccc(O)c(O)c2)oc2cc(O)cc(O)c12
REMARK SMILES IDX 4 1 3 2 16 3 25 4 2 5 26 6 1 7 33 8 27 9 31 10 28 11 30 12
REMARK SMILES IDX 17 13 18 14 19 15 20 16 24 17 22 18 21 19 23 21 32 23 29 25
REMARK SMILES IDX 5 27 14 28 6 29 12 30 7 31 10 32 15 33 13 35 8 37 9 38 11 40
REMARK H PARENT 21 20 23 22 32 24 29 26 15 34 13 36 9 39 11 41
REMARK Flexibility Score: inf
ROOT
ATOM      1  O   UNL     1     -12.054  31.501  12.506  1.00  0.00    -0.454 OA
ENDROOT
BRANCH   1   2
ATOM      2  C   UNL     1     -12.922  30.404  12.555  1.00  0.00     0.214 A 
ATOM      3  C   UNL     1     -13.686  30.010  11.437  1.00  0.00     0.180 A 
ATOM      4  O   UNL     1     -14.436  28.915  11.504  1.00  0.00    -0.452 OA
ATOM      5  C   UNL     1     -13.029  29.670  13.742  1.00  0.00     0.239 A 
ATOM      6  C   UNL     1     -14.544  28.171  12.600  1.00  0.00     0.146 A 
ATOM      7  O   UNL     1     -12.374  30.038  14.754  1.00  0.00    -0.285 OA
ATOM      8  C   UNL     1     -13.850  28.525  13.782  1.00  0.00     0.111 A 
ATOM      9  C   UNL     1     -15.360  27.036  12.576  1.00  0.00     0.094 A 
ATOM     10  C   UNL     1     -13.998  27.719  14.936  1.00  0.00     0.134 A 
ATOM     11  C   UNL     1     -15.501  26.243  13.718  1.00  0.00     0.123 A 
ATOM     12  C   UNL     1     -14.824  26.586  14.891  1.00  0.00     0.093 A 
BRANCH   3  13
ATOM     13  C   UNL     1     -13.694  30.785  10.176  1.00  0.00     0.025 A 
ATOM     14  C   UNL     1     -12.498  31.137   9.532  1.00  0.00     0.016 A 
ATOM     15  C   UNL     1     -12.526  31.872   8.345  1.00  0.00     0.051 A 
ATOM     16  C   UNL     1     -13.742  32.282   7.788  1.00  0.00     0.157 A 
ATOM     17  C   UNL     1     -14.914  31.215   9.634  1.00  0.00     0.062 A 
ATOM     18  C   UNL     1     -14.953  31.954   8.444  1.00  0.00     0.158 A 
BRANCH  16  19
ATOM     19  O   UNL     1     -13.702  33.010   6.597  1.00  0.00    -0.504 OA
ATOM     20  H   UNL     1     -14.476  33.080   5.952  1.00  0.00     0.293 HD
ENDBRANCH  16  19
BRANCH  18  21
ATOM     21  O   UNL     1     -16.204  32.337   7.955  1.00  0.00    -0.504 OA
ATOM     22  H   UNL     1     -16.700  31.843   7.228  1.00  0.00     0.293 HD
ENDBRANCH  18  21
ENDBRANCH   3  13
BRANCH  10  23
ATOM     23  O   UNL     1     -13.333  28.033  16.122  1.00  0.00    -0.507 OA
ATOM     24  H   UNL     1     -12.348  27.837  16.250  1.00  0.00     0.293 HD
ENDBRANCH  10  23
BRANCH  11  25
ATOM     25  O   UNL     1     -16.314  25.111  13.701  1.00  0.00    -0.508 OA
ATOM     26  H   UNL     1     -16.091  24.290  14.251  1.00  0.00     0.293 HD
ENDBRANCH  11  25
ENDBRANCH   1   2
BRANCH   1  27
ATOM     27  C   UNL     1     -12.518  32.856  12.494  1.00  0.00     0.339 C 
ATOM     28  C   UNL     1     -11.888  33.670  13.648  1.00  0.00     0.214 C 
ATOM     29  O   UNL     1     -13.934  32.906  12.529  1.00  0.00    -0.332 OA
ATOM     30  C   UNL     1     -12.497  33.307  15.023  1.00  0.00     0.180 C 
ATOM     31  C   UNL     1     -14.450  32.320  13.712  1.00  0.00     0.179 C 
ATOM     32  C   UNL     1     -14.035  33.146  14.951  1.00  0.00     0.177 C 
BRANCH  28  33
ATOM     33  O   UNL     1     -12.014  35.049  13.402  1.00  0.00    -0.384 OA
ATOM     34  H   UNL     1     -11.261  35.325  12.817  1.00  0.00     0.211 HD
ENDBRANCH  28  33
BRANCH  30  35
ATOM     35  O   UNL     1     -11.876  32.165  15.567  1.00  0.00    -0.387 OA
ATOM     36  H   UNL     1     -12.211  31.368  15.086  1.00  0.00     0.211 HD
ENDBRANCH  30  35
BRANCH  31  37
ATOM     37  C   UNL     1     -15.976  32.261  13.588  1.00  0.00     0.191 C 
BRANCH  37  38
ATOM     38  O   UNL     1     -16.496  31.410  14.572  1.00  0.00    -0.394 OA
ATOM     39  H   UNL     1     -16.978  31.992  15.215  1.00  0.00     0.210 HD
ENDBRANCH  37  38
ENDBRANCH  31  37
BRANCH  32  40
ATOM     40  O   UNL     1     -14.509  32.529  16.120  1.00  0.00    -0.387 OA
ATOM     41  H   UNL     1     -13.710  32.248  16.639  1.00  0.00     0.211 HD
ENDBRANCH  32  40
ENDBRANCH   1  27
TORSDOF 12
ENDMDL
MODEL 4
REMARK VINA RESULT:     3.698      2.670      4.919
REMARK INTER + INTRA:           6.654
REMARK INTER:                   6.401
REMARK INTRA:                   0.253
REMARK UNBOUND:                 1.227
REMARK SMILES O=c1c(O[C@H]2O[C@H](CO)[C@@H](O)[C@@H](O)[C@@H]2O)c(-c2ccc(O)c(O)c2)oc2cc(O)cc(O)c12
REMARK SMILES IDX 4 1 3 2 16 3 25 4 2 5 26 6 1 7 33 8 27 9 31 10 28 11 30 12
REMARK SMILES IDX 17 13 18 14 19 15 20 16 24 17 22 18 21 19 23 21 32 23 29 25
REMARK SMILES IDX 5 27 14 28 6 29 12 30 7 31 10 32 15 33 13 35 8 37 9 38 11 40
REMARK H PARENT 21 20 23 22 32 24 29 26 15 34 13 36 9 39 11 41
REMARK Flexibility Score: inf
ROOT
ATOM      1  O   UNL     1     -16.990  27.843  14.438  1.00  0.00    -0.454 OA
ENDROOT
BRANCH   1   2
ATOM      2  C   UNL     1     -17.944  26.901  14.841  1.00  0.00     0.214 A 
ATOM      3  C   UNL     1     -19.216  27.287  15.313  1.00  0.00     0.180 A 
ATOM      4  O   UNL     1     -20.119  26.358  15.610  1.00  0.00    -0.452 OA
ATOM      5  C   UNL     1     -17.634  25.538  14.766  1.00  0.00     0.239 A 
ATOM      6  C   UNL     1     -19.878  25.054  15.524  1.00  0.00     0.146 A 
ATOM      7  O   UNL     1     -16.487  25.189  14.378  1.00  0.00    -0.285 OA
ATOM      8  C   UNL     1     -18.610  24.582  15.108  1.00  0.00     0.111 A 
ATOM      9  C   UNL     1     -20.891  24.151  15.860  1.00  0.00     0.094 A 
ATOM     10  C   UNL     1     -18.383  23.186  15.041  1.00  0.00     0.134 A 
ATOM     11  C   UNL     1     -20.661  22.773  15.791  1.00  0.00     0.123 A 
ATOM     12  C   UNL     1     -19.412  22.296  15.385  1.00  0.00     0.093 A 
BRANCH   3  13
ATOM     13  C   UNL     1     -19.587  28.707  15.504  1.00  0.00     0.025 A 
ATOM     14  C   UNL     1     -18.648  29.651  15.947  1.00  0.00     0.016 A 
ATOM     15  C   UNL     1     -19.019  30.985  16.124  1.00  0.00     0.051 A 
ATOM     16  C   UNL     1     -20.333  31.399  15.879  1.00  0.00     0.157 A 
ATOM     17  C   UNL     1     -20.911  29.114  15.280  1.00  0.00     0.062 A 
ATOM     18  C   UNL     1     -21.294  30.450  15.457  1.00  0.00     0.158 A 
BRANCH  16  19
ATOM     19  O   UNL     1     -20.638  32.748  16.071  1.00  0.00    -0.504 OA
ATOM     20  H   UNL     1     -19.954  33.456  16.298  1.00  0.00     0.293 HD
ENDBRANCH  16  19
BRANCH  18  21
ATOM     21  O   UNL     1     -22.625  30.786  15.203  1.00  0.00    -0.504 OA
ATOM     22  H   UNL     1     -23.243  31.197  15.887  1.00  0.00     0.293 HD
ENDBRANCH  18  21
ENDBRANCH   3  13
BRANCH  10  23
ATOM     23  O   UNL     1     -17.147  22.678  14.638  1.00  0.00    -0.507 OA
ATOM     24  H   UNL     1     -17.014  22.261  13.724  1.00  0.00     0.293 HD
ENDBRANCH  10  23
BRANCH  11  25
ATOM     25  O   UNL     1     -21.666  21.868  16.125  1.00  0.00    -0.508 OA
ATOM     26  H   UNL     1     -22.603  21.954  15.749  1.00  0.00     0.293 HD
ENDBRANCH  11  25
ENDBRANCH   1   2
BRANCH   1  27
ATOM     27  C   UNL     1     -16.009  28.383  15.330  1.00  0.00     0.339 C 
ATOM     28  C   UNL     1     -15.745  29.877  15.029  1.00  0.00     0.214 C 
ATOM     29  O   UNL     1     -14.815  27.621  15.292  1.00  0.00    -0.332 OA
ATOM     30  C   UNL     1     -14.913  30.077  13.740  1.00  0.00     0.180 C 
ATOM     31  C   UNL     1     -14.227  27.634  14.001  1.00  0.00     0.179 C 
ATOM     32  C   UNL     1     -13.751  29.060  13.637  1.00  0.00     0.177 C 
BRANCH  28  33
ATOM     33  O   UNL     1     -15.115  30.495  16.124  1.00  0.00    -0.384 OA
ATOM     34  H   UNL     1     -15.758  30.506  16.881  1.00  0.00     0.211 HD
ENDBRANCH  28  33
BRANCH  30  35
ATOM     35  O   UNL     1     -15.735  30.052  12.597  1.00  0.00    -0.387 OA
ATOM     36  H   UNL     1     -15.880  30.983  12.295  1.00  0.00     0.211 HD
ENDBRANCH  30  35
BRANCH  31  37
ATOM     37  C   UNL     1     -13.048  26.656  14.005  1.00  0.00     0.191 C 
BRANCH  37  38
ATOM     38  O   UNL     1     -13.089  25.874  15.168  1.00  0.00    -0.394 OA
ATOM     39  H   UNL     1     -12.648  26.412  15.876  1.00  0.00     0.210 HD
ENDBRANCH  37  38
ENDBRANCH  31  37
BRANCH  32  40
ATOM     40  O   UNL     1     -13.217  29.069  12.339  1.00  0.00    -0.387 OA
ATOM     41  H   UNL     1     -12.333  28.621  12.390  1.00  0.00     0.211 HD
ENDBRANCH  32  40
ENDBRANCH   1  27
TORSDOF 12
ENDMDL
MODEL 5
REMARK VINA RESULT:     4.219      2.720      6.792
REMARK INTER + INTRA:           7.419
REMARK INTER:                   5.905
REMARK INTRA:                   1.515
REMARK UNBOUND:                 1.227
REMARK SMILES O=c1c(O[C@H]2O[C@H](CO)[C@@H](O)[C@@H](O)[C@@H]2O)c(-c2ccc(O)c(O)c2)oc2cc(O)cc(O)c12
REMARK SMILES IDX 4 1 3 2 16 3 25 4 2 5 26 6 1 7 33 8 27 9 31 10 28 11 30 12
REMARK SMILES IDX 17 13 18 14 19 15 20 16 24 17 22 18 21 19 23 21 32 23 29 25
REMARK SMILES IDX 5 27 14 28 6 29 12 30 7 31 10 32 15 33 13 35 8 37 9 38 11 40
REMARK H PARENT 21 20 23 22 32 24 29 26 15 34 13 36 9 39 11 41
REMARK Flexibility Score: inf
ROOT
ATOM      1  O   UNL     1     -17.410  26.165  15.586  1.00  0.00    -0.454 OA
ENDROOT
BRANCH   1   2
ATOM      2  C   UNL     1     -16.703  27.370  15.497  1.00  0.00     0.214 A 
ATOM      3  C   UNL     1     -17.347  28.619  15.622  1.00  0.00     0.180 A 
ATOM      4  O   UNL     1     -16.626  29.736  15.610  1.00  0.00    -0.452 OA
ATOM      5  C   UNL     1     -15.321  27.339  15.287  1.00  0.00     0.239 A 
ATOM      6  C   UNL     1     -15.308  29.751  15.444  1.00  0.00     0.146 A 
ATOM      7  O   UNL     1     -14.746  26.226  15.140  1.00  0.00    -0.285 OA
ATOM      8  C   UNL     1     -14.591  28.544  15.261  1.00  0.00     0.111 A 
ATOM      9  C   UNL     1     -14.635  30.976  15.444  1.00  0.00     0.094 A 
ATOM     10  C   UNL     1     -13.189  28.597  15.073  1.00  0.00     0.134 A 
ATOM     11  C   UNL     1     -13.250  31.022  15.259  1.00  0.00     0.123 A 
ATOM     12  C   UNL     1     -12.534  29.837  15.073  1.00  0.00     0.093 A 
BRANCH   3  13
ATOM     13  C   UNL     1     -18.816  28.739  15.758  1.00  0.00     0.025 A 
ATOM     14  C   UNL     1     -19.617  27.613  16.004  1.00  0.00     0.016 A 
ATOM     15  C   UNL     1     -21.001  27.745  16.125  1.00  0.00     0.051 A 
ATOM     16  C   UNL     1     -21.613  28.996  15.988  1.00  0.00     0.157 A 
ATOM     17  C   UNL     1     -19.428  29.990  15.595  1.00  0.00     0.062 A 
ATOM     18  C   UNL     1     -20.817  30.134  15.714  1.00  0.00     0.158 A 
BRANCH  16  19
ATOM     19  O   UNL     1     -23.001  29.062  16.125  1.00  0.00    -0.504 OA
ATOM     20  H   UNL     1     -23.538  28.460  16.733  1.00  0.00     0.293 HD
ENDBRANCH  16  19
BRANCH  18  21
ATOM     21  O   UNL     1     -21.356  31.412  15.553  1.00  0.00    -0.504 OA
ATOM     22  H   UNL     1     -21.300  31.944  14.697  1.00  0.00     0.293 HD
ENDBRANCH  18  21
ENDBRANCH   3  13
BRANCH  10  23
ATOM     23  O   UNL     1     -12.445  27.430  14.886  1.00  0.00    -0.507 OA
ATOM     24  H   UNL     1     -11.571  27.272  15.372  1.00  0.00     0.293 HD
ENDBRANCH  10  23
BRANCH  11  25
ATOM     25  O   UNL     1     -12.573  32.240  15.257  1.00  0.00    -0.508 OA
ATOM     26  H   UNL     1     -11.722  32.372  14.724  1.00  0.00     0.293 HD
ENDBRANCH  11  25
ENDBRANCH   1   2
BRANCH   1  27
ATOM     27  C   UNL     1     -18.490  25.833  14.707  1.00  0.00     0.339 C 
ATOM     28  C   UNL     1     -19.292  24.624  15.242  1.00  0.00     0.214 C 
ATOM     29  O   UNL     1     -18.018  25.607  13.389  1.00  0.00    -0.332 OA
ATOM     30  C   UNL     1     -18.529  23.289  15.067  1.00  0.00     0.180 C 
ATOM     31  C   UNL     1     -17.113  24.517  13.337  1.00  0.00     0.179 C 
ATOM     32  C   UNL     1     -17.836  23.196  13.686  1.00  0.00     0.177 C 
BRANCH  28  33
ATOM     33  O   UNL     1     -20.552  24.557  14.621  1.00  0.00    -0.384 OA
ATOM     34  H   UNL     1     -20.571  25.234  13.895  1.00  0.00     0.211 HD
ENDBRANCH  28  33
BRANCH  30  35
ATOM     35  O   UNL     1     -17.622  23.081  16.125  1.00  0.00    -0.387 OA
ATOM     36  H   UNL     1     -17.978  23.527  16.934  1.00  0.00     0.211 HD
ENDBRANCH  30  35
BRANCH  31  37
ATOM     37  C   UNL     1     -16.526  24.453  11.923  1.00  0.00     0.191 C 
BRANCH  37  38
ATOM     38  O   UNL     1     -17.247  23.530  11.154  1.00  0.00    -0.394 OA
ATOM     39  H   UNL     1     -17.483  23.998  10.311  1.00  0.00     0.210 HD
ENDBRANCH  37  38
ENDBRANCH  31  37
BRANCH  32  40
ATOM     40  O   UNL     1     -16.920  22.132  13.680  1.00  0.00    -0.387 OA
ATOM     41  H   UNL     1     -17.045  21.651  12.820  1.00  0.00     0.211 HD
ENDBRANCH  32  40
ENDBRANCH   1  27
TORSDOF 12
ENDMDL
MODEL 6
REMARK VINA RESULT:     4.227      3.099      5.771
REMARK INTER + INTRA:           7.430
REMARK INTER:                   5.777
REMARK INTRA:                   1.653
REMARK UNBOUND:                 1.227
REMARK SMILES O=c1c(O[C@H]2O[C@H](CO)[C@@H](O)[C@@H](O)[C@@H]2O)c(-c2ccc(O)c(O)c2)oc2cc(O)cc(O)c12
REMARK SMILES IDX 4 1 3 2 16 3 25 4 2 5 26 6 1 7 33 8 27 9 31 10 28 11 30 12
REMARK SMILES IDX 17 13 18 14 19 15 20 16 24 17 22 18 21 19 23 21 32 23 29 25
REMARK SMILES IDX 5 27 14 28 6 29 12 30 7 31 10 32 15 33 13 35 8 37 9 38 11 40
REMARK H PARENT 21 20 23 22 32 24 29 26 15 34 13 36 9 39 11 41
REMARK Flexibility Score: inf
ROOT
ATOM      1  O   UNL     1     -12.269  30.730  12.796  1.00  0.00    -0.454 OA
ENDROOT
BRANCH   1   2
ATOM      2  C   UNL     1     -13.195  31.252  11.886  1.00  0.00     0.214 A 
ATOM      3  C   UNL     1     -13.621  32.596  11.948  1.00  0.00     0.180 A 
ATOM      4  O   UNL     1     -14.441  33.070  11.016  1.00  0.00    -0.452 OA
ATOM      5  C   UNL     1     -13.709  30.424  10.882  1.00  0.00     0.239 A 
ATOM      6  C   UNL     1     -14.929  32.328  10.028  1.00  0.00     0.146 A 
ATOM      7  O   UNL     1     -13.358  29.214  10.843  1.00  0.00    -0.285 OA
ATOM      8  C   UNL     1     -14.592  30.958   9.922  1.00  0.00     0.111 A 
ATOM      9  C   UNL     1     -15.787  32.917   9.094  1.00  0.00     0.094 A 
ATOM     10  C   UNL     1     -15.140  30.193   8.864  1.00  0.00     0.134 A 
ATOM     11  C   UNL     1     -16.324  32.156   8.051  1.00  0.00     0.123 A 
ATOM     12  C   UNL     1     -16.002  30.802   7.940  1.00  0.00     0.093 A 
BRANCH   3  13
ATOM     13  C   UNL     1     -13.192  33.508  13.031  1.00  0.00     0.025 A 
ATOM     14  C   UNL     1     -13.271  33.125  14.379  1.00  0.00     0.016 A 
ATOM     15  C   UNL     1     -12.865  34.002  15.386  1.00  0.00     0.051 A 
ATOM     16  C   UNL     1     -12.389  35.279  15.071  1.00  0.00     0.157 A 
ATOM     17  C   UNL     1     -12.738  34.797  12.713  1.00  0.00     0.062 A 
ATOM     18  C   UNL     1     -12.329  35.685  13.717  1.00  0.00     0.158 A 
BRANCH  16  19
ATOM     19  O   UNL     1     -11.994  36.107  16.125  1.00  0.00    -0.504 OA
ATOM     20  H   UNL     1     -12.212  35.929  17.095  1.00  0.00     0.293 HD
ENDBRANCH  16  19
BRANCH  18  21
ATOM     21  O   UNL     1     -11.876  36.947  13.326  1.00  0.00    -0.504 OA
ATOM     22  H   UNL     1     -12.468  37.761  13.255  1.00  0.00     0.293 HD
ENDBRANCH  18  21
ENDBRANCH   3  13
BRANCH  10  23
ATOM     23  O   UNL     1     -14.836  28.838   8.725  1.00  0.00    -0.507 OA
ATOM     24  H   UNL     1     -15.227  28.278   7.977  1.00  0.00     0.293 HD
ENDBRANCH  10  23
BRANCH  11  25
ATOM     25  O   UNL     1     -17.182  32.737   7.118  1.00  0.00    -0.508 OA
ATOM     26  H   UNL     1     -18.122  33.019   7.367  1.00  0.00     0.293 HD
ENDBRANCH  11  25
ENDBRANCH   1   2
BRANCH   1  27
ATOM     27  C   UNL     1     -12.565  30.546  14.185  1.00  0.00     0.339 C 
ATOM     28  C   UNL     1     -11.937  29.238  14.719  1.00  0.00     0.214 C 
ATOM     29  O   UNL     1     -13.963  30.588  14.414  1.00  0.00    -0.332 OA
ATOM     30  C   UNL     1     -12.693  27.980  14.229  1.00  0.00     0.180 C 
ATOM     31  C   UNL     1     -14.638  29.550  13.722  1.00  0.00     0.179 C 
ATOM     32  C   UNL     1     -14.228  28.169  14.284  1.00  0.00     0.177 C 
BRANCH  28  33
ATOM     33  O   UNL     1     -11.878  29.260  16.125  1.00  0.00    -0.384 OA
ATOM     34  H   UNL     1     -12.710  28.845  16.473  1.00  0.00     0.211 HD
ENDBRANCH  28  33
BRANCH  30  35
ATOM     35  O   UNL     1     -12.257  27.596  12.946  1.00  0.00    -0.387 OA
ATOM     36  H   UNL     1     -12.869  27.993  12.276  1.00  0.00     0.211 HD
ENDBRANCH  30  35
BRANCH  31  37
ATOM     37  C   UNL     1     -16.146  29.772  13.884  1.00  0.00     0.191 C 
BRANCH  37  38
ATOM     38  O   UNL     1     -16.574  29.230  15.102  1.00  0.00    -0.394 OA
ATOM     39  H   UNL     1     -16.927  28.326  14.893  1.00  0.00     0.210 HD
ENDBRANCH  37  38
ENDBRANCH  31  37
BRANCH  32  40
ATOM     40  O   UNL     1     -14.864  27.149  13.559  1.00  0.00    -0.387 OA
ATOM     41  H   UNL     1     -14.872  26.345  14.143  1.00  0.00     0.211 HD
ENDBRANCH  32  40
ENDBRANCH   1  27
TORSDOF 12
ENDMDL
