MODEL 1
REMARK VINA RESULT:    13.242      0.000      0.000
REMARK INTER + INTRA:          34.352
REMARK INTER:                  34.917
REMARK INTRA:                  -0.565
REMARK UNBOUND:                -0.565
REMARK SMILES CCCCCCCCCCCCCCCCCCCCCCCCCCCCCC(=O)[O-]
REMARK SMILES IDX 16 1 17 2 18 3 19 4 20 5 21 6 22 7 23 8 24 9 25 10 26 11
REMARK SMILES IDX 27 12 28 13 29 14 30 15 31 16 32 17 15 18 14 19 13 20 12 21
REMARK SMILES IDX 11 22 10 23 9 24 8 25 7 26 6 27 5 28 4 29 3 30 2 31 1 32
REMARK H PARENT
REMARK Flexibility Score: inf
ROOT
ATOM      1  C   UNL     1      83.488  13.104 107.644  1.00  0.00     0.000 C 
ENDROOT
BRANCH   1   2
ATOM      2  C   UNL     1      82.731  14.330 107.098  1.00  0.00     0.000 C 
BRANCH   2   3
ATOM      3  C   UNL     1      83.611  15.397 106.422  1.00  0.00     0.000 C 
BRANCH   3   4
ATOM      4  C   UNL     1      84.443  16.214 107.426  1.00  0.00     0.000 C 
BRANCH   4   5
ATOM      5  C   UNL     1      84.026  17.692 107.473  1.00  0.00     0.000 C 
BRANCH   5   6
ATOM      6  C   UNL     1      84.679  18.453 108.641  1.00  0.00     0.000 C 
BRANCH   6   7
ATOM      7  C   UNL     1      86.094  18.951 108.306  1.00  0.00     0.000 C 
BRANCH   7   8
ATOM      8  C   UNL     1      86.363  20.374 108.825  1.00  0.00     0.000 C 
BRANCH   8   9
ATOM      9  C   UNL     1      87.630  20.442 109.703  1.00  0.00     0.000 C 
BRANCH   9  10
ATOM     10  C   UNL     1      88.001  21.867 110.151  1.00  0.00     0.000 C 
BRANCH  10  11
ATOM     11  C   UNL     1      88.208  21.981 111.670  1.00  0.00     0.000 C 
BRANCH  11  12
ATOM     12  C   UNL     1      89.568  22.598 112.051  1.00  0.00     0.000 C 
BRANCH  12  13
ATOM     13  C   UNL     1      90.269  21.954 113.265  1.00  0.00     0.006 C 
BRANCH  13  14
ATOM     14  C   UNL     1      91.696  21.453 112.991  1.00  0.00     0.053 C 
BRANCH  14  15
ATOM     15  C   UNL     1      91.705  20.061 112.437  1.00  0.00     0.041 C 
ATOM     16  O   UNL     1      90.802  19.244 112.758  1.00  0.00    -0.550 OA
ATOM     17  O   UNL     1      92.730  19.655 111.593  1.00  0.00    -0.550 OA
ENDBRANCH  14  15
ENDBRANCH  13  14
ENDBRANCH  12  13
ENDBRANCH  11  12
ENDBRANCH  10  11
ENDBRANCH   9  10
ENDBRANCH   8   9
ENDBRANCH   7   8
ENDBRANCH   6   7
ENDBRANCH   5   6
ENDBRANCH   4   5
ENDBRANCH   3   4
ENDBRANCH   2   3
ENDBRANCH   1   2
BRANCH   1  18
ATOM     18  C   UNL     1      83.995  13.302 109.083  1.00  0.00     0.000 C 
BRANCH  18  19
ATOM     19  C   UNL     1      85.519  13.510 109.157  1.00  0.00     0.000 C 
BRANCH  19  20
ATOM     20  C   UNL     1      86.171  14.066 107.876  1.00  0.00     0.000 C 
BRANCH  20  21
ATOM     21  C   UNL     1      87.131  13.064 107.210  1.00  0.00     0.000 C 
BRANCH  21  22
ATOM     22  C   UNL     1      88.400  13.734 106.660  1.00  0.00     0.000 C 
BRANCH  22  23
ATOM     23  C   UNL     1      89.350  12.737 105.969  1.00  0.00     0.000 C 
BRANCH  23  24
ATOM     24  C   UNL     1      89.084  11.287 106.403  1.00  0.00    -0.000 C 
BRANCH  24  25
ATOM     25  C   UNL     1      89.831  10.267 105.525  1.00  0.00    -0.000 C 
BRANCH  25  26
ATOM     26  C   UNL     1      89.708   8.825 106.047  1.00  0.00    -0.000 C 
BRANCH  26  27
ATOM     27  C   UNL     1      91.047   8.124 106.361  1.00  0.00    -0.000 C 
BRANCH  27  28
ATOM     28  C   UNL     1      91.359   7.949 107.859  1.00  0.00    -0.000 C 
BRANCH  28  29
ATOM     29  C   UNL     1      90.159   8.282 108.761  1.00  0.00    -0.000 C 
BRANCH  29  30
ATOM     30  C   UNL     1      89.524   7.025 109.375  1.00  0.00    -0.000 C 
BRANCH  30  31
ATOM     31  C   UNL     1      87.996   7.141 109.500  1.00  0.00    -0.003 C 
ATOM     32  C   UNL     1      87.597   7.722 110.854  1.00  0.00     0.004 C 
ENDBRANCH  30  31
ENDBRANCH  29  30
ENDBRANCH  28  29
ENDBRANCH  27  28
ENDBRANCH  26  27
ENDBRANCH  25  26
ENDBRANCH  24  25
ENDBRANCH  23  24
ENDBRANCH  22  23
ENDBRANCH  21  22
ENDBRANCH  20  21
ENDBRANCH  19  20
ENDBRANCH  18  19
ENDBRANCH   1  18
TORSDOF 28
ENDMDL
MODEL 2
REMARK VINA RESULT:    13.923      3.334     11.053
REMARK INTER + INTRA:          36.148
REMARK INTER:                  36.643
REMARK INTRA:                  -0.495
REMARK UNBOUND:                -0.565
REMARK SMILES CCCCCCCCCCCCCCCCCCCCCCCCCCCCCC(=O)[O-]
REMARK SMILES IDX 16 1 17 2 18 3 19 4 20 5 21 6 22 7 23 8 24 9 25 10 26 11
REMARK SMILES IDX 27 12 28 13 29 14 30 15 31 16 32 17 15 18 14 19 13 20 12 21
REMARK SMILES IDX 11 22 10 23 9 24 8 25 7 26 6 27 5 28 4 29 3 30 2 31 1 32
REMARK H PARENT
REMARK Flexibility Score: inf
ROOT
ATOM      1  C   UNL     1      83.313  14.185 107.267  1.00  0.00     0.000 C 
ENDROOT
BRANCH   1   2
ATOM      2  C   UNL     1      83.845  14.141 108.712  1.00  0.00     0.000 C 
BRANCH   2   3
ATOM      3  C   UNL     1      85.299  13.657 108.862  1.00  0.00     0.000 C 
BRANCH   3   4
ATOM      4  C   UNL     1      86.183  14.029 107.660  1.00  0.00     0.000 C 
BRANCH   4   5
ATOM      5  C   UNL     1      87.638  13.564 107.831  1.00  0.00     0.000 C 
BRANCH   5   6
ATOM      6  C   UNL     1      88.289  13.159 106.496  1.00  0.00     0.000 C 
BRANCH   6   7
ATOM      7  C   UNL     1      88.425  11.635 106.342  1.00  0.00     0.000 C 
BRANCH   7   8
ATOM      8  C   UNL     1      89.627  11.230 105.473  1.00  0.00     0.000 C 
BRANCH   8   9
ATOM      9  C   UNL     1      90.046   9.763 105.709  1.00  0.00     0.000 C 
BRANCH   9  10
ATOM     10  C   UNL     1      90.098   9.361 107.194  1.00  0.00     0.000 C 
BRANCH  10  11
ATOM     11  C   UNL     1      91.184   8.315 107.492  1.00  0.00     0.000 C 
BRANCH  11  12
ATOM     12  C   UNL     1      90.646   7.082 108.242  1.00  0.00     0.000 C 
BRANCH  12  13
ATOM     13  C   UNL     1      89.188   7.192 108.737  1.00  0.00     0.006 C 
BRANCH  13  14
ATOM     14  C   UNL     1      89.041   7.463 110.243  1.00  0.00     0.053 C 
BRANCH  14  15
ATOM     15  C   UNL     1      87.608   7.443 110.679  1.00  0.00     0.041 C 
ATOM     16  O   UNL     1      86.683   7.499 109.825  1.00  0.00    -0.550 OA
ATOM     17  O   UNL     1      87.293   7.396 112.030  1.00  0.00    -0.550 OA
ENDBRANCH  14  15
ENDBRANCH  13  14
ENDBRANCH  12  13
ENDBRANCH  11  12
ENDBRANCH  10  11
ENDBRANCH   9  10
ENDBRANCH   8   9
ENDBRANCH   7   8
ENDBRANCH   6   7
ENDBRANCH   5   6
ENDBRANCH   4   5
ENDBRANCH   3   4
ENDBRANCH   2   3
ENDBRANCH   1   2
BRANCH   1  18
ATOM     18  C   UNL     1      83.353  15.595 106.654  1.00  0.00     0.000 C 
BRANCH  18  19
ATOM     19  C   UNL     1      84.648  16.358 106.988  1.00  0.00     0.000 C 
BRANCH  19  20
ATOM     20  C   UNL     1      84.474  17.576 107.916  1.00  0.00     0.000 C 
BRANCH  20  21
ATOM     21  C   UNL     1      85.743  18.441 108.011  1.00  0.00     0.000 C 
BRANCH  21  22
ATOM     22  C   UNL     1      85.641  19.529 109.091  1.00  0.00     0.000 C 
BRANCH  22  23
ATOM     23  C   UNL     1      86.950  19.710 109.883  1.00  0.00     0.000 C 
BRANCH  23  24
ATOM     24  C   UNL     1      87.375  21.184 109.970  1.00  0.00    -0.000 C 
BRANCH  24  25
ATOM     25  C   UNL     1      88.009  21.531 111.329  1.00  0.00    -0.000 C 
BRANCH  25  26
ATOM     26  C   UNL     1      89.098  22.613 111.223  1.00  0.00    -0.000 C 
BRANCH  26  27
ATOM     27  C   UNL     1      89.671  23.101 112.571  1.00  0.00    -0.000 C 
BRANCH  27  28
ATOM     28  C   UNL     1      90.782  22.218 113.168  1.00  0.00    -0.000 C 
BRANCH  28  29
ATOM     29  C   UNL     1      90.338  20.761 113.378  1.00  0.00    -0.000 C 
BRANCH  29  30
ATOM     30  C   UNL     1      90.976  19.804 112.359  1.00  0.00    -0.000 C 
BRANCH  30  31
ATOM     31  C   UNL     1      92.330  20.316 111.842  1.00  0.00    -0.003 C 
ATOM     32  C   UNL     1      93.259  19.157 111.490  1.00  0.00     0.004 C 
ENDBRANCH  30  31
ENDBRANCH  29  30
ENDBRANCH  28  29
ENDBRANCH  27  28
ENDBRANCH  26  27
ENDBRANCH  25  26
ENDBRANCH  24  25
ENDBRANCH  23  24
ENDBRANCH  22  23
ENDBRANCH  21  22
ENDBRANCH  20  21
ENDBRANCH  19  20
ENDBRANCH  18  19
ENDBRANCH   1  18
TORSDOF 28
ENDMDL
MODEL 3
REMARK VINA RESULT:    14.660      3.136     11.179
REMARK INTER + INTRA:          38.092
REMARK INTER:                  38.496
REMARK INTRA:                  -0.404
REMARK UNBOUND:                -0.565
REMARK SMILES CCCCCCCCCCCCCCCCCCCCCCCCCCCCCC(=O)[O-]
REMARK SMILES IDX 16 1 17 2 18 3 19 4 20 5 21 6 22 7 23 8 24 9 25 10 26 11
REMARK SMILES IDX 27 12 28 13 29 14 30 15 31 16 32 17 15 18 14 19 13 20 12 21
REMARK SMILES IDX 11 22 10 23 9 24 8 25 7 26 6 27 5 28 4 29 3 30 2 31 1 32
REMARK H PARENT
REMARK Flexibility Score: inf
ROOT
ATOM      1  C   UNL     1      85.983  14.232 107.278  1.00  0.00     0.000 C 
ENDROOT
BRANCH   1   2
ATOM      2  C   UNL     1      87.459  13.814 107.421  1.00  0.00     0.000 C 
BRANCH   2   3
ATOM      3  C   UNL     1      88.368  14.199 106.240  1.00  0.00     0.000 C 
BRANCH   3   4
ATOM      4  C   UNL     1      88.859  12.981 105.438  1.00  0.00     0.000 C 
BRANCH   4   5
ATOM      5  C   UNL     1      89.030  11.729 106.312  1.00  0.00     0.000 C 
BRANCH   5   6
ATOM      6  C   UNL     1      89.173  10.442 105.479  1.00  0.00     0.000 C 
BRANCH   6   7
ATOM      7  C   UNL     1      89.506   9.213 106.340  1.00  0.00     0.000 C 
BRANCH   7   8
ATOM      8  C   UNL     1      90.935   9.251 106.906  1.00  0.00     0.000 C 
BRANCH   8   9
ATOM      9  C   UNL     1      91.063   8.446 108.217  1.00  0.00     0.000 C 
BRANCH   9  10
ATOM     10  C   UNL     1      90.102   7.247 108.307  1.00  0.00     0.000 C 
BRANCH  10  11
ATOM     11  C   UNL     1      89.653   6.949 109.746  1.00  0.00     0.000 C 
BRANCH  11  12
ATOM     12  C   UNL     1      88.131   7.084 109.945  1.00  0.00     0.000 C 
BRANCH  12  13
ATOM     13  C   UNL     1      87.650   8.461 110.449  1.00  0.00     0.006 C 
BRANCH  13  14
ATOM     14  C   UNL     1      86.368   8.423 111.295  1.00  0.00     0.053 C 
BRANCH  14  15
ATOM     15  C   UNL     1      86.657   8.152 112.740  1.00  0.00     0.041 C 
ATOM     16  O   UNL     1      86.594   9.084 113.586  1.00  0.00    -0.550 OA
ATOM     17  O   UNL     1      87.029   6.878 113.148  1.00  0.00    -0.550 OA
ENDBRANCH  14  15
ENDBRANCH  13  14
ENDBRANCH  12  13
ENDBRANCH  11  12
ENDBRANCH  10  11
ENDBRANCH   9  10
ENDBRANCH   8   9
ENDBRANCH   7   8
ENDBRANCH   6   7
ENDBRANCH   5   6
ENDBRANCH   4   5
ENDBRANCH   3   4
ENDBRANCH   2   3
ENDBRANCH   1   2
BRANCH   1  18
ATOM     18  C   UNL     1      85.002  13.094 107.608  1.00  0.00     0.000 C 
BRANCH  18  19
ATOM     19  C   UNL     1      83.752  13.582 108.364  1.00  0.00     0.000 C 
BRANCH  19  20
ATOM     20  C   UNL     1      83.840  15.013 108.929  1.00  0.00     0.000 C 
BRANCH  20  21
ATOM     21  C   UNL     1      84.144  16.064 107.847  1.00  0.00     0.000 C 
BRANCH  21  22
ATOM     22  C   UNL     1      84.296  17.481 108.422  1.00  0.00     0.000 C 
BRANCH  22  23
ATOM     23  C   UNL     1      85.318  18.334 107.648  1.00  0.00     0.000 C 
BRANCH  23  24
ATOM     24  C   UNL     1      86.454  18.840 108.550  1.00  0.00    -0.000 C 
BRANCH  24  25
ATOM     25  C   UNL     1      86.359  20.352 108.820  1.00  0.00    -0.000 C 
BRANCH  25  26
ATOM     26  C   UNL     1      86.647  20.717 110.287  1.00  0.00    -0.000 C 
BRANCH  26  27
ATOM     27  C   UNL     1      87.824  21.693 110.501  1.00  0.00    -0.000 C 
BRANCH  27  28
ATOM     28  C   UNL     1      88.559  21.546 111.846  1.00  0.00    -0.000 C 
BRANCH  28  29
ATOM     29  C   UNL     1      89.858  22.366 111.909  1.00  0.00    -0.000 C 
BRANCH  29  30
ATOM     30  C   UNL     1      90.524  22.299 113.293  1.00  0.00    -0.000 C 
BRANCH  30  31
ATOM     31  C   UNL     1      91.636  21.240 113.358  1.00  0.00    -0.003 C 
ATOM     32  C   UNL     1      91.287  20.023 112.505  1.00  0.00     0.004 C 
ENDBRANCH  30  31
ENDBRANCH  29  30
ENDBRANCH  28  29
ENDBRANCH  27  28
ENDBRANCH  26  27
ENDBRANCH  25  26
ENDBRANCH  24  25
ENDBRANCH  23  24
ENDBRANCH  22  23
ENDBRANCH  21  22
ENDBRANCH  20  21
ENDBRANCH  19  20
ENDBRANCH  18  19
ENDBRANCH   1  18
TORSDOF 28
ENDMDL
MODEL 4
REMARK VINA RESULT:    14.764      0.729      1.323
REMARK INTER + INTRA:          38.366
REMARK INTER:                  38.677
REMARK INTRA:                  -0.311
REMARK UNBOUND:                -0.565
REMARK SMILES CCCCCCCCCCCCCCCCCCCCCCCCCCCCCC(=O)[O-]
REMARK SMILES IDX 16 1 17 2 18 3 19 4 20 5 21 6 22 7 23 8 24 9 25 10 26 11
REMARK SMILES IDX 27 12 28 13 29 14 30 15 31 16 32 17 15 18 14 19 13 20 12 21
REMARK SMILES IDX 11 22 10 23 9 24 8 25 7 26 6 27 5 28 4 29 3 30 2 31 1 32
REMARK H PARENT
REMARK Flexibility Score: inf
ROOT
ATOM      1  C   UNL     1      83.083  14.287 106.986  1.00  0.00     0.000 C 
ENDROOT
BRANCH   1   2
ATOM      2  C   UNL     1      83.837  15.535 106.488  1.00  0.00     0.000 C 
BRANCH   2   3
ATOM      3  C   UNL     1      84.655  16.278 107.560  1.00  0.00     0.000 C 
BRANCH   3   4
ATOM      4  C   UNL     1      84.440  17.801 107.531  1.00  0.00     0.000 C 
BRANCH   4   5
ATOM      5  C   UNL     1      84.925  18.490 108.816  1.00  0.00     0.000 C 
BRANCH   5   6
ATOM      6  C   UNL     1      86.302  19.156 108.645  1.00  0.00     0.000 C 
BRANCH   6   7
ATOM      7  C   UNL     1      86.201  20.660 108.346  1.00  0.00     0.000 C 
BRANCH   7   8
ATOM      8  C   UNL     1      86.711  21.533 109.505  1.00  0.00     0.000 C 
BRANCH   8   9
ATOM      9  C   UNL     1      88.008  20.973 110.127  1.00  0.00     0.000 C 
BRANCH   9  10
ATOM     10  C   UNL     1      88.281  21.476 111.555  1.00  0.00     0.000 C 
BRANCH  10  11
ATOM     11  C   UNL     1      89.184  22.719 111.588  1.00  0.00     0.000 C 
BRANCH  11  12
ATOM     12  C   UNL     1      89.996  22.844 112.892  1.00  0.00     0.000 C 
BRANCH  12  13
ATOM     13  C   UNL     1      90.926  21.654 113.208  1.00  0.00     0.006 C 
BRANCH  13  14
ATOM     14  C   UNL     1      91.810  21.200 112.036  1.00  0.00     0.053 C 
BRANCH  14  15
ATOM     15  C   UNL     1      92.246  19.774 112.181  1.00  0.00     0.041 C 
ATOM     16  O   UNL     1      93.252  19.351 111.552  1.00  0.00    -0.550 OA
ATOM     17  O   UNL     1      91.521  18.904 112.984  1.00  0.00    -0.550 OA
ENDBRANCH  14  15
ENDBRANCH  13  14
ENDBRANCH  12  13
ENDBRANCH  11  12
ENDBRANCH  10  11
ENDBRANCH   9  10
ENDBRANCH   8   9
ENDBRANCH   7   8
ENDBRANCH   6   7
ENDBRANCH   5   6
ENDBRANCH   4   5
ENDBRANCH   3   4
ENDBRANCH   2   3
ENDBRANCH   1   2
BRANCH   1  18
ATOM     18  C   UNL     1      83.317  13.998 108.479  1.00  0.00     0.000 C 
BRANCH  18  19
ATOM     19  C   UNL     1      84.636  13.249 108.744  1.00  0.00     0.000 C 
BRANCH  19  20
ATOM     20  C   UNL     1      85.917  14.010 108.349  1.00  0.00     0.000 C 
BRANCH  20  21
ATOM     21  C   UNL     1      86.717  13.299 107.243  1.00  0.00     0.000 C 
BRANCH  21  22
ATOM     22  C   UNL     1      87.891  14.144 106.723  1.00  0.00     0.000 C 
BRANCH  22  23
ATOM     23  C   UNL     1      88.943  13.306 105.972  1.00  0.00     0.000 C 
BRANCH  23  24
ATOM     24  C   UNL     1      89.059  11.881 106.534  1.00  0.00    -0.000 C 
BRANCH  24  25
ATOM     25  C   UNL     1      89.613  10.887 105.499  1.00  0.00    -0.000 C 
BRANCH  25  26
ATOM     26  C   UNL     1      89.504   9.422 105.958  1.00  0.00    -0.000 C 
BRANCH  26  27
ATOM     27  C   UNL     1      90.848   8.730 106.271  1.00  0.00    -0.000 C 
BRANCH  27  28
ATOM     28  C   UNL     1      90.737   7.274 106.757  1.00  0.00    -0.000 C 
BRANCH  28  29
ATOM     29  C   UNL     1      90.842   7.145 108.286  1.00  0.00    -0.000 C 
BRANCH  29  30
ATOM     30  C   UNL     1      89.894   8.107 109.019  1.00  0.00    -0.000 C 
BRANCH  30  31
ATOM     31  C   UNL     1      88.934   7.375 109.969  1.00  0.00    -0.003 C 
ATOM     32  C   UNL     1      87.697   6.878 109.227  1.00  0.00     0.004 C 
ENDBRANCH  30  31
ENDBRANCH  29  30
ENDBRANCH  28  29
ENDBRANCH  27  28
ENDBRANCH  26  27
ENDBRANCH  25  26
ENDBRANCH  24  25
ENDBRANCH  23  24
ENDBRANCH  22  23
ENDBRANCH  21  22
ENDBRANCH  20  21
ENDBRANCH  19  20
ENDBRANCH  18  19
ENDBRANCH   1  18
TORSDOF 28
ENDMDL
MODEL 5
REMARK VINA RESULT:    15.318      0.861      1.812
REMARK INTER + INTRA:          39.828
REMARK INTER:                  38.002
REMARK INTRA:                   1.826
REMARK UNBOUND:                -0.565
REMARK SMILES CCCCCCCCCCCCCCCCCCCCCCCCCCCCCC(=O)[O-]
REMARK SMILES IDX 16 1 17 2 18 3 19 4 20 5 21 6 22 7 23 8 24 9 25 10 26 11
REMARK SMILES IDX 27 12 28 13 29 14 30 15 31 16 32 17 15 18 14 19 13 20 12 21
REMARK SMILES IDX 11 22 10 23 9 24 8 25 7 26 6 27 5 28 4 29 3 30 2 31 1 32
REMARK H PARENT
REMARK Flexibility Score: inf
ROOT
ATOM      1  C   UNL     1      83.082  14.776 106.868  1.00  0.00     0.000 C 
ENDROOT
BRANCH   1   2
ATOM      2  C   UNL     1      84.255  15.678 107.296  1.00  0.00     0.000 C 
BRANCH   2   3
ATOM      3  C   UNL     1      83.855  17.057 107.851  1.00  0.00     0.000 C 
BRANCH   3   4
ATOM      4  C   UNL     1      85.055  17.999 108.042  1.00  0.00     0.000 C 
BRANCH   4   5
ATOM      5  C   UNL     1      84.938  19.282 107.204  1.00  0.00     0.000 C 
BRANCH   5   6
ATOM      6  C   UNL     1      85.681  20.471 107.838  1.00  0.00     0.000 C 
BRANCH   6   7
ATOM      7  C   UNL     1      86.305  20.124 109.199  1.00  0.00     0.000 C 
BRANCH   7   8
ATOM      8  C   UNL     1      87.275  21.206 109.704  1.00  0.00     0.000 C 
BRANCH   8   9
ATOM      9  C   UNL     1      87.292  21.297 111.244  1.00  0.00     0.000 C 
BRANCH   9  10
ATOM     10  C   UNL     1      88.691  21.133 111.862  1.00  0.00     0.000 C 
BRANCH  10  11
ATOM     11  C   UNL     1      89.688  22.196 111.375  1.00  0.00     0.000 C 
BRANCH  11  12
ATOM     12  C   UNL     1      90.334  22.991 112.526  1.00  0.00     0.000 C 
BRANCH  12  13
ATOM     13  C   UNL     1      90.682  22.170 113.785  1.00  0.00     0.006 C 
BRANCH  13  14
ATOM     14  C   UNL     1      91.902  21.248 113.633  1.00  0.00     0.053 C 
BRANCH  14  15
ATOM     15  C   UNL     1      91.654  20.146 112.647  1.00  0.00     0.041 C 
ATOM     16  O   UNL     1      90.686  19.357 112.808  1.00  0.00    -0.550 OA
ATOM     17  O   UNL     1      92.513  19.971 111.570  1.00  0.00    -0.550 OA
ENDBRANCH  14  15
ENDBRANCH  13  14
ENDBRANCH  12  13
ENDBRANCH  11  12
ENDBRANCH  10  11
ENDBRANCH   9  10
ENDBRANCH   8   9
ENDBRANCH   7   8
ENDBRANCH   6   7
ENDBRANCH   5   6
ENDBRANCH   4   5
ENDBRANCH   3   4
ENDBRANCH   2   3
ENDBRANCH   1   2
BRANCH   1  18
ATOM     18  C   UNL     1      83.037  13.443 107.633  1.00  0.00     0.000 C 
BRANCH  18  19
ATOM     19  C   UNL     1      83.565  13.562 109.076  1.00  0.00     0.000 C 
BRANCH  19  20
ATOM     20  C   UNL     1      85.063  13.900 109.203  1.00  0.00     0.000 C 
BRANCH  20  21
ATOM     21  C   UNL     1      85.886  13.435 107.989  1.00  0.00     0.000 C 
BRANCH  21  22
ATOM     22  C   UNL     1      86.830  14.526 107.459  1.00  0.00     0.000 C 
BRANCH  22  23
ATOM     23  C   UNL     1      88.280  14.032 107.295  1.00  0.00     0.000 C 
BRANCH  23  24
ATOM     24  C   UNL     1      88.645  13.786 105.822  1.00  0.00    -0.000 C 
BRANCH  24  25
ATOM     25  C   UNL     1      89.618  12.606 105.650  1.00  0.00    -0.000 C 
BRANCH  25  26
ATOM     26  C   UNL     1      88.920  11.237 105.732  1.00  0.00    -0.000 C 
BRANCH  26  27
ATOM     27  C   UNL     1      89.852  10.015 105.591  1.00  0.00    -0.000 C 
BRANCH  27  28
ATOM     28  C   UNL     1      89.656   8.916 106.651  1.00  0.00    -0.000 C 
BRANCH  28  29
ATOM     29  C   UNL     1      90.966   8.198 107.016  1.00  0.00    -0.000 C 
BRANCH  29  30
ATOM     30  C   UNL     1      90.770   7.157 108.129  1.00  0.00    -0.000 C 
BRANCH  30  31
ATOM     31  C   UNL     1      89.287   6.918 108.454  1.00  0.00    -0.003 C 
ATOM     32  C   UNL     1      89.026   7.034 109.953  1.00  0.00     0.004 C 
ENDBRANCH  30  31
ENDBRANCH  29  30
ENDBRANCH  28  29
ENDBRANCH  27  28
ENDBRANCH  26  27
ENDBRANCH  25  26
ENDBRANCH  24  25
ENDBRANCH  23  24
ENDBRANCH  22  23
ENDBRANCH  21  22
ENDBRANCH  20  21
ENDBRANCH  19  20
ENDBRANCH  18  19
ENDBRANCH   1  18
TORSDOF 28
ENDMDL
MODEL 6
REMARK VINA RESULT:    15.348      3.429     10.589
REMARK INTER + INTRA:          39.905
REMARK INTER:                  39.949
REMARK INTRA:                  -0.044
REMARK UNBOUND:                -0.565
REMARK SMILES CCCCCCCCCCCCCCCCCCCCCCCCCCCCCC(=O)[O-]
REMARK SMILES IDX 16 1 17 2 18 3 19 4 20 5 21 6 22 7 23 8 24 9 25 10 26 11
REMARK SMILES IDX 27 12 28 13 29 14 30 15 31 16 32 17 15 18 14 19 13 20 12 21
REMARK SMILES IDX 11 22 10 23 9 24 8 25 7 26 6 27 5 28 4 29 3 30 2 31 1 32
REMARK H PARENT
REMARK Flexibility Score: inf
ROOT
ATOM      1  C   UNL     1      82.702  14.393 107.415  1.00  0.00     0.000 C 
ENDROOT
BRANCH   1   2
ATOM      2  C   UNL     1      83.476  13.255 108.108  1.00  0.00     0.000 C 
BRANCH   2   3
ATOM      3  C   UNL     1      84.125  13.628 109.453  1.00  0.00     0.000 C 
BRANCH   3   4
ATOM      4  C   UNL     1      85.662  13.624 109.400  1.00  0.00     0.000 C 
BRANCH   4   5
ATOM      5  C   UNL     1      86.211  14.292 108.129  1.00  0.00     0.000 C 
BRANCH   5   6
ATOM      6  C   UNL     1      87.348  13.484 107.481  1.00  0.00     0.000 C 
BRANCH   6   7
ATOM      7  C   UNL     1      88.321  14.365 106.681  1.00  0.00     0.000 C 
BRANCH   7   8
ATOM      8  C   UNL     1      89.361  13.545 105.898  1.00  0.00     0.000 C 
BRANCH   8   9
ATOM      9  C   UNL     1      88.707  12.430 105.055  1.00  0.00     0.000 C 
BRANCH   9  10
ATOM     10  C   UNL     1      89.179  11.013 105.424  1.00  0.00     0.000 C 
BRANCH  10  11
ATOM     11  C   UNL     1      89.715  10.917 106.861  1.00  0.00     0.000 C 
BRANCH  11  12
ATOM     12  C   UNL     1      89.911   9.465 107.338  1.00  0.00     0.000 C 
BRANCH  12  13
ATOM     13  C   UNL     1      90.374   8.469 106.255  1.00  0.00     0.006 C 
BRANCH  13  14
ATOM     14  C   UNL     1      91.536   7.556 106.676  1.00  0.00     0.053 C 
BRANCH  14  15
ATOM     15  C   UNL     1      91.516   7.264 108.146  1.00  0.00     0.041 C 
ATOM     16  O   UNL     1      92.576   7.339 108.822  1.00  0.00    -0.550 OA
ATOM     17  O   UNL     1      90.334   6.877 108.761  1.00  0.00    -0.550 OA
ENDBRANCH  14  15
ENDBRANCH  13  14
ENDBRANCH  12  13
ENDBRANCH  11  12
ENDBRANCH  10  11
ENDBRANCH   9  10
ENDBRANCH   8   9
ENDBRANCH   7   8
ENDBRANCH   6   7
ENDBRANCH   5   6
ENDBRANCH   4   5
ENDBRANCH   3   4
ENDBRANCH   2   3
ENDBRANCH   1   2
BRANCH   1  18
ATOM     18  C   UNL     1      83.530  15.116 106.339  1.00  0.00     0.000 C 
BRANCH  18  19
ATOM     19  C   UNL     1      84.682  15.950 106.931  1.00  0.00     0.000 C 
BRANCH  19  20
ATOM     20  C   UNL     1      84.265  16.993 107.986  1.00  0.00     0.000 C 
BRANCH  20  21
ATOM     21  C   UNL     1      84.606  18.435 107.569  1.00  0.00     0.000 C 
BRANCH  21  22
ATOM     22  C   UNL     1      85.650  19.087 108.489  1.00  0.00     0.000 C 
BRANCH  22  23
ATOM     23  C   UNL     1      85.662  20.624 108.383  1.00  0.00     0.000 C 
BRANCH  23  24
ATOM     24  C   UNL     1      86.999  21.226 108.842  1.00  0.00    -0.000 C 
BRANCH  24  25
ATOM     25  C   UNL     1      87.332  20.867 110.301  1.00  0.00    -0.000 C 
BRANCH  25  26
ATOM     26  C   UNL     1      88.145  21.960 111.016  1.00  0.00    -0.000 C 
BRANCH  26  27
ATOM     27  C   UNL     1      88.963  21.479 112.235  1.00  0.00    -0.000 C 
BRANCH  27  28
ATOM     28  C   UNL     1      90.070  22.442 112.701  1.00  0.00    -0.000 C 
BRANCH  28  29
ATOM     29  C   UNL     1      91.198  21.729 113.466  1.00  0.00    -0.000 C 
BRANCH  29  30
ATOM     30  C   UNL     1      91.505  20.338 112.888  1.00  0.00    -0.000 C 
BRANCH  30  31
ATOM     31  C   UNL     1      92.605  20.379 111.815  1.00  0.00    -0.003 C 
ATOM     32  C   UNL     1      93.522  19.163 111.919  1.00  0.00     0.004 C 
ENDBRANCH  30  31
ENDBRANCH  29  30
ENDBRANCH  28  29
ENDBRANCH  27  28
ENDBRANCH  26  27
ENDBRANCH  25  26
ENDBRANCH  24  25
ENDBRANCH  23  24
ENDBRANCH  22  23
ENDBRANCH  21  22
ENDBRANCH  20  21
ENDBRANCH  19  20
ENDBRANCH  18  19
ENDBRANCH   1  18
TORSDOF 28
ENDMDL
MODEL 7
REMARK VINA RESULT:    15.472      3.136     10.536
REMARK INTER + INTRA:          40.233
REMARK INTER:                  41.362
REMARK INTRA:                  -1.128
REMARK UNBOUND:                -0.565
REMARK SMILES CCCCCCCCCCCCCCCCCCCCCCCCCCCCCC(=O)[O-]
REMARK SMILES IDX 16 1 17 2 18 3 19 4 20 5 21 6 22 7 23 8 24 9 25 10 26 11
REMARK SMILES IDX 27 12 28 13 29 14 30 15 31 16 32 17 15 18 14 19 13 20 12 21
REMARK SMILES IDX 11 22 10 23 9 24 8 25 7 26 6 27 5 28 4 29 3 30 2 31 1 32
REMARK H PARENT
REMARK Flexibility Score: inf
ROOT
ATOM      1  C   UNL     1      83.020  15.338 106.947  1.00  0.00     0.000 C 
ENDROOT
BRANCH   1   2
ATOM      2  C   UNL     1      83.244  13.817 106.855  1.00  0.00     0.000 C 
BRANCH   2   3
ATOM      3  C   UNL     1      82.994  13.037 108.158  1.00  0.00     0.000 C 
BRANCH   3   4
ATOM      4  C   UNL     1      83.221  13.886 109.420  1.00  0.00     0.000 C 
BRANCH   4   5
ATOM      5  C   UNL     1      84.710  14.037 109.770  1.00  0.00     0.000 C 
BRANCH   5   6
ATOM      6  C   UNL     1      85.625  13.268 108.800  1.00  0.00     0.000 C 
BRANCH   6   7
ATOM      7  C   UNL     1      86.566  14.193 108.012  1.00  0.00     0.000 C 
BRANCH   7   8
ATOM      8  C   UNL     1      87.092  13.547 106.719  1.00  0.00     0.000 C 
BRANCH   8   9
ATOM      9  C   UNL     1      88.624  13.683 106.583  1.00  0.00     0.000 C 
BRANCH   9  10
ATOM     10  C   UNL     1      89.282  12.541 105.789  1.00  0.00     0.000 C 
BRANCH  10  11
ATOM     11  C   UNL     1      89.134  11.174 106.474  1.00  0.00     0.000 C 
BRANCH  11  12
ATOM     12  C   UNL     1      90.304  10.218 106.176  1.00  0.00     0.000 C 
BRANCH  12  13
ATOM     13  C   UNL     1      89.905   8.839 105.610  1.00  0.00     0.006 C 
BRANCH  13  14
ATOM     14  C   UNL     1      90.084   7.667 106.588  1.00  0.00     0.053 C 
BRANCH  14  15
ATOM     15  C   UNL     1      90.980   8.025 107.735  1.00  0.00     0.041 C 
ATOM     16  O   UNL     1      92.200   7.715 107.708  1.00  0.00    -0.550 OA
ATOM     17  O   UNL     1      90.460   8.671 108.848  1.00  0.00    -0.550 OA
ENDBRANCH  14  15
ENDBRANCH  13  14
ENDBRANCH  12  13
ENDBRANCH  11  12
ENDBRANCH  10  11
ENDBRANCH   9  10
ENDBRANCH   8   9
ENDBRANCH   7   8
ENDBRANCH   6   7
ENDBRANCH   5   6
ENDBRANCH   4   5
ENDBRANCH   3   4
ENDBRANCH   2   3
ENDBRANCH   1   2
BRANCH   1  18
ATOM     18  C   UNL     1      84.331  16.132 107.078  1.00  0.00     0.000 C 
BRANCH  18  19
ATOM     19  C   UNL     1      84.220  17.315 108.058  1.00  0.00     0.000 C 
BRANCH  19  20
ATOM     20  C   UNL     1      85.004  18.579 107.657  1.00  0.00     0.000 C 
BRANCH  20  21
ATOM     21  C   UNL     1      86.266  18.796 108.509  1.00  0.00     0.000 C 
BRANCH  21  22
ATOM     22  C   UNL     1      86.545  20.281 108.790  1.00  0.00     0.000 C 
BRANCH  22  23
ATOM     23  C   UNL     1      86.790  20.571 110.283  1.00  0.00     0.000 C 
BRANCH  23  24
ATOM     24  C   UNL     1      88.152  21.239 110.528  1.00  0.00    -0.000 C 
BRANCH  24  25
ATOM     25  C   UNL     1      88.136  22.168 111.754  1.00  0.00    -0.000 C 
BRANCH  25  26
ATOM     26  C   UNL     1      89.288  23.188 111.748  1.00  0.00    -0.000 C 
BRANCH  26  27
ATOM     27  C   UNL     1      90.461  22.860 112.698  1.00  0.00    -0.000 C 
BRANCH  27  28
ATOM     28  C   UNL     1      90.182  21.742 113.720  1.00  0.00    -0.000 C 
BRANCH  28  29
ATOM     29  C   UNL     1      90.845  20.408 113.341  1.00  0.00    -0.000 C 
BRANCH  29  30
ATOM     30  C   UNL     1      91.694  20.520 112.065  1.00  0.00    -0.000 C 
BRANCH  30  31
ATOM     31  C   UNL     1      93.109  19.950 112.250  1.00  0.00    -0.003 C 
ATOM     32  C   UNL     1      93.686  19.466 110.922  1.00  0.00     0.004 C 
ENDBRANCH  30  31
ENDBRANCH  29  30
ENDBRANCH  28  29
ENDBRANCH  27  28
ENDBRANCH  26  27
ENDBRANCH  25  26
ENDBRANCH  24  25
ENDBRANCH  23  24
ENDBRANCH  22  23
ENDBRANCH  21  22
ENDBRANCH  20  21
ENDBRANCH  19  20
ENDBRANCH  18  19
ENDBRANCH   1  18
TORSDOF 28
ENDMDL
