MODEL 1
REMARK VINA RESULT:    -5.239      0.000      0.000
REMARK INTER + INTRA:          -8.946
REMARK INTER:                  -8.302
REMARK INTRA:                  -0.644
REMARK UNBOUND:                -0.644
REMARK SMILES CCCCCCCCCCCC(=O)[O-]
REMARK SMILES IDX 7 1 8 2 9 3 10 4 11 5 12 6 13 7 14 8 6 9 5 10 4 11 3 12 2 13
REMARK SMILES IDX 1 14
REMARK H PARENT
REMARK Flexibility Score: inf
ROOT
ATOM      1  C   UNL     1      22.105  11.632  10.017  1.00  0.00     0.000 C 
ENDROOT
BRANCH   1   2
ATOM      2  C   UNL     1      22.004  13.159  10.162  1.00  0.00     0.000 C 
BRANCH   2   3
ATOM      3  C   UNL     1      22.700  13.909   9.013  1.00  0.00     0.000 C 
BRANCH   3   4
ATOM      4  C   UNL     1      23.911  13.142   8.449  1.00  0.00     0.006 C 
BRANCH   4   5
ATOM      5  C   UNL     1      25.246  13.892   8.576  1.00  0.00     0.053 C 
BRANCH   5   6
ATOM      6  C   UNL     1      26.065  13.394   9.728  1.00  0.00     0.041 C 
ATOM      7  O   UNL     1      27.297  13.646   9.786  1.00  0.00    -0.550 OA
ATOM      8  O   UNL     1      25.474  12.618  10.717  1.00  0.00    -0.550 OA
ENDBRANCH   5   6
ENDBRANCH   4   5
ENDBRANCH   3   4
ENDBRANCH   2   3
ENDBRANCH   1   2
BRANCH   1   9
ATOM      9  C   UNL     1      21.424  10.884  11.173  1.00  0.00     0.000 C 
BRANCH   9  10
ATOM     10  C   UNL     1      22.421   9.970  11.902  1.00  0.00    -0.000 C 
BRANCH  10  11
ATOM     11  C   UNL     1      21.838   9.393  13.210  1.00  0.00    -0.000 C 
BRANCH  11  12
ATOM     12  C   UNL     1      20.970   8.137  13.002  1.00  0.00    -0.000 C 
BRANCH  12  13
ATOM     13  C   UNL     1      19.548   8.234  13.580  1.00  0.00    -0.003 C 
ATOM     14  C   UNL     1      19.091   9.676  13.795  1.00  0.00     0.004 C 
ENDBRANCH  12  13
ENDBRANCH  11  12
ENDBRANCH  10  11
ENDBRANCH   9  10
ENDBRANCH   1   9
TORSDOF 10
ENDMDL
MODEL 2
REMARK VINA RESULT:    -5.215      2.268      3.166
REMARK INTER + INTRA:          -8.908
REMARK INTER:                  -8.128
REMARK INTRA:                  -0.780
REMARK UNBOUND:                -0.644
REMARK SMILES CCCCCCCCCCCC(=O)[O-]
REMARK SMILES IDX 7 1 8 2 9 3 10 4 11 5 12 6 13 7 14 8 6 9 5 10 4 11 3 12 2 13
REMARK SMILES IDX 1 14
REMARK H PARENT
REMARK Flexibility Score: inf
ROOT
ATOM      1  C   UNL     1      23.838  10.855  13.181  1.00  0.00     0.000 C 
ENDROOT
BRANCH   1   2
ATOM      2  C   UNL     1      25.276  11.321  12.905  1.00  0.00     0.000 C 
BRANCH   2   3
ATOM      3  C   UNL     1      25.365  12.291  11.714  1.00  0.00     0.000 C 
BRANCH   3   4
ATOM      4  C   UNL     1      23.985  12.646  11.131  1.00  0.00     0.006 C 
BRANCH   4   5
ATOM      5  C   UNL     1      24.016  13.081   9.657  1.00  0.00     0.053 C 
BRANCH   5   6
ATOM      6  C   UNL     1      22.689  13.600   9.195  1.00  0.00     0.041 C 
ATOM      7  O   UNL     1      22.358  13.506   7.984  1.00  0.00    -0.550 OA
ATOM      8  O   UNL     1      21.833  14.222  10.096  1.00  0.00    -0.550 OA
ENDBRANCH   5   6
ENDBRANCH   4   5
ENDBRANCH   3   4
ENDBRANCH   2   3
ENDBRANCH   1   2
BRANCH   1   9
ATOM      9  C   UNL     1      23.741   9.338  13.397  1.00  0.00     0.000 C 
BRANCH   9  10
ATOM     10  C   UNL     1      22.627   8.728  12.533  1.00  0.00    -0.000 C 
BRANCH  10  11
ATOM     11  C   UNL     1      21.597   9.783  12.072  1.00  0.00    -0.000 C 
BRANCH  11  12
ATOM     12  C   UNL     1      20.275   9.747  12.863  1.00  0.00    -0.000 C 
BRANCH  12  13
ATOM     13  C   UNL     1      19.952   8.392  13.515  1.00  0.00    -0.003 C 
ATOM     14  C   UNL     1      19.030   8.521  14.727  1.00  0.00     0.004 C 
ENDBRANCH  12  13
ENDBRANCH  11  12
ENDBRANCH  10  11
ENDBRANCH   9  10
ENDBRANCH   1   9
TORSDOF 10
ENDMDL
MODEL 3
REMARK VINA RESULT:    -5.074      1.371      1.709
REMARK INTER + INTRA:          -8.684
REMARK INTER:                  -8.280
REMARK INTRA:                  -0.404
REMARK UNBOUND:                -0.644
REMARK SMILES CCCCCCCCCCCC(=O)[O-]
REMARK SMILES IDX 7 1 8 2 9 3 10 4 11 5 12 6 13 7 14 8 6 9 5 10 4 11 3 12 2 13
REMARK SMILES IDX 1 14
REMARK H PARENT
REMARK Flexibility Score: inf
ROOT
ATOM      1  C   UNL     1      22.566  12.159  10.782  1.00  0.00     0.000 C 
ENDROOT
BRANCH   1   2
ATOM      2  C   UNL     1      22.486  13.294   9.749  1.00  0.00     0.000 C 
BRANCH   2   3
ATOM      3  C   UNL     1      23.451  13.087   8.568  1.00  0.00     0.000 C 
BRANCH   3   4
ATOM      4  C   UNL     1      24.909  13.429   8.925  1.00  0.00     0.006 C 
BRANCH   4   5
ATOM      5  C   UNL     1      25.714  14.043   7.768  1.00  0.00     0.053 C 
BRANCH   5   6
ATOM      6  C   UNL     1      26.402  15.311   8.172  1.00  0.00     0.041 C 
ATOM      7  O   UNL     1      27.429  15.270   8.899  1.00  0.00    -0.550 OA
ATOM      8  O   UNL     1      25.886  16.539   7.777  1.00  0.00    -0.550 OA
ENDBRANCH   5   6
ENDBRANCH   4   5
ENDBRANCH   3   4
ENDBRANCH   2   3
ENDBRANCH   1   2
BRANCH   1   9
ATOM      9  C   UNL     1      21.361  11.210  10.711  1.00  0.00     0.000 C 
BRANCH   9  10
ATOM     10  C   UNL     1      21.760   9.780  11.105  1.00  0.00    -0.000 C 
BRANCH  10  11
ATOM     11  C   UNL     1      21.661   9.542  12.627  1.00  0.00    -0.000 C 
BRANCH  11  12
ATOM     12  C   UNL     1      21.035   8.186  13.005  1.00  0.00    -0.000 C 
BRANCH  12  13
ATOM     13  C   UNL     1      19.712   8.282  13.784  1.00  0.00    -0.003 C 
ATOM     14  C   UNL     1      19.082   9.673  13.715  1.00  0.00     0.004 C 
ENDBRANCH  12  13
ENDBRANCH  11  12
ENDBRANCH  10  11
ENDBRANCH   9  10
ENDBRANCH   1   9
TORSDOF 10
ENDMDL
MODEL 4
REMARK VINA RESULT:    -5.007      1.945      2.769
REMARK INTER + INTRA:          -8.578
REMARK INTER:                  -8.033
REMARK INTRA:                  -0.545
REMARK UNBOUND:                -0.644
REMARK SMILES CCCCCCCCCCCC(=O)[O-]
REMARK SMILES IDX 7 1 8 2 9 3 10 4 11 5 12 6 13 7 14 8 6 9 5 10 4 11 3 12 2 13
REMARK SMILES IDX 1 14
REMARK H PARENT
REMARK Flexibility Score: inf
ROOT
ATOM      1  C   UNL     1      24.039  11.347  12.758  1.00  0.00     0.000 C 
ENDROOT
BRANCH   1   2
ATOM      2  C   UNL     1      25.553  11.420  13.011  1.00  0.00     0.000 C 
BRANCH   2   3
ATOM      3  C   UNL     1      26.313  12.100  11.860  1.00  0.00     0.000 C 
BRANCH   3   4
ATOM      4  C   UNL     1      25.373  12.743  10.824  1.00  0.00     0.006 C 
BRANCH   4   5
ATOM      5  C   UNL     1      26.083  13.254   9.560  1.00  0.00     0.053 C 
BRANCH   5   6
ATOM      6  C   UNL     1      25.123  13.855   8.579  1.00  0.00     0.041 C 
ATOM      7  O   UNL     1      25.354  14.986   8.077  1.00  0.00    -0.550 OA
ATOM      8  O   UNL     1      23.953  13.182   8.249  1.00  0.00    -0.550 OA
ENDBRANCH   5   6
ENDBRANCH   4   5
ENDBRANCH   3   4
ENDBRANCH   2   3
ENDBRANCH   1   2
BRANCH   1   9
ATOM      9  C   UNL     1      23.404  10.078  13.343  1.00  0.00     0.000 C 
BRANCH   9  10
ATOM     10  C   UNL     1      22.736   9.238  12.244  1.00  0.00    -0.000 C 
BRANCH  10  11
ATOM     11  C   UNL     1      21.388   9.836  11.786  1.00  0.00    -0.000 C 
BRANCH  11  12
ATOM     12  C   UNL     1      20.301   9.827  12.879  1.00  0.00    -0.000 C 
BRANCH  12  13
ATOM     13  C   UNL     1      19.983   8.439  13.459  1.00  0.00    -0.003 C 
ATOM     14  C   UNL     1      19.109   8.504  14.711  1.00  0.00     0.004 C 
ENDBRANCH  12  13
ENDBRANCH  11  12
ENDBRANCH  10  11
ENDBRANCH   9  10
ENDBRANCH   1   9
TORSDOF 10
ENDMDL
MODEL 5
REMARK VINA RESULT:    -4.953      1.949      2.360
REMARK INTER + INTRA:          -8.492
REMARK INTER:                  -7.546
REMARK INTRA:                  -0.947
REMARK UNBOUND:                -0.644
REMARK SMILES CCCCCCCCCCCC(=O)[O-]
REMARK SMILES IDX 7 1 8 2 9 3 10 4 11 5 12 6 13 7 14 8 6 9 5 10 4 11 3 12 2 13
REMARK SMILES IDX 1 14
REMARK H PARENT
REMARK Flexibility Score: inf
ROOT
ATOM      1  C   UNL     1      21.455  11.592  10.860  1.00  0.00     0.000 C 
ENDROOT
BRANCH   1   2
ATOM      2  C   UNL     1      22.527  12.195   9.938  1.00  0.00     0.000 C 
BRANCH   2   3
ATOM      3  C   UNL     1      23.499  13.122  10.689  1.00  0.00     0.000 C 
BRANCH   3   4
ATOM      4  C   UNL     1      24.816  12.422  11.068  1.00  0.00     0.006 C 
BRANCH   4   5
ATOM      5  C   UNL     1      24.919  12.031  12.551  1.00  0.00     0.053 C 
BRANCH   5   6
ATOM      6  C   UNL     1      26.341  11.976  13.021  1.00  0.00     0.041 C 
ATOM      7  O   UNL     1      26.602  11.678  14.216  1.00  0.00    -0.550 OA
ATOM      8  O   UNL     1      27.375  12.290  12.148  1.00  0.00    -0.550 OA
ENDBRANCH   5   6
ENDBRANCH   4   5
ENDBRANCH   3   4
ENDBRANCH   2   3
ENDBRANCH   1   2
BRANCH   1   9
ATOM      9  C   UNL     1      21.448  10.057  10.831  1.00  0.00     0.000 C 
BRANCH   9  10
ATOM     10  C   UNL     1      22.504   9.482  11.786  1.00  0.00    -0.000 C 
BRANCH  10  11
ATOM     11  C   UNL     1      21.909   9.103  13.159  1.00  0.00    -0.000 C 
BRANCH  11  12
ATOM     12  C   UNL     1      20.851   7.985  13.090  1.00  0.00    -0.000 C 
BRANCH  12  13
ATOM     13  C   UNL     1      19.557   8.275  13.869  1.00  0.00    -0.003 C 
ATOM     14  C   UNL     1      19.100   9.728  13.742  1.00  0.00     0.004 C 
ENDBRANCH  12  13
ENDBRANCH  11  12
ENDBRANCH  10  11
ENDBRANCH   9  10
ENDBRANCH   1   9
TORSDOF 10
ENDMDL
MODEL 6
REMARK VINA RESULT:    -4.926      3.375      7.420
REMARK INTER + INTRA:          -8.450
REMARK INTER:                  -8.038
REMARK INTRA:                  -0.412
REMARK UNBOUND:                -0.644
REMARK SMILES CCCCCCCCCCCC(=O)[O-]
REMARK SMILES IDX 7 1 8 2 9 3 10 4 11 5 12 6 13 7 14 8 6 9 5 10 4 11 3 12 2 13
REMARK SMILES IDX 1 14
REMARK H PARENT
REMARK Flexibility Score: inf
ROOT
ATOM      1  C   UNL     1      22.500  11.984  10.929  1.00  0.00     0.000 C 
ENDROOT
BRANCH   1   2
ATOM      2  C   UNL     1      21.379  10.933  10.909  1.00  0.00     0.000 C 
BRANCH   2   3
ATOM      3  C   UNL     1      21.871   9.536  11.328  1.00  0.00     0.000 C 
BRANCH   3   4
ATOM      4  C   UNL     1      21.734   9.286  12.841  1.00  0.00     0.006 C 
BRANCH   4   5
ATOM      5  C   UNL     1      20.667   8.244  13.214  1.00  0.00     0.053 C 
BRANCH   5   6
ATOM      6  C   UNL     1      19.519   8.855  13.958  1.00  0.00     0.041 C 
ATOM      7  O   UNL     1      18.988   8.241  14.920  1.00  0.00    -0.550 OA
ATOM      8  O   UNL     1      19.011  10.087  13.564  1.00  0.00    -0.550 OA
ENDBRANCH   5   6
ENDBRANCH   4   5
ENDBRANCH   3   4
ENDBRANCH   2   3
ENDBRANCH   1   2
BRANCH   1   9
ATOM      9  C   UNL     1      22.235  13.147   9.963  1.00  0.00     0.000 C 
BRANCH   9  10
ATOM     10  C   UNL     1      23.192  13.097   8.762  1.00  0.00    -0.000 C 
BRANCH  10  11
ATOM     11  C   UNL     1      24.656  13.375   9.169  1.00  0.00    -0.000 C 
BRANCH  11  12
ATOM     12  C   UNL     1      25.563  13.774   7.989  1.00  0.00    -0.000 C 
BRANCH  12  13
ATOM     13  C   UNL     1      27.024  14.069   8.370  1.00  0.00    -0.003 C 
ATOM     14  C   UNL     1      27.294  13.895   9.865  1.00  0.00     0.004 C 
ENDBRANCH  12  13
ENDBRANCH  11  12
ENDBRANCH  10  11
ENDBRANCH   9  10
ENDBRANCH   1   9
TORSDOF 10
ENDMDL
MODEL 7
REMARK VINA RESULT:    -4.841      2.100      5.552
REMARK INTER + INTRA:          -8.315
REMARK INTER:                  -7.478
REMARK INTRA:                  -0.837
REMARK UNBOUND:                -0.644
REMARK SMILES CCCCCCCCCCCC(=O)[O-]
REMARK SMILES IDX 7 1 8 2 9 3 10 4 11 5 12 6 13 7 14 8 6 9 5 10 4 11 3 12 2 13
REMARK SMILES IDX 1 14
REMARK H PARENT
REMARK Flexibility Score: inf
ROOT
ATOM      1  C   UNL     1      20.700  10.487  11.777  1.00  0.00     0.000 C 
ENDROOT
BRANCH   1   2
ATOM      2  C   UNL     1      21.316   9.626  12.891  1.00  0.00     0.000 C 
BRANCH   2   3
ATOM      3  C   UNL     1      22.730   9.130  12.540  1.00  0.00     0.000 C 
BRANCH   3   4
ATOM      4  C   UNL     1      23.805   9.669  13.501  1.00  0.00     0.006 C 
BRANCH   4   5
ATOM      5  C   UNL     1      24.503  10.948  13.013  1.00  0.00     0.053 C 
BRANCH   5   6
ATOM      6  C   UNL     1      25.863  11.114  13.620  1.00  0.00     0.041 C 
ATOM      7  O   UNL     1      26.578  10.106  13.859  1.00  0.00    -0.550 OA
ATOM      8  O   UNL     1      26.324  12.381  13.958  1.00  0.00    -0.550 OA
ENDBRANCH   5   6
ENDBRANCH   4   5
ENDBRANCH   3   4
ENDBRANCH   2   3
ENDBRANCH   1   2
BRANCH   1   9
ATOM      9  C   UNL     1      21.636  10.651  10.572  1.00  0.00     0.000 C 
BRANCH   9  10
ATOM     10  C   UNL     1      22.012  12.125  10.361  1.00  0.00    -0.000 C 
BRANCH  10  11
ATOM     11  C   UNL     1      22.661  12.373   8.981  1.00  0.00    -0.000 C 
BRANCH  11  12
ATOM     12  C   UNL     1      23.343  13.749   8.854  1.00  0.00    -0.000 C 
BRANCH  12  13
ATOM     13  C   UNL     1      24.868  13.697   8.666  1.00  0.00    -0.003 C 
ATOM     14  C   UNL     1      25.603  13.195   9.908  1.00  0.00     0.004 C 
ENDBRANCH  12  13
ENDBRANCH  11  12
ENDBRANCH  10  11
ENDBRANCH   9  10
ENDBRANCH   1   9
TORSDOF 10
ENDMDL
MODEL 8
REMARK VINA RESULT:    -4.805      2.246      3.453
REMARK INTER + INTRA:          -8.257
REMARK INTER:                  -7.331
REMARK INTRA:                  -0.926
REMARK UNBOUND:                -0.644
REMARK SMILES CCCCCCCCCCCC(=O)[O-]
REMARK SMILES IDX 7 1 8 2 9 3 10 4 11 5 12 6 13 7 14 8 6 9 5 10 4 11 3 12 2 13
REMARK SMILES IDX 1 14
REMARK H PARENT
REMARK Flexibility Score: inf
ROOT
ATOM      1  C   UNL     1      24.073  10.858  13.064  1.00  0.00     0.000 C 
ENDROOT
BRANCH   1   2
ATOM      2  C   UNL     1      25.510  11.384  12.921  1.00  0.00     0.000 C 
BRANCH   2   3
ATOM      3  C   UNL     1      25.690  12.285  11.687  1.00  0.00     0.000 C 
BRANCH   3   4
ATOM      4  C   UNL     1      24.351  12.784  11.114  1.00  0.00     0.006 C 
BRANCH   4   5
ATOM      5  C   UNL     1      24.422  13.233   9.646  1.00  0.00     0.053 C 
BRANCH   5   6
ATOM      6  C   UNL     1      23.061  13.398   9.042  1.00  0.00     0.041 C 
ATOM      7  O   UNL     1      22.817  12.939   7.894  1.00  0.00    -0.550 OA
ATOM      8  O   UNL     1      22.073  14.091   9.730  1.00  0.00    -0.550 OA
ENDBRANCH   5   6
ENDBRANCH   4   5
ENDBRANCH   3   4
ENDBRANCH   2   3
ENDBRANCH   1   2
BRANCH   1   9
ATOM      9  C   UNL     1      24.023   9.398  13.536  1.00  0.00     0.000 C 
BRANCH   9  10
ATOM     10  C   UNL     1      22.756   8.695  13.026  1.00  0.00    -0.000 C 
BRANCH  10  11
ATOM     11  C   UNL     1      21.466   9.349  13.567  1.00  0.00    -0.000 C 
BRANCH  11  12
ATOM     12  C   UNL     1      20.471   9.762  12.465  1.00  0.00    -0.000 C 
BRANCH  12  13
ATOM     13  C   UNL     1      21.003  10.816  11.479  1.00  0.00    -0.003 C 
ATOM     14  C   UNL     1      21.474  10.209  10.158  1.00  0.00     0.004 C 
ENDBRANCH  12  13
ENDBRANCH  11  12
ENDBRANCH  10  11
ENDBRANCH   9  10
ENDBRANCH   1   9
TORSDOF 10
ENDMDL
MODEL 9
REMARK VINA RESULT:    -4.776      3.422      6.831
REMARK INTER + INTRA:          -8.211
REMARK INTER:                  -7.529
REMARK INTRA:                  -0.682
REMARK UNBOUND:                -0.644
REMARK SMILES CCCCCCCCCCCC(=O)[O-]
REMARK SMILES IDX 7 1 8 2 9 3 10 4 11 5 12 6 13 7 14 8 6 9 5 10 4 11 3 12 2 13
REMARK SMILES IDX 1 14
REMARK H PARENT
REMARK Flexibility Score: inf
ROOT
ATOM      1  C   UNL     1      24.508  11.439  13.036  1.00  0.00     0.000 C 
ENDROOT
BRANCH   1   2
ATOM      2  C   UNL     1      24.164   9.961  13.279  1.00  0.00     0.000 C 
BRANCH   2   3
ATOM      3  C   UNL     1      22.703   9.758  13.717  1.00  0.00     0.000 C 
BRANCH   3   4
ATOM      4  C   UNL     1      21.841   9.095  12.628  1.00  0.00     0.006 C 
BRANCH   4   5
ATOM      5  C   UNL     1      20.776   8.128  13.168  1.00  0.00     0.053 C 
BRANCH   5   6
ATOM      6  C   UNL     1      19.662   8.849  13.863  1.00  0.00     0.041 C 
ATOM      7  O   UNL     1      19.124   8.349  14.886  1.00  0.00    -0.550 OA
ATOM      8  O   UNL     1      19.191  10.054  13.357  1.00  0.00    -0.550 OA
ENDBRANCH   5   6
ENDBRANCH   4   5
ENDBRANCH   3   4
ENDBRANCH   2   3
ENDBRANCH   1   2
BRANCH   1   9
ATOM      9  C   UNL     1      25.956  11.637  12.564  1.00  0.00     0.000 C 
BRANCH   9  10
ATOM     10  C   UNL     1      26.002  12.393  11.228  1.00  0.00    -0.000 C 
BRANCH  10  11
ATOM     11  C   UNL     1      24.623  12.958  10.825  1.00  0.00    -0.000 C 
BRANCH  11  12
ATOM     12  C   UNL     1      24.455  13.165   9.307  1.00  0.00    -0.000 C 
BRANCH  12  13
ATOM     13  C   UNL     1      23.014  13.011   8.792  1.00  0.00    -0.003 C 
ATOM     14  C   UNL     1      22.140  12.165   9.716  1.00  0.00     0.004 C 
ENDBRANCH  12  13
ENDBRANCH  11  12
ENDBRANCH  10  11
ENDBRANCH   9  10
ENDBRANCH   1   9
TORSDOF 10
ENDMDL
