MODEL 1
REMARK VINA RESULT:    -3.965      0.000      0.000
REMARK INTER + INTRA:          -3.965
REMARK INTER:                  -3.965
REMARK INTRA:                   0.000
REMARK UNBOUND:                 0.000
REMARK SMILES C=C1CC[C@@H]2C[C@H]1C2(C)C
REMARK SMILES IDX 9 1 8 2 5 3 4 4 3 5 2 6 1 7 7 8 6 9 10 10
REMARK H PARENT
REMARK Flexibility Score: inf
ROOT
ATOM      1  C   UNL     1      10.875   8.559  17.892  1.00  0.00     0.012 C 
ATOM      2  C   UNL     1      11.738   7.276  17.822  1.00  0.00    -0.026 C 
ATOM      3  C   UNL     1      10.875   6.008  17.599  1.00  0.00    -0.004 C 
ATOM      4  C   UNL     1      11.682   4.713  17.931  1.00  0.00     0.008 C 
ATOM      5  C   UNL     1      13.077   4.665  17.199  1.00  0.00     0.031 C 
ATOM      6  C   UNL     1      13.396   5.975  16.464  1.00  0.00    -0.074 C 
ATOM      7  C   UNL     1      14.590   6.184  15.900  1.00  0.00     0.008 C 
ATOM      8  C   UNL     1      12.289   7.022  16.399  1.00  0.00     0.021 C 
ATOM      9  C   UNL     1      11.009   6.231  16.083  1.00  0.00     0.012 C 
ATOM     10  C   UNL     1      12.741   7.295  19.009  1.00  0.00     0.012 C 
ENDROOT
TORSDOF 0
ENDMDL
MODEL 2
REMARK VINA RESULT:    -3.925      1.116      3.298
REMARK INTER + INTRA:          -3.925
REMARK INTER:                  -3.925
REMARK INTRA:                   0.000
REMARK UNBOUND:                 0.000
REMARK SMILES C=C1CC[C@@H]2C[C@H]1C2(C)C
REMARK SMILES IDX 9 1 8 2 5 3 4 4 3 5 2 6 1 7 7 8 6 9 10 10
REMARK H PARENT
REMARK Flexibility Score: inf
ROOT
ATOM      1  C   UNL     1      13.790   5.227  16.119  1.00  0.00     0.012 C 
ATOM      2  C   UNL     1      12.954   6.410  16.664  1.00  0.00    -0.026 C 
ATOM      3  C   UNL     1      11.633   6.599  15.875  1.00  0.00    -0.004 C 
ATOM      4  C   UNL     1      11.008   8.003  16.153  1.00  0.00     0.008 C 
ATOM      5  C   UNL     1      10.875   8.312  17.693  1.00  0.00     0.031 C 
ATOM      6  C   UNL     1      11.543   7.238  18.564  1.00  0.00    -0.074 C 
ATOM      7  C   UNL     1      11.660   7.388  19.887  1.00  0.00     0.008 C 
ATOM      8  C   UNL     1      12.060   5.990  17.854  1.00  0.00     0.021 C 
ATOM      9  C   UNL     1      10.957   5.619  16.849  1.00  0.00     0.012 C 
ATOM     10  C   UNL     1      13.895   7.633  16.844  1.00  0.00     0.012 C 
ENDROOT
TORSDOF 0
ENDMDL
MODEL 3
REMARK VINA RESULT:    -3.715      1.188      2.876
REMARK INTER + INTRA:          -3.715
REMARK INTER:                  -3.715
REMARK INTRA:                   0.000
REMARK UNBOUND:                 0.000
REMARK SMILES C=C1CC[C@@H]2C[C@H]1C2(C)C
REMARK SMILES IDX 9 1 8 2 5 3 4 4 3 5 2 6 1 7 7 8 6 9 10 10
REMARK H PARENT
REMARK Flexibility Score: inf
ROOT
ATOM      1  C   UNL     1      13.025   4.140  18.964  1.00  0.00     0.012 C 
ATOM      2  C   UNL     1      12.700   5.165  17.850  1.00  0.00    -0.026 C 
ATOM      3  C   UNL     1      11.174   5.301  17.615  1.00  0.00    -0.004 C 
ATOM      4  C   UNL     1      10.876   6.006  16.253  1.00  0.00     0.008 C 
ATOM      5  C   UNL     1      11.664   7.361  16.088  1.00  0.00     0.031 C 
ATOM      6  C   UNL     1      12.671   7.593  17.225  1.00  0.00    -0.074 C 
ATOM      7  C   UNL     1      13.534   8.614  17.193  1.00  0.00     0.008 C 
ATOM      8  C   UNL     1      12.638   6.612  18.393  1.00  0.00     0.021 C 
ATOM      9  C   UNL     1      11.145   6.399  18.692  1.00  0.00     0.012 C 
ATOM     10  C   UNL     1      13.618   4.873  16.632  1.00  0.00     0.012 C 
ENDROOT
TORSDOF 0
ENDMDL
MODEL 4
REMARK VINA RESULT:    -3.708      1.142      2.435
REMARK INTER + INTRA:          -3.708
REMARK INTER:                  -3.708
REMARK INTRA:                   0.000
REMARK UNBOUND:                 0.000
REMARK SMILES C=C1CC[C@@H]2C[C@H]1C2(C)C
REMARK SMILES IDX 9 1 8 2 5 3 4 4 3 5 2 6 1 7 7 8 6 9 10 10
REMARK H PARENT
REMARK Flexibility Score: inf
ROOT
ATOM      1  C   UNL     1      11.869   6.256  20.367  1.00  0.00     0.012 C 
ATOM      2  C   UNL     1      12.250   6.444  18.878  1.00  0.00    -0.026 C 
ATOM      3  C   UNL     1      12.431   5.087  18.150  1.00  0.00    -0.004 C 
ATOM      4  C   UNL     1      13.193   5.272  16.800  1.00  0.00     0.008 C 
ATOM      5  C   UNL     1      12.558   6.395  15.895  1.00  0.00     0.031 C 
ATOM      6  C   UNL     1      11.442   7.165  16.617  1.00  0.00    -0.074 C 
ATOM      7  C   UNL     1      10.875   8.246  16.070  1.00  0.00     0.008 C 
ATOM      8  C   UNL     1      11.005   6.639  17.980  1.00  0.00     0.021 C 
ATOM      9  C   UNL     1      10.930   5.112  17.813  1.00  0.00     0.012 C 
ATOM     10  C   UNL     1      13.392   7.493  18.793  1.00  0.00     0.012 C 
ENDROOT
TORSDOF 0
ENDMDL
MODEL 5
REMARK VINA RESULT:    -3.694      1.499      3.443
REMARK INTER + INTRA:          -3.694
REMARK INTER:                  -3.694
REMARK INTRA:                   0.000
REMARK UNBOUND:                 0.000
REMARK SMILES C=C1CC[C@@H]2C[C@H]1C2(C)C
REMARK SMILES IDX 9 1 8 2 5 3 4 4 3 5 2 6 1 7 7 8 6 9 10 10
REMARK H PARENT
REMARK Flexibility Score: inf
ROOT
ATOM      1  C   UNL     1      15.891   5.993  16.542  1.00  0.00     0.012 C 
ATOM      2  C   UNL     1      14.536   5.327  16.887  1.00  0.00    -0.026 C 
ATOM      3  C   UNL     1      14.397   5.049  18.405  1.00  0.00    -0.004 C 
ATOM      4  C   UNL     1      13.242   4.036  18.687  1.00  0.00     0.008 C 
ATOM      5  C   UNL     1      11.889   4.452  17.994  1.00  0.00     0.031 C 
ATOM      6  C   UNL     1      12.057   5.663  17.064  1.00  0.00    -0.074 C 
ATOM      7  C   UNL     1      11.060   6.082  16.279  1.00  0.00     0.008 C 
ATOM      8  C   UNL     1      13.410   6.369  17.082  1.00  0.00     0.021 C 
ATOM      9  C   UNL     1      13.795   6.455  18.568  1.00  0.00     0.012 C 
ATOM     10  C   UNL     1      14.296   4.160  15.890  1.00  0.00     0.012 C 
ENDROOT
TORSDOF 0
ENDMDL
MODEL 6
REMARK VINA RESULT:    -3.689      1.125      2.283
REMARK INTER + INTRA:          -3.689
REMARK INTER:                  -3.689
REMARK INTRA:                   0.000
REMARK UNBOUND:                 0.000
REMARK SMILES C=C1CC[C@@H]2C[C@H]1C2(C)C
REMARK SMILES IDX 9 1 8 2 5 3 4 4 3 5 2 6 1 7 7 8 6 9 10 10
REMARK H PARENT
REMARK Flexibility Score: inf
ROOT
ATOM      1  C   UNL     1      12.041   5.686  20.335  1.00  0.00     0.012 C 
ATOM      2  C   UNL     1      12.174   5.752  18.794  1.00  0.00    -0.026 C 
ATOM      3  C   UNL     1      10.916   6.367  18.129  1.00  0.00    -0.004 C 
ATOM      4  C   UNL     1      10.883   6.063  16.598  1.00  0.00     0.008 C 
ATOM      5  C   UNL     1      12.231   6.446  15.876  1.00  0.00     0.031 C 
ATOM      6  C   UNL     1      13.325   6.872  16.867  1.00  0.00    -0.074 C 
ATOM      7  C   UNL     1      14.579   7.100  16.465  1.00  0.00     0.008 C 
ATOM      8  C   UNL     1      12.914   7.029  18.328  1.00  0.00     0.021 C 
ATOM      9  C   UNL     1      11.560   7.756  18.286  1.00  0.00     0.012 C 
ATOM     10  C   UNL     1      12.686   4.376  18.286  1.00  0.00     0.012 C 
ENDROOT
TORSDOF 0
ENDMDL
MODEL 7
REMARK VINA RESULT:    -3.600      1.182      2.631
REMARK INTER + INTRA:          -3.600
REMARK INTER:                  -3.600
REMARK INTRA:                   0.000
REMARK UNBOUND:                 0.000
REMARK SMILES C=C1CC[C@@H]2C[C@H]1C2(C)C
REMARK SMILES IDX 9 1 8 2 5 3 4 4 3 5 2 6 1 7 7 8 6 9 10 10
REMARK H PARENT
REMARK Flexibility Score: inf
ROOT
ATOM      1  C   UNL     1      13.694   8.935  18.528  1.00  0.00     0.012 C 
ATOM      2  C   UNL     1      12.591   8.014  17.952  1.00  0.00    -0.026 C 
ATOM      3  C   UNL     1      12.462   8.154  16.414  1.00  0.00    -0.004 C 
ATOM      4  C   UNL     1      11.116   7.549  15.905  1.00  0.00     0.008 C 
ATOM      5  C   UNL     1      10.875   6.082  16.428  1.00  0.00     0.031 C 
ATOM      6  C   UNL     1      11.933   5.646  17.453  1.00  0.00    -0.074 C 
ATOM      7  C   UNL     1      11.826   4.491  18.117  1.00  0.00     0.008 C 
ATOM      8  C   UNL     1      13.115   6.586  17.672  1.00  0.00     0.021 C 
ATOM      9  C   UNL     1      13.523   7.049  16.264  1.00  0.00     0.012 C 
ATOM     10  C   UNL     1      11.315   8.173  18.824  1.00  0.00     0.012 C 
ENDROOT
TORSDOF 0
ENDMDL
MODEL 8
REMARK VINA RESULT:    -3.488      1.887      3.862
REMARK INTER + INTRA:          -3.488
REMARK INTER:                  -3.488
REMARK INTRA:                   0.000
REMARK UNBOUND:                 0.000
REMARK SMILES C=C1CC[C@@H]2C[C@H]1C2(C)C
REMARK SMILES IDX 9 1 8 2 5 3 4 4 3 5 2 6 1 7 7 8 6 9 10 10
REMARK H PARENT
REMARK Flexibility Score: inf
ROOT
ATOM      1  C   UNL     1      16.892   5.683  16.701  1.00  0.00     0.012 C 
ATOM      2  C   UNL     1      15.399   5.693  17.111  1.00  0.00    -0.026 C 
ATOM      3  C   UNL     1      14.459   5.642  15.880  1.00  0.00    -0.004 C 
ATOM      4  C   UNL     1      13.003   6.056  16.266  1.00  0.00     0.008 C 
ATOM      5  C   UNL     1      12.458   5.258  17.511  1.00  0.00     0.031 C 
ATOM      6  C   UNL     1      13.538   4.381  18.162  1.00  0.00    -0.074 C 
ATOM      7  C   UNL     1      13.313   3.736  19.311  1.00  0.00     0.008 C 
ATOM      8  C   UNL     1      14.876   4.274  17.436  1.00  0.00     0.021 C 
ATOM      9  C   UNL     1      14.512   4.107  15.952  1.00  0.00     0.012 C 
ATOM     10  C   UNL     1      15.187   6.816  18.164  1.00  0.00     0.012 C 
ENDROOT
TORSDOF 0
ENDMDL
