MODEL 1
REMARK VINA RESULT:    -0.466      0.000      0.000
REMARK INTER + INTRA:          -0.899
REMARK INTER:                  -0.562
REMARK INTRA:                  -0.337
REMARK UNBOUND:                -0.337
REMARK SMILES Oc1cc(O)c2cc(O)c(-c3ccc(O)c(O)c3)[o+]c2c1
REMARK SMILES IDX 10 1 19 2 20 3 21 4 2 5 3 6 4 7 6 8 7 9 8 10 11 11 12 12
REMARK SMILES IDX 13 13 14 14 18 15 16 16 15 17 17 19 9 21 1 23 5 25
REMARK H PARENT 15 18 17 20 9 22 1 24 5 26
REMARK Flexibility Score: inf
ROOT
ATOM      1  C   UNL     1      13.211  -9.979 -27.973  1.00  0.00     0.402 A 
ATOM      2  O   UNL     1      12.210 -10.556 -28.634  1.00  0.00    -0.202 OA
ATOM      3  C   UNL     1      11.784 -11.790 -28.382  1.00  0.00     0.368 A 
ATOM      4  C   UNL     1      10.727 -12.310 -29.132  1.00  0.00     0.162 A 
ATOM      5  C   UNL     1      10.260 -13.606 -28.889  1.00  0.00     0.128 A 
ATOM      6  C   UNL     1      10.854 -14.383 -27.893  1.00  0.00     0.093 A 
ATOM      7  C   UNL     1      11.916 -13.885 -27.127  1.00  0.00     0.136 A 
ATOM      8  C   UNL     1      12.390 -12.569 -27.367  1.00  0.00     0.125 A 
ATOM      9  C   UNL     1      13.440 -11.982 -26.640  1.00  0.00     0.078 A 
ATOM     10  C   UNL     1      13.850 -10.678 -26.932  1.00  0.00     0.223 A 
ENDROOT
BRANCH   1  11
ATOM     11  C   UNL     1      13.600  -8.603 -28.353  1.00  0.00     0.087 A 
ATOM     12  C   UNL     1      12.812  -7.521 -27.931  1.00  0.00     0.022 A 
ATOM     13  C   UNL     1      13.150  -6.215 -28.295  1.00  0.00     0.051 A 
ATOM     14  C   UNL     1      14.266  -5.971 -29.099  1.00  0.00     0.157 A 
ATOM     15  C   UNL     1      14.712  -8.357 -29.180  1.00  0.00     0.068 A 
ATOM     16  C   UNL     1      15.050  -7.046 -29.548  1.00  0.00     0.158 A 
BRANCH  14  17
ATOM     17  O   UNL     1      14.579  -4.656 -29.444  1.00  0.00    -0.504 OA
ATOM     18  H   UNL     1      15.335  -4.433 -30.080  1.00  0.00     0.293 HD
ENDBRANCH  14  17
BRANCH  16  19
ATOM     19  O   UNL     1      16.157  -6.811 -30.362  1.00  0.00    -0.504 OA
ATOM     20  H   UNL     1      17.102  -6.974 -30.033  1.00  0.00     0.293 HD
ENDBRANCH  16  19
ENDBRANCH   1  11
BRANCH  10  21
ATOM     21  O   UNL     1      14.858 -10.077 -26.177  1.00  0.00    -0.500 OA
ATOM     22  H   UNL     1      15.771  -9.881 -26.568  1.00  0.00     0.294 HD
ENDBRANCH  10  21
BRANCH   5  23
ATOM     23  O   UNL     1       9.207 -14.132 -29.635  1.00  0.00    -0.507 OA
ATOM     24  H   UNL     1       8.289 -14.269 -29.231  1.00  0.00     0.293 HD
ENDBRANCH   5  23
BRANCH   7  25
ATOM     25  O   UNL     1      12.457 -14.727 -26.152  1.00  0.00    -0.507 OA
ATOM     26  H   UNL     1      12.731 -15.686 -26.314  1.00  0.00     0.293 HD
ENDBRANCH   7  25
TORSDOF 6
ENDMDL
MODEL 2
REMARK VINA RESULT:     0.590      1.823      2.793
REMARK INTER + INTRA:           0.374
REMARK INTER:                   0.480
REMARK INTRA:                  -0.106
REMARK UNBOUND:                -0.337
REMARK SMILES Oc1cc(O)c2cc(O)c(-c3ccc(O)c(O)c3)[o+]c2c1
REMARK SMILES IDX 10 1 19 2 20 3 21 4 2 5 3 6 4 7 6 8 7 9 8 10 11 11 12 12
REMARK SMILES IDX 13 13 14 14 18 15 16 16 15 17 17 19 9 21 1 23 5 25
REMARK H PARENT 15 18 17 20 9 22 1 24 5 26
REMARK Flexibility Score: inf
ROOT
ATOM      1  C   UNL     1      12.470  -9.961 -27.831  1.00  0.00     0.402 A 
ATOM      2  O   UNL     1      12.233 -10.132 -26.533  1.00  0.00    -0.202 OA
ATOM      3  C   UNL     1      11.696 -11.238 -26.028  1.00  0.00     0.368 A 
ATOM      4  C   UNL     1      11.482 -11.322 -24.650  1.00  0.00     0.162 A 
ATOM      5  C   UNL     1      10.917 -12.473 -24.093  1.00  0.00     0.128 A 
ATOM      6  C   UNL     1      10.563 -13.543 -24.918  1.00  0.00     0.093 A 
ATOM      7  C   UNL     1      10.766 -13.484 -26.303  1.00  0.00     0.136 A 
ATOM      8  C   UNL     1      11.343 -12.319 -26.872  1.00  0.00     0.125 A 
ATOM      9  C   UNL     1      11.596 -12.176 -28.247  1.00  0.00     0.078 A 
ATOM     10  C   UNL     1      12.172 -10.999 -28.734  1.00  0.00     0.223 A 
ENDROOT
BRANCH   1  11
ATOM     11  C   UNL     1      13.063  -8.679 -28.272  1.00  0.00     0.087 A 
ATOM     12  C   UNL     1      12.372  -7.481 -28.035  1.00  0.00     0.022 A 
ATOM     13  C   UNL     1      12.904  -6.261 -28.461  1.00  0.00     0.051 A 
ATOM     14  C   UNL     1      14.122  -6.220 -29.143  1.00  0.00     0.157 A 
ATOM     15  C   UNL     1      14.280  -8.638 -28.978  1.00  0.00     0.068 A 
ATOM     16  C   UNL     1      14.814  -7.414 -29.408  1.00  0.00     0.158 A 
BRANCH  14  17
ATOM     17  O   UNL     1      14.629  -4.987 -29.554  1.00  0.00    -0.504 OA
ATOM     18  H   UNL     1      15.349  -4.500 -29.032  1.00  0.00     0.293 HD
ENDBRANCH  14  17
BRANCH  16  19
ATOM     19  O   UNL     1      16.023  -7.382 -30.101  1.00  0.00    -0.504 OA
ATOM     20  H   UNL     1      16.770  -6.749 -29.836  1.00  0.00     0.293 HD
ENDBRANCH  16  19
ENDBRANCH   1  11
BRANCH  10  21
ATOM     21  O   UNL     1      12.469 -10.876 -30.092  1.00  0.00    -0.500 OA
ATOM     22  H   UNL     1      11.953 -10.248 -30.696  1.00  0.00     0.294 HD
ENDBRANCH  10  21
BRANCH   5  23
ATOM     23  O   UNL     1      10.700 -12.564 -22.720  1.00  0.00    -0.507 OA
ATOM     24  H   UNL     1      10.960 -13.391 -22.195  1.00  0.00     0.293 HD
ENDBRANCH   5  23
BRANCH   7  25
ATOM     25  O   UNL     1      10.382 -14.595 -27.058  1.00  0.00    -0.507 OA
ATOM     26  H   UNL     1       9.425 -14.886 -27.198  1.00  0.00     0.293 HD
ENDBRANCH   7  25
TORSDOF 6
ENDMDL
MODEL 3
REMARK VINA RESULT:     1.294      2.339      3.292
REMARK INTER + INTRA:           1.221
REMARK INTER:                   1.125
REMARK INTRA:                   0.096
REMARK UNBOUND:                -0.337
REMARK SMILES Oc1cc(O)c2cc(O)c(-c3ccc(O)c(O)c3)[o+]c2c1
REMARK SMILES IDX 10 1 19 2 20 3 21 4 2 5 3 6 4 7 6 8 7 9 8 10 11 11 12 12
REMARK SMILES IDX 13 13 14 14 18 15 16 16 15 17 17 19 9 21 1 23 5 25
REMARK H PARENT 15 18 17 20 9 22 1 24 5 26
REMARK Flexibility Score: inf
ROOT
ATOM      1  C   UNL     1      12.656  -9.878 -27.399  1.00  0.00     0.402 A 
ATOM      2  O   UNL     1      13.686 -10.695 -27.603  1.00  0.00    -0.202 OA
ATOM      3  C   UNL     1      13.776 -11.906 -27.062  1.00  0.00     0.368 A 
ATOM      4  C   UNL     1      14.900 -12.690 -27.332  1.00  0.00     0.162 A 
ATOM      5  C   UNL     1      15.021 -13.966 -26.775  1.00  0.00     0.128 A 
ATOM      6  C   UNL     1      14.014 -14.459 -25.942  1.00  0.00     0.093 A 
ATOM      7  C   UNL     1      12.876 -13.693 -25.655  1.00  0.00     0.136 A 
ATOM      8  C   UNL     1      12.748 -12.398 -26.222  1.00  0.00     0.125 A 
ATOM      9  C   UNL     1      11.638 -11.566 -26.000  1.00  0.00     0.078 A 
ATOM     10  C   UNL     1      11.581 -10.303 -26.597  1.00  0.00     0.223 A 
ENDROOT
BRANCH   1  11
ATOM     11  C   UNL     1      12.677  -8.549 -28.050  1.00  0.00     0.087 A 
ATOM     12  C   UNL     1      13.854  -7.785 -28.021  1.00  0.00     0.022 A 
ATOM     13  C   UNL     1      13.890  -6.519 -28.612  1.00  0.00     0.051 A 
ATOM     14  C   UNL     1      12.750  -5.990 -29.223  1.00  0.00     0.157 A 
ATOM     15  C   UNL     1      11.524  -8.007 -28.647  1.00  0.00     0.068 A 
ATOM     16  C   UNL     1      11.559  -6.735 -29.238  1.00  0.00     0.158 A 
BRANCH  14  17
ATOM     17  O   UNL     1      12.817  -4.725 -29.806  1.00  0.00    -0.504 OA
ATOM     18  H   UNL     1      12.002  -4.130 -29.896  1.00  0.00     0.293 HD
ENDBRANCH  14  17
BRANCH  16  19
ATOM     19  O   UNL     1      10.414  -6.207 -29.834  1.00  0.00    -0.504 OA
ATOM     20  H   UNL     1      10.255  -5.207 -29.885  1.00  0.00     0.293 HD
ENDBRANCH  16  19
ENDBRANCH   1  11
BRANCH  10  21
ATOM     21  O   UNL     1      10.456  -9.496 -26.418  1.00  0.00    -0.500 OA
ATOM     22  H   UNL     1       9.622  -9.611 -26.981  1.00  0.00     0.294 HD
ENDBRANCH  10  21
BRANCH   5  23
ATOM     23  O   UNL     1      16.139 -14.753 -27.039  1.00  0.00    -0.507 OA
ATOM     24  H   UNL     1      16.421 -14.972 -27.987  1.00  0.00     0.293 HD
ENDBRANCH   5  23
BRANCH   7  25
ATOM     25  O   UNL     1      11.916 -14.258 -24.811  1.00  0.00    -0.507 OA
ATOM     26  H   UNL     1      11.437 -13.757 -24.076  1.00  0.00     0.293 HD
ENDBRANCH   7  25
TORSDOF 6
ENDMDL
