MODEL 1
REMARK VINA RESULT:    -4.337      0.000      0.000
REMARK INTER + INTRA:         -14.015
REMARK INTER:                 -10.928
REMARK INTRA:                  -3.087
REMARK UNBOUND:                -3.087
REMARK SMILES CCCCCCCCCCCCCCCCCCCCCCCCCCCC(=O)[O-]
REMARK SMILES IDX 15 1 16 2 17 3 18 4 19 5 20 6 21 7 22 8 23 9 24 10 25 11
REMARK SMILES IDX 26 12 27 13 28 14 29 15 30 16 14 17 13 18 12 19 11 20 10 21
REMARK SMILES IDX 9 22 8 23 7 24 6 25 5 26 4 27 3 28 2 29 1 30
REMARK H PARENT
REMARK Flexibility Score: inf
ROOT
ATOM      1  C   UNL     1       2.453  -2.863  -7.890  1.00  0.00     0.000 C 
ENDROOT
BRANCH   1   2
ATOM      2  C   UNL     1       2.499  -3.065  -9.415  1.00  0.00     0.000 C 
BRANCH   2   3
ATOM      3  C   UNL     1       3.784  -2.564 -10.105  1.00  0.00     0.000 C 
BRANCH   3   4
ATOM      4  C   UNL     1       5.010  -3.483  -9.956  1.00  0.00     0.000 C 
BRANCH   4   5
ATOM      5  C   UNL     1       6.249  -2.739  -9.428  1.00  0.00     0.000 C 
BRANCH   5   6
ATOM      6  C   UNL     1       6.180  -1.222  -9.668  1.00  0.00     0.000 C 
BRANCH   6   7
ATOM      7  C   UNL     1       6.375  -0.409  -8.375  1.00  0.00     0.000 C 
BRANCH   7   8
ATOM      8  C   UNL     1       7.111   0.925  -8.608  1.00  0.00     0.000 C 
BRANCH   8   9
ATOM      9  C   UNL     1       6.477   2.156  -7.935  1.00  0.00     0.000 C 
BRANCH   9  10
ATOM     10  C   UNL     1       6.753   3.466  -8.693  1.00  0.00     0.000 C 
BRANCH  10  11
ATOM     11  C   UNL     1       5.503   4.354  -8.822  1.00  0.00     0.000 C 
BRANCH  11  12
ATOM     12  C   UNL     1       5.800   5.767  -9.367  1.00  0.00     0.006 C 
BRANCH  12  13
ATOM     13  C   UNL     1       5.667   6.844  -8.282  1.00  0.00     0.053 C 
BRANCH  13  14
ATOM     14  C   UNL     1       6.899   7.691  -8.230  1.00  0.00     0.041 C 
ATOM     15  O   UNL     1       7.683   7.610  -7.247  1.00  0.00    -0.550 OA
ATOM     16  O   UNL     1       7.158   8.601  -9.247  1.00  0.00    -0.550 OA
ENDBRANCH  13  14
ENDBRANCH  12  13
ENDBRANCH  11  12
ENDBRANCH  10  11
ENDBRANCH   9  10
ENDBRANCH   8   9
ENDBRANCH   7   8
ENDBRANCH   6   7
ENDBRANCH   5   6
ENDBRANCH   4   5
ENDBRANCH   3   4
ENDBRANCH   2   3
ENDBRANCH   1   2
BRANCH   1  17
ATOM     17  C   UNL     1       2.151  -4.161  -7.126  1.00  0.00     0.000 C 
BRANCH  17  18
ATOM     18  C   UNL     1       3.441  -4.944  -6.846  1.00  0.00     0.000 C 
BRANCH  18  19
ATOM     19  C   UNL     1       3.171  -6.329  -6.231  1.00  0.00     0.000 C 
BRANCH  19  20
ATOM     20  C   UNL     1       3.457  -6.437  -4.718  1.00  0.00     0.000 C 
BRANCH  20  21
ATOM     21  C   UNL     1       4.748  -7.190  -4.348  1.00  0.00     0.000 C 
BRANCH  21  22
ATOM     22  C   UNL     1       6.056  -6.428  -4.636  1.00  0.00    -0.000 C 
BRANCH  22  23
ATOM     23  C   UNL     1       7.048  -7.199  -5.533  1.00  0.00    -0.000 C 
BRANCH  23  24
ATOM     24  C   UNL     1       6.641  -7.183  -7.017  1.00  0.00    -0.000 C 
BRANCH  24  25
ATOM     25  C   UNL     1       5.978  -8.498  -7.466  1.00  0.00    -0.000 C 
BRANCH  25  26
ATOM     26  C   UNL     1       5.084  -8.377  -8.718  1.00  0.00    -0.000 C 
BRANCH  26  27
ATOM     27  C   UNL     1       3.669  -8.964  -8.526  1.00  0.00    -0.000 C 
BRANCH  27  28
ATOM     28  C   UNL     1       2.699  -8.520  -9.637  1.00  0.00    -0.000 C 
BRANCH  28  29
ATOM     29  C   UNL     1       2.686  -6.998  -9.840  1.00  0.00    -0.003 C 
ATOM     30  C   UNL     1       1.277  -6.437 -10.037  1.00  0.00     0.004 C 
ENDBRANCH  28  29
ENDBRANCH  27  28
ENDBRANCH  26  27
ENDBRANCH  25  26
ENDBRANCH  24  25
ENDBRANCH  23  24
ENDBRANCH  22  23
ENDBRANCH  21  22
ENDBRANCH  20  21
ENDBRANCH  19  20
ENDBRANCH  18  19
ENDBRANCH  17  18
ENDBRANCH   1  17
TORSDOF 26
ENDMDL
MODEL 2
REMARK VINA RESULT:    -4.040      1.321      2.526
REMARK INTER + INTRA:         -13.268
REMARK INTER:                 -10.315
REMARK INTRA:                  -2.953
REMARK UNBOUND:                -3.087
REMARK SMILES CCCCCCCCCCCCCCCCCCCCCCCCCCCC(=O)[O-]
REMARK SMILES IDX 15 1 16 2 17 3 18 4 19 5 20 6 21 7 22 8 23 9 24 10 25 11
REMARK SMILES IDX 26 12 27 13 28 14 29 15 30 16 14 17 13 18 12 19 11 20 10 21
REMARK SMILES IDX 9 22 8 23 7 24 6 25 5 26 4 27 3 28 2 29 1 30
REMARK H PARENT
REMARK Flexibility Score: inf
ROOT
ATOM      1  C   UNL     1       2.245  -2.903  -7.840  1.00  0.00     0.000 C 
ENDROOT
BRANCH   1   2
ATOM      2  C   UNL     1       2.160  -2.983  -9.375  1.00  0.00     0.000 C 
BRANCH   2   3
ATOM      3  C   UNL     1       3.465  -2.644 -10.122  1.00  0.00     0.000 C 
BRANCH   3   4
ATOM      4  C   UNL     1       4.587  -3.691  -9.992  1.00  0.00     0.000 C 
BRANCH   4   5
ATOM      5  C   UNL     1       5.843  -3.133  -9.299  1.00  0.00     0.000 C 
BRANCH   5   6
ATOM      6  C   UNL     1       6.211  -1.721  -9.782  1.00  0.00     0.000 C 
BRANCH   6   7
ATOM      7  C   UNL     1       6.369  -0.721  -8.622  1.00  0.00     0.000 C 
BRANCH   7   8
ATOM      8  C   UNL     1       6.570   0.730  -9.102  1.00  0.00     0.000 C 
BRANCH   8   9
ATOM      9  C   UNL     1       6.533   1.803  -7.997  1.00  0.00     0.000 C 
BRANCH   9  10
ATOM     10  C   UNL     1       7.269   3.096  -8.388  1.00  0.00     0.000 C 
BRANCH  10  11
ATOM     11  C   UNL     1       6.475   3.952  -9.389  1.00  0.00     0.000 C 
BRANCH  11  12
ATOM     12  C   UNL     1       5.728   5.135  -8.737  1.00  0.00     0.006 C 
BRANCH  12  13
ATOM     13  C   UNL     1       5.449   6.265  -9.737  1.00  0.00     0.053 C 
BRANCH  13  14
ATOM     14  C   UNL     1       6.030   7.553  -9.248  1.00  0.00     0.041 C 
ATOM     15  O   UNL     1       6.926   8.138  -9.914  1.00  0.00    -0.550 OA
ATOM     16  O   UNL     1       5.614   8.085  -8.034  1.00  0.00    -0.550 OA
ENDBRANCH  13  14
ENDBRANCH  12  13
ENDBRANCH  11  12
ENDBRANCH  10  11
ENDBRANCH   9  10
ENDBRANCH   8   9
ENDBRANCH   7   8
ENDBRANCH   6   7
ENDBRANCH   5   6
ENDBRANCH   4   5
ENDBRANCH   3   4
ENDBRANCH   2   3
ENDBRANCH   1   2
BRANCH   1  17
ATOM     17  C   UNL     1       2.143  -4.279  -7.166  1.00  0.00     0.000 C 
BRANCH  17  18
ATOM     18  C   UNL     1       3.528  -4.784  -6.739  1.00  0.00     0.000 C 
BRANCH  18  19
ATOM     19  C   UNL     1       3.457  -6.069  -5.896  1.00  0.00     0.000 C 
BRANCH  19  20
ATOM     20  C   UNL     1       4.728  -6.384  -5.077  1.00  0.00     0.000 C 
BRANCH  20  21
ATOM     21  C   UNL     1       4.629  -7.618  -4.163  1.00  0.00     0.000 C 
BRANCH  21  22
ATOM     22  C   UNL     1       5.271  -8.902  -4.725  1.00  0.00    -0.000 C 
BRANCH  22  23
ATOM     23  C   UNL     1       4.633  -9.399  -6.039  1.00  0.00    -0.000 C 
BRANCH  23  24
ATOM     24  C   UNL     1       5.594  -9.303  -7.238  1.00  0.00    -0.000 C 
BRANCH  24  25
ATOM     25  C   UNL     1       4.871  -8.970  -8.555  1.00  0.00    -0.000 C 
BRANCH  25  26
ATOM     26  C   UNL     1       5.384  -7.703  -9.271  1.00  0.00    -0.000 C 
BRANCH  26  27
ATOM     27  C   UNL     1       6.201  -6.764  -8.357  1.00  0.00    -0.000 C 
BRANCH  27  28
ATOM     28  C   UNL     1       7.549  -6.366  -8.987  1.00  0.00    -0.000 C 
BRANCH  28  29
ATOM     29  C   UNL     1       8.742  -6.647  -8.062  1.00  0.00    -0.003 C 
ATOM     30  C   UNL     1       8.336  -7.352  -6.767  1.00  0.00     0.004 C 
ENDBRANCH  28  29
ENDBRANCH  27  28
ENDBRANCH  26  27
ENDBRANCH  25  26
ENDBRANCH  24  25
ENDBRANCH  23  24
ENDBRANCH  22  23
ENDBRANCH  21  22
ENDBRANCH  20  21
ENDBRANCH  19  20
ENDBRANCH  18  19
ENDBRANCH  17  18
ENDBRANCH   1  17
TORSDOF 26
ENDMDL
MODEL 3
REMARK VINA RESULT:    -3.872      4.353     10.408
REMARK INTER + INTRA:         -12.843
REMARK INTER:                 -10.282
REMARK INTRA:                  -2.561
REMARK UNBOUND:                -3.087
REMARK SMILES CCCCCCCCCCCCCCCCCCCCCCCCCCCC(=O)[O-]
REMARK SMILES IDX 15 1 16 2 17 3 18 4 19 5 20 6 21 7 22 8 23 9 24 10 25 11
REMARK SMILES IDX 26 12 27 13 28 14 29 15 30 16 14 17 13 18 12 19 11 20 10 21
REMARK SMILES IDX 9 22 8 23 7 24 6 25 5 26 4 27 3 28 2 29 1 30
REMARK H PARENT
REMARK Flexibility Score: inf
ROOT
ATOM      1  C   UNL     1       2.807  -3.157  -7.710  1.00  0.00     0.000 C 
ENDROOT
BRANCH   1   2
ATOM      2  C   UNL     1       1.420  -2.808  -8.279  1.00  0.00     0.000 C 
BRANCH   2   3
ATOM      3  C   UNL     1       0.779  -3.899  -9.159  1.00  0.00     0.000 C 
BRANCH   3   4
ATOM      4  C   UNL     1       1.750  -4.649 -10.088  1.00  0.00     0.000 C 
BRANCH   4   5
ATOM      5  C   UNL     1       1.806  -6.159  -9.796  1.00  0.00     0.000 C 
BRANCH   5   6
ATOM      6  C   UNL     1       3.125  -6.588  -9.134  1.00  0.00     0.000 C 
BRANCH   6   7
ATOM      7  C   UNL     1       3.044  -6.587  -7.596  1.00  0.00     0.000 C 
BRANCH   7   8
ATOM      8  C   UNL     1       3.677  -7.840  -6.960  1.00  0.00     0.000 C 
BRANCH   8   9
ATOM      9  C   UNL     1       4.150  -7.674  -5.503  1.00  0.00     0.000 C 
BRANCH   9  10
ATOM     10  C   UNL     1       4.777  -6.296  -5.227  1.00  0.00     0.000 C 
BRANCH  10  11
ATOM     11  C   UNL     1       6.134  -6.393  -4.508  1.00  0.00     0.000 C 
BRANCH  11  12
ATOM     12  C   UNL     1       6.888  -7.710  -4.784  1.00  0.00     0.006 C 
BRANCH  12  13
ATOM     13  C   UNL     1       8.280  -7.464  -5.381  1.00  0.00     0.053 C 
BRANCH  13  14
ATOM     14  C   UNL     1       8.295  -7.807  -6.837  1.00  0.00     0.041 C 
ATOM     15  O   UNL     1       7.212  -7.919  -7.473  1.00  0.00    -0.550 OA
ATOM     16  O   UNL     1       9.502  -8.046  -7.481  1.00  0.00    -0.550 OA
ENDBRANCH  13  14
ENDBRANCH  12  13
ENDBRANCH  11  12
ENDBRANCH  10  11
ENDBRANCH   9  10
ENDBRANCH   8   9
ENDBRANCH   7   8
ENDBRANCH   6   7
ENDBRANCH   5   6
ENDBRANCH   4   5
ENDBRANCH   3   4
ENDBRANCH   2   3
ENDBRANCH   1   2
BRANCH   1  17
ATOM     17  C   UNL     1       3.912  -2.218  -8.217  1.00  0.00     0.000 C 
BRANCH  17  18
ATOM     18  C   UNL     1       4.901  -2.973  -9.116  1.00  0.00     0.000 C 
BRANCH  18  19
ATOM     19  C   UNL     1       6.200  -2.185  -9.359  1.00  0.00     0.000 C 
BRANCH  19  20
ATOM     20  C   UNL     1       6.071  -0.653  -9.215  1.00  0.00     0.000 C 
BRANCH  20  21
ATOM     21  C   UNL     1       6.788  -0.048  -7.994  1.00  0.00     0.000 C 
BRANCH  21  22
ATOM     22  C   UNL     1       8.277  -0.422  -7.857  1.00  0.00    -0.000 C 
BRANCH  22  23
ATOM     23  C   UNL     1       9.222   0.794  -7.746  1.00  0.00    -0.000 C 
BRANCH  23  24
ATOM     24  C   UNL     1       8.919   1.878  -8.795  1.00  0.00    -0.000 C 
BRANCH  24  25
ATOM     25  C   UNL     1       8.515   3.222  -8.163  1.00  0.00    -0.000 C 
BRANCH  25  26
ATOM     26  C   UNL     1       7.529   4.061  -9.002  1.00  0.00    -0.000 C 
BRANCH  26  27
ATOM     27  C   UNL     1       6.053   3.879  -8.586  1.00  0.00    -0.000 C 
BRANCH  27  28
ATOM     28  C   UNL     1       5.147   4.988  -9.155  1.00  0.00    -0.000 C 
BRANCH  28  29
ATOM     29  C   UNL     1       5.905   6.298  -9.416  1.00  0.00    -0.003 C 
ATOM     30  C   UNL     1       5.717   7.324  -8.299  1.00  0.00     0.004 C 
ENDBRANCH  28  29
ENDBRANCH  27  28
ENDBRANCH  26  27
ENDBRANCH  25  26
ENDBRANCH  24  25
ENDBRANCH  23  24
ENDBRANCH  22  23
ENDBRANCH  21  22
ENDBRANCH  20  21
ENDBRANCH  19  20
ENDBRANCH  18  19
ENDBRANCH  17  18
ENDBRANCH   1  17
TORSDOF 26
ENDMDL
MODEL 4
REMARK VINA RESULT:    -3.578      1.388      2.182
REMARK INTER + INTRA:         -12.103
REMARK INTER:                  -9.109
REMARK INTRA:                  -2.994
REMARK UNBOUND:                -3.087
REMARK SMILES CCCCCCCCCCCCCCCCCCCCCCCCCCCC(=O)[O-]
REMARK SMILES IDX 15 1 16 2 17 3 18 4 19 5 20 6 21 7 22 8 23 9 24 10 25 11
REMARK SMILES IDX 26 12 27 13 28 14 29 15 30 16 14 17 13 18 12 19 11 20 10 21
REMARK SMILES IDX 9 22 8 23 7 24 6 25 5 26 4 27 3 28 2 29 1 30
REMARK H PARENT
REMARK Flexibility Score: inf
ROOT
ATOM      1  C   UNL     1       2.507  -3.277  -7.626  1.00  0.00     0.000 C 
ENDROOT
BRANCH   1   2
ATOM      2  C   UNL     1       2.079  -3.368  -9.103  1.00  0.00     0.000 C 
BRANCH   2   3
ATOM      3  C   UNL     1       3.231  -3.294 -10.125  1.00  0.00     0.000 C 
BRANCH   3   4
ATOM      4  C   UNL     1       4.225  -4.470 -10.080  1.00  0.00     0.000 C 
BRANCH   4   5
ATOM      5  C   UNL     1       5.550  -4.101  -9.390  1.00  0.00     0.000 C 
BRANCH   5   6
ATOM      6  C   UNL     1       6.117  -2.755  -9.871  1.00  0.00     0.000 C 
BRANCH   6   7
ATOM      7  C   UNL     1       5.588  -1.564  -9.052  1.00  0.00     0.000 C 
BRANCH   7   8
ATOM      8  C   UNL     1       6.543  -0.355  -9.063  1.00  0.00     0.000 C 
BRANCH   8   9
ATOM      9  C   UNL     1       6.985   0.152  -7.677  1.00  0.00     0.000 C 
BRANCH   9  10
ATOM     10  C   UNL     1       8.406   0.741  -7.675  1.00  0.00     0.000 C 
BRANCH  10  11
ATOM     11  C   UNL     1       8.417   2.269  -7.854  1.00  0.00     0.000 C 
BRANCH  11  12
ATOM     12  C   UNL     1       7.010   2.884  -8.012  1.00  0.00     0.006 C 
BRANCH  12  13
ATOM     13  C   UNL     1       6.837   3.592  -9.362  1.00  0.00     0.053 C 
BRANCH  13  14
ATOM     14  C   UNL     1       6.290   4.971  -9.165  1.00  0.00     0.041 C 
ATOM     15  O   UNL     1       6.977   5.977  -9.487  1.00  0.00    -0.550 OA
ATOM     16  O   UNL     1       5.041   5.144  -8.585  1.00  0.00    -0.550 OA
ENDBRANCH  13  14
ENDBRANCH  12  13
ENDBRANCH  11  12
ENDBRANCH  10  11
ENDBRANCH   9  10
ENDBRANCH   8   9
ENDBRANCH   7   8
ENDBRANCH   6   7
ENDBRANCH   5   6
ENDBRANCH   4   5
ENDBRANCH   3   4
ENDBRANCH   2   3
ENDBRANCH   1   2
BRANCH   1  17
ATOM     17  C   UNL     1       2.290  -4.591  -6.862  1.00  0.00     0.000 C 
BRANCH  17  18
ATOM     18  C   UNL     1       3.632  -5.253  -6.518  1.00  0.00     0.000 C 
BRANCH  18  19
ATOM     19  C   UNL     1       3.551  -6.138  -5.262  1.00  0.00     0.000 C 
BRANCH  19  20
ATOM     20  C   UNL     1       4.604  -7.265  -5.189  1.00  0.00     0.000 C 
BRANCH  20  21
ATOM     21  C   UNL     1       5.777  -7.005  -4.226  1.00  0.00     0.000 C 
BRANCH  21  22
ATOM     22  C   UNL     1       7.138  -7.563  -4.686  1.00  0.00    -0.000 C 
BRANCH  22  23
ATOM     23  C   UNL     1       7.035  -8.854  -5.526  1.00  0.00    -0.000 C 
BRANCH  23  24
ATOM     24  C   UNL     1       8.137  -8.954  -6.597  1.00  0.00    -0.000 C 
BRANCH  24  25
ATOM     25  C   UNL     1       7.577  -9.226  -8.004  1.00  0.00    -0.000 C 
BRANCH  25  26
ATOM     26  C   UNL     1       7.152  -7.965  -8.785  1.00  0.00    -0.000 C 
BRANCH  26  27
ATOM     27  C   UNL     1       5.667  -7.589  -8.592  1.00  0.00    -0.000 C 
BRANCH  27  28
ATOM     28  C   UNL     1       4.718  -8.726  -9.015  1.00  0.00    -0.000 C 
BRANCH  28  29
ATOM     29  C   UNL     1       3.333  -8.617  -8.361  1.00  0.00    -0.003 C 
ATOM     30  C   UNL     1       2.391  -7.680  -9.118  1.00  0.00     0.004 C 
ENDBRANCH  28  29
ENDBRANCH  27  28
ENDBRANCH  26  27
ENDBRANCH  25  26
ENDBRANCH  24  25
ENDBRANCH  23  24
ENDBRANCH  22  23
ENDBRANCH  21  22
ENDBRANCH  20  21
ENDBRANCH  19  20
ENDBRANCH  18  19
ENDBRANCH  17  18
ENDBRANCH   1  17
TORSDOF 26
ENDMDL
MODEL 5
REMARK VINA RESULT:    -3.561      4.584     11.846
REMARK INTER + INTRA:         -12.059
REMARK INTER:                  -9.965
REMARK INTRA:                  -2.094
REMARK UNBOUND:                -3.087
REMARK SMILES CCCCCCCCCCCCCCCCCCCCCCCCCCCC(=O)[O-]
REMARK SMILES IDX 15 1 16 2 17 3 18 4 19 5 20 6 21 7 22 8 23 9 24 10 25 11
REMARK SMILES IDX 26 12 27 13 28 14 29 15 30 16 14 17 13 18 12 19 11 20 10 21
REMARK SMILES IDX 9 22 8 23 7 24 6 25 5 26 4 27 3 28 2 29 1 30
REMARK H PARENT
REMARK Flexibility Score: inf
ROOT
ATOM      1  C   UNL     1       3.779  -3.339  -8.286  1.00  0.00     0.000 C 
ENDROOT
BRANCH   1   2
ATOM      2  C   UNL     1       2.648  -3.564  -9.306  1.00  0.00     0.000 C 
BRANCH   2   3
ATOM      3  C   UNL     1       1.666  -4.699  -8.955  1.00  0.00     0.000 C 
BRANCH   3   4
ATOM      4  C   UNL     1       1.537  -5.807 -10.017  1.00  0.00     0.000 C 
BRANCH   4   5
ATOM      5  C   UNL     1       2.141  -7.145  -9.556  1.00  0.00     0.000 C 
BRANCH   5   6
ATOM      6  C   UNL     1       3.665  -7.208  -9.750  1.00  0.00     0.000 C 
BRANCH   6   7
ATOM      7  C   UNL     1       4.438  -7.006  -8.434  1.00  0.00     0.000 C 
BRANCH   7   8
ATOM      8  C   UNL     1       4.461  -8.268  -7.550  1.00  0.00     0.000 C 
BRANCH   8   9
ATOM      9  C   UNL     1       4.100  -8.044  -6.069  1.00  0.00     0.000 C 
BRANCH   9  10
ATOM     10  C   UNL     1       4.138  -6.563  -5.656  1.00  0.00     0.000 C 
BRANCH  10  11
ATOM     11  C   UNL     1       5.385  -6.208  -4.828  1.00  0.00     0.000 C 
BRANCH  11  12
ATOM     12  C   UNL     1       6.320  -7.409  -4.571  1.00  0.00     0.006 C 
BRANCH  12  13
ATOM     13  C   UNL     1       7.634  -7.297  -5.355  1.00  0.00     0.053 C 
BRANCH  13  14
ATOM     14  C   UNL     1       8.134  -8.654  -5.737  1.00  0.00     0.041 C 
ATOM     15  O   UNL     1       7.955  -9.636  -4.968  1.00  0.00    -0.550 OA
ATOM     16  O   UNL     1       8.836  -8.826  -6.923  1.00  0.00    -0.550 OA
ENDBRANCH  13  14
ENDBRANCH  12  13
ENDBRANCH  11  12
ENDBRANCH  10  11
ENDBRANCH   9  10
ENDBRANCH   8   9
ENDBRANCH   7   8
ENDBRANCH   6   7
ENDBRANCH   5   6
ENDBRANCH   4   5
ENDBRANCH   3   4
ENDBRANCH   2   3
ENDBRANCH   1   2
BRANCH   1  17
ATOM     17  C   UNL     1       4.408  -1.942  -8.394  1.00  0.00     0.000 C 
BRANCH  17  18
ATOM     18  C   UNL     1       5.669  -1.975  -9.268  1.00  0.00     0.000 C 
BRANCH  18  19
ATOM     19  C   UNL     1       6.700  -0.908  -8.862  1.00  0.00     0.000 C 
BRANCH  19  20
ATOM     20  C   UNL     1       6.193   0.134  -7.840  1.00  0.00     0.000 C 
BRANCH  20  21
ATOM     21  C   UNL     1       6.978   1.458  -7.810  1.00  0.00     0.000 C 
BRANCH  21  22
ATOM     22  C   UNL     1       6.773   2.368  -9.037  1.00  0.00    -0.000 C 
BRANCH  22  23
ATOM     23  C   UNL     1       5.970   3.652  -8.738  1.00  0.00    -0.000 C 
BRANCH  23  24
ATOM     24  C   UNL     1       6.874   4.862  -8.442  1.00  0.00    -0.000 C 
BRANCH  24  25
ATOM     25  C   UNL     1       6.143   5.978  -7.674  1.00  0.00    -0.000 C 
BRANCH  25  26
ATOM     26  C   UNL     1       5.785   7.217  -8.520  1.00  0.00    -0.000 C 
BRANCH  26  27
ATOM     27  C   UNL     1       6.667   8.448  -8.216  1.00  0.00    -0.000 C 
BRANCH  27  28
ATOM     28  C   UNL     1       7.947   8.473  -9.071  1.00  0.00    -0.000 C 
BRANCH  28  29
ATOM     29  C   UNL     1       9.224   8.311  -8.233  1.00  0.00    -0.003 C 
ATOM     30  C   UNL     1       9.868   9.648  -7.867  1.00  0.00     0.004 C 
ENDBRANCH  28  29
ENDBRANCH  27  28
ENDBRANCH  26  27
ENDBRANCH  25  26
ENDBRANCH  24  25
ENDBRANCH  23  24
ENDBRANCH  22  23
ENDBRANCH  21  22
ENDBRANCH  20  21
ENDBRANCH  19  20
ENDBRANCH  18  19
ENDBRANCH  17  18
ENDBRANCH   1  17
TORSDOF 26
ENDMDL
MODEL 6
REMARK VINA RESULT:    -3.406      4.617     11.066
REMARK INTER + INTRA:         -11.670
REMARK INTER:                  -9.522
REMARK INTRA:                  -2.148
REMARK UNBOUND:                -3.087
REMARK SMILES CCCCCCCCCCCCCCCCCCCCCCCCCCCC(=O)[O-]
REMARK SMILES IDX 15 1 16 2 17 3 18 4 19 5 20 6 21 7 22 8 23 9 24 10 25 11
REMARK SMILES IDX 26 12 27 13 28 14 29 15 30 16 14 17 13 18 12 19 11 20 10 21
REMARK SMILES IDX 9 22 8 23 7 24 6 25 5 26 4 27 3 28 2 29 1 30
REMARK H PARENT
REMARK Flexibility Score: inf
ROOT
ATOM      1  C   UNL     1       3.024  -4.832  -9.264  1.00  0.00     0.000 C 
ENDROOT
BRANCH   1   2
ATOM      2  C   UNL     1       1.937  -5.502 -10.125  1.00  0.00     0.000 C 
BRANCH   2   3
ATOM      3  C   UNL     1       1.366  -6.815  -9.554  1.00  0.00     0.000 C 
BRANCH   3   4
ATOM      4  C   UNL     1       2.180  -8.081  -9.877  1.00  0.00     0.000 C 
BRANCH   4   5
ATOM      5  C   UNL     1       2.975  -8.602  -8.666  1.00  0.00     0.000 C 
BRANCH   5   6
ATOM      6  C   UNL     1       4.126  -9.538  -9.068  1.00  0.00     0.000 C 
BRANCH   6   7
ATOM      7  C   UNL     1       5.509  -8.955  -8.725  1.00  0.00     0.000 C 
BRANCH   7   8
ATOM      8  C   UNL     1       5.623  -7.451  -9.042  1.00  0.00     0.000 C 
BRANCH   8   9
ATOM      9  C   UNL     1       6.433  -6.622  -8.027  1.00  0.00     0.000 C 
BRANCH   9  10
ATOM     10  C   UNL     1       7.024  -7.472  -6.889  1.00  0.00     0.000 C 
BRANCH  10  11
ATOM     11  C   UNL     1       6.815  -6.838  -5.503  1.00  0.00     0.000 C 
BRANCH  11  12
ATOM     12  C   UNL     1       5.407  -6.238  -5.302  1.00  0.00     0.006 C 
BRANCH  12  13
ATOM     13  C   UNL     1       4.310  -7.309  -5.356  1.00  0.00     0.053 C 
BRANCH  13  14
ATOM     14  C   UNL     1       4.621  -8.427  -4.412  1.00  0.00     0.041 C 
ATOM     15  O   UNL     1       4.842  -8.187  -3.195  1.00  0.00    -0.550 OA
ATOM     16  O   UNL     1       4.711  -9.730  -4.885  1.00  0.00    -0.550 OA
ENDBRANCH  13  14
ENDBRANCH  12  13
ENDBRANCH  11  12
ENDBRANCH  10  11
ENDBRANCH   9  10
ENDBRANCH   8   9
ENDBRANCH   7   8
ENDBRANCH   6   7
ENDBRANCH   5   6
ENDBRANCH   4   5
ENDBRANCH   3   4
ENDBRANCH   2   3
ENDBRANCH   1   2
BRANCH   1  17
ATOM     17  C   UNL     1       2.925  -3.300  -9.268  1.00  0.00     0.000 C 
BRANCH  17  18
ATOM     18  C   UNL     1       4.307  -2.663  -9.467  1.00  0.00     0.000 C 
BRANCH  18  19
ATOM     19  C   UNL     1       4.753  -1.825  -8.256  1.00  0.00     0.000 C 
BRANCH  19  20
ATOM     20  C   UNL     1       5.973  -0.912  -8.507  1.00  0.00     0.000 C 
BRANCH  20  21
ATOM     21  C   UNL     1       6.070   0.319  -7.588  1.00  0.00     0.000 C 
BRANCH  21  22
ATOM     22  C   UNL     1       7.472   0.952  -7.486  1.00  0.00    -0.000 C 
BRANCH  22  23
ATOM     23  C   UNL     1       7.608   2.300  -8.225  1.00  0.00    -0.000 C 
BRANCH  23  24
ATOM     24  C   UNL     1       6.278   3.072  -8.300  1.00  0.00    -0.000 C 
BRANCH  24  25
ATOM     25  C   UNL     1       6.070   3.770  -9.656  1.00  0.00    -0.000 C 
BRANCH  25  26
ATOM     26  C   UNL     1       4.859   4.724  -9.713  1.00  0.00    -0.000 C 
BRANCH  26  27
ATOM     27  C   UNL     1       5.167   6.145  -9.192  1.00  0.00    -0.000 C 
BRANCH  27  28
ATOM     28  C   UNL     1       6.680   6.429  -9.134  1.00  0.00    -0.000 C 
BRANCH  28  29
ATOM     29  C   UNL     1       7.001   7.821  -8.570  1.00  0.00    -0.003 C 
ATOM     30  C   UNL     1       6.195   8.153  -7.314  1.00  0.00     0.004 C 
ENDBRANCH  28  29
ENDBRANCH  27  28
ENDBRANCH  26  27
ENDBRANCH  25  26
ENDBRANCH  24  25
ENDBRANCH  23  24
ENDBRANCH  22  23
ENDBRANCH  21  22
ENDBRANCH  20  21
ENDBRANCH  19  20
ENDBRANCH  18  19
ENDBRANCH  17  18
ENDBRANCH   1  17
TORSDOF 26
ENDMDL
MODEL 7
REMARK VINA RESULT:    -3.135      3.025      6.377
REMARK INTER + INTRA:         -10.986
REMARK INTER:                  -7.264
REMARK INTRA:                  -3.722
REMARK UNBOUND:                -3.087
REMARK SMILES CCCCCCCCCCCCCCCCCCCCCCCCCCCC(=O)[O-]
REMARK SMILES IDX 15 1 16 2 17 3 18 4 19 5 20 6 21 7 22 8 23 9 24 10 25 11
REMARK SMILES IDX 26 12 27 13 28 14 29 15 30 16 14 17 13 18 12 19 11 20 10 21
REMARK SMILES IDX 9 22 8 23 7 24 6 25 5 26 4 27 3 28 2 29 1 30
REMARK H PARENT
REMARK Flexibility Score: inf
ROOT
ATOM      1  C   UNL     1       5.809  -7.130  -4.812  1.00  0.00     0.000 C 
ENDROOT
BRANCH   1   2
ATOM      2  C   UNL     1       7.345  -7.050  -4.740  1.00  0.00     0.000 C 
BRANCH   2   3
ATOM      3  C   UNL     1       8.087  -8.345  -5.125  1.00  0.00     0.000 C 
BRANCH   3   4
ATOM      4  C   UNL     1       9.248  -8.165  -6.121  1.00  0.00     0.000 C 
BRANCH   4   5
ATOM      5  C   UNL     1       9.012  -8.910  -7.447  1.00  0.00     0.000 C 
BRANCH   5   6
ATOM      6  C   UNL     1       9.340  -8.050  -8.678  1.00  0.00     0.000 C 
BRANCH   6   7
ATOM      7  C   UNL     1       8.870  -6.592  -8.523  1.00  0.00     0.000 C 
BRANCH   7   8
ATOM      8  C   UNL     1       7.922  -6.142  -9.653  1.00  0.00     0.000 C 
BRANCH   8   9
ATOM      9  C   UNL     1       6.714  -5.297  -9.204  1.00  0.00     0.000 C 
BRANCH   9  10
ATOM     10  C   UNL     1       6.547  -4.004 -10.021  1.00  0.00     0.000 C 
BRANCH  10  11
ATOM     11  C   UNL     1       5.575  -3.008  -9.365  1.00  0.00     0.000 C 
BRANCH  11  12
ATOM     12  C   UNL     1       5.846  -1.537  -9.745  1.00  0.00     0.006 C 
BRANCH  12  13
ATOM     13  C   UNL     1       6.746  -0.832  -8.721  1.00  0.00     0.053 C 
BRANCH  13  14
ATOM     14  C   UNL     1       7.030   0.573  -9.152  1.00  0.00     0.041 C 
ATOM     15  O   UNL     1       7.867   0.799 -10.067  1.00  0.00    -0.550 OA
ATOM     16  O   UNL     1       6.401   1.634  -8.514  1.00  0.00    -0.550 OA
ENDBRANCH  13  14
ENDBRANCH  12  13
ENDBRANCH  11  12
ENDBRANCH  10  11
ENDBRANCH   9  10
ENDBRANCH   8   9
ENDBRANCH   7   8
ENDBRANCH   6   7
ENDBRANCH   5   6
ENDBRANCH   4   5
ENDBRANCH   3   4
ENDBRANCH   2   3
ENDBRANCH   1   2
BRANCH   1  17
ATOM     17  C   UNL     1       5.234  -6.427  -6.051  1.00  0.00     0.000 C 
BRANCH  17  18
ATOM     18  C   UNL     1       4.584  -7.442  -7.002  1.00  0.00     0.000 C 
BRANCH  18  19
ATOM     19  C   UNL     1       5.568  -8.526  -7.474  1.00  0.00     0.000 C 
BRANCH  19  20
ATOM     20  C   UNL     1       5.482  -8.877  -8.975  1.00  0.00     0.000 C 
BRANCH  20  21
ATOM     21  C   UNL     1       4.645 -10.125  -9.310  1.00  0.00     0.000 C 
BRANCH  21  22
ATOM     22  C   UNL     1       3.357  -9.854 -10.111  1.00  0.00    -0.000 C 
BRANCH  22  23
ATOM     23  C   UNL     1       2.119  -9.573  -9.232  1.00  0.00    -0.000 C 
BRANCH  23  24
ATOM     24  C   UNL     1       0.980  -8.891 -10.012  1.00  0.00    -0.000 C 
BRANCH  24  25
ATOM     25  C   UNL     1       1.122  -7.360 -10.055  1.00  0.00    -0.000 C 
BRANCH  25  26
ATOM     26  C   UNL     1       2.532  -6.832  -9.716  1.00  0.00    -0.000 C 
BRANCH  26  27
ATOM     27  C   UNL     1       2.629  -5.291  -9.705  1.00  0.00    -0.000 C 
BRANCH  27  28
ATOM     28  C   UNL     1       1.804  -4.663  -8.566  1.00  0.00    -0.000 C 
BRANCH  28  29
ATOM     29  C   UNL     1       2.667  -3.861  -7.581  1.00  0.00    -0.003 C 
ATOM     30  C   UNL     1       2.324  -2.372  -7.566  1.00  0.00     0.004 C 
ENDBRANCH  28  29
ENDBRANCH  27  28
ENDBRANCH  26  27
ENDBRANCH  25  26
ENDBRANCH  24  25
ENDBRANCH  23  24
ENDBRANCH  22  23
ENDBRANCH  21  22
ENDBRANCH  20  21
ENDBRANCH  19  20
ENDBRANCH  18  19
ENDBRANCH  17  18
ENDBRANCH   1  17
TORSDOF 26
ENDMDL
MODEL 8
REMARK VINA RESULT:    -3.085      4.197     10.871
REMARK INTER + INTRA:         -10.860
REMARK INTER:                  -8.999
REMARK INTRA:                  -1.861
REMARK UNBOUND:                -3.087
REMARK SMILES CCCCCCCCCCCCCCCCCCCCCCCCCCCC(=O)[O-]
REMARK SMILES IDX 15 1 16 2 17 3 18 4 19 5 20 6 21 7 22 8 23 9 24 10 25 11
REMARK SMILES IDX 26 12 27 13 28 14 29 15 30 16 14 17 13 18 12 19 11 20 10 21
REMARK SMILES IDX 9 22 8 23 7 24 6 25 5 26 4 27 3 28 2 29 1 30
REMARK H PARENT
REMARK Flexibility Score: inf
ROOT
ATOM      1  C   UNL     1       2.625  -5.454  -8.909  1.00  0.00     0.000 C 
ENDROOT
BRANCH   1   2
ATOM      2  C   UNL     1       1.578  -5.767  -9.993  1.00  0.00     0.000 C 
BRANCH   2   3
ATOM      3  C   UNL     1       0.994  -7.192  -9.947  1.00  0.00     0.000 C 
BRANCH   3   4
ATOM      4  C   UNL     1       2.018  -8.328 -10.125  1.00  0.00     0.000 C 
BRANCH   4   5
ATOM      5  C   UNL     1       2.628  -8.791  -8.790  1.00  0.00     0.000 C 
BRANCH   5   6
ATOM      6  C   UNL     1       4.097  -9.223  -8.925  1.00  0.00     0.000 C 
BRANCH   6   7
ATOM      7  C   UNL     1       4.851  -9.184  -7.583  1.00  0.00     0.000 C 
BRANCH   7   8
ATOM      8  C   UNL     1       4.516  -7.938  -6.740  1.00  0.00     0.000 C 
BRANCH   8   9
ATOM      9  C   UNL     1       4.384  -8.180  -5.225  1.00  0.00     0.000 C 
BRANCH   9  10
ATOM     10  C   UNL     1       5.077  -7.097  -4.379  1.00  0.00     0.000 C 
BRANCH  10  11
ATOM     11  C   UNL     1       6.435  -6.666  -4.960  1.00  0.00     0.000 C 
BRANCH  11  12
ATOM     12  C   UNL     1       7.610  -7.562  -4.515  1.00  0.00     0.006 C 
BRANCH  12  13
ATOM     13  C   UNL     1       7.917  -8.663  -5.538  1.00  0.00     0.053 C 
BRANCH  13  14
ATOM     14  C   UNL     1       8.718  -8.113  -6.676  1.00  0.00     0.041 C 
ATOM     15  O   UNL     1       9.421  -7.080  -6.516  1.00  0.00    -0.550 OA
ATOM     16  O   UNL     1       8.653  -8.718  -7.925  1.00  0.00    -0.550 OA
ENDBRANCH  13  14
ENDBRANCH  12  13
ENDBRANCH  11  12
ENDBRANCH  10  11
ENDBRANCH   9  10
ENDBRANCH   8   9
ENDBRANCH   7   8
ENDBRANCH   6   7
ENDBRANCH   5   6
ENDBRANCH   4   5
ENDBRANCH   3   4
ENDBRANCH   2   3
ENDBRANCH   1   2
BRANCH   1  17
ATOM     17  C   UNL     1       2.461  -4.049  -8.311  1.00  0.00     0.000 C 
BRANCH  17  18
ATOM     18  C   UNL     1       3.284  -3.019  -9.097  1.00  0.00     0.000 C 
BRANCH  18  19
ATOM     19  C   UNL     1       4.678  -2.787  -8.490  1.00  0.00     0.000 C 
BRANCH  19  20
ATOM     20  C   UNL     1       5.416  -1.534  -9.010  1.00  0.00     0.000 C 
BRANCH  20  21
ATOM     21  C   UNL     1       5.714  -0.461  -7.947  1.00  0.00     0.000 C 
BRANCH  21  22
ATOM     22  C   UNL     1       7.186  -0.011  -7.865  1.00  0.00    -0.000 C 
BRANCH  22  23
ATOM     23  C   UNL     1       7.390   1.506  -8.064  1.00  0.00    -0.000 C 
BRANCH  23  24
ATOM     24  C   UNL     1       7.188   1.946  -9.525  1.00  0.00    -0.000 C 
BRANCH  24  25
ATOM     25  C   UNL     1       6.145   3.069  -9.669  1.00  0.00    -0.000 C 
BRANCH  25  26
ATOM     26  C   UNL     1       6.140   4.098  -8.520  1.00  0.00    -0.000 C 
BRANCH  26  27
ATOM     27  C   UNL     1       7.173   5.232  -8.700  1.00  0.00    -0.000 C 
BRANCH  27  28
ATOM     28  C   UNL     1       6.529   6.528  -9.225  1.00  0.00    -0.000 C 
BRANCH  28  29
ATOM     29  C   UNL     1       5.618   7.201  -8.188  1.00  0.00    -0.003 C 
ATOM     30  C   UNL     1       6.344   7.526  -6.882  1.00  0.00     0.004 C 
ENDBRANCH  28  29
ENDBRANCH  27  28
ENDBRANCH  26  27
ENDBRANCH  25  26
ENDBRANCH  24  25
ENDBRANCH  23  24
ENDBRANCH  22  23
ENDBRANCH  21  22
ENDBRANCH  20  21
ENDBRANCH  19  20
ENDBRANCH  18  19
ENDBRANCH  17  18
ENDBRANCH   1  17
TORSDOF 26
ENDMDL
MODEL 9
REMARK VINA RESULT:    -2.991     10.214     14.549
REMARK INTER + INTRA:         -10.625
REMARK INTER:                  -8.683
REMARK INTRA:                  -1.942
REMARK UNBOUND:                -3.087
REMARK SMILES CCCCCCCCCCCCCCCCCCCCCCCCCCCC(=O)[O-]
REMARK SMILES IDX 15 1 16 2 17 3 18 4 19 5 20 6 21 7 22 8 23 9 24 10 25 11
REMARK SMILES IDX 26 12 27 13 28 14 29 15 30 16 14 17 13 18 12 19 11 20 10 21
REMARK SMILES IDX 9 22 8 23 7 24 6 25 5 26 4 27 3 28 2 29 1 30
REMARK H PARENT
REMARK Flexibility Score: inf
ROOT
ATOM      1  C   UNL     1      -1.166   6.016  -9.815  1.00  0.00     0.000 C 
ENDROOT
BRANCH   1   2
ATOM      2  C   UNL     1      -1.475   7.522  -9.911  1.00  0.00     0.000 C 
BRANCH   2   3
ATOM      3  C   UNL     1      -2.970   7.889  -9.846  1.00  0.00     0.000 C 
BRANCH   3   4
ATOM      4  C   UNL     1      -3.433   8.526  -8.522  1.00  0.00     0.000 C 
BRANCH   4   5
ATOM      5  C   UNL     1      -3.499   7.512  -7.367  1.00  0.00     0.000 C 
BRANCH   5   6
ATOM      6  C   UNL     1      -4.884   6.860  -7.226  1.00  0.00     0.000 C 
BRANCH   6   7
ATOM      7  C   UNL     1      -5.087   6.193  -5.853  1.00  0.00     0.000 C 
BRANCH   7   8
ATOM      8  C   UNL     1      -6.381   6.647  -5.149  1.00  0.00     0.000 C 
BRANCH   8   9
ATOM      9  C   UNL     1      -6.810   8.100  -5.429  1.00  0.00     0.000 C 
BRANCH   9  10
ATOM     10  C   UNL     1      -8.321   8.244  -5.682  1.00  0.00     0.000 C 
BRANCH  10  11
ATOM     11  C   UNL     1      -8.664   8.373  -7.176  1.00  0.00     0.000 C 
BRANCH  11  12
ATOM     12  C   UNL     1      -8.333   7.111  -7.999  1.00  0.00     0.006 C 
BRANCH  12  13
ATOM     13  C   UNL     1      -9.145   5.892  -7.540  1.00  0.00     0.053 C 
BRANCH  13  14
ATOM     14  C   UNL     1      -8.380   4.630  -7.784  1.00  0.00     0.041 C 
ATOM     15  O   UNL     1      -8.307   3.749  -6.886  1.00  0.00    -0.550 OA
ATOM     16  O   UNL     1      -7.713   4.446  -8.988  1.00  0.00    -0.550 OA
ENDBRANCH  13  14
ENDBRANCH  12  13
ENDBRANCH  11  12
ENDBRANCH  10  11
ENDBRANCH   9  10
ENDBRANCH   8   9
ENDBRANCH   7   8
ENDBRANCH   6   7
ENDBRANCH   5   6
ENDBRANCH   4   5
ENDBRANCH   3   4
ENDBRANCH   2   3
ENDBRANCH   1   2
BRANCH   1  17
ATOM     17  C   UNL     1      -0.058   5.700  -8.799  1.00  0.00     0.000 C 
BRANCH  17  18
ATOM     18  C   UNL     1       1.065   4.882  -9.451  1.00  0.00     0.000 C 
BRANCH  18  19
ATOM     19  C   UNL     1       2.409   5.631  -9.470  1.00  0.00     0.000 C 
BRANCH  19  20
ATOM     20  C   UNL     1       3.581   4.853 -10.106  1.00  0.00     0.000 C 
BRANCH  20  21
ATOM     21  C   UNL     1       4.985   5.297  -9.656  1.00  0.00     0.000 C 
BRANCH  21  22
ATOM     22  C   UNL     1       5.367   6.741 -10.035  1.00  0.00    -0.000 C 
BRANCH  22  23
ATOM     23  C   UNL     1       5.904   7.579  -8.855  1.00  0.00    -0.000 C 
BRANCH  23  24
ATOM     24  C   UNL     1       7.365   8.021  -9.058  1.00  0.00    -0.000 C 
BRANCH  24  25
ATOM     25  C   UNL     1       8.334   7.343  -8.073  1.00  0.00    -0.000 C 
BRANCH  25  26
ATOM     26  C   UNL     1       7.801   7.208  -6.632  1.00  0.00    -0.000 C 
BRANCH  26  27
ATOM     27  C   UNL     1       8.408   8.234  -5.650  1.00  0.00    -0.000 C 
BRANCH  27  28
ATOM     28  C   UNL     1       7.881   8.048  -4.214  1.00  0.00    -0.000 C 
BRANCH  28  29
ATOM     29  C   UNL     1       6.391   8.394  -4.079  1.00  0.00    -0.003 C 
ATOM     30  C   UNL     1       5.529   7.180  -3.731  1.00  0.00     0.004 C 
ENDBRANCH  28  29
ENDBRANCH  27  28
ENDBRANCH  26  27
ENDBRANCH  25  26
ENDBRANCH  24  25
ENDBRANCH  23  24
ENDBRANCH  22  23
ENDBRANCH  21  22
ENDBRANCH  20  21
ENDBRANCH  19  20
ENDBRANCH  18  19
ENDBRANCH  17  18
ENDBRANCH   1  17
TORSDOF 26
ENDMDL
