MODEL 1
REMARK VINA RESULT:    -3.729      0.000      0.000
REMARK INTER + INTRA:          -6.889
REMARK INTER:                  -5.910
REMARK INTRA:                  -0.979
REMARK UNBOUND:                -0.979
REMARK SMILES CCCCCCCCCCCC(=O)[O-]
REMARK SMILES IDX 7 1 8 2 9 3 10 4 11 5 12 6 13 7 14 8 6 9 5 10 4 11 3 12 2 13
REMARK SMILES IDX 1 14
REMARK H PARENT
REMARK Flexibility Score: inf
ROOT
ATOM      1  C   UNL     1      40.110  12.401  12.488  1.00  0.00     0.000 C 
ENDROOT
BRANCH   1   2
ATOM      2  C   UNL     1      41.120  12.026  13.579  1.00  0.00     0.000 C 
BRANCH   2   3
ATOM      3  C   UNL     1      40.557  12.329  14.976  1.00  0.00     0.000 C 
BRANCH   3   4
ATOM      4  C   UNL     1      39.859  13.699  15.053  1.00  0.00     0.006 C 
BRANCH   4   5
ATOM      5  C   UNL     1      40.811  14.901  14.957  1.00  0.00     0.053 C 
BRANCH   5   6
ATOM      6  C   UNL     1      40.184  16.156  15.480  1.00  0.00     0.041 C 
ATOM      7  O   UNL     1      40.857  16.958  16.181  1.00  0.00    -0.550 OA
ATOM      8  O   UNL     1      38.865  16.457  15.168  1.00  0.00    -0.550 OA
ENDBRANCH   5   6
ENDBRANCH   4   5
ENDBRANCH   3   4
ENDBRANCH   2   3
ENDBRANCH   1   2
BRANCH   1   9
ATOM      9  C   UNL     1      39.803  11.200  11.586  1.00  0.00     0.000 C 
BRANCH   9  10
ATOM     10  C   UNL     1      40.999  10.242  11.516  1.00  0.00    -0.000 C 
BRANCH  10  11
ATOM     11  C   UNL     1      40.540   8.781  11.584  1.00  0.00    -0.000 C 
BRANCH  11  12
ATOM     12  C   UNL     1      39.068   8.685  12.004  1.00  0.00    -0.000 C 
BRANCH  12  13
ATOM     13  C   UNL     1      38.934   8.062  13.398  1.00  0.00    -0.003 C 
ATOM     14  C   UNL     1      38.548   9.113  14.436  1.00  0.00     0.004 C 
ENDBRANCH  12  13
ENDBRANCH  11  12
ENDBRANCH  10  11
ENDBRANCH   9  10
ENDBRANCH   1   9
TORSDOF 10
ENDMDL
MODEL 2
REMARK VINA RESULT:    -3.684      2.287      2.943
REMARK INTER + INTRA:          -6.817
REMARK INTER:                  -5.786
REMARK INTRA:                  -1.030
REMARK UNBOUND:                -0.979
REMARK SMILES CCCCCCCCCCCC(=O)[O-]
REMARK SMILES IDX 7 1 8 2 9 3 10 4 11 5 12 6 13 7 14 8 6 9 5 10 4 11 3 12 2 13
REMARK SMILES IDX 1 14
REMARK H PARENT
REMARK Flexibility Score: inf
ROOT
ATOM      1  C   UNL     1      38.945  12.328  13.511  1.00  0.00     0.000 C 
ENDROOT
BRANCH   1   2
ATOM      2  C   UNL     1      39.597  12.683  14.852  1.00  0.00     0.000 C 
BRANCH   2   3
ATOM      3  C   UNL     1      40.501  11.541  15.342  1.00  0.00     0.000 C 
BRANCH   3   4
ATOM      4  C   UNL     1      41.896  12.029  15.776  1.00  0.00     0.006 C 
BRANCH   4   5
ATOM      5  C   UNL     1      42.299  11.609  17.199  1.00  0.00     0.053 C 
BRANCH   5   6
ATOM      6  C   UNL     1      42.361  12.779  18.131  1.00  0.00     0.041 C 
ATOM      7  O   UNL     1      43.384  12.971  18.841  1.00  0.00    -0.550 OA
ATOM      8  O   UNL     1      41.302  13.675  18.194  1.00  0.00    -0.550 OA
ENDBRANCH   5   6
ENDBRANCH   4   5
ENDBRANCH   3   4
ENDBRANCH   2   3
ENDBRANCH   1   2
BRANCH   1   9
ATOM      9  C   UNL     1      39.955  12.436  12.362  1.00  0.00     0.000 C 
BRANCH   9  10
ATOM     10  C   UNL     1      39.863  11.220  11.431  1.00  0.00    -0.000 C 
BRANCH  10  11
ATOM     11  C   UNL     1      41.005  10.232  11.702  1.00  0.00    -0.000 C 
BRANCH  11  12
ATOM     12  C   UNL     1      40.502   8.785  11.656  1.00  0.00    -0.000 C 
BRANCH  12  13
ATOM     13  C   UNL     1      39.021   8.705  12.043  1.00  0.00    -0.003 C 
ATOM     14  C   UNL     1      38.855   8.309  13.508  1.00  0.00     0.004 C 
ENDBRANCH  12  13
ENDBRANCH  11  12
ENDBRANCH  10  11
ENDBRANCH   9  10
ENDBRANCH   1   9
TORSDOF 10
ENDMDL
MODEL 3
REMARK VINA RESULT:    -3.648      2.557      3.068
REMARK INTER + INTRA:          -6.761
REMARK INTER:                  -5.551
REMARK INTRA:                  -1.209
REMARK UNBOUND:                -0.979
REMARK SMILES CCCCCCCCCCCC(=O)[O-]
REMARK SMILES IDX 7 1 8 2 9 3 10 4 11 5 12 6 13 7 14 8 6 9 5 10 4 11 3 12 2 13
REMARK SMILES IDX 1 14
REMARK H PARENT
REMARK Flexibility Score: inf
ROOT
ATOM      1  C   UNL     1      41.157  11.207  12.623  1.00  0.00     0.000 C 
ENDROOT
BRANCH   1   2
ATOM      2  C   UNL     1      40.121  12.313  12.854  1.00  0.00     0.000 C 
BRANCH   2   3
ATOM      3  C   UNL     1      40.452  13.121  14.119  1.00  0.00     0.000 C 
BRANCH   3   4
ATOM      4  C   UNL     1      41.378  12.361  15.086  1.00  0.00     0.006 C 
BRANCH   4   5
ATOM      5  C   UNL     1      41.268  12.810  16.552  1.00  0.00     0.053 C 
BRANCH   5   6
ATOM      6  C   UNL     1      42.109  11.967  17.460  1.00  0.00     0.041 C 
ATOM      7  O   UNL     1      43.006  12.498  18.168  1.00  0.00    -0.550 OA
ATOM      8  O   UNL     1      41.882  10.600  17.548  1.00  0.00    -0.550 OA
ENDBRANCH   5   6
ENDBRANCH   4   5
ENDBRANCH   3   4
ENDBRANCH   2   3
ENDBRANCH   1   2
BRANCH   1   9
ATOM      9  C   UNL     1      40.854  10.429  11.337  1.00  0.00     0.000 C 
BRANCH   9  10
ATOM     10  C   UNL     1      40.577   8.951  11.639  1.00  0.00    -0.000 C 
BRANCH  10  11
ATOM     11  C   UNL     1      39.088   8.717  11.923  1.00  0.00    -0.000 C 
BRANCH  11  12
ATOM     12  C   UNL     1      38.871   8.241  13.364  1.00  0.00    -0.000 C 
BRANCH  12  13
ATOM     13  C   UNL     1      38.249   9.350  14.220  1.00  0.00    -0.003 C 
ATOM     14  C   UNL     1      39.056   9.579  15.496  1.00  0.00     0.004 C 
ENDBRANCH  12  13
ENDBRANCH  11  12
ENDBRANCH  10  11
ENDBRANCH   9  10
ENDBRANCH   1   9
TORSDOF 10
ENDMDL
MODEL 4
REMARK VINA RESULT:    -3.617      1.501      2.784
REMARK INTER + INTRA:          -6.710
REMARK INTER:                  -5.589
REMARK INTRA:                  -1.121
REMARK UNBOUND:                -0.979
REMARK SMILES CCCCCCCCCCCC(=O)[O-]
REMARK SMILES IDX 7 1 8 2 9 3 10 4 11 5 12 6 13 7 14 8 6 9 5 10 4 11 3 12 2 13
REMARK SMILES IDX 1 14
REMARK H PARENT
REMARK Flexibility Score: inf
ROOT
ATOM      1  C   UNL     1      41.408  12.003  14.885  1.00  0.00     0.000 C 
ENDROOT
BRANCH   1   2
ATOM      2  C   UNL     1      42.064  12.395  16.214  1.00  0.00     0.000 C 
BRANCH   2   3
ATOM      3  C   UNL     1      41.006  12.603  17.308  1.00  0.00     0.000 C 
BRANCH   3   4
ATOM      4  C   UNL     1      40.901  14.070  17.765  1.00  0.00     0.006 C 
BRANCH   4   5
ATOM      5  C   UNL     1      39.830  14.888  17.027  1.00  0.00     0.053 C 
BRANCH   5   6
ATOM      6  C   UNL     1      40.431  15.817  16.019  1.00  0.00     0.041 C 
ATOM      7  O   UNL     1      40.816  16.965  16.364  1.00  0.00    -0.550 OA
ATOM      8  O   UNL     1      40.596  15.403  14.703  1.00  0.00    -0.550 OA
ENDBRANCH   5   6
ENDBRANCH   4   5
ENDBRANCH   3   4
ENDBRANCH   2   3
ENDBRANCH   1   2
BRANCH   1   9
ATOM      9  C   UNL     1      39.912  11.727  15.070  1.00  0.00     0.000 C 
BRANCH   9  10
ATOM     10  C   UNL     1      39.125  12.074  13.800  1.00  0.00    -0.000 C 
BRANCH  10  11
ATOM     11  C   UNL     1      40.069  12.299  12.612  1.00  0.00    -0.000 C 
BRANCH  11  12
ATOM     12  C   UNL     1      39.852  11.239  11.527  1.00  0.00    -0.000 C 
BRANCH  12  13
ATOM     13  C   UNL     1      40.969  10.188  11.555  1.00  0.00    -0.003 C 
ATOM     14  C   UNL     1      40.397   8.780  11.701  1.00  0.00     0.004 C 
ENDBRANCH  12  13
ENDBRANCH  11  12
ENDBRANCH  10  11
ENDBRANCH   9  10
ENDBRANCH   1   9
TORSDOF 10
ENDMDL
MODEL 5
REMARK VINA RESULT:    -3.515      3.475      6.312
REMARK INTER + INTRA:          -6.549
REMARK INTER:                  -5.265
REMARK INTRA:                  -1.284
REMARK UNBOUND:                -0.979
REMARK SMILES CCCCCCCCCCCC(=O)[O-]
REMARK SMILES IDX 7 1 8 2 9 3 10 4 11 5 12 6 13 7 14 8 6 9 5 10 4 11 3 12 2 13
REMARK SMILES IDX 1 14
REMARK H PARENT
REMARK Flexibility Score: inf
ROOT
ATOM      1  C   UNL     1      41.519  12.027  14.764  1.00  0.00     0.000 C 
ENDROOT
BRANCH   1   2
ATOM      2  C   UNL     1      40.049  11.591  14.802  1.00  0.00     0.000 C 
BRANCH   2   3
ATOM      3  C   UNL     1      39.229  12.332  13.735  1.00  0.00     0.000 C 
BRANCH   3   4
ATOM      4  C   UNL     1      39.781  12.129  12.312  1.00  0.00     0.006 C 
BRANCH   4   5
ATOM      5  C   UNL     1      39.385  10.792  11.664  1.00  0.00     0.053 C 
BRANCH   5   6
ATOM      6  C   UNL     1      40.543   9.846  11.583  1.00  0.00     0.041 C 
ATOM      7  O   UNL     1      41.723  10.285  11.594  1.00  0.00    -0.550 OA
ATOM      8  O   UNL     1      40.319   8.477  11.527  1.00  0.00    -0.550 OA
ENDBRANCH   5   6
ENDBRANCH   4   5
ENDBRANCH   3   4
ENDBRANCH   2   3
ENDBRANCH   1   2
BRANCH   1   9
ATOM      9  C   UNL     1      42.077  12.205  16.180  1.00  0.00     0.000 C 
BRANCH   9  10
ATOM     10  C   UNL     1      40.954  12.172  17.224  1.00  0.00    -0.000 C 
BRANCH  10  11
ATOM     11  C   UNL     1      40.822  13.525  17.934  1.00  0.00    -0.000 C 
BRANCH  11  12
ATOM     12  C   UNL     1      39.750  14.394  17.268  1.00  0.00    -0.000 C 
BRANCH  12  13
ATOM     13  C   UNL     1      40.365  15.667  16.673  1.00  0.00    -0.003 C 
ATOM     14  C   UNL     1      40.331  15.635  15.148  1.00  0.00     0.004 C 
ENDBRANCH  12  13
ENDBRANCH  11  12
ENDBRANCH  10  11
ENDBRANCH   9  10
ENDBRANCH   1   9
TORSDOF 10
ENDMDL
MODEL 6
REMARK VINA RESULT:    -3.373      2.341      3.787
REMARK INTER + INTRA:          -6.323
REMARK INTER:                  -5.125
REMARK INTRA:                  -1.199
REMARK UNBOUND:                -0.979
REMARK SMILES CCCCCCCCCCCC(=O)[O-]
REMARK SMILES IDX 7 1 8 2 9 3 10 4 11 5 12 6 13 7 14 8 6 9 5 10 4 11 3 12 2 13
REMARK SMILES IDX 1 14
REMARK H PARENT
REMARK Flexibility Score: inf
ROOT
ATOM      1  C   UNL     1      38.914   8.514  13.603  1.00  0.00     0.000 C 
ENDROOT
BRANCH   1   2
ATOM      2  C   UNL     1      37.876   9.433  14.259  1.00  0.00     0.000 C 
BRANCH   2   3
ATOM      3  C   UNL     1      38.208   9.666  15.741  1.00  0.00     0.000 C 
BRANCH   3   4
ATOM      4  C   UNL     1      39.058  10.930  15.970  1.00  0.00     0.006 C 
BRANCH   4   5
ATOM      5  C   UNL     1      40.348  10.688  16.769  1.00  0.00     0.053 C 
BRANCH   5   6
ATOM      6  C   UNL     1      41.134  11.949  16.958  1.00  0.00     0.041 C 
ATOM      7  O   UNL     1      42.392  11.926  16.900  1.00  0.00    -0.550 OA
ATOM      8  O   UNL     1      40.476  13.154  17.166  1.00  0.00    -0.550 OA
ENDBRANCH   5   6
ENDBRANCH   4   5
ENDBRANCH   3   4
ENDBRANCH   2   3
ENDBRANCH   1   2
BRANCH   1   9
ATOM      9  C   UNL     1      38.980   8.752  12.090  1.00  0.00     0.000 C 
BRANCH   9  10
ATOM     10  C   UNL     1      40.431   8.729  11.592  1.00  0.00    -0.000 C 
BRANCH  10  11
ATOM     11  C   UNL     1      41.012  10.146  11.523  1.00  0.00    -0.000 C 
BRANCH  11  12
ATOM     12  C   UNL     1      39.898  11.193  11.406  1.00  0.00    -0.000 C 
BRANCH  12  13
ATOM     13  C   UNL     1      39.962  12.196  12.564  1.00  0.00    -0.003 C 
ATOM     14  C   UNL     1      41.274  12.065  13.334  1.00  0.00     0.004 C 
ENDBRANCH  12  13
ENDBRANCH  11  12
ENDBRANCH  10  11
ENDBRANCH   9  10
ENDBRANCH   1   9
TORSDOF 10
ENDMDL
MODEL 7
REMARK VINA RESULT:    -3.359      3.706      5.897
REMARK INTER + INTRA:          -6.303
REMARK INTER:                  -5.167
REMARK INTRA:                  -1.135
REMARK UNBOUND:                -0.979
REMARK SMILES CCCCCCCCCCCC(=O)[O-]
REMARK SMILES IDX 7 1 8 2 9 3 10 4 11 5 12 6 13 7 14 8 6 9 5 10 4 11 3 12 2 13
REMARK SMILES IDX 1 14
REMARK H PARENT
REMARK Flexibility Score: inf
ROOT
ATOM      1  C   UNL     1      38.685  12.160  13.401  1.00  0.00     0.000 C 
ENDROOT
BRANCH   1   2
ATOM      2  C   UNL     1      39.901  12.356  12.487  1.00  0.00     0.000 C 
BRANCH   2   3
ATOM      3  C   UNL     1      40.866  11.165  12.595  1.00  0.00     0.000 C 
BRANCH   3   4
ATOM      4  C   UNL     1      40.890  10.300  11.321  1.00  0.00     0.006 C 
BRANCH   4   5
ATOM      5  C   UNL     1      40.549   8.820  11.555  1.00  0.00     0.053 C 
BRANCH   5   6
ATOM      6  C   UNL     1      39.204   8.648  12.191  1.00  0.00     0.041 C 
ATOM      7  O   UNL     1      39.091   8.023  13.278  1.00  0.00    -0.550 OA
ATOM      8  O   UNL     1      38.079   9.207  11.598  1.00  0.00    -0.550 OA
ENDBRANCH   5   6
ENDBRANCH   4   5
ENDBRANCH   3   4
ENDBRANCH   2   3
ENDBRANCH   1   2
BRANCH   1   9
ATOM      9  C   UNL     1      38.477  13.377  14.309  1.00  0.00     0.000 C 
BRANCH   9  10
ATOM     10  C   UNL     1      38.469  12.967  15.787  1.00  0.00    -0.000 C 
BRANCH  10  11
ATOM     11  C   UNL     1      39.091  11.578  15.976  1.00  0.00    -0.000 C 
BRANCH  11  12
ATOM     12  C   UNL     1      40.027  11.555  17.190  1.00  0.00    -0.000 C 
BRANCH  12  13
ATOM     13  C   UNL     1      41.179  12.552  17.014  1.00  0.00    -0.003 C 
ATOM     14  C   UNL     1      42.103  12.131  15.875  1.00  0.00     0.004 C 
ENDBRANCH  12  13
ENDBRANCH  11  12
ENDBRANCH  10  11
ENDBRANCH   9  10
ENDBRANCH   1   9
TORSDOF 10
ENDMDL
MODEL 8
REMARK VINA RESULT:    -3.275      3.376      6.698
REMARK INTER + INTRA:          -6.168
REMARK INTER:                  -5.203
REMARK INTRA:                  -0.965
REMARK UNBOUND:                -0.979
REMARK SMILES CCCCCCCCCCCC(=O)[O-]
REMARK SMILES IDX 7 1 8 2 9 3 10 4 11 5 12 6 13 7 14 8 6 9 5 10 4 11 3 12 2 13
REMARK SMILES IDX 1 14
REMARK H PARENT
REMARK Flexibility Score: inf
ROOT
ATOM      1  C   UNL     1      42.035  12.599  16.622  1.00  0.00     0.000 C 
ENDROOT
BRANCH   1   2
ATOM      2  C   UNL     1      41.996  11.987  15.217  1.00  0.00     0.000 C 
BRANCH   2   3
ATOM      3  C   UNL     1      40.567  11.993  14.654  1.00  0.00     0.000 C 
BRANCH   3   4
ATOM      4  C   UNL     1      40.466  12.698  13.289  1.00  0.00     0.006 C 
BRANCH   4   5
ATOM      5  C   UNL     1      39.746  11.879  12.205  1.00  0.00     0.053 C 
BRANCH   5   6
ATOM      6  C   UNL     1      40.306  10.496  12.084  1.00  0.00     0.041 C 
ATOM      7  O   UNL     1      39.584   9.495  12.335  1.00  0.00    -0.550 OA
ATOM      8  O   UNL     1      41.616  10.311  11.664  1.00  0.00    -0.550 OA
ENDBRANCH   5   6
ENDBRANCH   4   5
ENDBRANCH   3   4
ENDBRANCH   2   3
ENDBRANCH   1   2
BRANCH   1   9
ATOM      9  C   UNL     1      40.618  12.818  17.166  1.00  0.00     0.000 C 
BRANCH   9  10
ATOM     10  C   UNL     1      40.413  14.276  17.598  1.00  0.00    -0.000 C 
BRANCH  10  11
ATOM     11  C   UNL     1      39.582  15.045  16.564  1.00  0.00    -0.000 C 
BRANCH  11  12
ATOM     12  C   UNL     1      40.451  16.049  15.797  1.00  0.00    -0.000 C 
BRANCH  12  13
ATOM     13  C   UNL     1      40.822  17.244  16.683  1.00  0.00    -0.003 C 
ATOM     14  C   UNL     1      39.583  17.850  17.337  1.00  0.00     0.004 C 
ENDBRANCH  12  13
ENDBRANCH  11  12
ENDBRANCH  10  11
ENDBRANCH   9  10
ENDBRANCH   1   9
TORSDOF 10
ENDMDL
MODEL 9
REMARK VINA RESULT:    -3.221      3.537      6.359
REMARK INTER + INTRA:          -6.083
REMARK INTER:                  -4.951
REMARK INTRA:                  -1.132
REMARK UNBOUND:                -0.979
REMARK SMILES CCCCCCCCCCCC(=O)[O-]
REMARK SMILES IDX 7 1 8 2 9 3 10 4 11 5 12 6 13 7 14 8 6 9 5 10 4 11 3 12 2 13
REMARK SMILES IDX 1 14
REMARK H PARENT
REMARK Flexibility Score: inf
ROOT
ATOM      1  C   UNL     1      41.262  11.940  13.973  1.00  0.00     0.000 C 
ENDROOT
BRANCH   1   2
ATOM      2  C   UNL     1      40.354  12.590  12.923  1.00  0.00     0.000 C 
BRANCH   2   3
ATOM      3  C   UNL     1      38.878  12.266  13.197  1.00  0.00     0.000 C 
BRANCH   3   4
ATOM      4  C   UNL     1      38.539  10.782  12.963  1.00  0.00     0.006 C 
BRANCH   4   5
ATOM      5  C   UNL     1      38.908  10.263  11.564  1.00  0.00     0.053 C 
BRANCH   5   6
ATOM      6  C   UNL     1      39.886   9.131  11.627  1.00  0.00     0.041 C 
ATOM      7  O   UNL     1      39.477   7.939  11.647  1.00  0.00    -0.550 OA
ATOM      8  O   UNL     1      41.250   9.390  11.632  1.00  0.00    -0.550 OA
ENDBRANCH   5   6
ENDBRANCH   4   5
ENDBRANCH   3   4
ENDBRANCH   2   3
ENDBRANCH   1   2
BRANCH   1   9
ATOM      9  C   UNL     1      40.700  12.138  15.386  1.00  0.00     0.000 C 
BRANCH   9  10
ATOM     10  C   UNL     1      41.483  13.216  16.145  1.00  0.00    -0.000 C 
BRANCH  10  11
ATOM     11  C   UNL     1      40.576  14.395  16.518  1.00  0.00    -0.000 C 
BRANCH  11  12
ATOM     12  C   UNL     1      40.492  15.409  15.371  1.00  0.00    -0.000 C 
BRANCH  12  13
ATOM     13  C   UNL     1      39.139  16.130  15.374  1.00  0.00    -0.003 C 
ATOM     14  C   UNL     1      37.983  15.133  15.367  1.00  0.00     0.004 C 
ENDBRANCH  12  13
ENDBRANCH  11  12
ENDBRANCH  10  11
ENDBRANCH   9  10
ENDBRANCH   1   9
TORSDOF 10
ENDMDL
