MODEL 1
REMARK VINA RESULT:    -5.796      0.000      0.000
REMARK INTER + INTRA:         -16.695
REMARK INTER:                 -13.251
REMARK INTRA:                  -3.444
REMARK UNBOUND:                -3.444
REMARK SMILES CCCCCCCCCCCCCCCCCCCCCCCC(=O)[O-]
REMARK SMILES IDX 13 1 14 2 15 3 16 4 17 5 18 6 19 7 20 8 21 9 22 10 23 11
REMARK SMILES IDX 24 12 25 13 26 14 12 15 11 16 10 17 9 18 8 19 7 20 6 21 5 22
REMARK SMILES IDX 4 23 3 24 2 25 1 26
REMARK H PARENT
REMARK Flexibility Score: inf
ROOT
ATOM      1  C   UNL     1     138.492 138.980 114.585  1.00  0.00     0.000 C 
ENDROOT
BRANCH   1   2
ATOM      2  C   UNL     1     139.525 139.021 113.444  1.00  0.00     0.000 C 
BRANCH   2   3
ATOM      3  C   UNL     1     140.978 139.028 113.950  1.00  0.00     0.000 C 
BRANCH   3   4
ATOM      4  C   UNL     1     142.053 139.136 112.848  1.00  0.00     0.000 C 
BRANCH   4   5
ATOM      5  C   UNL     1     143.227 140.079 113.169  1.00  0.00     0.000 C 
BRANCH   5   6
ATOM      6  C   UNL     1     143.243 140.630 114.607  1.00  0.00     0.000 C 
BRANCH   6   7
ATOM      7  C   UNL     1     143.092 142.164 114.688  1.00  0.00     0.000 C 
BRANCH   7   8
ATOM      8  C   UNL     1     142.269 142.739 113.522  1.00  0.00     0.000 C 
BRANCH   8   9
ATOM      9  C   UNL     1     140.757 142.707 113.795  1.00  0.00     0.000 C 
BRANCH   9  10
ATOM     10  C   UNL     1     140.404 143.165 115.221  1.00  0.00     0.006 C 
BRANCH  10  11
ATOM     11  C   UNL     1     139.538 142.137 115.961  1.00  0.00     0.053 C 
BRANCH  11  12
ATOM     12  C   UNL     1     140.050 141.871 117.343  1.00  0.00     0.041 C 
ATOM     13  O   UNL     1     141.194 142.275 117.685  1.00  0.00    -0.550 OA
ATOM     14  O   UNL     1     139.278 141.152 118.247  1.00  0.00    -0.550 OA
ENDBRANCH  11  12
ENDBRANCH  10  11
ENDBRANCH   9  10
ENDBRANCH   8   9
ENDBRANCH   7   8
ENDBRANCH   6   7
ENDBRANCH   5   6
ENDBRANCH   4   5
ENDBRANCH   3   4
ENDBRANCH   2   3
ENDBRANCH   1   2
BRANCH   1  15
ATOM     15  C   UNL     1     137.241 138.169 114.213  1.00  0.00     0.000 C 
BRANCH  15  16
ATOM     16  C   UNL     1     137.584 136.852 113.494  1.00  0.00     0.000 C 
BRANCH  16  17
ATOM     17  C   UNL     1     136.461 136.383 112.555  1.00  0.00     0.000 C 
BRANCH  17  18
ATOM     18  C   UNL     1     135.065 136.806 113.051  1.00  0.00    -0.000 C 
BRANCH  18  19
ATOM     19  C   UNL     1     133.990 135.727 112.823  1.00  0.00    -0.000 C 
BRANCH  19  20
ATOM     20  C   UNL     1     134.518 134.278 112.824  1.00  0.00    -0.000 C 
BRANCH  20  21
ATOM     21  C   UNL     1     134.599 133.630 114.223  1.00  0.00    -0.000 C 
BRANCH  21  22
ATOM     22  C   UNL     1     136.020 133.201 114.642  1.00  0.00    -0.000 C 
BRANCH  22  23
ATOM     23  C   UNL     1     136.665 134.114 115.703  1.00  0.00    -0.000 C 
BRANCH  23  24
ATOM     24  C   UNL     1     135.699 134.441 116.855  1.00  0.00    -0.000 C 
BRANCH  24  25
ATOM     25  C   UNL     1     135.626 135.947 117.153  1.00  0.00    -0.003 C 
ATOM     26  C   UNL     1     134.410 136.618 116.516  1.00  0.00     0.004 C 
ENDBRANCH  24  25
ENDBRANCH  23  24
ENDBRANCH  22  23
ENDBRANCH  21  22
ENDBRANCH  20  21
ENDBRANCH  19  20
ENDBRANCH  18  19
ENDBRANCH  17  18
ENDBRANCH  16  17
ENDBRANCH  15  16
ENDBRANCH   1  15
TORSDOF 22
ENDMDL
MODEL 2
REMARK VINA RESULT:    -5.762      2.263      8.770
REMARK INTER + INTRA:         -16.616
REMARK INTER:                 -13.341
REMARK INTRA:                  -3.276
REMARK UNBOUND:                -3.444
REMARK SMILES CCCCCCCCCCCCCCCCCCCCCCCC(=O)[O-]
REMARK SMILES IDX 13 1 14 2 15 3 16 4 17 5 18 6 19 7 20 8 21 9 22 10 23 11
REMARK SMILES IDX 24 12 25 13 26 14 12 15 11 16 10 17 9 18 8 19 7 20 6 21 5 22
REMARK SMILES IDX 4 23 3 24 2 25 1 26
REMARK H PARENT
REMARK Flexibility Score: inf
ROOT
ATOM      1  C   UNL     1     137.275 138.002 114.171  1.00  0.00     0.000 C 
ENDROOT
BRANCH   1   2
ATOM      2  C   UNL     1     137.250 137.562 112.695  1.00  0.00     0.000 C 
BRANCH   2   3
ATOM      3  C   UNL     1     135.922 136.898 112.291  1.00  0.00     0.000 C 
BRANCH   3   4
ATOM      4  C   UNL     1     134.695 137.332 113.121  1.00  0.00     0.000 C 
BRANCH   4   5
ATOM      5  C   UNL     1     133.513 136.346 113.106  1.00  0.00     0.000 C 
BRANCH   5   6
ATOM      6  C   UNL     1     133.074 135.836 114.492  1.00  0.00     0.000 C 
BRANCH   6   7
ATOM      7  C   UNL     1     133.374 134.340 114.730  1.00  0.00     0.000 C 
BRANCH   7   8
ATOM      8  C   UNL     1     134.379 133.771 113.713  1.00  0.00     0.000 C 
BRANCH   8   9
ATOM      9  C   UNL     1     135.720 133.390 114.360  1.00  0.00     0.000 C 
BRANCH   9  10
ATOM     10  C   UNL     1     136.344 134.551 115.155  1.00  0.00     0.006 C 
BRANCH  10  11
ATOM     11  C   UNL     1     136.601 134.175 116.620  1.00  0.00     0.053 C 
BRANCH  11  12
ATOM     12  C   UNL     1     135.997 135.171 117.562  1.00  0.00     0.041 C 
ATOM     13  O   UNL     1     135.367 136.167 117.116  1.00  0.00    -0.550 OA
ATOM     14  O   UNL     1     136.154 135.018 118.934  1.00  0.00    -0.550 OA
ENDBRANCH  11  12
ENDBRANCH  10  11
ENDBRANCH   9  10
ENDBRANCH   8   9
ENDBRANCH   7   8
ENDBRANCH   6   7
ENDBRANCH   5   6
ENDBRANCH   4   5
ENDBRANCH   3   4
ENDBRANCH   2   3
ENDBRANCH   1   2
BRANCH   1  15
ATOM     15  C   UNL     1     138.408 138.998 114.464  1.00  0.00     0.000 C 
BRANCH  15  16
ATOM     16  C   UNL     1     139.304 139.250 113.238  1.00  0.00     0.000 C 
BRANCH  16  17
ATOM     17  C   UNL     1     140.800 139.101 113.561  1.00  0.00     0.000 C 
BRANCH  17  18
ATOM     18  C   UNL     1     141.690 139.923 112.610  1.00  0.00    -0.000 C 
BRANCH  18  19
ATOM     19  C   UNL     1     143.174 139.922 113.020  1.00  0.00    -0.000 C 
BRANCH  19  20
ATOM     20  C   UNL     1     143.658 141.222 113.696  1.00  0.00    -0.000 C 
BRANCH  20  21
ATOM     21  C   UNL     1     142.789 142.461 113.390  1.00  0.00    -0.000 C 
BRANCH  21  22
ATOM     22  C   UNL     1     142.114 143.083 114.630  1.00  0.00    -0.000 C 
BRANCH  22  23
ATOM     23  C   UNL     1     140.573 143.033 114.596  1.00  0.00    -0.000 C 
BRANCH  23  24
ATOM     24  C   UNL     1     139.996 142.109 115.683  1.00  0.00    -0.000 C 
BRANCH  24  25
ATOM     25  C   UNL     1     140.997 141.837 116.816  1.00  0.00    -0.003 C 
ATOM     26  C   UNL     1     141.457 140.381 116.863  1.00  0.00     0.004 C 
ENDBRANCH  24  25
ENDBRANCH  23  24
ENDBRANCH  22  23
ENDBRANCH  21  22
ENDBRANCH  20  21
ENDBRANCH  19  20
ENDBRANCH  18  19
ENDBRANCH  17  18
ENDBRANCH  16  17
ENDBRANCH  15  16
ENDBRANCH   1  15
TORSDOF 22
ENDMDL
MODEL 3
REMARK VINA RESULT:    -5.745      2.203      8.582
REMARK INTER + INTRA:         -16.578
REMARK INTER:                 -13.390
REMARK INTRA:                  -3.188
REMARK UNBOUND:                -3.444
REMARK SMILES CCCCCCCCCCCCCCCCCCCCCCCC(=O)[O-]
REMARK SMILES IDX 13 1 14 2 15 3 16 4 17 5 18 6 19 7 20 8 21 9 22 10 23 11
REMARK SMILES IDX 24 12 25 13 26 14 12 15 11 16 10 17 9 18 8 19 7 20 6 21 5 22
REMARK SMILES IDX 4 23 3 24 2 25 1 26
REMARK H PARENT
REMARK Flexibility Score: inf
ROOT
ATOM      1  C   UNL     1     138.042 137.609 114.037  1.00  0.00     0.000 C 
ENDROOT
BRANCH   1   2
ATOM      2  C   UNL     1     137.288 137.622 112.695  1.00  0.00     0.000 C 
BRANCH   2   3
ATOM      3  C   UNL     1     136.120 136.621 112.654  1.00  0.00     0.000 C 
BRANCH   3   4
ATOM      4  C   UNL     1     134.947 136.947 113.603  1.00  0.00     0.000 C 
BRANCH   4   5
ATOM      5  C   UNL     1     133.550 136.591 113.063  1.00  0.00     0.000 C 
BRANCH   5   6
ATOM      6  C   UNL     1     133.149 135.113 113.223  1.00  0.00     0.000 C 
BRANCH   6   7
ATOM      7  C   UNL     1     133.312 134.575 114.661  1.00  0.00     0.000 C 
BRANCH   7   8
ATOM      8  C   UNL     1     134.090 133.249 114.711  1.00  0.00     0.000 C 
BRANCH   8   9
ATOM      9  C   UNL     1     135.566 133.416 114.317  1.00  0.00     0.000 C 
BRANCH   9  10
ATOM     10  C   UNL     1     136.511 133.381 115.532  1.00  0.00     0.006 C 
BRANCH  10  11
ATOM     11  C   UNL     1     136.825 134.787 116.061  1.00  0.00     0.053 C 
BRANCH  11  12
ATOM     12  C   UNL     1     136.374 134.959 117.479  1.00  0.00     0.041 C 
ATOM     13  O   UNL     1     136.960 135.776 118.238  1.00  0.00    -0.550 OA
ATOM     14  O   UNL     1     135.324 134.195 117.974  1.00  0.00    -0.550 OA
ENDBRANCH  11  12
ENDBRANCH  10  11
ENDBRANCH   9  10
ENDBRANCH   8   9
ENDBRANCH   7   8
ENDBRANCH   6   7
ENDBRANCH   5   6
ENDBRANCH   4   5
ENDBRANCH   3   4
ENDBRANCH   2   3
ENDBRANCH   1   2
BRANCH   1  15
ATOM     15  C   UNL     1     139.222 138.594 114.055  1.00  0.00     0.000 C 
BRANCH  15  16
ATOM     16  C   UNL     1     139.249 139.504 112.813  1.00  0.00     0.000 C 
BRANCH  16  17
ATOM     17  C   UNL     1     140.634 140.124 112.567  1.00  0.00     0.000 C 
BRANCH  17  18
ATOM     18  C   UNL     1     141.750 139.394 113.339  1.00  0.00    -0.000 C 
BRANCH  18  19
ATOM     19  C   UNL     1     142.890 140.330 113.781  1.00  0.00    -0.000 C 
BRANCH  19  20
ATOM     20  C   UNL     1     142.943 140.611 115.297  1.00  0.00    -0.000 C 
BRANCH  20  21
ATOM     21  C   UNL     1     141.887 139.846 116.125  1.00  0.00    -0.000 C 
BRANCH  21  22
ATOM     22  C   UNL     1     141.511 140.527 117.457  1.00  0.00    -0.000 C 
BRANCH  22  23
ATOM     23  C   UNL     1     140.147 141.245 117.431  1.00  0.00    -0.000 C 
BRANCH  23  24
ATOM     24  C   UNL     1     139.680 141.559 115.999  1.00  0.00    -0.000 C 
BRANCH  24  25
ATOM     25  C   UNL     1     139.762 143.057 115.668  1.00  0.00    -0.003 C 
ATOM     26  C   UNL     1     140.672 143.350 114.475  1.00  0.00     0.004 C 
ENDBRANCH  24  25
ENDBRANCH  23  24
ENDBRANCH  22  23
ENDBRANCH  21  22
ENDBRANCH  20  21
ENDBRANCH  19  20
ENDBRANCH  18  19
ENDBRANCH  17  18
ENDBRANCH  16  17
ENDBRANCH  15  16
ENDBRANCH   1  15
TORSDOF 22
ENDMDL
MODEL 4
REMARK VINA RESULT:    -5.722      2.324      8.451
REMARK INTER + INTRA:         -16.525
REMARK INTER:                 -13.512
REMARK INTRA:                  -3.013
REMARK UNBOUND:                -3.444
REMARK SMILES CCCCCCCCCCCCCCCCCCCCCCCC(=O)[O-]
REMARK SMILES IDX 13 1 14 2 15 3 16 4 17 5 18 6 19 7 20 8 21 9 22 10 23 11
REMARK SMILES IDX 24 12 25 13 26 14 12 15 11 16 10 17 9 18 8 19 7 20 6 21 5 22
REMARK SMILES IDX 4 23 3 24 2 25 1 26
REMARK H PARENT
REMARK Flexibility Score: inf
ROOT
ATOM      1  C   UNL     1     138.761 138.324 114.312  1.00  0.00     0.000 C 
ENDROOT
BRANCH   1   2
ATOM      2  C   UNL     1     137.368 137.732 114.029  1.00  0.00     0.000 C 
BRANCH   2   3
ATOM      3  C   UNL     1     137.201 137.261 112.573  1.00  0.00     0.000 C 
BRANCH   3   4
ATOM      4  C   UNL     1     135.765 136.859 112.178  1.00  0.00     0.000 C 
BRANCH   4   5
ATOM      5  C   UNL     1     134.659 137.365 113.123  1.00  0.00     0.000 C 
BRANCH   5   6
ATOM      6  C   UNL     1     133.563 136.334 113.451  1.00  0.00     0.000 C 
BRANCH   6   7
ATOM      7  C   UNL     1     133.782 135.596 114.790  1.00  0.00     0.000 C 
BRANCH   7   8
ATOM      8  C   UNL     1     133.641 134.070 114.652  1.00  0.00     0.000 C 
BRANCH   8   9
ATOM      9  C   UNL     1     134.925 133.403 114.134  1.00  0.00     0.000 C 
BRANCH   9  10
ATOM     10  C   UNL     1     136.199 134.130 114.601  1.00  0.00     0.006 C 
BRANCH  10  11
ATOM     11  C   UNL     1     136.753 133.546 115.908  1.00  0.00     0.053 C 
BRANCH  11  12
ATOM     12  C   UNL     1     136.469 134.437 117.078  1.00  0.00     0.041 C 
ATOM     13  O   UNL     1     135.624 134.095 117.947  1.00  0.00    -0.550 OA
ATOM     14  O   UNL     1     137.117 135.661 117.195  1.00  0.00    -0.550 OA
ENDBRANCH  11  12
ENDBRANCH  10  11
ENDBRANCH   9  10
ENDBRANCH   8   9
ENDBRANCH   7   8
ENDBRANCH   6   7
ENDBRANCH   5   6
ENDBRANCH   4   5
ENDBRANCH   3   4
ENDBRANCH   2   3
ENDBRANCH   1   2
BRANCH   1  15
ATOM     15  C   UNL     1     139.010 139.628 113.538  1.00  0.00     0.000 C 
BRANCH  15  16
ATOM     16  C   UNL     1     140.278 139.564 112.667  1.00  0.00     0.000 C 
BRANCH  16  17
ATOM     17  C   UNL     1     140.451 140.811 111.785  1.00  0.00     0.000 C 
BRANCH  17  18
ATOM     18  C   UNL     1     141.526 141.770 112.330  1.00  0.00    -0.000 C 
BRANCH  18  19
ATOM     19  C   UNL     1     140.998 142.712 113.427  1.00  0.00    -0.000 C 
BRANCH  19  20
ATOM     20  C   UNL     1     141.698 142.567 114.794  1.00  0.00    -0.000 C 
BRANCH  20  21
ATOM     21  C   UNL     1     143.004 141.745 114.758  1.00  0.00    -0.000 C 
BRANCH  21  22
ATOM     22  C   UNL     1     142.862 140.304 115.287  1.00  0.00    -0.000 C 
BRANCH  22  23
ATOM     23  C   UNL     1     141.574 140.057 116.098  1.00  0.00    -0.000 C 
BRANCH  23  24
ATOM     24  C   UNL     1     141.806 140.181 117.614  1.00  0.00    -0.000 C 
BRANCH  24  25
ATOM     25  C   UNL     1     140.520 140.529 118.380  1.00  0.00    -0.003 C 
ATOM     26  C   UNL     1     139.497 141.265 117.515  1.00  0.00     0.004 C 
ENDBRANCH  24  25
ENDBRANCH  23  24
ENDBRANCH  22  23
ENDBRANCH  21  22
ENDBRANCH  20  21
ENDBRANCH  19  20
ENDBRANCH  18  19
ENDBRANCH  17  18
ENDBRANCH  16  17
ENDBRANCH  15  16
ENDBRANCH   1  15
TORSDOF 22
ENDMDL
MODEL 5
REMARK VINA RESULT:    -5.696      2.318      8.454
REMARK INTER + INTRA:         -16.465
REMARK INTER:                 -13.318
REMARK INTRA:                  -3.147
REMARK UNBOUND:                -3.444
REMARK SMILES CCCCCCCCCCCCCCCCCCCCCCCC(=O)[O-]
REMARK SMILES IDX 13 1 14 2 15 3 16 4 17 5 18 6 19 7 20 8 21 9 22 10 23 11
REMARK SMILES IDX 24 12 25 13 26 14 12 15 11 16 10 17 9 18 8 19 7 20 6 21 5 22
REMARK SMILES IDX 4 23 3 24 2 25 1 26
REMARK H PARENT
REMARK Flexibility Score: inf
ROOT
ATOM      1  C   UNL     1     138.072 138.122 114.307  1.00  0.00     0.000 C 
ENDROOT
BRANCH   1   2
ATOM      2  C   UNL     1     137.176 137.766 113.106  1.00  0.00     0.000 C 
BRANCH   2   3
ATOM      3  C   UNL     1     136.800 136.275 113.060  1.00  0.00     0.000 C 
BRANCH   3   4
ATOM      4  C   UNL     1     136.106 135.816 111.759  1.00  0.00     0.000 C 
BRANCH   4   5
ATOM      5  C   UNL     1     135.416 134.442 111.835  1.00  0.00     0.000 C 
BRANCH   5   6
ATOM      6  C   UNL     1     135.175 133.914 113.262  1.00  0.00     0.000 C 
BRANCH   6   7
ATOM      7  C   UNL     1     133.692 133.933 113.691  1.00  0.00     0.000 C 
BRANCH   7   8
ATOM      8  C   UNL     1     133.479 134.628 115.048  1.00  0.00     0.000 C 
BRANCH   8   9
ATOM      9  C   UNL     1     133.945 136.093 115.039  1.00  0.00     0.000 C 
BRANCH   9  10
ATOM     10  C   UNL     1     134.642 136.499 116.350  1.00  0.00     0.006 C 
BRANCH  10  11
ATOM     11  C   UNL     1     135.001 135.283 117.215  1.00  0.00     0.053 C 
BRANCH  11  12
ATOM     12  C   UNL     1     136.472 135.002 117.194  1.00  0.00     0.041 C 
ATOM     13  O   UNL     1     137.006 134.488 116.175  1.00  0.00    -0.550 OA
ATOM     14  O   UNL     1     137.251 135.280 118.310  1.00  0.00    -0.550 OA
ENDBRANCH  11  12
ENDBRANCH  10  11
ENDBRANCH   9  10
ENDBRANCH   8   9
ENDBRANCH   7   8
ENDBRANCH   6   7
ENDBRANCH   5   6
ENDBRANCH   4   5
ENDBRANCH   3   4
ENDBRANCH   2   3
ENDBRANCH   1   2
BRANCH   1  15
ATOM     15  C   UNL     1     138.909 139.386 114.058  1.00  0.00     0.000 C 
BRANCH  15  16
ATOM     16  C   UNL     1     140.027 139.159 113.025  1.00  0.00     0.000 C 
BRANCH  16  17
ATOM     17  C   UNL     1     139.954 140.149 111.851  1.00  0.00     0.000 C 
BRANCH  17  18
ATOM     18  C   UNL     1     140.695 141.467 112.147  1.00  0.00    -0.000 C 
BRANCH  18  19
ATOM     19  C   UNL     1     142.193 141.266 112.440  1.00  0.00    -0.000 C 
BRANCH  19  20
ATOM     20  C   UNL     1     142.840 142.383 113.285  1.00  0.00    -0.000 C 
BRANCH  20  21
ATOM     21  C   UNL     1     143.192 141.967 114.729  1.00  0.00    -0.000 C 
BRANCH  21  22
ATOM     22  C   UNL     1     142.875 140.494 115.060  1.00  0.00    -0.000 C 
BRANCH  22  23
ATOM     23  C   UNL     1     141.818 140.313 116.168  1.00  0.00    -0.000 C 
BRANCH  23  24
ATOM     24  C   UNL     1     141.512 141.631 116.902  1.00  0.00    -0.000 C 
BRANCH  24  25
ATOM     25  C   UNL     1     140.034 142.037 116.789  1.00  0.00    -0.003 C 
ATOM     26  C   UNL     1     139.721 142.774 115.487  1.00  0.00     0.004 C 
ENDBRANCH  24  25
ENDBRANCH  23  24
ENDBRANCH  22  23
ENDBRANCH  21  22
ENDBRANCH  20  21
ENDBRANCH  19  20
ENDBRANCH  18  19
ENDBRANCH  17  18
ENDBRANCH  16  17
ENDBRANCH  15  16
ENDBRANCH   1  15
TORSDOF 22
ENDMDL
MODEL 6
REMARK VINA RESULT:    -5.654      2.356      8.990
REMARK INTER + INTRA:         -16.370
REMARK INTER:                 -13.232
REMARK INTRA:                  -3.138
REMARK UNBOUND:                -3.444
REMARK SMILES CCCCCCCCCCCCCCCCCCCCCCCC(=O)[O-]
REMARK SMILES IDX 13 1 14 2 15 3 16 4 17 5 18 6 19 7 20 8 21 9 22 10 23 11
REMARK SMILES IDX 24 12 25 13 26 14 12 15 11 16 10 17 9 18 8 19 7 20 6 21 5 22
REMARK SMILES IDX 4 23 3 24 2 25 1 26
REMARK H PARENT
REMARK Flexibility Score: inf
ROOT
ATOM      1  C   UNL     1     137.522 137.564 114.598  1.00  0.00     0.000 C 
ENDROOT
BRANCH   1   2
ATOM      2  C   UNL     1     136.009 137.357 114.398  1.00  0.00     0.000 C 
BRANCH   2   3
ATOM      3  C   UNL     1     135.605 137.288 112.915  1.00  0.00     0.000 C 
BRANCH   3   4
ATOM      4  C   UNL     1     134.084 137.282 112.652  1.00  0.00     0.000 C 
BRANCH   4   5
ATOM      5  C   UNL     1     133.439 135.886 112.575  1.00  0.00     0.000 C 
BRANCH   5   6
ATOM      6  C   UNL     1     132.669 135.456 113.839  1.00  0.00     0.000 C 
BRANCH   6   7
ATOM      7  C   UNL     1     133.526 134.667 114.852  1.00  0.00     0.000 C 
BRANCH   7   8
ATOM      8  C   UNL     1     134.220 133.449 114.217  1.00  0.00     0.000 C 
BRANCH   8   9
ATOM      9  C   UNL     1     135.750 133.586 114.197  1.00  0.00     0.000 C 
BRANCH   9  10
ATOM     10  C   UNL     1     136.393 133.232 115.550  1.00  0.00     0.006 C 
BRANCH  10  11
ATOM     11  C   UNL     1     137.035 134.452 116.223  1.00  0.00     0.053 C 
BRANCH  11  12
ATOM     12  C   UNL     1     136.461 134.701 117.584  1.00  0.00     0.041 C 
ATOM     13  O   UNL     1     137.145 135.288 118.465  1.00  0.00    -0.550 OA
ATOM     14  O   UNL     1     135.180 134.259 117.892  1.00  0.00    -0.550 OA
ENDBRANCH  11  12
ENDBRANCH  10  11
ENDBRANCH   9  10
ENDBRANCH   8   9
ENDBRANCH   7   8
ENDBRANCH   6   7
ENDBRANCH   5   6
ENDBRANCH   4   5
ENDBRANCH   3   4
ENDBRANCH   2   3
ENDBRANCH   1   2
BRANCH   1  15
ATOM     15  C   UNL     1     138.199 138.168 113.358  1.00  0.00     0.000 C 
BRANCH  15  16
ATOM     16  C   UNL     1     138.869 139.522 113.654  1.00  0.00     0.000 C 
BRANCH  16  17
ATOM     17  C   UNL     1     139.790 139.469 114.884  1.00  0.00     0.000 C 
BRANCH  17  18
ATOM     18  C   UNL     1     139.587 140.673 115.822  1.00  0.00    -0.000 C 
BRANCH  18  19
ATOM     19  C   UNL     1     140.905 141.210 116.410  1.00  0.00    -0.000 C 
BRANCH  19  20
ATOM     20  C   UNL     1     142.171 140.816 115.623  1.00  0.00    -0.000 C 
BRANCH  20  21
ATOM     21  C   UNL     1     142.898 142.000 114.950  1.00  0.00    -0.000 C 
BRANCH  21  22
ATOM     22  C   UNL     1     141.994 142.875 114.057  1.00  0.00    -0.000 C 
BRANCH  22  23
ATOM     23  C   UNL     1     141.478 142.158 112.794  1.00  0.00    -0.000 C 
BRANCH  23  24
ATOM     24  C   UNL     1     142.614 141.502 111.990  1.00  0.00    -0.000 C 
BRANCH  24  25
ATOM     25  C   UNL     1     142.210 140.140 111.405  1.00  0.00    -0.003 C 
ATOM     26  C   UNL     1     142.421 138.988 112.387  1.00  0.00     0.004 C 
ENDBRANCH  24  25
ENDBRANCH  23  24
ENDBRANCH  22  23
ENDBRANCH  21  22
ENDBRANCH  20  21
ENDBRANCH  19  20
ENDBRANCH  18  19
ENDBRANCH  17  18
ENDBRANCH  16  17
ENDBRANCH  15  16
ENDBRANCH   1  15
TORSDOF 22
ENDMDL
MODEL 7
REMARK VINA RESULT:    -5.652      1.412      2.289
REMARK INTER + INTRA:         -16.364
REMARK INTER:                 -12.921
REMARK INTRA:                  -3.443
REMARK UNBOUND:                -3.444
REMARK SMILES CCCCCCCCCCCCCCCCCCCCCCCC(=O)[O-]
REMARK SMILES IDX 13 1 14 2 15 3 16 4 17 5 18 6 19 7 20 8 21 9 22 10 23 11
REMARK SMILES IDX 24 12 25 13 26 14 12 15 11 16 10 17 9 18 8 19 7 20 6 21 5 22
REMARK SMILES IDX 4 23 3 24 2 25 1 26
REMARK H PARENT
REMARK Flexibility Score: inf
ROOT
ATOM      1  C   UNL     1     137.316 136.617 113.833  1.00  0.00     0.000 C 
ENDROOT
BRANCH   1   2
ATOM      2  C   UNL     1     138.370 137.658 114.252  1.00  0.00     0.000 C 
BRANCH   2   3
ATOM      3  C   UNL     1     138.421 138.873 113.309  1.00  0.00     0.000 C 
BRANCH   3   4
ATOM      4  C   UNL     1     139.577 138.858 112.286  1.00  0.00     0.000 C 
BRANCH   4   5
ATOM      5  C   UNL     1     140.085 140.245 111.851  1.00  0.00     0.000 C 
BRANCH   5   6
ATOM      6  C   UNL     1     141.592 140.481 112.066  1.00  0.00     0.000 C 
BRANCH   6   7
ATOM      7  C   UNL     1     142.174 139.724 113.280  1.00  0.00     0.000 C 
BRANCH   7   8
ATOM      8  C   UNL     1     142.869 140.663 114.283  1.00  0.00     0.000 C 
BRANCH   8   9
ATOM      9  C   UNL     1     142.422 140.414 115.732  1.00  0.00     0.000 C 
BRANCH   9  10
ATOM     10  C   UNL     1     141.012 139.802 115.819  1.00  0.00     0.006 C 
BRANCH  10  11
ATOM     11  C   UNL     1     139.973 140.812 116.323  1.00  0.00     0.053 C 
BRANCH  11  12
ATOM     12  C   UNL     1     140.209 141.182 117.755  1.00  0.00     0.041 C 
ATOM     13  O   UNL     1     140.755 142.280 118.047  1.00  0.00    -0.550 OA
ATOM     14  O   UNL     1     139.854 140.302 118.770  1.00  0.00    -0.550 OA
ENDBRANCH  11  12
ENDBRANCH  10  11
ENDBRANCH   9  10
ENDBRANCH   8   9
ENDBRANCH   7   8
ENDBRANCH   6   7
ENDBRANCH   5   6
ENDBRANCH   4   5
ENDBRANCH   3   4
ENDBRANCH   2   3
ENDBRANCH   1   2
BRANCH   1  15
ATOM     15  C   UNL     1     136.322 137.174 112.802  1.00  0.00     0.000 C 
BRANCH  15  16
ATOM     16  C   UNL     1     134.860 136.844 113.155  1.00  0.00     0.000 C 
BRANCH  16  17
ATOM     17  C   UNL     1     134.614 136.804 114.672  1.00  0.00     0.000 C 
BRANCH  17  18
ATOM     18  C   UNL     1     133.353 136.001 115.042  1.00  0.00    -0.000 C 
BRANCH  18  19
ATOM     19  C   UNL     1     133.262 134.648 114.312  1.00  0.00    -0.000 C 
BRANCH  19  20
ATOM     20  C   UNL     1     134.032 133.496 114.989  1.00  0.00    -0.000 C 
BRANCH  20  21
ATOM     21  C   UNL     1     135.409 133.193 114.360  1.00  0.00    -0.000 C 
BRANCH  21  22
ATOM     22  C   UNL     1     136.599 133.360 115.327  1.00  0.00    -0.000 C 
BRANCH  22  23
ATOM     23  C   UNL     1     136.201 133.856 116.731  1.00  0.00    -0.000 C 
BRANCH  23  24
ATOM     24  C   UNL     1     136.918 135.164 117.113  1.00  0.00    -0.000 C 
BRANCH  24  25
ATOM     25  C   UNL     1     136.425 135.736 118.451  1.00  0.00    -0.003 C 
ATOM     26  C   UNL     1     134.928 136.046 118.446  1.00  0.00     0.004 C 
ENDBRANCH  24  25
ENDBRANCH  23  24
ENDBRANCH  22  23
ENDBRANCH  21  22
ENDBRANCH  20  21
ENDBRANCH  19  20
ENDBRANCH  18  19
ENDBRANCH  17  18
ENDBRANCH  16  17
ENDBRANCH  15  16
ENDBRANCH   1  15
TORSDOF 22
ENDMDL
MODEL 8
REMARK VINA RESULT:    -5.604      2.274      8.676
REMARK INTER + INTRA:         -16.254
REMARK INTER:                 -13.186
REMARK INTRA:                  -3.068
REMARK UNBOUND:                -3.444
REMARK SMILES CCCCCCCCCCCCCCCCCCCCCCCC(=O)[O-]
REMARK SMILES IDX 13 1 14 2 15 3 16 4 17 5 18 6 19 7 20 8 21 9 22 10 23 11
REMARK SMILES IDX 24 12 25 13 26 14 12 15 11 16 10 17 9 18 8 19 7 20 6 21 5 22
REMARK SMILES IDX 4 23 3 24 2 25 1 26
REMARK H PARENT
REMARK Flexibility Score: inf
ROOT
ATOM      1  C   UNL     1     138.876 138.335 114.311  1.00  0.00     0.000 C 
ENDROOT
BRANCH   1   2
ATOM      2  C   UNL     1     137.419 137.839 114.340  1.00  0.00     0.000 C 
BRANCH   2   3
ATOM      3  C   UNL     1     137.216 136.528 113.559  1.00  0.00     0.000 C 
BRANCH   3   4
ATOM      4  C   UNL     1     136.230 136.618 112.376  1.00  0.00     0.000 C 
BRANCH   4   5
ATOM      5  C   UNL     1     135.681 135.269 111.877  1.00  0.00     0.000 C 
BRANCH   5   6
ATOM      6  C   UNL     1     134.167 135.070 112.075  1.00  0.00     0.000 C 
BRANCH   6   7
ATOM      7  C   UNL     1     133.599 135.799 113.313  1.00  0.00     0.000 C 
BRANCH   7   8
ATOM      8  C   UNL     1     132.962 134.832 114.327  1.00  0.00     0.000 C 
BRANCH   8   9
ATOM      9  C   UNL     1     133.869 133.633 114.648  1.00  0.00     0.000 C 
BRANCH   9  10
ATOM     10  C   UNL     1     135.143 134.042 115.408  1.00  0.00     0.006 C 
BRANCH  10  11
ATOM     11  C   UNL     1     134.829 134.635 116.788  1.00  0.00     0.053 C 
BRANCH  11  12
ATOM     12  C   UNL     1     136.076 134.921 117.566  1.00  0.00     0.041 C 
ATOM     13  O   UNL     1     137.173 135.086 116.970  1.00  0.00    -0.550 OA
ATOM     14  O   UNL     1     136.035 134.977 118.954  1.00  0.00    -0.550 OA
ENDBRANCH  11  12
ENDBRANCH  10  11
ENDBRANCH   9  10
ENDBRANCH   8   9
ENDBRANCH   7   8
ENDBRANCH   6   7
ENDBRANCH   5   6
ENDBRANCH   4   5
ENDBRANCH   3   4
ENDBRANCH   2   3
ENDBRANCH   1   2
BRANCH   1  15
ATOM     15  C   UNL     1     139.103 139.424 113.250  1.00  0.00     0.000 C 
BRANCH  15  16
ATOM     16  C   UNL     1     140.525 139.387 112.662  1.00  0.00     0.000 C 
BRANCH  16  17
ATOM     17  C   UNL     1     141.613 139.441 113.747  1.00  0.00     0.000 C 
BRANCH  17  18
ATOM     18  C   UNL     1     142.758 140.405 113.382  1.00  0.00    -0.000 C 
BRANCH  18  19
ATOM     19  C   UNL     1     143.336 141.146 114.601  1.00  0.00    -0.000 C 
BRANCH  19  20
ATOM     20  C   UNL     1     142.763 142.560 114.829  1.00  0.00    -0.000 C 
BRANCH  20  21
ATOM     21  C   UNL     1     141.608 142.941 113.877  1.00  0.00    -0.000 C 
BRANCH  21  22
ATOM     22  C   UNL     1     140.261 143.193 114.584  1.00  0.00    -0.000 C 
BRANCH  22  23
ATOM     23  C   UNL     1     140.235 142.755 116.061  1.00  0.00    -0.000 C 
BRANCH  23  24
ATOM     24  C   UNL     1     139.555 141.387 116.252  1.00  0.00    -0.000 C 
BRANCH  24  25
ATOM     25  C   UNL     1     139.967 140.703 117.564  1.00  0.00    -0.003 C 
ATOM     26  C   UNL     1     141.450 140.335 117.599  1.00  0.00     0.004 C 
ENDBRANCH  24  25
ENDBRANCH  23  24
ENDBRANCH  22  23
ENDBRANCH  21  22
ENDBRANCH  20  21
ENDBRANCH  19  20
ENDBRANCH  18  19
ENDBRANCH  17  18
ENDBRANCH  16  17
ENDBRANCH  15  16
ENDBRANCH   1  15
TORSDOF 22
ENDMDL
MODEL 9
REMARK VINA RESULT:    -5.582      1.372      2.278
REMARK INTER + INTRA:         -16.206
REMARK INTER:                 -13.559
REMARK INTRA:                  -2.646
REMARK UNBOUND:                -3.444
REMARK SMILES CCCCCCCCCCCCCCCCCCCCCCCC(=O)[O-]
REMARK SMILES IDX 13 1 14 2 15 3 16 4 17 5 18 6 19 7 20 8 21 9 22 10 23 11
REMARK SMILES IDX 24 12 25 13 26 14 12 15 11 16 10 17 9 18 8 19 7 20 6 21 5 22
REMARK SMILES IDX 4 23 3 24 2 25 1 26
REMARK H PARENT
REMARK Flexibility Score: inf
ROOT
ATOM      1  C   UNL     1     139.574 138.906 113.704  1.00  0.00     0.000 C 
ENDROOT
BRANCH   1   2
ATOM      2  C   UNL     1     139.533 139.660 112.362  1.00  0.00     0.000 C 
BRANCH   2   3
ATOM      3  C   UNL     1     140.901 140.235 111.956  1.00  0.00     0.000 C 
BRANCH   3   4
ATOM      4  C   UNL     1     141.012 141.773 112.033  1.00  0.00     0.000 C 
BRANCH   4   5
ATOM      5  C   UNL     1     140.926 142.365 113.451  1.00  0.00     0.000 C 
BRANCH   5   6
ATOM      6  C   UNL     1     142.241 142.960 113.987  1.00  0.00     0.000 C 
BRANCH   6   7
ATOM      7  C   UNL     1     142.783 142.244 115.243  1.00  0.00     0.000 C 
BRANCH   7   8
ATOM      8  C   UNL     1     142.967 140.731 115.027  1.00  0.00     0.000 C 
BRANCH   8   9
ATOM      9  C   UNL     1     142.229 139.891 116.081  1.00  0.00     0.000 C 
BRANCH   9  10
ATOM     10  C   UNL     1     141.274 140.733 116.946  1.00  0.00     0.006 C 
BRANCH  10  11
ATOM     11  C   UNL     1     141.434 140.434 118.443  1.00  0.00     0.053 C 
BRANCH  11  12
ATOM     12  C   UNL     1     140.214 140.824 119.220  1.00  0.00     0.041 C 
ATOM     13  O   UNL     1     139.189 141.248 118.623  1.00  0.00    -0.550 OA
ATOM     14  O   UNL     1     140.218 140.747 120.608  1.00  0.00    -0.550 OA
ENDBRANCH  11  12
ENDBRANCH  10  11
ENDBRANCH   9  10
ENDBRANCH   8   9
ENDBRANCH   7   8
ENDBRANCH   6   7
ENDBRANCH   5   6
ENDBRANCH   4   5
ENDBRANCH   3   4
ENDBRANCH   2   3
ENDBRANCH   1   2
BRANCH   1  15
ATOM     15  C   UNL     1     138.169 138.558 114.222  1.00  0.00     0.000 C 
BRANCH  15  16
ATOM     16  C   UNL     1     137.365 137.711 113.220  1.00  0.00     0.000 C 
BRANCH  16  17
ATOM     17  C   UNL     1     136.029 137.219 113.802  1.00  0.00     0.000 C 
BRANCH  17  18
ATOM     18  C   UNL     1     135.124 136.577 112.734  1.00  0.00    -0.000 C 
BRANCH  18  19
ATOM     19  C   UNL     1     133.623 136.731 113.042  1.00  0.00    -0.000 C 
BRANCH  19  20
ATOM     20  C   UNL     1     133.108 135.855 114.202  1.00  0.00    -0.000 C 
BRANCH  20  21
ATOM     21  C   UNL     1     133.238 134.335 113.959  1.00  0.00    -0.000 C 
BRANCH  21  22
ATOM     22  C   UNL     1     134.040 133.586 115.043  1.00  0.00    -0.000 C 
BRANCH  22  23
ATOM     23  C   UNL     1     135.404 133.054 114.559  1.00  0.00    -0.000 C 
BRANCH  23  24
ATOM     24  C   UNL     1     136.581 133.868 115.123  1.00  0.00    -0.000 C 
BRANCH  24  25
ATOM     25  C   UNL     1     136.418 134.179 116.619  1.00  0.00    -0.003 C 
ATOM     26  C   UNL     1     136.796 135.618 116.969  1.00  0.00     0.004 C 
ENDBRANCH  24  25
ENDBRANCH  23  24
ENDBRANCH  22  23
ENDBRANCH  21  22
ENDBRANCH  20  21
ENDBRANCH  19  20
ENDBRANCH  18  19
ENDBRANCH  17  18
ENDBRANCH  16  17
ENDBRANCH  15  16
ENDBRANCH   1  15
TORSDOF 22
ENDMDL
