MODEL 1
REMARK VINA RESULT:    -3.247      0.000      0.000
REMARK INTER + INTRA:          -4.101
REMARK INTER:                  -4.006
REMARK INTRA:                  -0.095
REMARK UNBOUND:                -0.095
REMARK SMILES Oc1cc(O)c2cc(O)c(-c3cc(O)c(O)c(O)c3)[o+]c2c1
REMARK SMILES IDX 10 1 20 2 21 3 22 4 2 5 3 6 4 7 6 8 7 9 8 10 11 11 12 12
REMARK SMILES IDX 13 13 19 14 15 15 17 16 14 17 16 19 18 21 9 23 1 25 5 27
REMARK H PARENT 14 18 16 20 18 22 9 24 1 26 5 28
REMARK Flexibility Score: inf
ROOT
ATOM      1  C   UNL     1      32.676  -1.410  43.452  1.00  0.00     0.402 A 
ATOM      2  O   UNL     1      33.448  -2.471  43.673  1.00  0.00    -0.202 OA
ATOM      3  C   UNL     1      34.741  -2.510  43.369  1.00  0.00     0.368 A 
ATOM      4  C   UNL     1      35.468  -3.672  43.635  1.00  0.00     0.162 A 
ATOM      5  C   UNL     1      36.826  -3.742  43.325  1.00  0.00     0.128 A 
ATOM      6  C   UNL     1      37.465  -2.641  42.741  1.00  0.00     0.093 A 
ATOM      7  C   UNL     1      36.757  -1.464  42.464  1.00  0.00     0.136 A 
ATOM      8  C   UNL     1      35.377  -1.389  42.781  1.00  0.00     0.125 A 
ATOM      9  C   UNL     1      34.592  -0.247  42.551  1.00  0.00     0.078 A 
ATOM     10  C   UNL     1      33.237  -0.246  42.895  1.00  0.00     0.223 A 
ENDROOT
BRANCH   1  11
ATOM     11  C   UNL     1      31.246  -1.494  43.826  1.00  0.00     0.091 A 
ATOM     12  C   UNL     1      30.232  -1.135  42.924  1.00  0.00     0.068 A 
ATOM     13  C   UNL     1      28.884  -1.243  43.290  1.00  0.00     0.162 A 
ATOM     14  C   UNL     1      30.889  -1.997  45.086  1.00  0.00     0.068 A 
ATOM     15  C   UNL     1      28.531  -1.724  44.559  1.00  0.00     0.200 A 
ATOM     16  C   UNL     1      29.547  -2.110  45.465  1.00  0.00     0.162 A 
BRANCH  13  17
ATOM     17  O   UNL     1      27.883  -0.877  42.391  1.00  0.00    -0.504 OA
ATOM     18  H   UNL     1      26.912  -1.117  42.550  1.00  0.00     0.293 HD
ENDBRANCH  13  17
BRANCH  15  19
ATOM     19  O   UNL     1      27.173  -1.805  44.875  1.00  0.00    -0.502 OA
ATOM     20  H   UNL     1      26.617  -2.642  44.778  1.00  0.00     0.293 HD
ENDBRANCH  15  19
BRANCH  16  21
ATOM     21  O   UNL     1      29.271  -2.607  46.741  1.00  0.00    -0.504 OA
ATOM     22  H   UNL     1      29.709  -2.270  47.586  1.00  0.00     0.293 HD
ENDBRANCH  16  21
ENDBRANCH   1  11
BRANCH  10  23
ATOM     23  O   UNL     1      32.469   0.904  42.712  1.00  0.00    -0.500 OA
ATOM     24  H   UNL     1      32.673   1.569  41.975  1.00  0.00     0.294 HD
ENDBRANCH  10  23
BRANCH   5  25
ATOM     25  O   UNL     1      37.534  -4.909  43.598  1.00  0.00    -0.507 OA
ATOM     26  H   UNL     1      38.543  -4.951  43.510  1.00  0.00     0.293 HD
ENDBRANCH   5  25
BRANCH   7  27
ATOM     27  O   UNL     1      37.465  -0.412  41.877  1.00  0.00    -0.507 OA
ATOM     28  H   UNL     1      38.371  -0.508  41.439  1.00  0.00     0.293 HD
ENDBRANCH   7  27
TORSDOF 7
ENDMDL
MODEL 2
REMARK VINA RESULT:    -3.202      0.075      1.800
REMARK INTER + INTRA:          -4.045
REMARK INTER:                  -4.036
REMARK INTRA:                  -0.009
REMARK UNBOUND:                -0.095
REMARK SMILES Oc1cc(O)c2cc(O)c(-c3cc(O)c(O)c(O)c3)[o+]c2c1
REMARK SMILES IDX 10 1 20 2 21 3 22 4 2 5 3 6 4 7 6 8 7 9 8 10 11 11 12 12
REMARK SMILES IDX 13 13 19 14 15 15 17 16 14 17 16 19 18 21 9 23 1 25 5 27
REMARK H PARENT 14 18 16 20 18 22 9 24 1 26 5 28
REMARK Flexibility Score: inf
ROOT
ATOM      1  C   UNL     1      32.673  -1.463  43.492  1.00  0.00     0.402 A 
ATOM      2  O   UNL     1      33.462  -2.516  43.691  1.00  0.00    -0.202 OA
ATOM      3  C   UNL     1      34.752  -2.532  43.374  1.00  0.00     0.368 A 
ATOM      4  C   UNL     1      35.498  -3.688  43.618  1.00  0.00     0.162 A 
ATOM      5  C   UNL     1      36.854  -3.734  43.293  1.00  0.00     0.128 A 
ATOM      6  C   UNL     1      37.471  -2.618  42.716  1.00  0.00     0.093 A 
ATOM      7  C   UNL     1      36.744  -1.448  42.461  1.00  0.00     0.136 A 
ATOM      8  C   UNL     1      35.366  -1.396  42.793  1.00  0.00     0.125 A 
ATOM      9  C   UNL     1      34.563  -0.262  42.585  1.00  0.00     0.078 A 
ATOM     10  C   UNL     1      33.212  -0.284  42.943  1.00  0.00     0.223 A 
ENDROOT
BRANCH   1  11
ATOM     11  C   UNL     1      31.248  -1.572  43.879  1.00  0.00     0.091 A 
ATOM     12  C   UNL     1      30.869  -2.060  45.140  1.00  0.00     0.068 A 
ATOM     13  C   UNL     1      29.516  -2.133  45.496  1.00  0.00     0.162 A 
ATOM     14  C   UNL     1      30.255  -1.126  42.995  1.00  0.00     0.068 A 
ATOM     15  C   UNL     1      28.524  -1.708  44.601  1.00  0.00     0.200 A 
ATOM     16  C   UNL     1      28.900  -1.194  43.337  1.00  0.00     0.162 A 
BRANCH  13  17
ATOM     17  O   UNL     1      29.147  -2.626  46.747  1.00  0.00    -0.504 OA
ATOM     18  H   UNL     1      28.663  -3.510  46.848  1.00  0.00     0.293 HD
ENDBRANCH  13  17
BRANCH  15  19
ATOM     19  O   UNL     1      27.190  -1.810  45.003  1.00  0.00    -0.502 OA
ATOM     20  H   UNL     1      26.401  -1.628  44.400  1.00  0.00     0.293 HD
ENDBRANCH  15  19
BRANCH  16  21
ATOM     21  O   UNL     1      27.969  -0.742  42.399  1.00  0.00    -0.504 OA
ATOM     22  H   UNL     1      27.308  -1.340  41.926  1.00  0.00     0.293 HD
ENDBRANCH  16  21
ENDBRANCH   1  11
BRANCH  10  23
ATOM     23  O   UNL     1      32.427   0.857  42.783  1.00  0.00    -0.500 OA
ATOM     24  H   UNL     1      31.445   0.798  42.538  1.00  0.00     0.294 HD
ENDBRANCH  10  23
BRANCH   5  25
ATOM     25  O   UNL     1      37.581  -4.895  43.544  1.00  0.00    -0.507 OA
ATOM     26  H   UNL     1      37.629  -5.301  44.472  1.00  0.00     0.293 HD
ENDBRANCH   5  25
BRANCH   7  27
ATOM     27  O   UNL     1      37.432  -0.378  41.880  1.00  0.00    -0.507 OA
ATOM     28  H   UNL     1      36.990   0.375  41.372  1.00  0.00     0.293 HD
ENDBRANCH   7  27
TORSDOF 7
ENDMDL
MODEL 3
REMARK VINA RESULT:    -1.579     11.381     14.689
REMARK INTER + INTRA:          -2.044
REMARK INTER:                  -1.813
REMARK INTRA:                  -0.231
REMARK UNBOUND:                -0.095
REMARK SMILES Oc1cc(O)c2cc(O)c(-c3cc(O)c(O)c(O)c3)[o+]c2c1
REMARK SMILES IDX 10 1 20 2 21 3 22 4 2 5 3 6 4 7 6 8 7 9 8 10 11 11 12 12
REMARK SMILES IDX 13 13 19 14 15 15 17 16 14 17 16 19 18 21 9 23 1 25 5 27
REMARK H PARENT 14 18 16 20 18 22 9 24 1 26 5 28
REMARK Flexibility Score: inf
ROOT
ATOM      1  C   UNL     1      20.695  -8.600  43.498  1.00  0.00     0.402 A 
ATOM      2  O   UNL     1      21.475  -9.272  44.341  1.00  0.00    -0.202 OA
ATOM      3  C   UNL     1      21.322 -10.566  44.604  1.00  0.00     0.368 A 
ATOM      4  C   UNL     1      22.189 -11.183  45.508  1.00  0.00     0.162 A 
ATOM      5  C   UNL     1      22.051 -12.539  45.805  1.00  0.00     0.128 A 
ATOM      6  C   UNL     1      21.037 -13.286  45.194  1.00  0.00     0.093 A 
ATOM      7  C   UNL     1      20.155 -12.690  44.284  1.00  0.00     0.136 A 
ATOM      8  C   UNL     1      20.294 -11.312  43.978  1.00  0.00     0.125 A 
ATOM      9  C   UNL     1      19.465 -10.634  43.069  1.00  0.00     0.078 A 
ATOM     10  C   UNL     1      19.666  -9.274  42.815  1.00  0.00     0.223 A 
ENDROOT
BRANCH   1  11
ATOM     11  C   UNL     1      20.961  -7.157  43.297  1.00  0.00     0.091 A 
ATOM     12  C   UNL     1      22.143  -6.710  42.687  1.00  0.00     0.068 A 
ATOM     13  C   UNL     1      22.365  -5.341  42.485  1.00  0.00     0.162 A 
ATOM     14  C   UNL     1      19.988  -6.217  43.668  1.00  0.00     0.068 A 
ATOM     15  C   UNL     1      21.402  -4.403  42.879  1.00  0.00     0.200 A 
ATOM     16  C   UNL     1      20.197  -4.847  43.474  1.00  0.00     0.162 A 
BRANCH  13  17
ATOM     17  O   UNL     1      23.546  -4.905  41.885  1.00  0.00    -0.504 OA
ATOM     18  H   UNL     1      23.628  -4.811  40.880  1.00  0.00     0.293 HD
ENDBRANCH  13  17
BRANCH  15  19
ATOM     19  O   UNL     1      21.676  -3.050  42.661  1.00  0.00    -0.502 OA
ATOM     20  H   UNL     1      22.414  -2.540  43.125  1.00  0.00     0.293 HD
ENDBRANCH  15  19
BRANCH  16  21
ATOM     21  O   UNL     1      19.188  -3.972  43.881  1.00  0.00    -0.504 OA
ATOM     22  H   UNL     1      18.999  -3.737  44.845  1.00  0.00     0.293 HD
ENDBRANCH  16  21
ENDBRANCH   1  11
BRANCH  10  23
ATOM     23  O   UNL     1      18.875  -8.613  41.876  1.00  0.00    -0.500 OA
ATOM     24  H   UNL     1      19.034  -7.642  41.634  1.00  0.00     0.294 HD
ENDBRANCH  10  23
BRANCH   5  25
ATOM     25  O   UNL     1      22.925 -13.137  46.709  1.00  0.00    -0.507 OA
ATOM     26  H   UNL     1      23.907 -13.268  46.491  1.00  0.00     0.293 HD
ENDBRANCH   5  25
BRANCH   7  27
ATOM     27  O   UNL     1      19.167 -13.502  43.720  1.00  0.00    -0.507 OA
ATOM     28  H   UNL     1      18.234 -13.190  43.490  1.00  0.00     0.293 HD
ENDBRANCH   7  27
TORSDOF 7
ENDMDL
MODEL 4
REMARK VINA RESULT:    -1.428      1.076      7.041
REMARK INTER + INTRA:          -1.857
REMARK INTER:                  -2.261
REMARK INTRA:                   0.404
REMARK UNBOUND:                -0.095
REMARK SMILES Oc1cc(O)c2cc(O)c(-c3cc(O)c(O)c(O)c3)[o+]c2c1
REMARK SMILES IDX 10 1 20 2 21 3 22 4 2 5 3 6 4 7 6 8 7 9 8 10 11 11 12 12
REMARK SMILES IDX 13 13 19 14 15 15 17 16 14 17 16 19 18 21 9 23 1 25 5 27
REMARK H PARENT 14 18 16 20 18 22 9 24 1 26 5 28
REMARK Flexibility Score: inf
ROOT
ATOM      1  C   UNL     1      32.823  -1.893  43.483  1.00  0.00     0.402 A 
ATOM      2  O   UNL     1      32.116  -2.679  44.290  1.00  0.00    -0.202 OA
ATOM      3  C   UNL     1      30.812  -2.528  44.499  1.00  0.00     0.368 A 
ATOM      4  C   UNL     1      30.157  -3.402  45.369  1.00  0.00     0.162 A 
ATOM      5  C   UNL     1      28.789  -3.266  45.609  1.00  0.00     0.128 A 
ATOM      6  C   UNL     1      28.069  -2.246  44.976  1.00  0.00     0.093 A 
ATOM      7  C   UNL     1      28.704  -1.356  44.099  1.00  0.00     0.136 A 
ATOM      8  C   UNL     1      30.093  -1.494  43.851  1.00  0.00     0.125 A 
ATOM      9  C   UNL     1      30.810  -0.657  42.979  1.00  0.00     0.078 A 
ATOM     10  C   UNL     1      32.179  -0.858  42.781  1.00  0.00     0.223 A 
ENDROOT
BRANCH   1  11
ATOM     11  C   UNL     1      34.273  -2.158  43.341  1.00  0.00     0.091 A 
ATOM     12  C   UNL     1      34.839  -3.371  43.763  1.00  0.00     0.068 A 
ATOM     13  C   UNL     1      36.210  -3.612  43.598  1.00  0.00     0.162 A 
ATOM     14  C   UNL     1      35.092  -1.203  42.720  1.00  0.00     0.068 A 
ATOM     15  C   UNL     1      37.030  -2.646  42.999  1.00  0.00     0.200 A 
ATOM     16  C   UNL     1      36.463  -1.429  42.550  1.00  0.00     0.162 A 
BRANCH  13  17
ATOM     17  O   UNL     1      36.765  -4.816  44.026  1.00  0.00    -0.504 OA
ATOM     18  H   UNL     1      37.743  -4.889  44.282  1.00  0.00     0.293 HD
ENDBRANCH  13  17
BRANCH  15  19
ATOM     19  O   UNL     1      38.391  -2.933  42.866  1.00  0.00    -0.502 OA
ATOM     20  H   UNL     1      38.929  -2.754  42.030  1.00  0.00     0.293 HD
ENDBRANCH  15  19
BRANCH  16  21
ATOM     21  O   UNL     1      37.215  -0.427  41.935  1.00  0.00    -0.504 OA
ATOM     22  H   UNL     1      37.502   0.426  42.393  1.00  0.00     0.293 HD
ENDBRANCH  16  21
ENDBRANCH   1  11
BRANCH  10  23
ATOM     23  O   UNL     1      32.880  -0.059  41.877  1.00  0.00    -0.500 OA
ATOM     24  H   UNL     1      32.821  -0.209  40.877  1.00  0.00     0.294 HD
ENDBRANCH  10  23
BRANCH   5  25
ATOM     25  O   UNL     1      28.153  -4.147  46.479  1.00  0.00    -0.507 OA
ATOM     26  H   UNL     1      27.686  -4.981  46.142  1.00  0.00     0.293 HD
ENDBRANCH   5  25
BRANCH   7  27
ATOM     27  O   UNL     1      27.917  -0.363  43.510  1.00  0.00    -0.507 OA
ATOM     28  H   UNL     1      26.907  -0.382  43.473  1.00  0.00     0.293 HD
ENDBRANCH   7  27
TORSDOF 7
ENDMDL
MODEL 5
REMARK VINA RESULT:    -1.411      1.307      7.413
REMARK INTER + INTRA:          -1.836
REMARK INTER:                  -1.766
REMARK INTRA:                  -0.070
REMARK UNBOUND:                -0.095
REMARK SMILES Oc1cc(O)c2cc(O)c(-c3cc(O)c(O)c(O)c3)[o+]c2c1
REMARK SMILES IDX 10 1 20 2 21 3 22 4 2 5 3 6 4 7 6 8 7 9 8 10 11 11 12 12
REMARK SMILES IDX 13 13 19 14 15 15 17 16 14 17 16 19 18 21 9 23 1 25 5 27
REMARK H PARENT 14 18 16 20 18 22 9 24 1 26 5 28
REMARK Flexibility Score: inf
ROOT
ATOM      1  C   UNL     1      32.460  -1.828  43.505  1.00  0.00     0.402 A 
ATOM      2  O   UNL     1      31.537  -1.132  42.847  1.00  0.00    -0.202 OA
ATOM      3  C   UNL     1      30.239  -1.199  43.121  1.00  0.00     0.368 A 
ATOM      4  C   UNL     1      29.345  -0.431  42.371  1.00  0.00     0.162 A 
ATOM      5  C   UNL     1      27.976  -0.484  42.634  1.00  0.00     0.128 A 
ATOM      6  C   UNL     1      27.494  -1.312  43.654  1.00  0.00     0.093 A 
ATOM      7  C   UNL     1      28.370  -2.092  44.420  1.00  0.00     0.136 A 
ATOM      8  C   UNL     1      29.763  -2.039  44.157  1.00  0.00     0.125 A 
ATOM      9  C   UNL     1      30.715  -2.775  44.881  1.00  0.00     0.078 A 
ATOM     10  C   UNL     1      32.073  -2.667  44.567  1.00  0.00     0.223 A 
ENDROOT
BRANCH   1  11
ATOM     11  C   UNL     1      33.876  -1.674  43.100  1.00  0.00     0.091 A 
ATOM     12  C   UNL     1      34.702  -2.789  42.889  1.00  0.00     0.068 A 
ATOM     13  C   UNL     1      36.032  -2.622  42.483  1.00  0.00     0.162 A 
ATOM     14  C   UNL     1      34.391  -0.391  42.865  1.00  0.00     0.068 A 
ATOM     15  C   UNL     1      36.552  -1.337  42.272  1.00  0.00     0.200 A 
ATOM     16  C   UNL     1      35.719  -0.209  42.460  1.00  0.00     0.162 A 
BRANCH  13  17
ATOM     17  O   UNL     1      36.848  -3.735  42.283  1.00  0.00    -0.504 OA
ATOM     18  H   UNL     1      37.246  -3.946  41.375  1.00  0.00     0.293 HD
ENDBRANCH  13  17
BRANCH  15  19
ATOM     19  O   UNL     1      37.887  -1.227  41.875  1.00  0.00    -0.502 OA
ATOM     20  H   UNL     1      38.503  -2.014  41.735  1.00  0.00     0.293 HD
ENDBRANCH  15  19
BRANCH  16  21
ATOM     21  O   UNL     1      36.163   1.100  42.258  1.00  0.00    -0.504 OA
ATOM     22  H   UNL     1      36.632   1.414  41.421  1.00  0.00     0.293 HD
ENDBRANCH  16  21
ENDBRANCH   1  11
BRANCH  10  23
ATOM     23  O   UNL     1      33.023  -3.359  45.318  1.00  0.00    -0.500 OA
ATOM     24  H   UNL     1      33.976  -3.476  44.994  1.00  0.00     0.294 HD
ENDBRANCH  10  23
BRANCH   5  25
ATOM     25  O   UNL     1      27.100   0.289  41.876  1.00  0.00    -0.507 OA
ATOM     26  H   UNL     1      26.998   1.285  42.035  1.00  0.00     0.293 HD
ENDBRANCH   5  25
BRANCH   7  27
ATOM     27  O   UNL     1      27.810  -2.896  45.417  1.00  0.00    -0.507 OA
ATOM     28  H   UNL     1      27.151  -2.570  46.110  1.00  0.00     0.293 HD
ENDBRANCH   7  27
TORSDOF 7
ENDMDL
MODEL 6
REMARK VINA RESULT:    -1.388      1.099      6.877
REMARK INTER + INTRA:          -1.807
REMARK INTER:                  -2.156
REMARK INTRA:                   0.348
REMARK UNBOUND:                -0.095
REMARK SMILES Oc1cc(O)c2cc(O)c(-c3cc(O)c(O)c(O)c3)[o+]c2c1
REMARK SMILES IDX 10 1 20 2 21 3 22 4 2 5 3 6 4 7 6 8 7 9 8 10 11 11 12 12
REMARK SMILES IDX 13 13 19 14 15 15 17 16 14 17 16 19 18 21 9 23 1 25 5 27
REMARK H PARENT 14 18 16 20 18 22 9 24 1 26 5 28
REMARK Flexibility Score: inf
ROOT
ATOM      1  C   UNL     1      32.804  -1.936  43.464  1.00  0.00     0.402 A 
ATOM      2  O   UNL     1      32.096  -2.724  44.270  1.00  0.00    -0.202 OA
ATOM      3  C   UNL     1      30.796  -2.563  44.491  1.00  0.00     0.368 A 
ATOM      4  C   UNL     1      30.140  -3.440  45.358  1.00  0.00     0.162 A 
ATOM      5  C   UNL     1      28.776  -3.294  45.611  1.00  0.00     0.128 A 
ATOM      6  C   UNL     1      28.059  -2.262  44.993  1.00  0.00     0.093 A 
ATOM      7  C   UNL     1      28.695  -1.369  44.120  1.00  0.00     0.136 A 
ATOM      8  C   UNL     1      30.081  -1.517  43.859  1.00  0.00     0.125 A 
ATOM      9  C   UNL     1      30.797  -0.678  42.988  1.00  0.00     0.078 A 
ATOM     10  C   UNL     1      32.162  -0.888  42.777  1.00  0.00     0.223 A 
ENDROOT
BRANCH   1  11
ATOM     11  C   UNL     1      34.250  -2.212  43.307  1.00  0.00     0.091 A 
ATOM     12  C   UNL     1      35.101  -1.304  42.656  1.00  0.00     0.068 A 
ATOM     13  C   UNL     1      36.471  -1.573  42.539  1.00  0.00     0.162 A 
ATOM     14  C   UNL     1      34.797  -3.375  43.868  1.00  0.00     0.068 A 
ATOM     15  C   UNL     1      37.010  -2.748  43.080  1.00  0.00     0.200 A 
ATOM     16  C   UNL     1      36.163  -3.657  43.757  1.00  0.00     0.162 A 
BRANCH  13  17
ATOM     17  O   UNL     1      37.307  -0.669  41.885  1.00  0.00    -0.504 OA
ATOM     18  H   UNL     1      36.938   0.126  41.377  1.00  0.00     0.293 HD
ENDBRANCH  13  17
BRANCH  15  19
ATOM     19  O   UNL     1      38.381  -2.971  42.928  1.00  0.00    -0.502 OA
ATOM     20  H   UNL     1      38.803  -3.357  42.097  1.00  0.00     0.293 HD
ENDBRANCH  15  19
BRANCH  16  21
ATOM     21  O   UNL     1      36.631  -4.841  44.331  1.00  0.00    -0.504 OA
ATOM     22  H   UNL     1      36.856  -4.944  45.310  1.00  0.00     0.293 HD
ENDBRANCH  16  21
ENDBRANCH   1  11
BRANCH  10  23
ATOM     23  O   UNL     1      32.863  -0.087  41.875  1.00  0.00    -0.500 OA
ATOM     24  H   UNL     1      33.415   0.705  42.183  1.00  0.00     0.294 HD
ENDBRANCH  10  23
BRANCH   5  25
ATOM     25  O   UNL     1      28.139  -4.178  46.478  1.00  0.00    -0.507 OA
ATOM     26  H   UNL     1      27.281  -3.928  46.955  1.00  0.00     0.293 HD
ENDBRANCH   5  25
BRANCH   7  27
ATOM     27  O   UNL     1      27.911  -0.364  43.547  1.00  0.00    -0.507 OA
ATOM     28  H   UNL     1      27.399   0.330  44.073  1.00  0.00     0.293 HD
ENDBRANCH   7  27
TORSDOF 7
ENDMDL
MODEL 7
REMARK VINA RESULT:    -1.362      1.283      7.330
REMARK INTER + INTRA:          -1.776
REMARK INTER:                  -1.761
REMARK INTRA:                  -0.015
REMARK UNBOUND:                -0.095
REMARK SMILES Oc1cc(O)c2cc(O)c(-c3cc(O)c(O)c(O)c3)[o+]c2c1
REMARK SMILES IDX 10 1 20 2 21 3 22 4 2 5 3 6 4 7 6 8 7 9 8 10 11 11 12 12
REMARK SMILES IDX 13 13 19 14 15 15 17 16 14 17 16 19 18 21 9 23 1 25 5 27
REMARK H PARENT 14 18 16 20 18 22 9 24 1 26 5 28
REMARK Flexibility Score: inf
ROOT
ATOM      1  C   UNL     1      32.430  -1.867  43.550  1.00  0.00     0.402 A 
ATOM      2  O   UNL     1      31.523  -1.164  42.877  1.00  0.00    -0.202 OA
ATOM      3  C   UNL     1      30.224  -1.194  43.153  1.00  0.00     0.368 A 
ATOM      4  C   UNL     1      29.348  -0.422  42.386  1.00  0.00     0.162 A 
ATOM      5  C   UNL     1      27.978  -0.436  42.651  1.00  0.00     0.128 A 
ATOM      6  C   UNL     1      27.477  -1.229  43.690  1.00  0.00     0.093 A 
ATOM      7  C   UNL     1      28.335  -2.012  44.473  1.00  0.00     0.136 A 
ATOM      8  C   UNL     1      29.729  -1.998  44.208  1.00  0.00     0.125 A 
ATOM      9  C   UNL     1      30.664  -2.740  44.949  1.00  0.00     0.078 A 
ATOM     10  C   UNL     1      32.024  -2.671  44.632  1.00  0.00     0.223 A 
ENDROOT
BRANCH   1  11
ATOM     11  C   UNL     1      33.848  -1.756  43.141  1.00  0.00     0.091 A 
ATOM     12  C   UNL     1      34.459  -0.506  42.951  1.00  0.00     0.068 A 
ATOM     13  C   UNL     1      35.808  -0.422  42.586  1.00  0.00     0.162 A 
ATOM     14  C   UNL     1      34.619  -2.919  42.994  1.00  0.00     0.068 A 
ATOM     15  C   UNL     1      36.570  -1.587  42.417  1.00  0.00     0.200 A 
ATOM     16  C   UNL     1      35.968  -2.850  42.629  1.00  0.00     0.162 A 
BRANCH  13  17
ATOM     17  O   UNL     1      36.405   0.824  42.392  1.00  0.00    -0.504 OA
ATOM     18  H   UNL     1      37.361   0.910  42.069  1.00  0.00     0.293 HD
ENDBRANCH  13  17
BRANCH  15  19
ATOM     19  O   UNL     1      37.909  -1.447  42.045  1.00  0.00    -0.502 OA
ATOM     20  H   UNL     1      38.378  -2.046  41.381  1.00  0.00     0.293 HD
ENDBRANCH  15  19
BRANCH  16  21
ATOM     21  O   UNL     1      36.666  -4.052  42.490  1.00  0.00    -0.504 OA
ATOM     22  H   UNL     1      37.454  -4.316  43.062  1.00  0.00     0.293 HD
ENDBRANCH  16  21
ENDBRANCH   1  11
BRANCH  10  23
ATOM     23  O   UNL     1      32.957  -3.368  45.398  1.00  0.00    -0.500 OA
ATOM     24  H   UNL     1      32.709  -3.792  46.284  1.00  0.00     0.294 HD
ENDBRANCH  10  23
BRANCH   5  25
ATOM     25  O   UNL     1      27.120   0.340  41.875  1.00  0.00    -0.507 OA
ATOM     26  H   UNL     1      27.381   0.651  40.946  1.00  0.00     0.293 HD
ENDBRANCH   5  25
BRANCH   7  27
ATOM     27  O   UNL     1      27.758  -2.778  45.489  1.00  0.00    -0.507 OA
ATOM     28  H   UNL     1      26.763  -2.899  45.617  1.00  0.00     0.293 HD
ENDBRANCH   7  27
TORSDOF 7
ENDMDL
MODEL 8
REMARK VINA RESULT:    -1.123      2.140      3.810
REMARK INTER + INTRA:          -1.481
REMARK INTER:                  -1.857
REMARK INTRA:                   0.376
REMARK UNBOUND:                -0.095
REMARK SMILES Oc1cc(O)c2cc(O)c(-c3cc(O)c(O)c(O)c3)[o+]c2c1
REMARK SMILES IDX 10 1 20 2 21 3 22 4 2 5 3 6 4 7 6 8 7 9 8 10 11 11 12 12
REMARK SMILES IDX 13 13 19 14 15 15 17 16 14 17 16 19 18 21 9 23 1 25 5 27
REMARK H PARENT 14 18 16 20 18 22 9 24 1 26 5 28
REMARK Flexibility Score: inf
ROOT
ATOM      1  C   UNL     1      31.341  -1.991  44.470  1.00  0.00     0.402 A 
ATOM      2  O   UNL     1      31.566  -0.775  43.980  1.00  0.00    -0.202 OA
ATOM      3  C   UNL     1      32.717  -0.414  43.422  1.00  0.00     0.368 A 
ATOM      4  C   UNL     1      32.859   0.889  42.939  1.00  0.00     0.162 A 
ATOM      5  C   UNL     1      34.056   1.297  42.351  1.00  0.00     0.128 A 
ATOM      6  C   UNL     1      35.123   0.397  42.245  1.00  0.00     0.093 A 
ATOM      7  C   UNL     1      35.005  -0.915  42.722  1.00  0.00     0.136 A 
ATOM      8  C   UNL     1      33.788  -1.334  43.318  1.00  0.00     0.125 A 
ATOM      9  C   UNL     1      33.575  -2.632  43.812  1.00  0.00     0.078 A 
ATOM     10  C   UNL     1      32.346  -2.973  44.382  1.00  0.00     0.223 A 
ENDROOT
BRANCH   1  11
ATOM     11  C   UNL     1      30.019  -2.269  45.076  1.00  0.00     0.091 A 
ATOM     12  C   UNL     1      29.635  -3.573  45.425  1.00  0.00     0.068 A 
ATOM     13  C   UNL     1      28.388  -3.812  46.019  1.00  0.00     0.162 A 
ATOM     14  C   UNL     1      29.152  -1.204  45.361  1.00  0.00     0.068 A 
ATOM     15  C   UNL     1      27.514  -2.748  46.281  1.00  0.00     0.200 A 
ATOM     16  C   UNL     1      27.904  -1.428  45.953  1.00  0.00     0.162 A 
BRANCH  13  17
ATOM     17  O   UNL     1      28.011  -5.112  46.356  1.00  0.00    -0.504 OA
ATOM     18  H   UNL     1      27.964  -5.418  47.321  1.00  0.00     0.293 HD
ENDBRANCH  13  17
BRANCH  15  19
ATOM     19  O   UNL     1      26.280  -3.043  46.868  1.00  0.00    -0.502 OA
ATOM     20  H   UNL     1      25.717  -2.372  47.369  1.00  0.00     0.293 HD
ENDBRANCH  15  19
BRANCH  16  21
ATOM     21  O   UNL     1      27.091  -0.319  46.195  1.00  0.00    -0.504 OA
ATOM     22  H   UNL     1      27.101   0.212  47.054  1.00  0.00     0.293 HD
ENDBRANCH  16  21
ENDBRANCH   1  11
BRANCH  10  23
ATOM     23  O   UNL     1      32.117  -4.275  44.827  1.00  0.00    -0.500 OA
ATOM     24  H   UNL     1      32.455  -4.598  45.726  1.00  0.00     0.294 HD
ENDBRANCH  10  23
BRANCH   5  25
ATOM     25  O   UNL     1      34.179   2.600  41.875  1.00  0.00    -0.507 OA
ATOM     26  H   UNL     1      33.375   3.124  41.548  1.00  0.00     0.293 HD
ENDBRANCH   5  25
BRANCH   7  27
ATOM     27  O   UNL     1      36.116  -1.752  42.583  1.00  0.00    -0.507 OA
ATOM     28  H   UNL     1      37.027  -1.444  42.273  1.00  0.00     0.293 HD
ENDBRANCH   7  27
TORSDOF 7
ENDMDL
MODEL 9
REMARK VINA RESULT:    -1.081      1.937      7.306
REMARK INTER + INTRA:          -1.429
REMARK INTER:                  -1.880
REMARK INTRA:                   0.451
REMARK UNBOUND:                -0.095
REMARK SMILES Oc1cc(O)c2cc(O)c(-c3cc(O)c(O)c(O)c3)[o+]c2c1
REMARK SMILES IDX 10 1 20 2 21 3 22 4 2 5 3 6 4 7 6 8 7 9 8 10 11 11 12 12
REMARK SMILES IDX 13 13 19 14 15 15 17 16 14 17 16 19 18 21 9 23 1 25 5 27
REMARK H PARENT 14 18 16 20 18 22 9 24 1 26 5 28
REMARK Flexibility Score: inf
ROOT
ATOM      1  C   UNL     1      31.677  -1.877  44.381  1.00  0.00     0.402 A 
ATOM      2  O   UNL     1      30.615  -1.133  44.676  1.00  0.00    -0.202 OA
ATOM      3  C   UNL     1      29.527  -1.617  45.267  1.00  0.00     0.368 A 
ATOM      4  C   UNL     1      28.459  -0.756  45.533  1.00  0.00     0.162 A 
ATOM      5  C   UNL     1      27.303  -1.236  46.150  1.00  0.00     0.128 A 
ATOM      6  C   UNL     1      27.212  -2.587  46.504  1.00  0.00     0.093 A 
ATOM      7  C   UNL     1      28.269  -3.470  46.247  1.00  0.00     0.136 A 
ATOM      8  C   UNL     1      29.446  -2.985  45.623  1.00  0.00     0.125 A 
ATOM      9  C   UNL     1      30.560  -3.793  45.339  1.00  0.00     0.078 A 
ATOM     10  C   UNL     1      31.689  -3.242  44.725  1.00  0.00     0.223 A 
ENDROOT
BRANCH   1  11
ATOM     11  C   UNL     1      32.826  -1.224  43.713  1.00  0.00     0.091 A 
ATOM     12  C   UNL     1      32.762   0.114  43.292  1.00  0.00     0.068 A 
ATOM     13  C   UNL     1      33.868   0.721  42.682  1.00  0.00     0.162 A 
ATOM     14  C   UNL     1      34.025  -1.933  43.548  1.00  0.00     0.068 A 
ATOM     15  C   UNL     1      35.057   0.001  42.497  1.00  0.00     0.200 A 
ATOM     16  C   UNL     1      35.137  -1.340  42.940  1.00  0.00     0.162 A 
BRANCH  13  17
ATOM     17  O   UNL     1      33.794   2.047  42.260  1.00  0.00    -0.504 OA
ATOM     18  H   UNL     1      32.939   2.584  42.344  1.00  0.00     0.293 HD
ENDBRANCH  13  17
BRANCH  15  19
ATOM     19  O   UNL     1      36.127   0.651  41.877  1.00  0.00    -0.502 OA
ATOM     20  H   UNL     1      36.053   1.169  41.014  1.00  0.00     0.293 HD
ENDBRANCH  15  19
BRANCH  16  21
ATOM     21  O   UNL     1      36.290  -2.115  42.800  1.00  0.00    -0.504 OA
ATOM     22  H   UNL     1      36.355  -3.086  43.067  1.00  0.00     0.293 HD
ENDBRANCH  16  21
ENDBRANCH   1  11
BRANCH  10  23
ATOM     23  O   UNL     1      32.813  -4.032  44.489  1.00  0.00    -0.500 OA
ATOM     24  H   UNL     1      33.572  -4.093  45.158  1.00  0.00     0.294 HD
ENDBRANCH  10  23
BRANCH   5  25
ATOM     25  O   UNL     1      26.248  -0.364  46.407  1.00  0.00    -0.507 OA
ATOM     26  H   UNL     1      25.532  -0.179  45.714  1.00  0.00     0.293 HD
ENDBRANCH   5  25
BRANCH   7  27
ATOM     27  O   UNL     1      28.099  -4.804  46.627  1.00  0.00    -0.507 OA
ATOM     28  H   UNL     1      28.042  -5.579  45.981  1.00  0.00     0.293 HD
ENDBRANCH   7  27
TORSDOF 7
ENDMDL
