MODEL 1
REMARK VINA RESULT:    -5.016      0.000      0.000
REMARK INTER + INTRA:         -12.160
REMARK INTER:                  -9.414
REMARK INTRA:                  -2.746
REMARK UNBOUND:                -2.746
REMARK SMILES CCCCCCCCC=CCCCCCCCC(=O)[O-]
REMARK SMILES IDX 10 1 9 2 11 3 12 4 13 5 14 6 15 7 16 8 17 9 18 10 19 11
REMARK SMILES IDX 20 12 8 13 7 14 6 15 5 16 4 17 3 18 2 19 1 20
REMARK H PARENT
REMARK Flexibility Score: inf
ROOT
ATOM      1  C   UNL     1     -21.189 -47.383  49.011  1.00  0.00    -0.031 C 
ATOM      2  C   UNL     1     -20.139 -47.455  48.171  1.00  0.00    -0.031 C 
ENDROOT
BRANCH   1   3
ATOM      3  C   UNL     1     -21.997 -48.562  49.495  1.00  0.00     0.027 C 
BRANCH   3   4
ATOM      4  C   UNL     1     -23.494 -48.225  49.563  1.00  0.00     0.004 C 
BRANCH   4   5
ATOM      5  C   UNL     1     -23.752 -46.771  49.986  1.00  0.00     0.000 C 
BRANCH   5   6
ATOM      6  C   UNL     1     -24.831 -46.088  49.129  1.00  0.00     0.000 C 
BRANCH   6   7
ATOM      7  C   UNL     1     -26.173 -46.840  49.148  1.00  0.00     0.000 C 
BRANCH   7   8
ATOM      8  C   UNL     1     -26.719 -47.163  47.741  1.00  0.00     0.006 C 
BRANCH   8   9
ATOM      9  C   UNL     1     -27.868 -48.179  47.782  1.00  0.00     0.053 C 
BRANCH   9  10
ATOM     10  C   UNL     1     -27.479 -49.439  47.075  1.00  0.00     0.041 C 
ATOM     11  O   UNL     1     -26.372 -49.986  47.319  1.00  0.00    -0.550 OA
ATOM     12  O   UNL     1     -28.361 -50.038  46.185  1.00  0.00    -0.550 OA
ENDBRANCH   9  10
ENDBRANCH   8   9
ENDBRANCH   7   8
ENDBRANCH   6   7
ENDBRANCH   5   6
ENDBRANCH   4   5
ENDBRANCH   3   4
ENDBRANCH   1   3
BRANCH   2  13
ATOM     13  C   UNL     1     -19.599 -48.723  47.549  1.00  0.00     0.027 C 
BRANCH  13  14
ATOM     14  C   UNL     1     -20.207 -48.989  46.161  1.00  0.00     0.004 C 
BRANCH  14  15
ATOM     15  C   UNL     1     -21.116 -50.231  46.076  1.00  0.00     0.000 C 
BRANCH  15  16
ATOM     16  C   UNL     1     -22.493 -49.992  45.426  1.00  0.00     0.000 C 
BRANCH  16  17
ATOM     17  C   UNL     1     -23.374 -48.941  46.130  1.00  0.00    -0.000 C 
BRANCH  17  18
ATOM     18  C   UNL     1     -23.838 -47.778  45.235  1.00  0.00    -0.000 C 
BRANCH  18  19
ATOM     19  C   UNL     1     -22.753 -46.710  45.036  1.00  0.00    -0.003 C 
ATOM     20  C   UNL     1     -22.831 -45.639  46.120  1.00  0.00     0.004 C 
ENDBRANCH  18  19
ENDBRANCH  17  18
ENDBRANCH  16  17
ENDBRANCH  15  16
ENDBRANCH  14  15
ENDBRANCH  13  14
ENDBRANCH   2  13
TORSDOF 15
ENDMDL
MODEL 2
REMARK VINA RESULT:    -4.989      0.908      1.667
REMARK INTER + INTRA:         -12.110
REMARK INTER:                  -9.478
REMARK INTRA:                  -2.632
REMARK UNBOUND:                -2.746
REMARK SMILES CCCCCCCCC=CCCCCCCCC(=O)[O-]
REMARK SMILES IDX 10 1 9 2 11 3 12 4 13 5 14 6 15 7 16 8 17 9 18 10 19 11
REMARK SMILES IDX 20 12 8 13 7 14 6 15 5 16 4 17 3 18 2 19 1 20
REMARK H PARENT
REMARK Flexibility Score: inf
ROOT
ATOM      1  C   UNL     1     -20.017 -48.265  48.103  1.00  0.00    -0.031 C 
ATOM      2  C   UNL     1     -19.853 -48.966  46.965  1.00  0.00    -0.031 C 
ENDROOT
BRANCH   1   3
ATOM      3  C   UNL     1     -20.939 -47.083  48.271  1.00  0.00     0.027 C 
BRANCH   3   4
ATOM      4  C   UNL     1     -21.623 -47.095  49.646  1.00  0.00     0.004 C 
BRANCH   4   5
ATOM      5  C   UNL     1     -23.089 -47.549  49.571  1.00  0.00     0.000 C 
BRANCH   5   6
ATOM      6  C   UNL     1     -24.075 -46.428  49.939  1.00  0.00     0.000 C 
BRANCH   6   7
ATOM      7  C   UNL     1     -25.243 -46.309  48.944  1.00  0.00     0.000 C 
BRANCH   7   8
ATOM      8  C   UNL     1     -25.918 -47.658  48.621  1.00  0.00     0.006 C 
BRANCH   8   9
ATOM      9  C   UNL     1     -27.379 -47.489  48.184  1.00  0.00     0.053 C 
BRANCH   9  10
ATOM     10  C   UNL     1     -27.883 -48.741  47.540  1.00  0.00     0.041 C 
ATOM     11  O   UNL     1     -27.078 -49.653  47.214  1.00  0.00    -0.550 OA
ATOM     12  O   UNL     1     -29.246 -48.924  47.346  1.00  0.00    -0.550 OA
ENDBRANCH   9  10
ENDBRANCH   8   9
ENDBRANCH   7   8
ENDBRANCH   6   7
ENDBRANCH   5   6
ENDBRANCH   4   5
ENDBRANCH   3   4
ENDBRANCH   1   3
BRANCH   2  13
ATOM     13  C   UNL     1     -20.544 -48.679  45.651  1.00  0.00     0.027 C 
BRANCH  13  14
ATOM     14  C   UNL     1     -21.275 -49.917  45.102  1.00  0.00     0.004 C 
BRANCH  14  15
ATOM     15  C   UNL     1     -22.814 -49.841  45.159  1.00  0.00     0.000 C 
BRANCH  15  16
ATOM     16  C   UNL     1     -23.382 -48.752  46.090  1.00  0.00     0.000 C 
BRANCH  16  17
ATOM     17  C   UNL     1     -24.124 -47.604  45.376  1.00  0.00    -0.000 C 
BRANCH  17  18
ATOM     18  C   UNL     1     -23.670 -46.190  45.778  1.00  0.00    -0.000 C 
BRANCH  18  19
ATOM     19  C   UNL     1     -22.408 -45.734  45.033  1.00  0.00    -0.003 C 
ATOM     20  C   UNL     1     -22.483 -46.096  43.552  1.00  0.00     0.004 C 
ENDBRANCH  18  19
ENDBRANCH  17  18
ENDBRANCH  16  17
ENDBRANCH  15  16
ENDBRANCH  14  15
ENDBRANCH  13  14
ENDBRANCH   2  13
TORSDOF 15
ENDMDL
MODEL 3
REMARK VINA RESULT:    -4.984      3.223      6.016
REMARK INTER + INTRA:         -12.100
REMARK INTER:                  -9.795
REMARK INTRA:                  -2.305
REMARK UNBOUND:                -2.746
REMARK SMILES CCCCCCCCC=CCCCCCCCC(=O)[O-]
REMARK SMILES IDX 10 1 9 2 11 3 12 4 13 5 14 6 15 7 16 8 17 9 18 10 19 11
REMARK SMILES IDX 20 12 8 13 7 14 6 15 5 16 4 17 3 18 2 19 1 20
REMARK H PARENT
REMARK Flexibility Score: inf
ROOT
ATOM      1  C   UNL     1     -26.267 -46.899  49.304  1.00  0.00    -0.031 C 
ATOM      2  C   UNL     1     -27.180 -47.365  48.430  1.00  0.00    -0.031 C 
ENDROOT
BRANCH   1   3
ATOM      3  C   UNL     1     -25.114 -45.991  48.956  1.00  0.00     0.027 C 
BRANCH   3   4
ATOM      4  C   UNL     1     -23.763 -46.679  49.208  1.00  0.00     0.004 C 
BRANCH   4   5
ATOM      5  C   UNL     1     -23.423 -47.722  48.132  1.00  0.00     0.000 C 
BRANCH   5   6
ATOM      6  C   UNL     1     -23.462 -49.161  48.671  1.00  0.00     0.000 C 
BRANCH   6   7
ATOM      7  C   UNL     1     -22.598 -49.352  49.930  1.00  0.00     0.000 C 
BRANCH   7   8
ATOM      8  C   UNL     1     -21.273 -50.095  49.662  1.00  0.00     0.006 C 
BRANCH   8   9
ATOM      9  C   UNL     1     -20.055 -49.321  50.185  1.00  0.00     0.053 C 
BRANCH   9  10
ATOM     10  C   UNL     1     -19.972 -47.976  49.538  1.00  0.00     0.041 C 
ATOM     11  O   UNL     1     -19.524 -47.863  48.366  1.00  0.00    -0.550 OA
ATOM     12  O   UNL     1     -20.435 -46.851  50.208  1.00  0.00    -0.550 OA
ENDBRANCH   9  10
ENDBRANCH   8   9
ENDBRANCH   7   8
ENDBRANCH   6   7
ENDBRANCH   5   6
ENDBRANCH   4   5
ENDBRANCH   3   4
ENDBRANCH   1   3
BRANCH   2  13
ATOM     13  C   UNL     1     -27.198 -47.079  46.945  1.00  0.00     0.027 C 
BRANCH  13  14
ATOM     14  C   UNL     1     -28.470 -47.618  46.270  1.00  0.00     0.004 C 
BRANCH  14  15
ATOM     15  C   UNL     1     -28.829 -49.075  46.628  1.00  0.00     0.000 C 
BRANCH  15  16
ATOM     16  C   UNL     1     -27.963 -50.150  45.944  1.00  0.00     0.000 C 
BRANCH  16  17
ATOM     17  C   UNL     1     -26.711 -50.580  46.734  1.00  0.00    -0.000 C 
BRANCH  17  18
ATOM     18  C   UNL     1     -25.405 -50.603  45.919  1.00  0.00    -0.000 C 
BRANCH  18  19
ATOM     19  C   UNL     1     -25.460 -49.699  44.680  1.00  0.00    -0.003 C 
ATOM     20  C   UNL     1     -24.398 -48.605  44.751  1.00  0.00     0.004 C 
ENDBRANCH  18  19
ENDBRANCH  17  18
ENDBRANCH  16  17
ENDBRANCH  15  16
ENDBRANCH  14  15
ENDBRANCH  13  14
ENDBRANCH   2  13
TORSDOF 15
ENDMDL
MODEL 4
REMARK VINA RESULT:    -4.944      1.860      3.311
REMARK INTER + INTRA:         -12.026
REMARK INTER:                  -9.827
REMARK INTRA:                  -2.199
REMARK UNBOUND:                -2.746
REMARK SMILES CCCCCCCCC=CCCCCCCCC(=O)[O-]
REMARK SMILES IDX 10 1 9 2 11 3 12 4 13 5 14 6 15 7 16 8 17 9 18 10 19 11
REMARK SMILES IDX 20 12 8 13 7 14 6 15 5 16 4 17 3 18 2 19 1 20
REMARK H PARENT
REMARK Flexibility Score: inf
ROOT
ATOM      1  C   UNL     1     -22.134 -49.535  50.003  1.00  0.00    -0.031 C 
ATOM      2  C   UNL     1     -21.257 -50.495  50.350  1.00  0.00    -0.031 C 
ENDROOT
BRANCH   1   3
ATOM      3  C   UNL     1     -21.924 -48.054  50.194  1.00  0.00     0.027 C 
BRANCH   3   4
ATOM      4  C   UNL     1     -22.676 -47.239  49.131  1.00  0.00     0.004 C 
BRANCH   4   5
ATOM      5  C   UNL     1     -24.146 -47.663  48.994  1.00  0.00     0.000 C 
BRANCH   5   6
ATOM      6  C   UNL     1     -25.121 -46.602  49.533  1.00  0.00     0.000 C 
BRANCH   6   7
ATOM      7  C   UNL     1     -26.576 -46.854  49.102  1.00  0.00     0.000 C 
BRANCH   7   8
ATOM      8  C   UNL     1     -26.731 -48.018  48.101  1.00  0.00     0.006 C 
BRANCH   8   9
ATOM      9  C   UNL     1     -27.771 -47.717  47.014  1.00  0.00     0.053 C 
BRANCH   9  10
ATOM     10  C   UNL     1     -28.941 -48.639  47.138  1.00  0.00     0.041 C 
ATOM     11  O   UNL     1     -30.025 -48.225  47.628  1.00  0.00    -0.550 OA
ATOM     12  O   UNL     1     -28.853 -49.943  46.666  1.00  0.00    -0.550 OA
ENDBRANCH   9  10
ENDBRANCH   8   9
ENDBRANCH   7   8
ENDBRANCH   6   7
ENDBRANCH   5   6
ENDBRANCH   4   5
ENDBRANCH   3   4
ENDBRANCH   1   3
BRANCH   2  13
ATOM     13  C   UNL     1     -19.917 -50.260  51.012  1.00  0.00     0.027 C 
BRANCH  13  14
ATOM     14  C   UNL     1     -18.779 -50.143  49.983  1.00  0.00     0.004 C 
BRANCH  14  15
ATOM     15  C   UNL     1     -18.225 -48.717  49.787  1.00  0.00     0.000 C 
BRANCH  15  16
ATOM     16  C   UNL     1     -18.747 -47.977  48.540  1.00  0.00     0.000 C 
BRANCH  16  17
ATOM     17  C   UNL     1     -19.036 -48.875  47.321  1.00  0.00    -0.000 C 
BRANCH  17  18
ATOM     18  C   UNL     1     -20.445 -48.720  46.721  1.00  0.00    -0.000 C 
BRANCH  18  19
ATOM     19  C   UNL     1     -20.909 -49.969  45.960  1.00  0.00    -0.003 C 
ATOM     20  C   UNL     1     -20.662 -51.235  46.776  1.00  0.00     0.004 C 
ENDBRANCH  18  19
ENDBRANCH  17  18
ENDBRANCH  16  17
ENDBRANCH  15  16
ENDBRANCH  14  15
ENDBRANCH  13  14
ENDBRANCH   2  13
TORSDOF 15
ENDMDL
MODEL 5
REMARK VINA RESULT:    -4.927      1.390      3.543
REMARK INTER + INTRA:         -11.994
REMARK INTER:                  -9.615
REMARK INTRA:                  -2.379
REMARK UNBOUND:                -2.746
REMARK SMILES CCCCCCCCC=CCCCCCCCC(=O)[O-]
REMARK SMILES IDX 10 1 9 2 11 3 12 4 13 5 14 6 15 7 16 8 17 9 18 10 19 11
REMARK SMILES IDX 20 12 8 13 7 14 6 15 5 16 4 17 3 18 2 19 1 20
REMARK H PARENT
REMARK Flexibility Score: inf
ROOT
ATOM      1  C   UNL     1     -23.282 -48.389  49.248  1.00  0.00    -0.031 C 
ATOM      2  C   UNL     1     -23.037 -48.824  47.997  1.00  0.00    -0.031 C 
ENDROOT
BRANCH   1   3
ATOM      3  C   UNL     1     -23.317 -46.943  49.675  1.00  0.00     0.027 C 
BRANCH   3   4
ATOM      4  C   UNL     1     -24.512 -46.203  49.055  1.00  0.00     0.004 C 
BRANCH   4   5
ATOM      5  C   UNL     1     -25.861 -46.725  49.574  1.00  0.00     0.000 C 
BRANCH   5   6
ATOM      6  C   UNL     1     -26.821 -47.115  48.438  1.00  0.00     0.000 C 
BRANCH   6   7
ATOM      7  C   UNL     1     -26.318 -46.674  47.052  1.00  0.00     0.000 C 
BRANCH   7   8
ATOM      8  C   UNL     1     -26.263 -47.820  46.022  1.00  0.00     0.006 C 
BRANCH   8   9
ATOM      9  C   UNL     1     -27.608 -48.546  45.886  1.00  0.00     0.053 C 
BRANCH   9  10
ATOM     10  C   UNL     1     -27.545 -49.893  46.534  1.00  0.00     0.041 C 
ATOM     11  O   UNL     1     -28.590 -50.585  46.658  1.00  0.00    -0.550 OA
ATOM     12  O   UNL     1     -26.325 -50.405  46.957  1.00  0.00    -0.550 OA
ENDBRANCH   9  10
ENDBRANCH   8   9
ENDBRANCH   7   8
ENDBRANCH   6   7
ENDBRANCH   5   6
ENDBRANCH   4   5
ENDBRANCH   3   4
ENDBRANCH   1   3
BRANCH   2  13
ATOM     13  C   UNL     1     -22.733 -47.942  46.807  1.00  0.00     0.027 C 
BRANCH  13  14
ATOM     14  C   UNL     1     -21.312 -48.175  46.266  1.00  0.00     0.004 C 
BRANCH  14  15
ATOM     15  C   UNL     1     -20.589 -49.408  46.845  1.00  0.00     0.000 C 
BRANCH  15  16
ATOM     16  C   UNL     1     -19.255 -49.112  47.557  1.00  0.00     0.000 C 
BRANCH  16  17
ATOM     17  C   UNL     1     -19.287 -47.920  48.534  1.00  0.00    -0.000 C 
BRANCH  17  18
ATOM     18  C   UNL     1     -19.735 -48.266  49.965  1.00  0.00    -0.000 C 
BRANCH  18  19
ATOM     19  C   UNL     1     -19.338 -49.687  50.387  1.00  0.00    -0.003 C 
ATOM     20  C   UNL     1     -20.568 -50.526  50.720  1.00  0.00     0.004 C 
ENDBRANCH  18  19
ENDBRANCH  17  18
ENDBRANCH  16  17
ENDBRANCH  15  16
ENDBRANCH  14  15
ENDBRANCH  13  14
ENDBRANCH   2  13
TORSDOF 15
ENDMDL
MODEL 6
REMARK VINA RESULT:    -4.906      2.711      5.845
REMARK INTER + INTRA:         -11.954
REMARK INTER:                  -9.304
REMARK INTRA:                  -2.651
REMARK UNBOUND:                -2.746
REMARK SMILES CCCCCCCCC=CCCCCCCCC(=O)[O-]
REMARK SMILES IDX 10 1 9 2 11 3 12 4 13 5 14 6 15 7 16 8 17 9 18 10 19 11
REMARK SMILES IDX 20 12 8 13 7 14 6 15 5 16 4 17 3 18 2 19 1 20
REMARK H PARENT
REMARK Flexibility Score: inf
ROOT
ATOM      1  C   UNL     1     -25.893 -46.840  49.227  1.00  0.00    -0.031 C 
ATOM      2  C   UNL     1     -26.880 -47.188  48.380  1.00  0.00    -0.031 C 
ENDROOT
BRANCH   1   3
ATOM      3  C   UNL     1     -24.743 -45.923  48.893  1.00  0.00     0.027 C 
BRANCH   3   4
ATOM      4  C   UNL     1     -23.504 -46.716  48.449  1.00  0.00     0.004 C 
BRANCH   4   5
ATOM      5  C   UNL     1     -23.277 -47.977  49.296  1.00  0.00     0.000 C 
BRANCH   5   6
ATOM      6  C   UNL     1     -22.152 -48.868  48.742  1.00  0.00     0.000 C 
BRANCH   6   7
ATOM      7  C   UNL     1     -21.458 -48.257  47.512  1.00  0.00     0.000 C 
BRANCH   7   8
ATOM      8  C   UNL     1     -20.433 -49.202  46.850  1.00  0.00     0.006 C 
BRANCH   8   9
ATOM      9  C   UNL     1     -21.106 -50.371  46.118  1.00  0.00     0.053 C 
BRANCH   9  10
ATOM     10  C   UNL     1     -20.640 -51.677  46.678  1.00  0.00     0.041 C 
ATOM     11  O   UNL     1     -20.594 -52.700  45.945  1.00  0.00    -0.550 OA
ATOM     12  O   UNL     1     -20.210 -51.755  47.996  1.00  0.00    -0.550 OA
ENDBRANCH   9  10
ENDBRANCH   8   9
ENDBRANCH   7   8
ENDBRANCH   6   7
ENDBRANCH   5   6
ENDBRANCH   4   5
ENDBRANCH   3   4
ENDBRANCH   1   3
BRANCH   2  13
ATOM     13  C   UNL     1     -26.998 -46.739  46.941  1.00  0.00     0.027 C 
BRANCH  13  14
ATOM     14  C   UNL     1     -28.121 -47.482  46.196  1.00  0.00     0.004 C 
BRANCH  14  15
ATOM     15  C   UNL     1     -28.826 -48.583  47.013  1.00  0.00     0.000 C 
BRANCH  15  16
ATOM     16  C   UNL     1     -28.491 -50.027  46.591  1.00  0.00     0.000 C 
BRANCH  16  17
ATOM     17  C   UNL     1     -27.266 -50.171  45.667  1.00  0.00    -0.000 C 
BRANCH  17  18
ATOM     18  C   UNL     1     -26.022 -50.789  46.329  1.00  0.00    -0.000 C 
BRANCH  18  19
ATOM     19  C   UNL     1     -24.868 -49.788  46.483  1.00  0.00    -0.003 C 
ATOM     20  C   UNL     1     -24.645 -49.005  45.192  1.00  0.00     0.004 C 
ENDBRANCH  18  19
ENDBRANCH  17  18
ENDBRANCH  16  17
ENDBRANCH  15  16
ENDBRANCH  14  15
ENDBRANCH  13  14
ENDBRANCH   2  13
TORSDOF 15
ENDMDL
MODEL 7
REMARK VINA RESULT:    -4.877      1.826      3.998
REMARK INTER + INTRA:         -11.900
REMARK INTER:                  -9.413
REMARK INTRA:                  -2.487
REMARK UNBOUND:                -2.746
REMARK SMILES CCCCCCCCC=CCCCCCCCC(=O)[O-]
REMARK SMILES IDX 10 1 9 2 11 3 12 4 13 5 14 6 15 7 16 8 17 9 18 10 19 11
REMARK SMILES IDX 20 12 8 13 7 14 6 15 5 16 4 17 3 18 2 19 1 20
REMARK H PARENT
REMARK Flexibility Score: inf
ROOT
ATOM      1  C   UNL     1     -23.284 -48.169  49.526  1.00  0.00    -0.031 C 
ATOM      2  C   UNL     1     -22.352 -48.456  48.597  1.00  0.00    -0.031 C 
ENDROOT
BRANCH   1   3
ATOM      3  C   UNL     1     -23.516 -46.809  50.134  1.00  0.00     0.027 C 
BRANCH   3   4
ATOM      4  C   UNL     1     -24.556 -46.008  49.337  1.00  0.00     0.004 C 
BRANCH   4   5
ATOM      5  C   UNL     1     -25.939 -46.677  49.334  1.00  0.00     0.000 C 
BRANCH   5   6
ATOM      6  C   UNL     1     -26.484 -46.904  47.914  1.00  0.00     0.000 C 
BRANCH   6   7
ATOM      7  C   UNL     1     -25.378 -46.914  46.844  1.00  0.00     0.000 C 
BRANCH   7   8
ATOM      8  C   UNL     1     -25.164 -48.295  46.190  1.00  0.00     0.006 C 
BRANCH   8   9
ATOM      9  C   UNL     1     -25.816 -49.428  46.995  1.00  0.00     0.053 C 
BRANCH   9  10
ATOM     10  C   UNL     1     -27.004 -49.972  46.267  1.00  0.00     0.041 C 
ATOM     11  O   UNL     1     -27.895 -50.603  46.894  1.00  0.00    -0.550 OA
ATOM     12  O   UNL     1     -27.153 -49.738  44.906  1.00  0.00    -0.550 OA
ENDBRANCH   9  10
ENDBRANCH   8   9
ENDBRANCH   7   8
ENDBRANCH   6   7
ENDBRANCH   5   6
ENDBRANCH   4   5
ENDBRANCH   3   4
ENDBRANCH   1   3
BRANCH   2  13
ATOM     13  C   UNL     1     -21.361 -47.472  48.017  1.00  0.00     0.027 C 
BRANCH  13  14
ATOM     14  C   UNL     1     -19.927 -47.745  48.503  1.00  0.00     0.004 C 
BRANCH  14  15
ATOM     15  C   UNL     1     -19.770 -47.864  50.033  1.00  0.00     0.000 C 
BRANCH  15  16
ATOM     16  C   UNL     1     -18.747 -48.915  50.506  1.00  0.00     0.000 C 
BRANCH  16  17
ATOM     17  C   UNL     1     -19.356 -50.167  51.168  1.00  0.00    -0.000 C 
BRANCH  17  18
ATOM     18  C   UNL     1     -20.256 -51.013  50.249  1.00  0.00    -0.000 C 
BRANCH  18  19
ATOM     19  C   UNL     1     -19.499 -51.601  49.050  1.00  0.00    -0.003 C 
ATOM     20  C   UNL     1     -20.291 -51.420  47.758  1.00  0.00     0.004 C 
ENDBRANCH  18  19
ENDBRANCH  17  18
ENDBRANCH  16  17
ENDBRANCH  15  16
ENDBRANCH  14  15
ENDBRANCH  13  14
ENDBRANCH   2  13
TORSDOF 15
ENDMDL
MODEL 8
REMARK VINA RESULT:    -4.840      2.510      5.423
REMARK INTER + INTRA:         -11.830
REMARK INTER:                  -8.885
REMARK INTRA:                  -2.945
REMARK UNBOUND:                -2.746
REMARK SMILES CCCCCCCCC=CCCCCCCCC(=O)[O-]
REMARK SMILES IDX 10 1 9 2 11 3 12 4 13 5 14 6 15 7 16 8 17 9 18 10 19 11
REMARK SMILES IDX 20 12 8 13 7 14 6 15 5 16 4 17 3 18 2 19 1 20
REMARK H PARENT
REMARK Flexibility Score: inf
ROOT
ATOM      1  C   UNL     1     -25.208 -48.701  47.154  1.00  0.00    -0.031 C 
ATOM      2  C   UNL     1     -25.772 -49.700  46.448  1.00  0.00    -0.031 C 
ENDROOT
BRANCH   1   3
ATOM      3  C   UNL     1     -25.673 -48.221  48.506  1.00  0.00     0.027 C 
BRANCH   3   4
ATOM      4  C   UNL     1     -25.805 -46.690  48.543  1.00  0.00     0.004 C 
BRANCH   4   5
ATOM      5  C   UNL     1     -24.510 -45.999  48.994  1.00  0.00     0.000 C 
BRANCH   5   6
ATOM      6  C   UNL     1     -23.693 -46.854  49.976  1.00  0.00     0.000 C 
BRANCH   6   7
ATOM      7  C   UNL     1     -22.286 -47.188  49.450  1.00  0.00     0.000 C 
BRANCH   7   8
ATOM      8  C   UNL     1     -21.954 -46.515  48.103  1.00  0.00     0.006 C 
BRANCH   8   9
ATOM      9  C   UNL     1     -21.718 -47.537  46.983  1.00  0.00     0.053 C 
BRANCH   9  10
ATOM     10  C   UNL     1     -22.411 -47.110  45.728  1.00  0.00     0.041 C 
ATOM     11  O   UNL     1     -22.314 -47.806  44.683  1.00  0.00    -0.550 OA
ATOM     12  O   UNL     1     -23.205 -45.970  45.725  1.00  0.00    -0.550 OA
ENDBRANCH   9  10
ENDBRANCH   8   9
ENDBRANCH   7   8
ENDBRANCH   6   7
ENDBRANCH   5   6
ENDBRANCH   4   5
ENDBRANCH   3   4
ENDBRANCH   1   3
BRANCH   2  13
ATOM     13  C   UNL     1     -26.981 -50.501  46.876  1.00  0.00     0.027 C 
BRANCH  13  14
ATOM     14  C   UNL     1     -28.264 -50.030  46.169  1.00  0.00     0.004 C 
BRANCH  14  15
ATOM     15  C   UNL     1     -29.133 -49.050  46.983  1.00  0.00     0.000 C 
BRANCH  15  16
ATOM     16  C   UNL     1     -28.913 -47.559  46.664  1.00  0.00     0.000 C 
BRANCH  16  17
ATOM     17  C   UNL     1     -28.361 -47.267  45.255  1.00  0.00    -0.000 C 
BRANCH  17  18
ATOM     18  C   UNL     1     -27.273 -46.180  45.197  1.00  0.00    -0.000 C 
BRANCH  18  19
ATOM     19  C   UNL     1     -26.453 -46.226  43.900  1.00  0.00    -0.003 C 
ATOM     20  C   UNL     1     -25.945 -47.637  43.619  1.00  0.00     0.004 C 
ENDBRANCH  18  19
ENDBRANCH  17  18
ENDBRANCH  16  17
ENDBRANCH  15  16
ENDBRANCH  14  15
ENDBRANCH  13  14
ENDBRANCH   2  13
TORSDOF 15
ENDMDL
MODEL 9
REMARK VINA RESULT:    -4.835      0.857      1.950
REMARK INTER + INTRA:         -11.822
REMARK INTER:                  -9.257
REMARK INTRA:                  -2.565
REMARK UNBOUND:                -2.746
REMARK SMILES CCCCCCCCC=CCCCCCCCC(=O)[O-]
REMARK SMILES IDX 10 1 9 2 11 3 12 4 13 5 14 6 15 7 16 8 17 9 18 10 19 11
REMARK SMILES IDX 20 12 8 13 7 14 6 15 5 16 4 17 3 18 2 19 1 20
REMARK H PARENT
REMARK Flexibility Score: inf
ROOT
ATOM      1  C   UNL     1     -23.464 -48.315  49.318  1.00  0.00    -0.031 C 
ATOM      2  C   UNL     1     -22.446 -49.136  48.997  1.00  0.00    -0.031 C 
ENDROOT
BRANCH   1   3
ATOM      3  C   UNL     1     -23.320 -46.871  49.730  1.00  0.00     0.027 C 
BRANCH   3   4
ATOM      4  C   UNL     1     -24.617 -46.086  49.484  1.00  0.00     0.004 C 
BRANCH   4   5
ATOM      5  C   UNL     1     -25.479 -46.705  48.374  1.00  0.00     0.000 C 
BRANCH   5   6
ATOM      6  C   UNL     1     -26.875 -47.118  48.868  1.00  0.00     0.000 C 
BRANCH   6   7
ATOM      7  C   UNL     1     -27.837 -47.465  47.719  1.00  0.00     0.000 C 
BRANCH   7   8
ATOM      8  C   UNL     1     -27.160 -47.491  46.333  1.00  0.00     0.006 C 
BRANCH   8   9
ATOM      9  C   UNL     1     -27.404 -48.812  45.590  1.00  0.00     0.053 C 
BRANCH   9  10
ATOM     10  C   UNL     1     -27.437 -49.956  46.553  1.00  0.00     0.041 C 
ATOM     11  O   UNL     1     -28.512 -50.578  46.759  1.00  0.00    -0.550 OA
ATOM     12  O   UNL     1     -26.271 -50.368  47.184  1.00  0.00    -0.550 OA
ENDBRANCH   9  10
ENDBRANCH   8   9
ENDBRANCH   7   8
ENDBRANCH   6   7
ENDBRANCH   5   6
ENDBRANCH   4   5
ENDBRANCH   3   4
ENDBRANCH   1   3
BRANCH   2  13
ATOM     13  C   UNL     1     -20.981 -48.764  49.013  1.00  0.00     0.027 C 
BRANCH  13  14
ATOM     14  C   UNL     1     -20.544 -48.085  47.703  1.00  0.00     0.004 C 
BRANCH  14  15
ATOM     15  C   UNL     1     -20.226 -49.053  46.545  1.00  0.00     0.000 C 
BRANCH  15  16
ATOM     16  C   UNL     1     -20.999 -48.786  45.238  1.00  0.00     0.000 C 
BRANCH  16  17
ATOM     17  C   UNL     1     -22.486 -49.193  45.264  1.00  0.00    -0.000 C 
BRANCH  17  18
ATOM     18  C   UNL     1     -23.464 -48.052  45.597  1.00  0.00    -0.000 C 
BRANCH  18  19
ATOM     19  C   UNL     1     -23.058 -46.714  44.965  1.00  0.00    -0.003 C 
ATOM     20  C   UNL     1     -22.866 -45.638  46.030  1.00  0.00     0.004 C 
ENDBRANCH  18  19
ENDBRANCH  17  18
ENDBRANCH  16  17
ENDBRANCH  15  16
ENDBRANCH  14  15
ENDBRANCH  13  14
ENDBRANCH   2  13
TORSDOF 15
ENDMDL
