MODEL 1
REMARK VINA RESULT:    -5.597      0.000      0.000
REMARK INTER + INTRA:         -18.778
REMARK INTER:                 -14.759
REMARK INTRA:                  -4.019
REMARK UNBOUND:                -4.019
REMARK SMILES CCCCCCCCCCCCCCCCCCCCCCCCCCCCCC(=O)[O-]
REMARK SMILES IDX 16 1 17 2 18 3 19 4 20 5 21 6 22 7 23 8 24 9 25 10 26 11
REMARK SMILES IDX 27 12 28 13 29 14 30 15 31 16 32 17 15 18 14 19 13 20 12 21
REMARK SMILES IDX 11 22 10 23 9 24 8 25 7 26 6 27 5 28 4 29 3 30 2 31 1 32
REMARK H PARENT
REMARK Flexibility Score: inf
ROOT
ATOM      1  C   UNL     1      -5.855 -14.800  27.459  1.00  0.00     0.000 C 
ENDROOT
BRANCH   1   2
ATOM      2  C   UNL     1      -5.887 -14.538  28.977  1.00  0.00     0.000 C 
BRANCH   2   3
ATOM      3  C   UNL     1      -6.220 -13.089  29.388  1.00  0.00     0.000 C 
BRANCH   3   4
ATOM      4  C   UNL     1      -6.282 -12.843  30.907  1.00  0.00     0.000 C 
BRANCH   4   5
ATOM      5  C   UNL     1      -5.924 -11.400  31.294  1.00  0.00     0.000 C 
BRANCH   5   6
ATOM      6  C   UNL     1      -4.747 -11.373  32.282  1.00  0.00     0.000 C 
BRANCH   6   7
ATOM      7  C   UNL     1      -3.396 -11.624  31.596  1.00  0.00     0.000 C 
BRANCH   7   8
ATOM      8  C   UNL     1      -3.149 -10.676  30.411  1.00  0.00     0.000 C 
BRANCH   8   9
ATOM      9  C   UNL     1      -2.779 -11.423  29.115  1.00  0.00     0.000 C 
BRANCH   9  10
ATOM     10  C   UNL     1      -2.514 -12.930  29.287  1.00  0.00     0.000 C 
BRANCH  10  11
ATOM     11  C   UNL     1      -2.350 -13.666  27.947  1.00  0.00     0.000 C 
BRANCH  11  12
ATOM     12  C   UNL     1      -1.414 -12.928  26.976  1.00  0.00     0.000 C 
BRANCH  12  13
ATOM     13  C   UNL     1      -1.406 -13.545  25.569  1.00  0.00     0.006 C 
BRANCH  13  14
ATOM     14  C   UNL     1      -1.719 -15.044  25.628  1.00  0.00     0.053 C 
BRANCH  14  15
ATOM     15  C   UNL     1      -0.549 -15.850  25.154  1.00  0.00     0.041 C 
ATOM     16  O   UNL     1       0.464 -15.276  24.671  1.00  0.00    -0.550 OA
ATOM     17  O   UNL     1      -0.577 -17.237  25.243  1.00  0.00    -0.550 OA
ENDBRANCH  14  15
ENDBRANCH  13  14
ENDBRANCH  12  13
ENDBRANCH  11  12
ENDBRANCH  10  11
ENDBRANCH   9  10
ENDBRANCH   8   9
ENDBRANCH   7   8
ENDBRANCH   6   7
ENDBRANCH   5   6
ENDBRANCH   4   5
ENDBRANCH   3   4
ENDBRANCH   2   3
ENDBRANCH   1   2
BRANCH   1  18
ATOM     18  C   UNL     1      -7.048 -14.223  26.676  1.00  0.00     0.000 C 
BRANCH  18  19
ATOM     19  C   UNL     1      -8.305 -15.101  26.776  1.00  0.00     0.000 C 
BRANCH  19  20
ATOM     20  C   UNL     1      -9.463 -14.494  25.973  1.00  0.00     0.000 C 
BRANCH  20  21
ATOM     21  C   UNL     1     -10.771 -15.260  26.227  1.00  0.00     0.000 C 
BRANCH  21  22
ATOM     22  C   UNL     1     -10.763 -15.999  27.575  1.00  0.00     0.000 C 
BRANCH  22  23
ATOM     23  C   UNL     1     -11.987 -16.914  27.750  1.00  0.00     0.000 C 
BRANCH  23  24
ATOM     24  C   UNL     1     -11.964 -17.697  29.076  1.00  0.00    -0.000 C 
BRANCH  24  25
ATOM     25  C   UNL     1     -10.612 -18.351  29.422  1.00  0.00    -0.000 C 
BRANCH  25  26
ATOM     26  C   UNL     1     -10.486 -18.715  30.908  1.00  0.00    -0.000 C 
BRANCH  26  27
ATOM     27  C   UNL     1     -11.557 -18.002  31.746  1.00  0.00    -0.000 C 
BRANCH  27  28
ATOM     28  C   UNL     1     -10.978 -16.874  32.618  1.00  0.00    -0.000 C 
BRANCH  28  29
ATOM     29  C   UNL     1     -10.753 -15.534  31.888  1.00  0.00    -0.000 C 
BRANCH  29  30
ATOM     30  C   UNL     1      -9.292 -15.041  31.861  1.00  0.00    -0.000 C 
BRANCH  30  31
ATOM     31  C   UNL     1      -8.272 -16.077  31.354  1.00  0.00    -0.003 C 
ATOM     32  C   UNL     1      -7.019 -16.154  32.225  1.00  0.00     0.004 C 
ENDBRANCH  30  31
ENDBRANCH  29  30
ENDBRANCH  28  29
ENDBRANCH  27  28
ENDBRANCH  26  27
ENDBRANCH  25  26
ENDBRANCH  24  25
ENDBRANCH  23  24
ENDBRANCH  22  23
ENDBRANCH  21  22
ENDBRANCH  20  21
ENDBRANCH  19  20
ENDBRANCH  18  19
ENDBRANCH   1  18
TORSDOF 28
ENDMDL
MODEL 2
REMARK VINA RESULT:    -5.542      3.559      9.537
REMARK INTER + INTRA:         -18.632
REMARK INTER:                 -15.184
REMARK INTRA:                  -3.447
REMARK UNBOUND:                -4.019
REMARK SMILES CCCCCCCCCCCCCCCCCCCCCCCCCCCCCC(=O)[O-]
REMARK SMILES IDX 16 1 17 2 18 3 19 4 20 5 21 6 22 7 23 8 24 9 25 10 26 11
REMARK SMILES IDX 27 12 28 13 29 14 30 15 31 16 32 17 15 18 14 19 13 20 12 21
REMARK SMILES IDX 11 22 10 23 9 24 8 25 7 26 6 27 5 28 4 29 3 30 2 31 1 32
REMARK H PARENT
REMARK Flexibility Score: inf
ROOT
ATOM      1  C   UNL     1      -6.112 -14.138  28.023  1.00  0.00     0.000 C 
ENDROOT
BRANCH   1   2
ATOM      2  C   UNL     1      -6.639 -14.490  26.618  1.00  0.00     0.000 C 
BRANCH   2   3
ATOM      3  C   UNL     1      -8.051 -15.110  26.582  1.00  0.00     0.000 C 
BRANCH   3   4
ATOM      4  C   UNL     1      -9.129 -14.231  25.921  1.00  0.00     0.000 C 
BRANCH   4   5
ATOM      5  C   UNL     1     -10.519 -14.884  25.928  1.00  0.00     0.000 C 
BRANCH   5   6
ATOM      6  C   UNL     1     -10.659 -15.866  27.102  1.00  0.00     0.000 C 
BRANCH   6   7
ATOM      7  C   UNL     1     -12.126 -16.156  27.456  1.00  0.00     0.000 C 
BRANCH   7   8
ATOM      8  C   UNL     1     -12.399 -16.055  28.966  1.00  0.00     0.000 C 
BRANCH   8   9
ATOM      9  C   UNL     1     -13.224 -17.240  29.504  1.00  0.00     0.000 C 
BRANCH   9  10
ATOM     10  C   UNL     1     -12.400 -18.488  29.874  1.00  0.00     0.000 C 
BRANCH  10  11
ATOM     11  C   UNL     1     -10.889 -18.292  29.665  1.00  0.00     0.000 C 
BRANCH  11  12
ATOM     12  C   UNL     1     -10.047 -18.961  30.763  1.00  0.00     0.000 C 
BRANCH  12  13
ATOM     13  C   UNL     1      -9.565 -17.968  31.832  1.00  0.00     0.006 C 
BRANCH  13  14
ATOM     14  C   UNL     1      -9.692 -16.524  31.336  1.00  0.00     0.053 C 
BRANCH  14  15
ATOM     15  C   UNL     1     -10.671 -15.759  32.171  1.00  0.00     0.041 C 
ATOM     16  O   UNL     1     -10.648 -14.499  32.184  1.00  0.00    -0.550 OA
ATOM     17  O   UNL     1     -11.610 -16.438  32.940  1.00  0.00    -0.550 OA
ENDBRANCH  14  15
ENDBRANCH  13  14
ENDBRANCH  12  13
ENDBRANCH  11  12
ENDBRANCH  10  11
ENDBRANCH   9  10
ENDBRANCH   8   9
ENDBRANCH   7   8
ENDBRANCH   6   7
ENDBRANCH   5   6
ENDBRANCH   4   5
ENDBRANCH   3   4
ENDBRANCH   2   3
ENDBRANCH   1   2
BRANCH   1  18
ATOM     18  C   UNL     1      -7.063 -14.491  29.180  1.00  0.00     0.000 C 
BRANCH  18  19
ATOM     19  C   UNL     1      -6.368 -14.471  30.549  1.00  0.00     0.000 C 
BRANCH  19  20
ATOM     20  C   UNL     1      -7.208 -13.706  31.581  1.00  0.00     0.000 C 
BRANCH  20  21
ATOM     21  C   UNL     1      -6.530 -12.385  31.974  1.00  0.00     0.000 C 
BRANCH  21  22
ATOM     22  C   UNL     1      -5.882 -11.680  30.772  1.00  0.00     0.000 C 
BRANCH  22  23
ATOM     23  C   UNL     1      -4.466 -11.169  31.084  1.00  0.00     0.000 C 
BRANCH  23  24
ATOM     24  C   UNL     1      -4.037 -11.444  32.538  1.00  0.00    -0.000 C 
BRANCH  24  25
ATOM     25  C   UNL     1      -2.645 -10.904  32.919  1.00  0.00    -0.000 C 
BRANCH  25  26
ATOM     26  C   UNL     1      -1.543 -11.969  32.824  1.00  0.00    -0.000 C 
BRANCH  26  27
ATOM     27  C   UNL     1      -0.385 -11.491  31.937  1.00  0.00    -0.000 C 
BRANCH  27  28
ATOM     28  C   UNL     1      -0.848 -10.548  30.812  1.00  0.00    -0.000 C 
BRANCH  28  29
ATOM     29  C   UNL     1      -1.272 -11.248  29.505  1.00  0.00    -0.000 C 
BRANCH  29  30
ATOM     30  C   UNL     1      -0.901 -12.741  29.413  1.00  0.00    -0.000 C 
BRANCH  30  31
ATOM     31  C   UNL     1      -2.100 -13.706  29.435  1.00  0.00    -0.003 C 
ATOM     32  C   UNL     1      -2.425 -14.283  28.058  1.00  0.00     0.004 C 
ENDBRANCH  30  31
ENDBRANCH  29  30
ENDBRANCH  28  29
ENDBRANCH  27  28
ENDBRANCH  26  27
ENDBRANCH  25  26
ENDBRANCH  24  25
ENDBRANCH  23  24
ENDBRANCH  22  23
ENDBRANCH  21  22
ENDBRANCH  20  21
ENDBRANCH  19  20
ENDBRANCH  18  19
ENDBRANCH   1  18
TORSDOF 28
ENDMDL
MODEL 3
REMARK VINA RESULT:    -5.323      1.300      5.806
REMARK INTER + INTRA:         -18.055
REMARK INTER:                 -14.775
REMARK INTRA:                  -3.280
REMARK UNBOUND:                -4.019
REMARK SMILES CCCCCCCCCCCCCCCCCCCCCCCCCCCCCC(=O)[O-]
REMARK SMILES IDX 16 1 17 2 18 3 19 4 20 5 21 6 22 7 23 8 24 9 25 10 26 11
REMARK SMILES IDX 27 12 28 13 29 14 30 15 31 16 32 17 15 18 14 19 13 20 12 21
REMARK SMILES IDX 11 22 10 23 9 24 8 25 7 26 6 27 5 28 4 29 3 30 2 31 1 32
REMARK H PARENT
REMARK Flexibility Score: inf
ROOT
ATOM      1  C   UNL     1     -12.832 -16.663  29.019  1.00  0.00     0.000 C 
ENDROOT
BRANCH   1   2
ATOM      2  C   UNL     1     -11.686 -17.071  28.073  1.00  0.00     0.000 C 
BRANCH   2   3
ATOM      3  C   UNL     1     -11.314 -16.025  27.002  1.00  0.00     0.000 C 
BRANCH   3   4
ATOM      4  C   UNL     1      -9.837 -15.587  27.007  1.00  0.00     0.000 C 
BRANCH   4   5
ATOM      5  C   UNL     1      -9.458 -14.748  25.777  1.00  0.00     0.000 C 
BRANCH   5   6
ATOM      6  C   UNL     1      -8.213 -13.893  26.058  1.00  0.00     0.000 C 
BRANCH   6   7
ATOM      7  C   UNL     1      -7.000 -14.739  26.477  1.00  0.00     0.000 C 
BRANCH   7   8
ATOM      8  C   UNL     1      -6.323 -14.210  27.752  1.00  0.00     0.000 C 
BRANCH   8   9
ATOM      9  C   UNL     1      -4.961 -14.875  28.025  1.00  0.00     0.000 C 
BRANCH   9  10
ATOM     10  C   UNL     1      -3.950 -13.995  28.784  1.00  0.00     0.000 C 
BRANCH  10  11
ATOM     11  C   UNL     1      -2.589 -13.897  28.073  1.00  0.00     0.000 C 
BRANCH  11  12
ATOM     12  C   UNL     1      -2.398 -14.986  27.006  1.00  0.00     0.000 C 
BRANCH  12  13
ATOM     13  C   UNL     1      -2.069 -14.412  25.619  1.00  0.00     0.006 C 
BRANCH  13  14
ATOM     14  C   UNL     1      -0.820 -13.526  25.676  1.00  0.00     0.053 C 
BRANCH  14  15
ATOM     15  C   UNL     1       0.378 -14.264  25.161  1.00  0.00     0.041 C 
ATOM     16  O   UNL     1       0.553 -15.476  25.458  1.00  0.00    -0.550 OA
ATOM     17  O   UNL     1       1.304 -13.611  24.356  1.00  0.00    -0.550 OA
ENDBRANCH  14  15
ENDBRANCH  13  14
ENDBRANCH  12  13
ENDBRANCH  11  12
ENDBRANCH  10  11
ENDBRANCH   9  10
ENDBRANCH   8   9
ENDBRANCH   7   8
ENDBRANCH   6   7
ENDBRANCH   5   6
ENDBRANCH   4   5
ENDBRANCH   3   4
ENDBRANCH   2   3
ENDBRANCH   1   2
BRANCH   1  18
ATOM     18  C   UNL     1     -12.382 -16.088  30.373  1.00  0.00     0.000 C 
BRANCH  18  19
ATOM     19  C   UNL     1     -12.429 -17.126  31.505  1.00  0.00     0.000 C 
BRANCH  19  20
ATOM     20  C   UNL     1     -11.251 -16.938  32.471  1.00  0.00     0.000 C 
BRANCH  20  21
ATOM     21  C   UNL     1     -10.095 -17.888  32.122  1.00  0.00     0.000 C 
BRANCH  21  22
ATOM     22  C   UNL     1      -8.776 -17.137  31.875  1.00  0.00     0.000 C 
BRANCH  22  23
ATOM     23  C   UNL     1      -8.896 -16.097  30.749  1.00  0.00     0.000 C 
BRANCH  23  24
ATOM     24  C   UNL     1      -8.030 -14.846  30.994  1.00  0.00    -0.000 C 
BRANCH  24  25
ATOM     25  C   UNL     1      -7.035 -14.963  32.165  1.00  0.00    -0.000 C 
BRANCH  25  26
ATOM     26  C   UNL     1      -6.540 -13.600  32.668  1.00  0.00    -0.000 C 
BRANCH  26  27
ATOM     27  C   UNL     1      -6.505 -12.569  31.532  1.00  0.00    -0.000 C 
BRANCH  27  28
ATOM     28  C   UNL     1      -5.127 -11.899  31.378  1.00  0.00    -0.000 C 
BRANCH  28  29
ATOM     29  C   UNL     1      -4.560 -11.268  32.665  1.00  0.00    -0.000 C 
BRANCH  29  30
ATOM     30  C   UNL     1      -3.028 -11.351  32.814  1.00  0.00    -0.000 C 
BRANCH  30  31
ATOM     31  C   UNL     1      -2.241 -11.154  31.506  1.00  0.00    -0.003 C 
ATOM     32  C   UNL     1      -1.282 -12.305  31.209  1.00  0.00     0.004 C 
ENDBRANCH  30  31
ENDBRANCH  29  30
ENDBRANCH  28  29
ENDBRANCH  27  28
ENDBRANCH  26  27
ENDBRANCH  25  26
ENDBRANCH  24  25
ENDBRANCH  23  24
ENDBRANCH  22  23
ENDBRANCH  21  22
ENDBRANCH  20  21
ENDBRANCH  19  20
ENDBRANCH  18  19
ENDBRANCH   1  18
TORSDOF 28
ENDMDL
MODEL 4
REMARK VINA RESULT:    -5.272      1.391      3.695
REMARK INTER + INTRA:         -17.921
REMARK INTER:                 -14.030
REMARK INTRA:                  -3.890
REMARK UNBOUND:                -4.019
REMARK SMILES CCCCCCCCCCCCCCCCCCCCCCCCCCCCCC(=O)[O-]
REMARK SMILES IDX 16 1 17 2 18 3 19 4 20 5 21 6 22 7 23 8 24 9 25 10 26 11
REMARK SMILES IDX 27 12 28 13 29 14 30 15 31 16 32 17 15 18 14 19 13 20 12 21
REMARK SMILES IDX 11 22 10 23 9 24 8 25 7 26 6 27 5 28 4 29 3 30 2 31 1 32
REMARK H PARENT
REMARK Flexibility Score: inf
ROOT
ATOM      1  C   UNL     1      -6.951 -14.427  32.285  1.00  0.00     0.000 C 
ENDROOT
BRANCH   1   2
ATOM      2  C   UNL     1      -7.018 -12.887  32.250  1.00  0.00     0.000 C 
BRANCH   2   3
ATOM      3  C   UNL     1      -6.335 -12.227  31.035  1.00  0.00     0.000 C 
BRANCH   3   4
ATOM      4  C   UNL     1      -5.279 -11.162  31.384  1.00  0.00     0.000 C 
BRANCH   4   5
ATOM      5  C   UNL     1      -4.541 -11.461  32.698  1.00  0.00     0.000 C 
BRANCH   5   6
ATOM      6  C   UNL     1      -3.027 -11.254  32.537  1.00  0.00     0.000 C 
BRANCH   6   7
ATOM      7  C   UNL     1      -2.594 -11.190  31.064  1.00  0.00     0.000 C 
BRANCH   7   8
ATOM      8  C   UNL     1      -1.361 -12.061  30.772  1.00  0.00     0.000 C 
BRANCH   8   9
ATOM      9  C   UNL     1      -1.658 -13.205  29.784  1.00  0.00     0.000 C 
BRANCH   9  10
ATOM     10  C   UNL     1      -3.115 -13.273  29.288  1.00  0.00     0.000 C 
BRANCH  10  11
ATOM     11  C   UNL     1      -3.499 -14.661  28.748  1.00  0.00     0.000 C 
BRANCH  11  12
ATOM     12  C   UNL     1      -2.370 -15.692  28.908  1.00  0.00     0.000 C 
BRANCH  12  13
ATOM     13  C   UNL     1      -2.294 -16.681  27.735  1.00  0.00     0.006 C 
BRANCH  13  14
ATOM     14  C   UNL     1      -1.015 -16.464  26.918  1.00  0.00     0.053 C 
BRANCH  14  15
ATOM     15  C   UNL     1      -1.063 -15.155  26.193  1.00  0.00     0.041 C 
ATOM     16  O   UNL     1      -0.289 -14.217  26.523  1.00  0.00    -0.550 OA
ATOM     17  O   UNL     1      -1.967 -14.968  25.153  1.00  0.00    -0.550 OA
ENDBRANCH  14  15
ENDBRANCH  13  14
ENDBRANCH  12  13
ENDBRANCH  11  12
ENDBRANCH  10  11
ENDBRANCH   9  10
ENDBRANCH   8   9
ENDBRANCH   7   8
ENDBRANCH   6   7
ENDBRANCH   5   6
ENDBRANCH   4   5
ENDBRANCH   3   4
ENDBRANCH   2   3
ENDBRANCH   1   2
BRANCH   1  18
ATOM     18  C   UNL     1      -6.906 -15.105  30.904  1.00  0.00     0.000 C 
BRANCH  18  19
ATOM     19  C   UNL     1      -8.285 -15.593  30.436  1.00  0.00     0.000 C 
BRANCH  19  20
ATOM     20  C   UNL     1      -9.210 -15.853  31.632  1.00  0.00     0.000 C 
BRANCH  20  21
ATOM     21  C   UNL     1      -9.366 -17.359  31.893  1.00  0.00     0.000 C 
BRANCH  21  22
ATOM     22  C   UNL     1     -10.822 -17.753  32.189  1.00  0.00     0.000 C 
BRANCH  22  23
ATOM     23  C   UNL     1     -11.817 -16.636  31.832  1.00  0.00     0.000 C 
BRANCH  23  24
ATOM     24  C   UNL     1     -12.698 -16.984  30.617  1.00  0.00    -0.000 C 
BRANCH  24  25
ATOM     25  C   UNL     1     -12.337 -18.304  29.909  1.00  0.00    -0.000 C 
BRANCH  25  26
ATOM     26  C   UNL     1     -11.659 -18.087  28.549  1.00  0.00    -0.000 C 
BRANCH  26  27
ATOM     27  C   UNL     1     -11.803 -16.631  28.083  1.00  0.00    -0.000 C 
BRANCH  27  28
ATOM     28  C   UNL     1     -10.458 -16.000  27.679  1.00  0.00    -0.000 C 
BRANCH  28  29
ATOM     29  C   UNL     1     -10.470 -15.240  26.338  1.00  0.00    -0.000 C 
BRANCH  29  30
ATOM     30  C   UNL     1      -9.167 -14.490  25.999  1.00  0.00    -0.000 C 
BRANCH  30  31
ATOM     31  C   UNL     1      -7.876 -15.269  26.307  1.00  0.00    -0.003 C 
ATOM     32  C   UNL     1      -6.831 -14.427  27.036  1.00  0.00     0.004 C 
ENDBRANCH  30  31
ENDBRANCH  29  30
ENDBRANCH  28  29
ENDBRANCH  27  28
ENDBRANCH  26  27
ENDBRANCH  25  26
ENDBRANCH  24  25
ENDBRANCH  23  24
ENDBRANCH  22  23
ENDBRANCH  21  22
ENDBRANCH  20  21
ENDBRANCH  19  20
ENDBRANCH  18  19
ENDBRANCH   1  18
TORSDOF 28
ENDMDL
MODEL 5
REMARK VINA RESULT:    -5.224      2.843      9.666
REMARK INTER + INTRA:         -17.794
REMARK INTER:                 -14.379
REMARK INTRA:                  -3.415
REMARK UNBOUND:                -4.019
REMARK SMILES CCCCCCCCCCCCCCCCCCCCCCCCCCCCCC(=O)[O-]
REMARK SMILES IDX 16 1 17 2 18 3 19 4 20 5 21 6 22 7 23 8 24 9 25 10 26 11
REMARK SMILES IDX 27 12 28 13 29 14 30 15 31 16 32 17 15 18 14 19 13 20 12 21
REMARK SMILES IDX 11 22 10 23 9 24 8 25 7 26 6 27 5 28 4 29 3 30 2 31 1 32
REMARK H PARENT
REMARK Flexibility Score: inf
ROOT
ATOM      1  C   UNL     1      -5.962 -13.181  29.747  1.00  0.00     0.000 C 
ENDROOT
BRANCH   1   2
ATOM      2  C   UNL     1      -6.037 -14.297  28.686  1.00  0.00     0.000 C 
BRANCH   2   3
ATOM      3  C   UNL     1      -7.441 -14.558  28.105  1.00  0.00     0.000 C 
BRANCH   3   4
ATOM      4  C   UNL     1      -7.583 -14.277  26.598  1.00  0.00     0.000 C 
BRANCH   4   5
ATOM      5  C   UNL     1      -8.852 -14.894  25.991  1.00  0.00     0.000 C 
BRANCH   5   6
ATOM      6  C   UNL     1      -9.728 -15.530  27.081  1.00  0.00     0.000 C 
BRANCH   6   7
ATOM      7  C   UNL     1     -11.194 -15.681  26.645  1.00  0.00     0.000 C 
BRANCH   7   8
ATOM      8  C   UNL     1     -11.958 -16.716  27.487  1.00  0.00     0.000 C 
BRANCH   8   9
ATOM      9  C   UNL     1     -12.860 -16.069  28.555  1.00  0.00     0.000 C 
BRANCH   9  10
ATOM     10  C   UNL     1     -12.403 -16.288  30.009  1.00  0.00     0.000 C 
BRANCH  10  11
ATOM     11  C   UNL     1     -13.092 -17.489  30.679  1.00  0.00     0.000 C 
BRANCH  11  12
ATOM     12  C   UNL     1     -12.112 -18.364  31.479  1.00  0.00     0.000 C 
BRANCH  12  13
ATOM     13  C   UNL     1     -11.130 -17.539  32.325  1.00  0.00     0.006 C 
BRANCH  13  14
ATOM     14  C   UNL     1      -9.679 -17.889  31.977  1.00  0.00     0.053 C 
BRANCH  14  15
ATOM     15  C   UNL     1      -8.837 -16.653  31.907  1.00  0.00     0.041 C 
ATOM     16  O   UNL     1      -7.583 -16.732  32.011  1.00  0.00    -0.550 OA
ATOM     17  O   UNL     1      -9.436 -15.411  31.730  1.00  0.00    -0.550 OA
ENDBRANCH  14  15
ENDBRANCH  13  14
ENDBRANCH  12  13
ENDBRANCH  11  12
ENDBRANCH  10  11
ENDBRANCH   9  10
ENDBRANCH   8   9
ENDBRANCH   7   8
ENDBRANCH   6   7
ENDBRANCH   5   6
ENDBRANCH   4   5
ENDBRANCH   3   4
ENDBRANCH   2   3
ENDBRANCH   1   2
BRANCH   1  18
ATOM     18  C   UNL     1      -6.560 -13.547  31.117  1.00  0.00     0.000 C 
BRANCH  18  19
ATOM     19  C   UNL     1      -6.660 -12.342  32.063  1.00  0.00     0.000 C 
BRANCH  19  20
ATOM     20  C   UNL     1      -5.609 -11.281  31.713  1.00  0.00     0.000 C 
BRANCH  20  21
ATOM     21  C   UNL     1      -4.386 -11.388  32.638  1.00  0.00     0.000 C 
BRANCH  21  22
ATOM     22  C   UNL     1      -3.063 -11.194  31.882  1.00  0.00     0.000 C 
BRANCH  22  23
ATOM     23  C   UNL     1      -3.279 -10.836  30.402  1.00  0.00     0.000 C 
BRANCH  23  24
ATOM     24  C   UNL     1      -2.548 -11.793  29.441  1.00  0.00    -0.000 C 
BRANCH  24  25
ATOM     25  C   UNL     1      -2.001 -13.078  30.093  1.00  0.00    -0.000 C 
BRANCH  25  26
ATOM     26  C   UNL     1      -1.866 -14.241  29.101  1.00  0.00    -0.000 C 
BRANCH  26  27
ATOM     27  C   UNL     1      -2.643 -13.960  27.808  1.00  0.00    -0.000 C 
BRANCH  27  28
ATOM     28  C   UNL     1      -2.081 -14.726  26.597  1.00  0.00    -0.000 C 
BRANCH  28  29
ATOM     29  C   UNL     1      -1.552 -13.841  25.451  1.00  0.00    -0.000 C 
BRANCH  29  30
ATOM     30  C   UNL     1      -1.069 -12.440  25.877  1.00  0.00    -0.000 C 
BRANCH  30  31
ATOM     31  C   UNL     1       0.460 -12.279  25.948  1.00  0.00    -0.003 C 
ATOM     32  C   UNL     1       1.067 -12.905  27.204  1.00  0.00     0.004 C 
ENDBRANCH  30  31
ENDBRANCH  29  30
ENDBRANCH  28  29
ENDBRANCH  27  28
ENDBRANCH  26  27
ENDBRANCH  25  26
ENDBRANCH  24  25
ENDBRANCH  23  24
ENDBRANCH  22  23
ENDBRANCH  21  22
ENDBRANCH  20  21
ENDBRANCH  19  20
ENDBRANCH  18  19
ENDBRANCH   1  18
TORSDOF 28
ENDMDL
MODEL 6
REMARK VINA RESULT:    -5.201      2.927      9.543
REMARK INTER + INTRA:         -17.734
REMARK INTER:                 -13.846
REMARK INTRA:                  -3.888
REMARK UNBOUND:                -4.019
REMARK SMILES CCCCCCCCCCCCCCCCCCCCCCCCCCCCCC(=O)[O-]
REMARK SMILES IDX 16 1 17 2 18 3 19 4 20 5 21 6 22 7 23 8 24 9 25 10 26 11
REMARK SMILES IDX 27 12 28 13 29 14 30 15 31 16 32 17 15 18 14 19 13 20 12 21
REMARK SMILES IDX 11 22 10 23 9 24 8 25 7 26 6 27 5 28 4 29 3 30 2 31 1 32
REMARK H PARENT
REMARK Flexibility Score: inf
ROOT
ATOM      1  C   UNL     1      -8.097 -14.000  26.116  1.00  0.00     0.000 C 
ENDROOT
BRANCH   1   2
ATOM      2  C   UNL     1      -9.411 -14.755  25.833  1.00  0.00     0.000 C 
BRANCH   2   3
ATOM      3  C   UNL     1      -9.968 -15.571  27.018  1.00  0.00     0.000 C 
BRANCH   3   4
ATOM      4  C   UNL     1     -11.446 -15.981  26.885  1.00  0.00     0.000 C 
BRANCH   4   5
ATOM      5  C   UNL     1     -11.916 -16.900  28.024  1.00  0.00     0.000 C 
BRANCH   5   6
ATOM      6  C   UNL     1     -13.188 -16.348  28.686  1.00  0.00     0.000 C 
BRANCH   6   7
ATOM      7  C   UNL     1     -13.635 -17.187  29.893  1.00  0.00     0.000 C 
BRANCH   7   8
ATOM      8  C   UNL     1     -12.811 -18.474  30.055  1.00  0.00     0.000 C 
BRANCH   8   9
ATOM      9  C   UNL     1     -12.410 -18.747  31.518  1.00  0.00     0.000 C 
BRANCH   9  10
ATOM     10  C   UNL     1     -11.009 -18.242  31.911  1.00  0.00     0.000 C 
BRANCH  10  11
ATOM     11  C   UNL     1     -11.033 -16.836  32.538  1.00  0.00     0.000 C 
BRANCH  11  12
ATOM     12  C   UNL     1     -10.665 -15.733  31.532  1.00  0.00     0.000 C 
BRANCH  12  13
ATOM     13  C   UNL     1      -9.404 -16.063  30.720  1.00  0.00     0.006 C 
BRANCH  13  14
ATOM     14  C   UNL     1      -8.156 -16.033  31.610  1.00  0.00     0.053 C 
BRANCH  14  15
ATOM     15  C   UNL     1      -7.535 -14.670  31.607  1.00  0.00     0.041 C 
ATOM     16  O   UNL     1      -6.387 -14.495  31.117  1.00  0.00    -0.550 OA
ATOM     17  O   UNL     1      -8.223 -13.591  32.150  1.00  0.00    -0.550 OA
ENDBRANCH  14  15
ENDBRANCH  13  14
ENDBRANCH  12  13
ENDBRANCH  11  12
ENDBRANCH  10  11
ENDBRANCH   9  10
ENDBRANCH   8   9
ENDBRANCH   7   8
ENDBRANCH   6   7
ENDBRANCH   5   6
ENDBRANCH   4   5
ENDBRANCH   3   4
ENDBRANCH   2   3
ENDBRANCH   1   2
BRANCH   1  18
ATOM     18  C   UNL     1      -6.882 -14.899  26.406  1.00  0.00     0.000 C 
BRANCH  18  19
ATOM     19  C   UNL     1      -6.111 -14.468  27.662  1.00  0.00     0.000 C 
BRANCH  19  20
ATOM     20  C   UNL     1      -4.597 -14.591  27.445  1.00  0.00     0.000 C 
BRANCH  20  21
ATOM     21  C   UNL     1      -3.819 -14.038  28.650  1.00  0.00     0.000 C 
BRANCH  21  22
ATOM     22  C   UNL     1      -2.916 -15.100  29.298  1.00  0.00     0.000 C 
BRANCH  22  23
ATOM     23  C   UNL     1      -2.257 -16.024  28.260  1.00  0.00     0.000 C 
BRANCH  23  24
ATOM     24  C   UNL     1      -0.725 -16.090  28.404  1.00  0.00    -0.000 C 
BRANCH  24  25
ATOM     25  C   UNL     1      -0.011 -16.969  27.359  1.00  0.00    -0.000 C 
BRANCH  25  26
ATOM     26  C   UNL     1      -0.913 -17.344  26.175  1.00  0.00    -0.000 C 
BRANCH  26  27
ATOM     27  C   UNL     1      -0.565 -16.519  24.929  1.00  0.00    -0.000 C 
BRANCH  27  28
ATOM     28  C   UNL     1      -1.342 -15.192  24.857  1.00  0.00    -0.000 C 
BRANCH  28  29
ATOM     29  C   UNL     1      -0.540 -13.942  25.270  1.00  0.00    -0.000 C 
BRANCH  29  30
ATOM     30  C   UNL     1      -1.326 -12.904  26.096  1.00  0.00    -0.000 C 
BRANCH  30  31
ATOM     31  C   UNL     1      -0.666 -12.507  27.429  1.00  0.00    -0.003 C 
ATOM     32  C   UNL     1       0.829 -12.820  27.470  1.00  0.00     0.004 C 
ENDBRANCH  30  31
ENDBRANCH  29  30
ENDBRANCH  28  29
ENDBRANCH  27  28
ENDBRANCH  26  27
ENDBRANCH  25  26
ENDBRANCH  24  25
ENDBRANCH  23  24
ENDBRANCH  22  23
ENDBRANCH  21  22
ENDBRANCH  20  21
ENDBRANCH  19  20
ENDBRANCH  18  19
ENDBRANCH   1  18
TORSDOF 28
ENDMDL
MODEL 7
REMARK VINA RESULT:    -5.201      1.376      4.018
REMARK INTER + INTRA:         -17.733
REMARK INTER:                 -14.764
REMARK INTRA:                  -2.969
REMARK UNBOUND:                -4.019
REMARK SMILES CCCCCCCCCCCCCCCCCCCCCCCCCCCCCC(=O)[O-]
REMARK SMILES IDX 16 1 17 2 18 3 19 4 20 5 21 6 22 7 23 8 24 9 25 10 26 11
REMARK SMILES IDX 27 12 28 13 29 14 30 15 31 16 32 17 15 18 14 19 13 20 12 21
REMARK SMILES IDX 11 22 10 23 9 24 8 25 7 26 6 27 5 28 4 29 3 30 2 31 1 32
REMARK H PARENT
REMARK Flexibility Score: inf
ROOT
ATOM      1  C   UNL     1      -8.618 -15.209  31.538  1.00  0.00     0.000 C 
ENDROOT
BRANCH   1   2
ATOM      2  C   UNL     1      -7.100 -15.139  31.281  1.00  0.00     0.000 C 
BRANCH   2   3
ATOM      3  C   UNL     1      -6.542 -13.726  31.015  1.00  0.00     0.000 C 
BRANCH   3   4
ATOM      4  C   UNL     1      -6.633 -12.757  32.209  1.00  0.00     0.000 C 
BRANCH   4   5
ATOM      5  C   UNL     1      -5.894 -11.433  31.961  1.00  0.00     0.000 C 
BRANCH   5   6
ATOM      6  C   UNL     1      -5.392 -11.347  30.512  1.00  0.00     0.000 C 
BRANCH   6   7
ATOM      7  C   UNL     1      -3.894 -11.018  30.426  1.00  0.00     0.000 C 
BRANCH   7   8
ATOM      8  C   UNL     1      -3.236 -10.895  31.810  1.00  0.00     0.000 C 
BRANCH   8   9
ATOM      9  C   UNL     1      -1.833 -11.530  31.863  1.00  0.00     0.000 C 
BRANCH   9  10
ATOM     10  C   UNL     1      -1.272 -11.980  30.501  1.00  0.00     0.000 C 
BRANCH  10  11
ATOM     11  C   UNL     1      -1.157 -13.509  30.377  1.00  0.00     0.000 C 
BRANCH  11  12
ATOM     12  C   UNL     1      -1.990 -14.073  29.214  1.00  0.00     0.000 C 
BRANCH  12  13
ATOM     13  C   UNL     1      -1.127 -14.525  28.026  1.00  0.00     0.006 C 
BRANCH  13  14
ATOM     14  C   UNL     1      -1.996 -15.121  26.913  1.00  0.00     0.053 C 
BRANCH  14  15
ATOM     15  C   UNL     1      -1.703 -14.462  25.601  1.00  0.00     0.041 C 
ATOM     16  O   UNL     1      -1.230 -13.295  25.567  1.00  0.00    -0.550 OA
ATOM     17  O   UNL     1      -1.955 -15.137  24.412  1.00  0.00    -0.550 OA
ENDBRANCH  14  15
ENDBRANCH  13  14
ENDBRANCH  12  13
ENDBRANCH  11  12
ENDBRANCH  10  11
ENDBRANCH   9  10
ENDBRANCH   8   9
ENDBRANCH   7   8
ENDBRANCH   6   7
ENDBRANCH   5   6
ENDBRANCH   4   5
ENDBRANCH   3   4
ENDBRANCH   2   3
ENDBRANCH   1   2
BRANCH   1  18
ATOM     18  C   UNL     1      -9.334 -16.400  30.877  1.00  0.00     0.000 C 
BRANCH  18  19
ATOM     19  C   UNL     1      -9.343 -17.654  31.762  1.00  0.00     0.000 C 
BRANCH  19  20
ATOM     20  C   UNL     1     -10.248 -18.741  31.166  1.00  0.00     0.000 C 
BRANCH  20  21
ATOM     21  C   UNL     1     -11.434 -19.043  32.096  1.00  0.00     0.000 C 
BRANCH  21  22
ATOM     22  C   UNL     1     -12.788 -18.795  31.413  1.00  0.00     0.000 C 
BRANCH  22  23
ATOM     23  C   UNL     1     -13.030 -17.307  31.111  1.00  0.00     0.000 C 
BRANCH  23  24
ATOM     24  C   UNL     1     -13.361 -17.043  29.630  1.00  0.00    -0.000 C 
BRANCH  24  25
ATOM     25  C   UNL     1     -12.362 -16.131  28.891  1.00  0.00    -0.000 C 
BRANCH  25  26
ATOM     26  C   UNL     1     -11.785 -16.778  27.624  1.00  0.00    -0.000 C 
BRANCH  26  27
ATOM     27  C   UNL     1     -11.279 -15.714  26.640  1.00  0.00    -0.000 C 
BRANCH  27  28
ATOM     28  C   UNL     1      -9.779 -15.412  26.809  1.00  0.00    -0.000 C 
BRANCH  28  29
ATOM     29  C   UNL     1      -9.209 -14.367  25.830  1.00  0.00    -0.000 C 
BRANCH  29  30
ATOM     30  C   UNL     1      -7.804 -13.838  26.182  1.00  0.00    -0.000 C 
BRANCH  30  31
ATOM     31  C   UNL     1      -6.772 -14.928  26.521  1.00  0.00    -0.003 C 
ATOM     32  C   UNL     1      -5.789 -14.500  27.610  1.00  0.00     0.004 C 
ENDBRANCH  30  31
ENDBRANCH  29  30
ENDBRANCH  28  29
ENDBRANCH  27  28
ENDBRANCH  26  27
ENDBRANCH  25  26
ENDBRANCH  24  25
ENDBRANCH  23  24
ENDBRANCH  22  23
ENDBRANCH  21  22
ENDBRANCH  20  21
ENDBRANCH  19  20
ENDBRANCH  18  19
ENDBRANCH   1  18
TORSDOF 28
ENDMDL
MODEL 8
REMARK VINA RESULT:    -5.158      1.356      1.871
REMARK INTER + INTRA:         -17.620
REMARK INTER:                 -14.222
REMARK INTRA:                  -3.398
REMARK UNBOUND:                -4.019
REMARK SMILES CCCCCCCCCCCCCCCCCCCCCCCCCCCCCC(=O)[O-]
REMARK SMILES IDX 16 1 17 2 18 3 19 4 20 5 21 6 22 7 23 8 24 9 25 10 26 11
REMARK SMILES IDX 27 12 28 13 29 14 30 15 31 16 32 17 15 18 14 19 13 20 12 21
REMARK SMILES IDX 11 22 10 23 9 24 8 25 7 26 6 27 5 28 4 29 3 30 2 31 1 32
REMARK H PARENT
REMARK Flexibility Score: inf
ROOT
ATOM      1  C   UNL     1      -5.983 -14.508  26.645  1.00  0.00     0.000 C 
ENDROOT
BRANCH   1   2
ATOM      2  C   UNL     1      -4.930 -14.718  27.751  1.00  0.00     0.000 C 
BRANCH   2   3
ATOM      3  C   UNL     1      -5.406 -14.395  29.182  1.00  0.00     0.000 C 
BRANCH   3   4
ATOM      4  C   UNL     1      -4.987 -13.010  29.708  1.00  0.00     0.000 C 
BRANCH   4   5
ATOM      5  C   UNL     1      -6.111 -12.298  30.476  1.00  0.00     0.000 C 
BRANCH   5   6
ATOM      6  C   UNL     1      -5.550 -11.154  31.335  1.00  0.00     0.000 C 
BRANCH   6   7
ATOM      7  C   UNL     1      -4.844 -11.660  32.602  1.00  0.00     0.000 C 
BRANCH   7   8
ATOM      8  C   UNL     1      -3.479 -10.989  32.827  1.00  0.00     0.000 C 
BRANCH   8   9
ATOM      9  C   UNL     1      -2.296 -11.892  32.429  1.00  0.00     0.000 C 
BRANCH   9  10
ATOM     10  C   UNL     1      -1.738 -11.644  31.015  1.00  0.00     0.000 C 
BRANCH  10  11
ATOM     11  C   UNL     1      -1.420 -12.947  30.261  1.00  0.00     0.000 C 
BRANCH  11  12
ATOM     12  C   UNL     1      -0.854 -12.693  28.854  1.00  0.00     0.000 C 
BRANCH  12  13
ATOM     13  C   UNL     1      -1.343 -13.720  27.820  1.00  0.00     0.006 C 
BRANCH  13  14
ATOM     14  C   UNL     1      -1.008 -15.148  28.266  1.00  0.00     0.053 C 
BRANCH  14  15
ATOM     15  C   UNL     1      -1.578 -16.150  27.311  1.00  0.00     0.041 C 
ATOM     16  O   UNL     1      -1.456 -15.984  26.067  1.00  0.00    -0.550 OA
ATOM     17  O   UNL     1      -2.249 -17.268  27.793  1.00  0.00    -0.550 OA
ENDBRANCH  14  15
ENDBRANCH  13  14
ENDBRANCH  12  13
ENDBRANCH  11  12
ENDBRANCH  10  11
ENDBRANCH   9  10
ENDBRANCH   8   9
ENDBRANCH   7   8
ENDBRANCH   6   7
ENDBRANCH   5   6
ENDBRANCH   4   5
ENDBRANCH   3   4
ENDBRANCH   2   3
ENDBRANCH   1   2
BRANCH   1  18
ATOM     18  C   UNL     1      -7.430 -14.357  27.147  1.00  0.00     0.000 C 
BRANCH  18  19
ATOM     19  C   UNL     1      -8.371 -13.776  26.082  1.00  0.00     0.000 C 
BRANCH  19  20
ATOM     20  C   UNL     1      -9.389 -14.827  25.617  1.00  0.00     0.000 C 
BRANCH  20  21
ATOM     21  C   UNL     1     -10.105 -15.470  26.815  1.00  0.00     0.000 C 
BRANCH  21  22
ATOM     22  C   UNL     1     -11.616 -15.620  26.579  1.00  0.00     0.000 C 
BRANCH  22  23
ATOM     23  C   UNL     1     -12.247 -16.694  27.481  1.00  0.00     0.000 C 
BRANCH  23  24
ATOM     24  C   UNL     1     -11.565 -16.795  28.859  1.00  0.00    -0.000 C 
BRANCH  24  25
ATOM     25  C   UNL     1     -12.430 -16.336  30.048  1.00  0.00    -0.000 C 
BRANCH  25  26
ATOM     26  C   UNL     1     -12.890 -17.499  30.939  1.00  0.00    -0.000 C 
BRANCH  26  27
ATOM     27  C   UNL     1     -11.700 -18.357  31.388  1.00  0.00    -0.000 C 
BRANCH  27  28
ATOM     28  C   UNL     1     -10.829 -17.658  32.449  1.00  0.00    -0.000 C 
BRANCH  28  29
ATOM     29  C   UNL     1      -9.385 -17.349  32.007  1.00  0.00    -0.000 C 
BRANCH  29  30
ATOM     30  C   UNL     1      -9.156 -15.922  31.471  1.00  0.00    -0.000 C 
BRANCH  30  31
ATOM     31  C   UNL     1      -7.738 -15.368  31.699  1.00  0.00    -0.003 C 
ATOM     32  C   UNL     1      -6.777 -16.408  32.272  1.00  0.00     0.004 C 
ENDBRANCH  30  31
ENDBRANCH  29  30
ENDBRANCH  28  29
ENDBRANCH  27  28
ENDBRANCH  26  27
ENDBRANCH  25  26
ENDBRANCH  24  25
ENDBRANCH  23  24
ENDBRANCH  22  23
ENDBRANCH  21  22
ENDBRANCH  20  21
ENDBRANCH  19  20
ENDBRANCH  18  19
ENDBRANCH   1  18
TORSDOF 28
ENDMDL
MODEL 9
REMARK VINA RESULT:    -5.158      2.345      9.053
REMARK INTER + INTRA:         -17.619
REMARK INTER:                 -13.822
REMARK INTRA:                  -3.797
REMARK UNBOUND:                -4.019
REMARK SMILES CCCCCCCCCCCCCCCCCCCCCCCCCCCCCC(=O)[O-]
REMARK SMILES IDX 16 1 17 2 18 3 19 4 20 5 21 6 22 7 23 8 24 9 25 10 26 11
REMARK SMILES IDX 27 12 28 13 29 14 30 15 31 16 32 17 15 18 14 19 13 20 12 21
REMARK SMILES IDX 11 22 10 23 9 24 8 25 7 26 6 27 5 28 4 29 3 30 2 31 1 32
REMARK H PARENT
REMARK Flexibility Score: inf
ROOT
ATOM      1  C   UNL     1      -6.845 -14.021  31.789  1.00  0.00     0.000 C 
ENDROOT
BRANCH   1   2
ATOM      2  C   UNL     1      -8.310 -13.735  32.173  1.00  0.00     0.000 C 
BRANCH   2   3
ATOM      3  C   UNL     1      -9.320 -14.831  31.778  1.00  0.00     0.000 C 
BRANCH   3   4
ATOM      4  C   UNL     1      -8.721 -16.011  30.990  1.00  0.00     0.000 C 
BRANCH   4   5
ATOM      5  C   UNL     1      -9.037 -17.375  31.625  1.00  0.00     0.000 C 
BRANCH   5   6
ATOM      6  C   UNL     1     -10.402 -17.350  32.329  1.00  0.00     0.000 C 
BRANCH   6   7
ATOM      7  C   UNL     1     -11.292 -18.537  31.931  1.00  0.00     0.000 C 
BRANCH   7   8
ATOM      8  C   UNL     1     -12.016 -18.310  30.594  1.00  0.00     0.000 C 
BRANCH   8   9
ATOM      9  C   UNL     1     -12.890 -17.042  30.595  1.00  0.00     0.000 C 
BRANCH   9  10
ATOM     10  C   UNL     1     -12.425 -15.932  29.634  1.00  0.00     0.000 C 
BRANCH  10  11
ATOM     11  C   UNL     1     -11.480 -16.449  28.535  1.00  0.00     0.000 C 
BRANCH  11  12
ATOM     12  C   UNL     1     -11.929 -16.035  27.124  1.00  0.00     0.000 C 
BRANCH  12  13
ATOM     13  C   UNL     1     -10.771 -15.519  26.257  1.00  0.00     0.006 C 
BRANCH  13  14
ATOM     14  C   UNL     1      -9.495 -15.351  27.091  1.00  0.00     0.053 C 
BRANCH  14  15
ATOM     15  C   UNL     1      -8.486 -14.524  26.357  1.00  0.00     0.041 C 
ATOM     16  O   UNL     1      -8.850 -13.513  25.698  1.00  0.00    -0.550 OA
ATOM     17  O   UNL     1      -7.140 -14.871  26.396  1.00  0.00    -0.550 OA
ENDBRANCH  14  15
ENDBRANCH  13  14
ENDBRANCH  12  13
ENDBRANCH  11  12
ENDBRANCH  10  11
ENDBRANCH   9  10
ENDBRANCH   8   9
ENDBRANCH   7   8
ENDBRANCH   6   7
ENDBRANCH   5   6
ENDBRANCH   4   5
ENDBRANCH   3   4
ENDBRANCH   2   3
ENDBRANCH   1   2
BRANCH   1  18
ATOM     18  C   UNL     1      -6.224 -13.013  30.806  1.00  0.00     0.000 C 
BRANCH  18  19
ATOM     19  C   UNL     1      -5.954 -11.644  31.449  1.00  0.00     0.000 C 
BRANCH  19  20
ATOM     20  C   UNL     1      -4.973 -11.773  32.621  1.00  0.00     0.000 C 
BRANCH  20  21
ATOM     21  C   UNL     1      -3.769 -10.836  32.439  1.00  0.00     0.000 C 
BRANCH  21  22
ATOM     22  C   UNL     1      -2.456 -11.607  32.227  1.00  0.00     0.000 C 
BRANCH  22  23
ATOM     23  C   UNL     1      -1.769 -11.243  30.901  1.00  0.00     0.000 C 
BRANCH  23  24
ATOM     24  C   UNL     1      -2.720 -11.323  29.691  1.00  0.00    -0.000 C 
BRANCH  24  25
ATOM     25  C   UNL     1      -2.447 -12.492  28.725  1.00  0.00    -0.000 C 
BRANCH  25  26
ATOM     26  C   UNL     1      -2.821 -13.858  29.319  1.00  0.00    -0.000 C 
BRANCH  26  27
ATOM     27  C   UNL     1      -3.631 -14.694  28.318  1.00  0.00    -0.000 C 
BRANCH  27  28
ATOM     28  C   UNL     1      -2.850 -15.910  27.788  1.00  0.00    -0.000 C 
BRANCH  28  29
ATOM     29  C   UNL     1      -1.589 -15.570  26.968  1.00  0.00    -0.000 C 
BRANCH  29  30
ATOM     30  C   UNL     1      -1.851 -14.821  25.646  1.00  0.00    -0.000 C 
BRANCH  30  31
ATOM     31  C   UNL     1      -0.986 -13.565  25.435  1.00  0.00    -0.003 C 
ATOM     32  C   UNL     1       0.254 -13.539  26.327  1.00  0.00     0.004 C 
ENDBRANCH  30  31
ENDBRANCH  29  30
ENDBRANCH  28  29
ENDBRANCH  27  28
ENDBRANCH  26  27
ENDBRANCH  25  26
ENDBRANCH  24  25
ENDBRANCH  23  24
ENDBRANCH  22  23
ENDBRANCH  21  22
ENDBRANCH  20  21
ENDBRANCH  19  20
ENDBRANCH  18  19
ENDBRANCH   1  18
TORSDOF 28
ENDMDL
