MODEL 1
REMARK VINA RESULT:    -5.210      0.000      0.000
REMARK INTER + INTRA:         -11.295
REMARK INTER:                 -10.083
REMARK INTRA:                  -1.212
REMARK UNBOUND:                -1.212
REMARK SMILES CCCCCCCCCCCCCCCCCC(=O)[O-]
REMARK SMILES IDX 10 1 11 2 12 3 13 4 14 5 15 6 16 7 17 8 18 9 19 10 20 11
REMARK SMILES IDX 9 12 8 13 7 14 6 15 5 16 4 17 3 18 2 19 1 20
REMARK H PARENT
REMARK Flexibility Score: inf
ROOT
ATOM      1  C   UNL     1      11.442 -21.662 -14.992  1.00  0.00     0.000 C 
ENDROOT
BRANCH   1   2
ATOM      2  C   UNL     1      11.996 -22.704 -14.003  1.00  0.00     0.000 C 
BRANCH   2   3
ATOM      3  C   UNL     1      11.026 -23.848 -13.650  1.00  0.00     0.000 C 
BRANCH   3   4
ATOM      4  C   UNL     1      11.409 -25.204 -14.280  1.00  0.00     0.000 C 
BRANCH   4   5
ATOM      5  C   UNL     1      12.915 -25.490 -14.183  1.00  0.00     0.000 C 
BRANCH   5   6
ATOM      6  C   UNL     1      13.216 -26.967 -14.475  1.00  0.00     0.000 C 
BRANCH   6   7
ATOM      7  C   UNL     1      14.661 -27.359 -14.124  1.00  0.00     0.006 C 
BRANCH   7   8
ATOM      8  C   UNL     1      15.281 -28.317 -15.150  1.00  0.00     0.053 C 
BRANCH   8   9
ATOM      9  C   UNL     1      16.108 -29.356 -14.461  1.00  0.00     0.041 C 
ATOM     10  O   UNL     1      17.365 -29.308 -14.524  1.00  0.00    -0.550 OA
ATOM     11  O   UNL     1      15.491 -30.401 -13.786  1.00  0.00    -0.550 OA
ENDBRANCH   8   9
ENDBRANCH   7   8
ENDBRANCH   6   7
ENDBRANCH   5   6
ENDBRANCH   4   5
ENDBRANCH   3   4
ENDBRANCH   2   3
ENDBRANCH   1   2
BRANCH   1  12
ATOM     12  C   UNL     1      12.502 -20.988 -15.884  1.00  0.00     0.000 C 
BRANCH  12  13
ATOM     13  C   UNL     1      12.103 -19.569 -16.316  1.00  0.00    -0.000 C 
BRANCH  13  14
ATOM     14  C   UNL     1      13.343 -18.741 -16.688  1.00  0.00    -0.000 C 
BRANCH  14  15
ATOM     15  C   UNL     1      14.188 -18.351 -15.466  1.00  0.00    -0.000 C 
BRANCH  15  16
ATOM     16  C   UNL     1      13.775 -16.992 -14.873  1.00  0.00    -0.000 C 
BRANCH  16  17
ATOM     17  C   UNL     1      13.328 -17.100 -13.405  1.00  0.00    -0.000 C 
BRANCH  17  18
ATOM     18  C   UNL     1      11.899 -17.652 -13.265  1.00  0.00    -0.000 C 
BRANCH  18  19
ATOM     19  C   UNL     1      11.829 -18.876 -12.338  1.00  0.00    -0.003 C 
ATOM     20  C   UNL     1      10.588 -18.875 -11.447  1.00  0.00     0.004 C 
ENDBRANCH  18  19
ENDBRANCH  17  18
ENDBRANCH  16  17
ENDBRANCH  15  16
ENDBRANCH  14  15
ENDBRANCH  13  14
ENDBRANCH  12  13
ENDBRANCH   1  12
TORSDOF 16
ENDMDL
MODEL 2
REMARK VINA RESULT:    -5.179      4.364      8.093
REMARK INTER + INTRA:         -11.236
REMARK INTER:                  -8.986
REMARK INTRA:                  -2.250
REMARK UNBOUND:                -1.212
REMARK SMILES CCCCCCCCCCCCCCCCCC(=O)[O-]
REMARK SMILES IDX 10 1 11 2 12 3 13 4 14 5 15 6 16 7 17 8 18 9 19 10 20 11
REMARK SMILES IDX 9 12 8 13 7 14 6 15 5 16 4 17 3 18 2 19 1 20
REMARK H PARENT
REMARK Flexibility Score: inf
ROOT
ATOM      1  C   UNL     1      11.409 -18.806  -9.694  1.00  0.00     0.000 C 
ENDROOT
BRANCH   1   2
ATOM      2  C   UNL     1      11.348 -17.296  -9.399  1.00  0.00     0.000 C 
BRANCH   2   3
ATOM      3  C   UNL     1      12.705 -16.638  -9.083  1.00  0.00     0.000 C 
BRANCH   3   4
ATOM      4  C   UNL     1      13.914 -17.387  -9.683  1.00  0.00     0.000 C 
BRANCH   4   5
ATOM      5  C   UNL     1      14.221 -16.946 -11.121  1.00  0.00     0.000 C 
BRANCH   5   6
ATOM      6  C   UNL     1      14.678 -18.136 -11.977  1.00  0.00     0.000 C 
BRANCH   6   7
ATOM      7  C   UNL     1      15.436 -17.701 -13.242  1.00  0.00     0.006 C 
BRANCH   7   8
ATOM      8  C   UNL     1      15.099 -18.567 -14.463  1.00  0.00     0.053 C 
BRANCH   8   9
ATOM      9  C   UNL     1      14.290 -17.787 -15.449  1.00  0.00     0.041 C 
ATOM     10  O   UNL     1      13.946 -18.310 -16.541  1.00  0.00    -0.550 OA
ATOM     11  O   UNL     1      13.952 -16.465 -15.182  1.00  0.00    -0.550 OA
ENDBRANCH   8   9
ENDBRANCH   7   8
ENDBRANCH   6   7
ENDBRANCH   5   6
ENDBRANCH   4   5
ENDBRANCH   3   4
ENDBRANCH   2   3
ENDBRANCH   1   2
BRANCH   1  12
ATOM     12  C   UNL     1      10.962 -19.207 -11.113  1.00  0.00     0.000 C 
BRANCH  12  13
ATOM     13  C   UNL     1      10.945 -18.021 -12.090  1.00  0.00    -0.000 C 
BRANCH  13  14
ATOM     14  C   UNL     1      11.196 -18.494 -13.530  1.00  0.00    -0.000 C 
BRANCH  14  15
ATOM     15  C   UNL     1      11.770 -19.918 -13.598  1.00  0.00    -0.000 C 
BRANCH  15  16
ATOM     16  C   UNL     1      11.731 -20.502 -15.022  1.00  0.00    -0.000 C 
BRANCH  16  17
ATOM     17  C   UNL     1      11.412 -22.006 -15.034  1.00  0.00    -0.000 C 
BRANCH  17  18
ATOM     18  C   UNL     1      11.804 -22.702 -13.720  1.00  0.00    -0.000 C 
BRANCH  18  19
ATOM     19  C   UNL     1      13.036 -23.607 -13.877  1.00  0.00    -0.003 C 
ATOM     20  C   UNL     1      12.674 -25.087 -13.998  1.00  0.00     0.004 C 
ENDBRANCH  18  19
ENDBRANCH  17  18
ENDBRANCH  16  17
ENDBRANCH  15  16
ENDBRANCH  14  15
ENDBRANCH  13  14
ENDBRANCH  12  13
ENDBRANCH   1  12
TORSDOF 16
ENDMDL
MODEL 3
REMARK VINA RESULT:    -5.179      6.625      8.784
REMARK INTER + INTRA:         -11.235
REMARK INTER:                  -9.387
REMARK INTRA:                  -1.848
REMARK UNBOUND:                -1.212
REMARK SMILES CCCCCCCCCCCCCCCCCC(=O)[O-]
REMARK SMILES IDX 10 1 11 2 12 3 13 4 14 5 15 6 16 7 17 8 18 9 19 10 20 11
REMARK SMILES IDX 9 12 8 13 7 14 6 15 5 16 4 17 3 18 2 19 1 20
REMARK H PARENT
REMARK Flexibility Score: inf
ROOT
ATOM      1  C   UNL     1      11.336 -19.509 -13.937  1.00  0.00     0.000 C 
ENDROOT
BRANCH   1   2
ATOM      2  C   UNL     1      11.697 -19.396 -12.445  1.00  0.00     0.000 C 
BRANCH   2   3
ATOM      3  C   UNL     1      10.726 -18.549 -11.601  1.00  0.00     0.000 C 
BRANCH   3   4
ATOM      4  C   UNL     1      10.397 -19.167 -10.225  1.00  0.00     0.000 C 
BRANCH   4   5
ATOM      5  C   UNL     1      11.401 -18.751  -9.141  1.00  0.00     0.000 C 
BRANCH   5   6
ATOM      6  C   UNL     1      11.122 -17.323  -8.648  1.00  0.00     0.000 C 
BRANCH   6   7
ATOM      7  C   UNL     1      11.043 -17.229  -7.116  1.00  0.00     0.006 C 
BRANCH   7   8
ATOM      8  C   UNL     1      10.301 -18.417  -6.487  1.00  0.00     0.053 C 
BRANCH   8   9
ATOM      9  C   UNL     1       9.066 -17.948  -5.785  1.00  0.00     0.041 C 
ATOM     10  O   UNL     1       8.400 -16.986  -6.250  1.00  0.00    -0.550 OA
ATOM     11  O   UNL     1       8.675 -18.546  -4.593  1.00  0.00    -0.550 OA
ENDBRANCH   8   9
ENDBRANCH   7   8
ENDBRANCH   6   7
ENDBRANCH   5   6
ENDBRANCH   4   5
ENDBRANCH   3   4
ENDBRANCH   2   3
ENDBRANCH   1   2
BRANCH   1  12
ATOM     12  C   UNL     1      11.807 -20.807 -14.621  1.00  0.00     0.000 C 
BRANCH  12  13
ATOM     13  C   UNL     1      12.209 -20.595 -16.088  1.00  0.00    -0.000 C 
BRANCH  13  14
ATOM     14  C   UNL     1      12.307 -19.098 -16.418  1.00  0.00    -0.000 C 
BRANCH  14  15
ATOM     15  C   UNL     1      13.755 -18.627 -16.628  1.00  0.00    -0.000 C 
BRANCH  15  16
ATOM     16  C   UNL     1      14.417 -18.156 -15.321  1.00  0.00    -0.000 C 
BRANCH  16  17
ATOM     17  C   UNL     1      14.124 -16.678 -15.010  1.00  0.00    -0.000 C 
BRANCH  17  18
ATOM     18  C   UNL     1      13.562 -16.475 -13.593  1.00  0.00    -0.000 C 
BRANCH  18  19
ATOM     19  C   UNL     1      14.565 -16.870 -12.498  1.00  0.00    -0.003 C 
ATOM     20  C   UNL     1      13.973 -16.784 -11.092  1.00  0.00     0.004 C 
ENDBRANCH  18  19
ENDBRANCH  17  18
ENDBRANCH  16  17
ENDBRANCH  15  16
ENDBRANCH  14  15
ENDBRANCH  13  14
ENDBRANCH  12  13
ENDBRANCH   1  12
TORSDOF 16
ENDMDL
MODEL 4
REMARK VINA RESULT:    -5.168      2.582      4.349
REMARK INTER + INTRA:         -11.213
REMARK INTER:                  -8.761
REMARK INTRA:                  -2.452
REMARK UNBOUND:                -1.212
REMARK SMILES CCCCCCCCCCCCCCCCCC(=O)[O-]
REMARK SMILES IDX 10 1 11 2 12 3 13 4 14 5 15 6 16 7 17 8 18 9 19 10 20 11
REMARK SMILES IDX 9 12 8 13 7 14 6 15 5 16 4 17 3 18 2 19 1 20
REMARK H PARENT
REMARK Flexibility Score: inf
ROOT
ATOM      1  C   UNL     1      15.218 -19.460 -12.412  1.00  0.00     0.000 C 
ENDROOT
BRANCH   1   2
ATOM      2  C   UNL     1      16.083 -20.469 -13.190  1.00  0.00     0.000 C 
BRANCH   2   3
ATOM      3  C   UNL     1      15.294 -21.535 -13.975  1.00  0.00     0.000 C 
BRANCH   3   4
ATOM      4  C   UNL     1      13.780 -21.533 -13.676  1.00  0.00     0.000 C 
BRANCH   4   5
ATOM      5  C   UNL     1      12.935 -21.292 -14.935  1.00  0.00     0.000 C 
BRANCH   5   6
ATOM      6  C   UNL     1      11.659 -22.146 -14.915  1.00  0.00     0.000 C 
BRANCH   6   7
ATOM      7  C   UNL     1      11.647 -23.168 -13.766  1.00  0.00     0.006 C 
BRANCH   7   8
ATOM      8  C   UNL     1      11.256 -24.578 -14.231  1.00  0.00     0.053 C 
BRANCH   8   9
ATOM      9  C   UNL     1      12.440 -25.490 -14.183  1.00  0.00     0.041 C 
ATOM     10  O   UNL     1      12.282 -26.737 -14.262  1.00  0.00    -0.550 OA
ATOM     11  O   UNL     1      13.715 -24.967 -14.007  1.00  0.00    -0.550 OA
ENDBRANCH   8   9
ENDBRANCH   7   8
ENDBRANCH   6   7
ENDBRANCH   5   6
ENDBRANCH   4   5
ENDBRANCH   3   4
ENDBRANCH   2   3
ENDBRANCH   1   2
BRANCH   1  12
ATOM     12  C   UNL     1      15.239 -18.024 -12.970  1.00  0.00     0.000 C 
BRANCH  12  13
ATOM     13  C   UNL     1      14.735 -17.939 -14.418  1.00  0.00    -0.000 C 
BRANCH  13  14
ATOM     14  C   UNL     1      13.562 -16.954 -14.533  1.00  0.00    -0.000 C 
BRANCH  14  15
ATOM     15  C   UNL     1      12.545 -17.102 -13.391  1.00  0.00    -0.000 C 
BRANCH  15  16
ATOM     16  C   UNL     1      11.522 -18.222 -13.654  1.00  0.00    -0.000 C 
BRANCH  16  17
ATOM     17  C   UNL     1      11.330 -19.145 -12.439  1.00  0.00    -0.000 C 
BRANCH  17  18
ATOM     18  C   UNL     1      10.585 -18.452 -11.286  1.00  0.00    -0.000 C 
BRANCH  18  19
ATOM     19  C   UNL     1      11.215 -18.748  -9.915  1.00  0.00    -0.003 C 
ATOM     20  C   UNL     1      12.682 -18.328  -9.833  1.00  0.00     0.004 C 
ENDBRANCH  18  19
ENDBRANCH  17  18
ENDBRANCH  16  17
ENDBRANCH  15  16
ENDBRANCH  14  15
ENDBRANCH  13  14
ENDBRANCH  12  13
ENDBRANCH   1  12
TORSDOF 16
ENDMDL
MODEL 5
REMARK VINA RESULT:    -5.151      1.783      3.676
REMARK INTER + INTRA:         -11.180
REMARK INTER:                  -9.332
REMARK INTRA:                  -1.848
REMARK UNBOUND:                -1.212
REMARK SMILES CCCCCCCCCCCCCCCCCC(=O)[O-]
REMARK SMILES IDX 10 1 11 2 12 3 13 4 14 5 15 6 16 7 17 8 18 9 19 10 20 11
REMARK SMILES IDX 9 12 8 13 7 14 6 15 5 16 4 17 3 18 2 19 1 20
REMARK H PARENT
REMARK Flexibility Score: inf
ROOT
ATOM      1  C   UNL     1      11.091 -19.136 -14.613  1.00  0.00     0.000 C 
ENDROOT
BRANCH   1   2
ATOM      2  C   UNL     1      12.099 -20.300 -14.642  1.00  0.00     0.000 C 
BRANCH   2   3
ATOM      3  C   UNL     1      11.494 -21.678 -14.972  1.00  0.00     0.000 C 
BRANCH   3   4
ATOM      4  C   UNL     1      11.863 -22.779 -13.955  1.00  0.00     0.000 C 
BRANCH   4   5
ATOM      5  C   UNL     1      10.974 -24.023 -14.091  1.00  0.00     0.000 C 
BRANCH   5   6
ATOM      6  C   UNL     1      11.814 -25.308 -14.052  1.00  0.00     0.000 C 
BRANCH   6   7
ATOM      7  C   UNL     1      13.325 -25.028 -14.002  1.00  0.00     0.006 C 
BRANCH   7   8
ATOM      8  C   UNL     1      14.169 -26.303 -14.130  1.00  0.00     0.053 C 
BRANCH   8   9
ATOM      9  C   UNL     1      15.385 -26.043 -14.960  1.00  0.00     0.041 C 
ATOM     10  O   UNL     1      15.793 -26.912 -15.775  1.00  0.00    -0.550 OA
ATOM     11  O   UNL     1      16.095 -24.859 -14.803  1.00  0.00    -0.550 OA
ENDBRANCH   8   9
ENDBRANCH   7   8
ENDBRANCH   6   7
ENDBRANCH   5   6
ENDBRANCH   4   5
ENDBRANCH   3   4
ENDBRANCH   2   3
ENDBRANCH   1   2
BRANCH   1  12
ATOM     12  C   UNL     1      11.204 -18.212 -13.385  1.00  0.00     0.000 C 
BRANCH  12  13
ATOM     13  C   UNL     1      11.433 -18.984 -12.077  1.00  0.00    -0.000 C 
BRANCH  13  14
ATOM     14  C   UNL     1      11.891 -18.038 -10.957  1.00  0.00    -0.000 C 
BRANCH  14  15
ATOM     15  C   UNL     1      13.226 -17.344 -11.269  1.00  0.00    -0.000 C 
BRANCH  15  16
ATOM     16  C   UNL     1      14.341 -18.343 -11.626  1.00  0.00    -0.000 C 
BRANCH  16  17
ATOM     17  C   UNL     1      14.976 -18.055 -12.997  1.00  0.00    -0.000 C 
BRANCH  17  18
ATOM     18  C   UNL     1      14.744 -16.607 -13.460  1.00  0.00    -0.000 C 
BRANCH  18  19
ATOM     19  C   UNL     1      14.180 -16.528 -14.888  1.00  0.00    -0.003 C 
ATOM     20  C   UNL     1      14.420 -17.805 -15.692  1.00  0.00     0.004 C 
ENDBRANCH  18  19
ENDBRANCH  17  18
ENDBRANCH  16  17
ENDBRANCH  15  16
ENDBRANCH  14  15
ENDBRANCH  13  14
ENDBRANCH  12  13
ENDBRANCH   1  12
TORSDOF 16
ENDMDL
MODEL 6
REMARK VINA RESULT:    -5.142      2.960      5.140
REMARK INTER + INTRA:         -11.164
REMARK INTER:                  -8.540
REMARK INTRA:                  -2.623
REMARK UNBOUND:                -1.212
REMARK SMILES CCCCCCCCCCCCCCCCCC(=O)[O-]
REMARK SMILES IDX 10 1 11 2 12 3 13 4 14 5 15 6 16 7 17 8 18 9 19 10 20 11
REMARK SMILES IDX 9 12 8 13 7 14 6 15 5 16 4 17 3 18 2 19 1 20
REMARK H PARENT
REMARK Flexibility Score: inf
ROOT
ATOM      1  C   UNL     1      15.068 -16.824 -13.872  1.00  0.00     0.000 C 
ENDROOT
BRANCH   1   2
ATOM      2  C   UNL     1      14.136 -16.796 -12.647  1.00  0.00     0.000 C 
BRANCH   2   3
ATOM      3  C   UNL     1      14.661 -17.551 -11.410  1.00  0.00     0.000 C 
BRANCH   3   4
ATOM      4  C   UNL     1      15.629 -18.704 -11.751  1.00  0.00     0.000 C 
BRANCH   4   5
ATOM      5  C   UNL     1      14.920 -20.064 -11.814  1.00  0.00     0.000 C 
BRANCH   5   6
ATOM      6  C   UNL     1      15.052 -20.691 -13.210  1.00  0.00     0.000 C 
BRANCH   6   7
ATOM      7  C   UNL     1      14.918 -22.222 -13.188  1.00  0.00     0.006 C 
BRANCH   7   8
ATOM      8  C   UNL     1      13.760 -22.729 -14.059  1.00  0.00     0.053 C 
BRANCH   8   9
ATOM      9  C   UNL     1      13.414 -24.138 -13.699  1.00  0.00     0.041 C 
ATOM     10  O   UNL     1      14.210 -24.830 -13.012  1.00  0.00    -0.550 OA
ATOM     11  O   UNL     1      12.231 -24.703 -14.160  1.00  0.00    -0.550 OA
ENDBRANCH   8   9
ENDBRANCH   7   8
ENDBRANCH   6   7
ENDBRANCH   5   6
ENDBRANCH   4   5
ENDBRANCH   3   4
ENDBRANCH   2   3
ENDBRANCH   1   2
BRANCH   1  12
ATOM     12  C   UNL     1      14.348 -16.889 -15.232  1.00  0.00     0.000 C 
BRANCH  12  13
ATOM     13  C   UNL     1      14.292 -18.311 -15.811  1.00  0.00    -0.000 C 
BRANCH  13  14
ATOM     14  C   UNL     1      12.849 -18.701 -16.164  1.00  0.00    -0.000 C 
BRANCH  14  15
ATOM     15  C   UNL     1      12.185 -19.573 -15.087  1.00  0.00    -0.000 C 
BRANCH  15  16
ATOM     16  C   UNL     1      11.394 -18.741 -14.061  1.00  0.00    -0.000 C 
BRANCH  16  17
ATOM     17  C   UNL     1      11.469 -19.330 -12.641  1.00  0.00    -0.000 C 
BRANCH  17  18
ATOM     18  C   UNL     1      10.487 -18.653 -11.671  1.00  0.00    -0.000 C 
BRANCH  18  19
ATOM     19  C   UNL     1      10.718 -19.072 -10.211  1.00  0.00    -0.003 C 
ATOM     20  C   UNL     1      11.564 -18.066  -9.431  1.00  0.00     0.004 C 
ENDBRANCH  18  19
ENDBRANCH  17  18
ENDBRANCH  16  17
ENDBRANCH  15  16
ENDBRANCH  14  15
ENDBRANCH  13  14
ENDBRANCH  12  13
ENDBRANCH   1  12
TORSDOF 16
ENDMDL
MODEL 7
REMARK VINA RESULT:    -5.126      3.608      6.754
REMARK INTER + INTRA:         -11.132
REMARK INTER:                  -8.711
REMARK INTRA:                  -2.421
REMARK UNBOUND:                -1.212
REMARK SMILES CCCCCCCCCCCCCCCCCC(=O)[O-]
REMARK SMILES IDX 10 1 11 2 12 3 13 4 14 5 15 6 16 7 17 8 18 9 19 10 20 11
REMARK SMILES IDX 9 12 8 13 7 14 6 15 5 16 4 17 3 18 2 19 1 20
REMARK H PARENT
REMARK Flexibility Score: inf
ROOT
ATOM      1  C   UNL     1      14.271 -16.798 -15.353  1.00  0.00     0.000 C 
ENDROOT
BRANCH   1   2
ATOM      2  C   UNL     1      14.106 -16.437 -13.865  1.00  0.00     0.000 C 
BRANCH   2   3
ATOM      3  C   UNL     1      12.864 -17.040 -13.181  1.00  0.00     0.000 C 
BRANCH   3   4
ATOM      4  C   UNL     1      13.087 -17.403 -11.697  1.00  0.00     0.000 C 
BRANCH   4   5
ATOM      5  C   UNL     1      14.427 -16.879 -11.161  1.00  0.00     0.000 C 
BRANCH   5   6
ATOM      6  C   UNL     1      15.183 -17.975 -10.396  1.00  0.00     0.000 C 
BRANCH   6   7
ATOM      7  C   UNL     1      15.065 -19.354 -11.064  1.00  0.00     0.006 C 
BRANCH   7   8
ATOM      8  C   UNL     1      15.972 -19.495 -12.295  1.00  0.00     0.053 C 
BRANCH   8   9
ATOM      9  C   UNL     1      16.415 -20.914 -12.457  1.00  0.00     0.041 C 
ATOM     10  O   UNL     1      17.387 -21.192 -13.208  1.00  0.00    -0.550 OA
ATOM     11  O   UNL     1      15.728 -21.936 -11.813  1.00  0.00    -0.550 OA
ENDBRANCH   8   9
ENDBRANCH   7   8
ENDBRANCH   6   7
ENDBRANCH   5   6
ENDBRANCH   4   5
ENDBRANCH   3   4
ENDBRANCH   2   3
ENDBRANCH   1   2
BRANCH   1  12
ATOM     12  C   UNL     1      14.319 -18.309 -15.651  1.00  0.00     0.000 C 
BRANCH  12  13
ATOM     13  C   UNL     1      13.340 -18.730 -16.757  1.00  0.00    -0.000 C 
BRANCH  13  14
ATOM     14  C   UNL     1      12.503 -19.941 -16.316  1.00  0.00    -0.000 C 
BRANCH  14  15
ATOM     15  C   UNL     1      11.474 -19.591 -15.230  1.00  0.00    -0.000 C 
BRANCH  15  16
ATOM     16  C   UNL     1      11.561 -20.526 -14.011  1.00  0.00    -0.000 C 
BRANCH  16  17
ATOM     17  C   UNL     1      12.952 -21.166 -13.857  1.00  0.00    -0.000 C 
BRANCH  17  18
ATOM     18  C   UNL     1      12.894 -22.702 -13.841  1.00  0.00    -0.000 C 
BRANCH  18  19
ATOM     19  C   UNL     1      11.480 -23.242 -14.108  1.00  0.00    -0.003 C 
ATOM     20  C   UNL     1      11.415 -24.769 -14.098  1.00  0.00     0.004 C 
ENDBRANCH  18  19
ENDBRANCH  17  18
ENDBRANCH  16  17
ENDBRANCH  15  16
ENDBRANCH  14  15
ENDBRANCH  13  14
ENDBRANCH  12  13
ENDBRANCH   1  12
TORSDOF 16
ENDMDL
MODEL 8
REMARK VINA RESULT:    -5.119      6.416      8.342
REMARK INTER + INTRA:         -11.119
REMARK INTER:                  -8.623
REMARK INTRA:                  -2.496
REMARK UNBOUND:                -1.212
REMARK SMILES CCCCCCCCCCCCCCCCCC(=O)[O-]
REMARK SMILES IDX 10 1 11 2 12 3 13 4 14 5 15 6 16 7 17 8 18 9 19 10 20 11
REMARK SMILES IDX 9 12 8 13 7 14 6 15 5 16 4 17 3 18 2 19 1 20
REMARK H PARENT
REMARK Flexibility Score: inf
ROOT
ATOM      1  C   UNL     1      12.940 -18.805 -16.111  1.00  0.00     0.000 C 
ENDROOT
BRANCH   1   2
ATOM      2  C   UNL     1      12.250 -19.764 -15.123  1.00  0.00     0.000 C 
BRANCH   2   3
ATOM      3  C   UNL     1      11.259 -19.096 -14.150  1.00  0.00     0.000 C 
BRANCH   3   4
ATOM      4  C   UNL     1      11.518 -19.440 -12.668  1.00  0.00     0.000 C 
BRANCH   4   5
ATOM      5  C   UNL     1      10.822 -18.462 -11.710  1.00  0.00     0.000 C 
BRANCH   5   6
ATOM      6  C   UNL     1      10.461 -19.149 -10.385  1.00  0.00     0.000 C 
BRANCH   6   7
ATOM      7  C   UNL     1      11.409 -18.762  -9.239  1.00  0.00     0.006 C 
BRANCH   7   8
ATOM      8  C   UNL     1      10.661 -18.291  -7.984  1.00  0.00     0.053 C 
BRANCH   8   9
ATOM      9  C   UNL     1      11.175 -16.959  -7.538  1.00  0.00     0.041 C 
ATOM     10  O   UNL     1      11.336 -16.721  -6.313  1.00  0.00    -0.550 OA
ATOM     11  O   UNL     1      11.437 -15.966  -8.474  1.00  0.00    -0.550 OA
ENDBRANCH   8   9
ENDBRANCH   7   8
ENDBRANCH   6   7
ENDBRANCH   5   6
ENDBRANCH   4   5
ENDBRANCH   3   4
ENDBRANCH   2   3
ENDBRANCH   1   2
BRANCH   1  12
ATOM     12  C   UNL     1      14.326 -18.303 -15.664  1.00  0.00     0.000 C 
BRANCH  12  13
ATOM     13  C   UNL     1      14.325 -16.818 -15.271  1.00  0.00    -0.000 C 
BRANCH  13  14
ATOM     14  C   UNL     1      15.005 -16.612 -13.909  1.00  0.00    -0.000 C 
BRANCH  14  15
ATOM     15  C   UNL     1      14.048 -16.826 -12.726  1.00  0.00    -0.000 C 
BRANCH  15  16
ATOM     16  C   UNL     1      14.793 -17.086 -11.405  1.00  0.00    -0.000 C 
BRANCH  16  17
ATOM     17  C   UNL     1      14.676 -18.548 -10.939  1.00  0.00    -0.000 C 
BRANCH  17  18
ATOM     18  C   UNL     1      15.684 -19.471 -11.643  1.00  0.00    -0.000 C 
BRANCH  18  19
ATOM     19  C   UNL     1      15.010 -20.431 -12.637  1.00  0.00    -0.003 C 
ATOM     20  C   UNL     1      15.974 -20.959 -13.699  1.00  0.00     0.004 C 
ENDBRANCH  18  19
ENDBRANCH  17  18
ENDBRANCH  16  17
ENDBRANCH  15  16
ENDBRANCH  14  15
ENDBRANCH  13  14
ENDBRANCH  12  13
ENDBRANCH   1  12
TORSDOF 16
ENDMDL
MODEL 9
REMARK VINA RESULT:    -5.060      3.599      6.377
REMARK INTER + INTRA:         -11.005
REMARK INTER:                  -8.829
REMARK INTRA:                  -2.177
REMARK UNBOUND:                -1.212
REMARK SMILES CCCCCCCCCCCCCCCCCC(=O)[O-]
REMARK SMILES IDX 10 1 11 2 12 3 13 4 14 5 15 6 16 7 17 8 18 9 19 10 20 11
REMARK SMILES IDX 9 12 8 13 7 14 6 15 5 16 4 17 3 18 2 19 1 20
REMARK H PARENT
REMARK Flexibility Score: inf
ROOT
ATOM      1  C   UNL     1      10.964 -19.142  -9.568  1.00  0.00     0.000 C 
ENDROOT
BRANCH   1   2
ATOM      2  C   UNL     1      10.686 -18.509 -10.944  1.00  0.00     0.000 C 
BRANCH   2   3
ATOM      3  C   UNL     1      11.380 -19.201 -12.133  1.00  0.00     0.000 C 
BRANCH   3   4
ATOM      4  C   UNL     1      11.369 -18.365 -13.431  1.00  0.00     0.000 C 
BRANCH   4   5
ATOM      5  C   UNL     1      12.232 -18.990 -14.536  1.00  0.00     0.000 C 
BRANCH   5   6
ATOM      6  C   UNL     1      11.377 -19.831 -15.496  1.00  0.00     0.000 C 
BRANCH   6   7
ATOM      7  C   UNL     1      11.598 -21.342 -15.318  1.00  0.00     0.006 C 
BRANCH   7   8
ATOM      8  C   UNL     1      12.863 -21.664 -14.510  1.00  0.00     0.053 C 
BRANCH   8   9
ATOM      9  C   UNL     1      12.769 -23.035 -13.919  1.00  0.00     0.041 C 
ATOM     10  O   UNL     1      13.770 -23.550 -13.355  1.00  0.00    -0.550 OA
ATOM     11  O   UNL     1      11.590 -23.761 -14.029  1.00  0.00    -0.550 OA
ENDBRANCH   8   9
ENDBRANCH   7   8
ENDBRANCH   6   7
ENDBRANCH   5   6
ENDBRANCH   4   5
ENDBRANCH   3   4
ENDBRANCH   2   3
ENDBRANCH   1   2
BRANCH   1  12
ATOM     12  C   UNL     1      11.128 -18.135  -8.413  1.00  0.00     0.000 C 
BRANCH  12  13
ATOM     13  C   UNL     1      11.426 -16.710  -8.902  1.00  0.00    -0.000 C 
BRANCH  13  14
ATOM     14  C   UNL     1      12.933 -16.415  -8.841  1.00  0.00    -0.000 C 
BRANCH  14  15
ATOM     15  C   UNL     1      13.618 -16.518 -10.212  1.00  0.00    -0.000 C 
BRANCH  15  16
ATOM     16  C   UNL     1      14.639 -17.667 -10.276  1.00  0.00    -0.000 C 
BRANCH  16  17
ATOM     17  C   UNL     1      14.921 -18.126 -11.717  1.00  0.00    -0.000 C 
BRANCH  17  18
ATOM     18  C   UNL     1      15.092 -16.946 -12.688  1.00  0.00    -0.000 C 
BRANCH  18  19
ATOM     19  C   UNL     1      15.462 -17.400 -14.109  1.00  0.00    -0.003 C 
ATOM     20  C   UNL     1      14.778 -16.570 -15.194  1.00  0.00     0.004 C 
ENDBRANCH  18  19
ENDBRANCH  17  18
ENDBRANCH  16  17
ENDBRANCH  15  16
ENDBRANCH  14  15
ENDBRANCH  13  14
ENDBRANCH  12  13
ENDBRANCH   1  12
TORSDOF 16
ENDMDL
