MODEL 1
REMARK VINA RESULT:    16.336      0.000      0.000
REMARK INTER + INTRA:          40.930
REMARK INTER:                  43.077
REMARK INTRA:                  -2.146
REMARK UNBOUND:                -2.146
REMARK SMILES CCCCCCCCCCCCCCCCCCCCCCCCCCCCCC(=O)[O-]
REMARK SMILES IDX 16 1 17 2 18 3 19 4 20 5 21 6 22 7 23 8 24 9 25 10 26 11
REMARK SMILES IDX 27 12 28 13 29 14 30 15 31 16 32 17 15 18 14 19 13 20 12 21
REMARK SMILES IDX 11 22 10 23 9 24 8 25 7 26 6 27 5 28 4 29 3 30 2 31 1 32
REMARK H PARENT
REMARK Flexibility Score: inf
ROOT
ATOM      1  C   UNL     1      32.847  11.154  40.906  1.00  0.00     0.000 C 
ENDROOT
BRANCH   1   2
ATOM      2  C   UNL     1      32.725   9.843  40.109  1.00  0.00     0.000 C 
BRANCH   2   3
ATOM      3  C   UNL     1      34.085   9.241  39.730  1.00  0.00     0.000 C 
BRANCH   3   4
ATOM      4  C   UNL     1      34.025   7.706  39.682  1.00  0.00     0.000 C 
BRANCH   4   5
ATOM      5  C   UNL     1      34.911   7.049  40.754  1.00  0.00     0.000 C 
BRANCH   5   6
ATOM      6  C   UNL     1      34.392   5.668  41.186  1.00  0.00     0.000 C 
BRANCH   6   7
ATOM      7  C   UNL     1      32.889   5.669  41.512  1.00  0.00     0.000 C 
BRANCH   7   8
ATOM      8  C   UNL     1      32.135   4.423  41.002  1.00  0.00     0.000 C 
BRANCH   8   9
ATOM      9  C   UNL     1      30.617   4.661  40.908  1.00  0.00     0.000 C 
BRANCH   9  10
ATOM     10  C   UNL     1      30.044   5.317  42.174  1.00  0.00     0.000 C 
BRANCH  10  11
ATOM     11  C   UNL     1      28.837   6.221  41.873  1.00  0.00     0.000 C 
BRANCH  11  12
ATOM     12  C   UNL     1      29.259   7.557  41.224  1.00  0.00     0.000 C 
BRANCH  12  13
ATOM     13  C   UNL     1      29.481   7.470  39.702  1.00  0.00     0.006 C 
BRANCH  13  14
ATOM     14  C   UNL     1      29.349   8.821  38.972  1.00  0.00     0.053 C 
BRANCH  14  15
ATOM     15  C   UNL     1      28.513   8.746  37.729  1.00  0.00     0.041 C 
ATOM     16  O   UNL     1      28.410   7.667  37.087  1.00  0.00    -0.550 OA
ATOM     17  O   UNL     1      27.778   9.853  37.325  1.00  0.00    -0.550 OA
ENDBRANCH  14  15
ENDBRANCH  13  14
ENDBRANCH  12  13
ENDBRANCH  11  12
ENDBRANCH  10  11
ENDBRANCH   9  10
ENDBRANCH   8   9
ENDBRANCH   7   8
ENDBRANCH   6   7
ENDBRANCH   5   6
ENDBRANCH   4   5
ENDBRANCH   3   4
ENDBRANCH   2   3
ENDBRANCH   1   2
BRANCH   1  18
ATOM     18  C   UNL     1      33.033  12.407  40.026  1.00  0.00     0.000 C 
BRANCH  18  19
ATOM     19  C   UNL     1      34.471  12.949  40.070  1.00  0.00     0.000 C 
BRANCH  19  20
ATOM     20  C   UNL     1      35.265  12.424  41.281  1.00  0.00     0.000 C 
BRANCH  20  21
ATOM     21  C   UNL     1      35.129  13.271  42.564  1.00  0.00     0.000 C 
BRANCH  21  22
ATOM     22  C   UNL     1      36.457  13.774  43.164  1.00  0.00     0.000 C 
BRANCH  22  23
ATOM     23  C   UNL     1      36.327  15.146  43.842  1.00  0.00     0.000 C 
BRANCH  23  24
ATOM     24  C   UNL     1      34.896  15.690  43.730  1.00  0.00    -0.000 C 
BRANCH  24  25
ATOM     25  C   UNL     1      34.851  17.151  43.250  1.00  0.00    -0.000 C 
BRANCH  25  26
ATOM     26  C   UNL     1      33.829  17.437  42.130  1.00  0.00    -0.000 C 
BRANCH  26  27
ATOM     27  C   UNL     1      34.432  18.004  40.833  1.00  0.00    -0.000 C 
BRANCH  27  28
ATOM     28  C   UNL     1      33.792  17.405  39.570  1.00  0.00    -0.000 C 
BRANCH  28  29
ATOM     29  C   UNL     1      32.916  18.438  38.846  1.00  0.00    -0.000 C 
BRANCH  29  30
ATOM     30  C   UNL     1      31.794  17.771  38.024  1.00  0.00    -0.000 C 
BRANCH  30  31
ATOM     31  C   UNL     1      30.881  18.776  37.299  1.00  0.00    -0.003 C 
ATOM     32  C   UNL     1      30.908  20.170  37.923  1.00  0.00     0.004 C 
ENDBRANCH  30  31
ENDBRANCH  29  30
ENDBRANCH  28  29
ENDBRANCH  27  28
ENDBRANCH  26  27
ENDBRANCH  25  26
ENDBRANCH  24  25
ENDBRANCH  23  24
ENDBRANCH  22  23
ENDBRANCH  21  22
ENDBRANCH  20  21
ENDBRANCH  19  20
ENDBRANCH  18  19
ENDBRANCH   1  18
TORSDOF 28
ENDMDL
MODEL 2
REMARK VINA RESULT:    16.511      2.675     10.180
REMARK INTER + INTRA:          41.390
REMARK INTER:                  43.938
REMARK INTRA:                  -2.548
REMARK UNBOUND:                -2.146
REMARK SMILES CCCCCCCCCCCCCCCCCCCCCCCCCCCCCC(=O)[O-]
REMARK SMILES IDX 16 1 17 2 18 3 19 4 20 5 21 6 22 7 23 8 24 9 25 10 26 11
REMARK SMILES IDX 27 12 28 13 29 14 30 15 31 16 32 17 15 18 14 19 13 20 12 21
REMARK SMILES IDX 11 22 10 23 9 24 8 25 7 26 6 27 5 28 4 29 3 30 2 31 1 32
REMARK H PARENT
REMARK Flexibility Score: inf
ROOT
ATOM      1  C   UNL     1      33.134  10.610  40.744  1.00  0.00     0.000 C 
ENDROOT
BRANCH   1   2
ATOM      2  C   UNL     1      32.997  11.974  40.044  1.00  0.00     0.000 C 
BRANCH   2   3
ATOM      3  C   UNL     1      34.229  12.871  40.232  1.00  0.00     0.000 C 
BRANCH   3   4
ATOM      4  C   UNL     1      35.115  12.373  41.385  1.00  0.00     0.000 C 
BRANCH   4   5
ATOM      5  C   UNL     1      35.046  13.289  42.618  1.00  0.00     0.000 C 
BRANCH   5   6
ATOM      6  C   UNL     1      36.431  13.780  43.070  1.00  0.00     0.000 C 
BRANCH   6   7
ATOM      7  C   UNL     1      36.396  15.195  43.672  1.00  0.00     0.000 C 
BRANCH   7   8
ATOM      8  C   UNL     1      34.996  15.844  43.668  1.00  0.00     0.000 C 
BRANCH   8   9
ATOM      9  C   UNL     1      35.064  17.372  43.840  1.00  0.00     0.000 C 
BRANCH   9  10
ATOM     10  C   UNL     1      35.019  18.120  42.497  1.00  0.00     0.000 C 
BRANCH  10  11
ATOM     11  C   UNL     1      33.892  17.615  41.581  1.00  0.00     0.000 C 
BRANCH  11  12
ATOM     12  C   UNL     1      34.277  17.695  40.089  1.00  0.00     0.000 C 
BRANCH  12  13
ATOM     13  C   UNL     1      33.090  17.500  39.125  1.00  0.00     0.006 C 
BRANCH  13  14
ATOM     14  C   UNL     1      32.296  18.789  38.841  1.00  0.00     0.053 C 
BRANCH  14  15
ATOM     15  C   UNL     1      31.368  18.670  37.669  1.00  0.00     0.041 C 
ATOM     16  O   UNL     1      30.921  19.698  37.096  1.00  0.00    -0.550 OA
ATOM     17  O   UNL     1      31.063  17.415  37.156  1.00  0.00    -0.550 OA
ENDBRANCH  14  15
ENDBRANCH  13  14
ENDBRANCH  12  13
ENDBRANCH  11  12
ENDBRANCH  10  11
ENDBRANCH   9  10
ENDBRANCH   8   9
ENDBRANCH   7   8
ENDBRANCH   6   7
ENDBRANCH   5   6
ENDBRANCH   4   5
ENDBRANCH   3   4
ENDBRANCH   2   3
ENDBRANCH   1   2
BRANCH   1  18
ATOM     18  C   UNL     1      33.374   9.432  39.777  1.00  0.00     0.000 C 
BRANCH  18  19
ATOM     19  C   UNL     1      34.150   8.279  40.436  1.00  0.00     0.000 C 
BRANCH  19  20
ATOM     20  C   UNL     1      33.687   6.896  39.943  1.00  0.00     0.000 C 
BRANCH  20  21
ATOM     21  C   UNL     1      33.520   5.834  41.050  1.00  0.00     0.000 C 
BRANCH  21  22
ATOM     22  C   UNL     1      32.209   5.025  40.993  1.00  0.00     0.000 C 
BRANCH  22  23
ATOM     23  C   UNL     1      31.158   5.512  42.002  1.00  0.00     0.000 C 
BRANCH  23  24
ATOM     24  C   UNL     1      29.743   5.443  41.410  1.00  0.00    -0.000 C 
BRANCH  24  25
ATOM     25  C   UNL     1      29.075   6.825  41.301  1.00  0.00    -0.000 C 
BRANCH  25  26
ATOM     26  C   UNL     1      29.991   7.950  40.776  1.00  0.00    -0.000 C 
BRANCH  26  27
ATOM     27  C   UNL     1      29.548   8.574  39.441  1.00  0.00    -0.000 C 
BRANCH  27  28
ATOM     28  C   UNL     1      28.416   7.785  38.764  1.00  0.00    -0.000 C 
BRANCH  28  29
ATOM     29  C   UNL     1      28.381   8.047  37.251  1.00  0.00    -0.000 C 
BRANCH  29  30
ATOM     30  C   UNL     1      27.988   6.786  36.453  1.00  0.00    -0.000 C 
BRANCH  30  31
ATOM     31  C   UNL     1      27.981   5.501  37.301  1.00  0.00    -0.003 C 
ATOM     32  C   UNL     1      27.252   4.341  36.627  1.00  0.00     0.004 C 
ENDBRANCH  30  31
ENDBRANCH  29  30
ENDBRANCH  28  29
ENDBRANCH  27  28
ENDBRANCH  26  27
ENDBRANCH  25  26
ENDBRANCH  24  25
ENDBRANCH  23  24
ENDBRANCH  22  23
ENDBRANCH  21  22
ENDBRANCH  20  21
ENDBRANCH  19  20
ENDBRANCH  18  19
ENDBRANCH   1  18
TORSDOF 28
ENDMDL
MODEL 3
REMARK VINA RESULT:    16.634      2.783     10.379
REMARK INTER + INTRA:          41.715
REMARK INTER:                  43.751
REMARK INTRA:                  -2.035
REMARK UNBOUND:                -2.146
REMARK SMILES CCCCCCCCCCCCCCCCCCCCCCCCCCCCCC(=O)[O-]
REMARK SMILES IDX 16 1 17 2 18 3 19 4 20 5 21 6 22 7 23 8 24 9 25 10 26 11
REMARK SMILES IDX 27 12 28 13 29 14 30 15 31 16 32 17 15 18 14 19 13 20 12 21
REMARK SMILES IDX 11 22 10 23 9 24 8 25 7 26 6 27 5 28 4 29 3 30 2 31 1 32
REMARK H PARENT
REMARK Flexibility Score: inf
ROOT
ATOM      1  C   UNL     1      32.444  10.249  40.930  1.00  0.00     0.000 C 
ENDROOT
BRANCH   1   2
ATOM      2  C   UNL     1      33.328  11.391  41.465  1.00  0.00     0.000 C 
BRANCH   2   3
ATOM      3  C   UNL     1      33.826  12.332  40.360  1.00  0.00     0.000 C 
BRANCH   3   4
ATOM      4  C   UNL     1      35.084  13.098  40.801  1.00  0.00     0.000 C 
BRANCH   4   5
ATOM      5  C   UNL     1      35.128  13.330  42.321  1.00  0.00     0.000 C 
BRANCH   5   6
ATOM      6  C   UNL     1      36.537  13.680  42.826  1.00  0.00     0.000 C 
BRANCH   6   7
ATOM      7  C   UNL     1      36.534  14.814  43.865  1.00  0.00     0.000 C 
BRANCH   7   8
ATOM      8  C   UNL     1      35.154  15.476  44.066  1.00  0.00     0.000 C 
BRANCH   8   9
ATOM      9  C   UNL     1      35.048  16.829  43.341  1.00  0.00     0.000 C 
BRANCH   9  10
ATOM     10  C   UNL     1      33.764  16.951  42.505  1.00  0.00     0.000 C 
BRANCH  10  11
ATOM     11  C   UNL     1      33.951  17.843  41.266  1.00  0.00     0.000 C 
BRANCH  11  12
ATOM     12  C   UNL     1      33.961  17.025  39.957  1.00  0.00     0.000 C 
BRANCH  12  13
ATOM     13  C   UNL     1      33.505  17.821  38.719  1.00  0.00     0.006 C 
BRANCH  13  14
ATOM     14  C   UNL     1      32.270  18.708  38.964  1.00  0.00     0.053 C 
BRANCH  14  15
ATOM     15  C   UNL     1      31.304  18.713  37.817  1.00  0.00     0.041 C 
ATOM     16  O   UNL     1      30.627  19.741  37.551  1.00  0.00    -0.550 OA
ATOM     17  O   UNL     1      31.214  17.602  36.988  1.00  0.00    -0.550 OA
ENDBRANCH  14  15
ENDBRANCH  13  14
ENDBRANCH  12  13
ENDBRANCH  11  12
ENDBRANCH  10  11
ENDBRANCH   9  10
ENDBRANCH   8   9
ENDBRANCH   7   8
ENDBRANCH   6   7
ENDBRANCH   5   6
ENDBRANCH   4   5
ENDBRANCH   3   4
ENDBRANCH   2   3
ENDBRANCH   1   2
BRANCH   1  18
ATOM     18  C   UNL     1      33.008   9.556  39.673  1.00  0.00     0.000 C 
BRANCH  18  19
ATOM     19  C   UNL     1      34.282   8.746  39.970  1.00  0.00     0.000 C 
BRANCH  19  20
ATOM     20  C   UNL     1      34.041   7.226  39.920  1.00  0.00     0.000 C 
BRANCH  20  21
ATOM     21  C   UNL     1      32.951   6.709  40.882  1.00  0.00     0.000 C 
BRANCH  21  22
ATOM     22  C   UNL     1      32.843   5.175  40.990  1.00  0.00     0.000 C 
BRANCH  22  23
ATOM     23  C   UNL     1      31.402   4.688  41.207  1.00  0.00     0.000 C 
BRANCH  23  24
ATOM     24  C   UNL     1      30.696   5.508  42.298  1.00  0.00    -0.000 C 
BRANCH  24  25
ATOM     25  C   UNL     1      29.189   5.674  42.035  1.00  0.00    -0.000 C 
BRANCH  25  26
ATOM     26  C   UNL     1      28.831   6.261  40.654  1.00  0.00    -0.000 C 
BRANCH  26  27
ATOM     27  C   UNL     1      28.033   5.318  39.737  1.00  0.00    -0.000 C 
BRANCH  27  28
ATOM     28  C   UNL     1      28.654   5.185  38.337  1.00  0.00    -0.000 C 
BRANCH  28  29
ATOM     29  C   UNL     1      27.693   4.485  37.365  1.00  0.00    -0.000 C 
BRANCH  29  30
ATOM     30  C   UNL     1      26.917   5.493  36.492  1.00  0.00    -0.000 C 
BRANCH  30  31
ATOM     31  C   UNL     1      27.817   6.547  35.823  1.00  0.00    -0.003 C 
ATOM     32  C   UNL     1      27.882   7.861  36.599  1.00  0.00     0.004 C 
ENDBRANCH  30  31
ENDBRANCH  29  30
ENDBRANCH  28  29
ENDBRANCH  27  28
ENDBRANCH  26  27
ENDBRANCH  25  26
ENDBRANCH  24  25
ENDBRANCH  23  24
ENDBRANCH  22  23
ENDBRANCH  21  22
ENDBRANCH  20  21
ENDBRANCH  19  20
ENDBRANCH  18  19
ENDBRANCH   1  18
TORSDOF 28
ENDMDL
MODEL 4
REMARK VINA RESULT:    16.651      0.926      1.291
REMARK INTER + INTRA:          41.761
REMARK INTER:                  43.835
REMARK INTRA:                  -2.074
REMARK UNBOUND:                -2.146
REMARK SMILES CCCCCCCCCCCCCCCCCCCCCCCCCCCCCC(=O)[O-]
REMARK SMILES IDX 16 1 17 2 18 3 19 4 20 5 21 6 22 7 23 8 24 9 25 10 26 11
REMARK SMILES IDX 27 12 28 13 29 14 30 15 31 16 32 17 15 18 14 19 13 20 12 21
REMARK SMILES IDX 11 22 10 23 9 24 8 25 7 26 6 27 5 28 4 29 3 30 2 31 1 32
REMARK H PARENT
REMARK Flexibility Score: inf
ROOT
ATOM      1  C   UNL     1      32.463  10.759  41.170  1.00  0.00     0.000 C 
ENDROOT
BRANCH   1   2
ATOM      2  C   UNL     1      32.603   9.810  39.965  1.00  0.00     0.000 C 
BRANCH   2   3
ATOM      3  C   UNL     1      34.064   9.541  39.580  1.00  0.00     0.000 C 
BRANCH   3   4
ATOM      4  C   UNL     1      34.498   8.123  39.986  1.00  0.00     0.000 C 
BRANCH   4   5
ATOM      5  C   UNL     1      33.422   7.390  40.805  1.00  0.00     0.000 C 
BRANCH   5   6
ATOM      6  C   UNL     1      33.334   5.894  40.462  1.00  0.00     0.000 C 
BRANCH   6   7
ATOM      7  C   UNL     1      32.447   5.108  41.444  1.00  0.00     0.000 C 
BRANCH   7   8
ATOM      8  C   UNL     1      30.978   4.974  40.993  1.00  0.00     0.000 C 
BRANCH   8   9
ATOM      9  C   UNL     1      29.991   5.257  42.139  1.00  0.00     0.000 C 
BRANCH   9  10
ATOM     10  C   UNL     1      29.098   6.477  41.862  1.00  0.00     0.000 C 
BRANCH  10  11
ATOM     11  C   UNL     1      29.759   7.484  40.906  1.00  0.00     0.000 C 
BRANCH  11  12
ATOM     12  C   UNL     1      28.744   8.100  39.919  1.00  0.00     0.000 C 
BRANCH  12  13
ATOM     13  C   UNL     1      29.328   8.390  38.523  1.00  0.00     0.006 C 
BRANCH  13  14
ATOM     14  C   UNL     1      28.267   8.496  37.411  1.00  0.00     0.053 C 
BRANCH  14  15
ATOM     15  C   UNL     1      28.096   7.228  36.629  1.00  0.00     0.041 C 
ATOM     16  O   UNL     1      27.986   7.256  35.375  1.00  0.00    -0.550 OA
ATOM     17  O   UNL     1      28.144   6.004  37.283  1.00  0.00    -0.550 OA
ENDBRANCH  14  15
ENDBRANCH  13  14
ENDBRANCH  12  13
ENDBRANCH  11  12
ENDBRANCH  10  11
ENDBRANCH   9  10
ENDBRANCH   8   9
ENDBRANCH   7   8
ENDBRANCH   6   7
ENDBRANCH   5   6
ENDBRANCH   4   5
ENDBRANCH   3   4
ENDBRANCH   2   3
ENDBRANCH   1   2
BRANCH   1  18
ATOM     18  C   UNL     1      33.787  11.420  41.604  1.00  0.00     0.000 C 
BRANCH  18  19
ATOM     19  C   UNL     1      34.163  12.620  40.719  1.00  0.00     0.000 C 
BRANCH  19  20
ATOM     20  C   UNL     1      35.304  13.463  41.318  1.00  0.00     0.000 C 
BRANCH  20  21
ATOM     21  C   UNL     1      35.577  13.214  42.816  1.00  0.00     0.000 C 
BRANCH  21  22
ATOM     22  C   UNL     1      36.832  13.909  43.380  1.00  0.00     0.000 C 
BRANCH  22  23
ATOM     23  C   UNL     1      36.585  15.376  43.762  1.00  0.00     0.000 C 
BRANCH  23  24
ATOM     24  C   UNL     1      35.100  15.744  43.628  1.00  0.00    -0.000 C 
BRANCH  24  25
ATOM     25  C   UNL     1      34.887  17.147  43.032  1.00  0.00    -0.000 C 
BRANCH  25  26
ATOM     26  C   UNL     1      33.757  17.244  41.986  1.00  0.00    -0.000 C 
BRANCH  26  27
ATOM     27  C   UNL     1      34.198  17.758  40.604  1.00  0.00    -0.000 C 
BRANCH  27  28
ATOM     28  C   UNL     1      33.285  17.266  39.469  1.00  0.00    -0.000 C 
BRANCH  28  29
ATOM     29  C   UNL     1      33.099  18.348  38.394  1.00  0.00    -0.000 C 
BRANCH  29  30
ATOM     30  C   UNL     1      31.993  17.977  37.385  1.00  0.00    -0.000 C 
BRANCH  30  31
ATOM     31  C   UNL     1      30.792  18.939  37.408  1.00  0.00    -0.003 C 
ATOM     32  C   UNL     1      30.963  20.091  38.396  1.00  0.00     0.004 C 
ENDBRANCH  30  31
ENDBRANCH  29  30
ENDBRANCH  28  29
ENDBRANCH  27  28
ENDBRANCH  26  27
ENDBRANCH  25  26
ENDBRANCH  24  25
ENDBRANCH  23  24
ENDBRANCH  22  23
ENDBRANCH  21  22
ENDBRANCH  20  21
ENDBRANCH  19  20
ENDBRANCH  18  19
ENDBRANCH   1  18
TORSDOF 28
ENDMDL
MODEL 5
REMARK VINA RESULT:    17.080      2.850     10.157
REMARK INTER + INTRA:          42.893
REMARK INTER:                  45.706
REMARK INTRA:                  -2.813
REMARK UNBOUND:                -2.146
REMARK SMILES CCCCCCCCCCCCCCCCCCCCCCCCCCCCCC(=O)[O-]
REMARK SMILES IDX 16 1 17 2 18 3 19 4 20 5 21 6 22 7 23 8 24 9 25 10 26 11
REMARK SMILES IDX 27 12 28 13 29 14 30 15 31 16 32 17 15 18 14 19 13 20 12 21
REMARK SMILES IDX 11 22 10 23 9 24 8 25 7 26 6 27 5 28 4 29 3 30 2 31 1 32
REMARK H PARENT
REMARK Flexibility Score: inf
ROOT
ATOM      1  C   UNL     1      32.880  12.307  40.017  1.00  0.00     0.000 C 
ENDROOT
BRANCH   1   2
ATOM      2  C   UNL     1      34.138  13.185  40.147  1.00  0.00     0.000 C 
BRANCH   2   3
ATOM      3  C   UNL     1      35.433  12.368  40.242  1.00  0.00     0.000 C 
BRANCH   3   4
ATOM      4  C   UNL     1      36.303  12.833  41.421  1.00  0.00     0.000 C 
BRANCH   4   5
ATOM      5  C   UNL     1      35.473  13.459  42.555  1.00  0.00     0.000 C 
BRANCH   5   6
ATOM      6  C   UNL     1      36.346  14.032  43.682  1.00  0.00     0.000 C 
BRANCH   6   7
ATOM      7  C   UNL     1      36.000  15.492  44.021  1.00  0.00     0.000 C 
BRANCH   7   8
ATOM      8  C   UNL     1      34.636  15.958  43.469  1.00  0.00     0.000 C 
BRANCH   8   9
ATOM      9  C   UNL     1      34.691  17.397  42.925  1.00  0.00     0.000 C 
BRANCH   9  10
ATOM     10  C   UNL     1      33.735  17.617  41.742  1.00  0.00     0.000 C 
BRANCH  10  11
ATOM     11  C   UNL     1      34.134  16.800  40.503  1.00  0.00     0.000 C 
BRANCH  11  12
ATOM     12  C   UNL     1      34.295  17.685  39.249  1.00  0.00     0.000 C 
BRANCH  12  13
ATOM     13  C   UNL     1      33.073  18.576  38.952  1.00  0.00     0.006 C 
BRANCH  13  14
ATOM     14  C   UNL     1      32.046  17.932  38.001  1.00  0.00     0.053 C 
BRANCH  14  15
ATOM     15  C   UNL     1      30.943  18.865  37.596  1.00  0.00     0.041 C 
ATOM     16  O   UNL     1      29.895  18.425  37.055  1.00  0.00    -0.550 OA
ATOM     17  O   UNL     1      31.042  20.218  37.896  1.00  0.00    -0.550 OA
ENDBRANCH  14  15
ENDBRANCH  13  14
ENDBRANCH  12  13
ENDBRANCH  11  12
ENDBRANCH  10  11
ENDBRANCH   9  10
ENDBRANCH   8   9
ENDBRANCH   7   8
ENDBRANCH   6   7
ENDBRANCH   5   6
ENDBRANCH   4   5
ENDBRANCH   3   4
ENDBRANCH   2   3
ENDBRANCH   1   2
BRANCH   1  18
ATOM     18  C   UNL     1      32.650  11.361  41.213  1.00  0.00     0.000 C 
BRANCH  18  19
ATOM     19  C   UNL     1      32.322   9.925  40.773  1.00  0.00     0.000 C 
BRANCH  19  20
ATOM     20  C   UNL     1      32.999   9.544  39.443  1.00  0.00     0.000 C 
BRANCH  20  21
ATOM     21  C   UNL     1      34.433   8.990  39.581  1.00  0.00     0.000 C 
BRANCH  21  22
ATOM     22  C   UNL     1      35.045   9.093  40.992  1.00  0.00     0.000 C 
BRANCH  22  23
ATOM     23  C   UNL     1      36.159   8.064  41.241  1.00  0.00     0.000 C 
BRANCH  23  24
ATOM     24  C   UNL     1      35.670   6.923  42.145  1.00  0.00    -0.000 C 
BRANCH  24  25
ATOM     25  C   UNL     1      35.478   5.600  41.382  1.00  0.00    -0.000 C 
BRANCH  25  26
ATOM     26  C   UNL     1      34.160   5.492  40.589  1.00  0.00    -0.000 C 
BRANCH  26  27
ATOM     27  C   UNL     1      32.886   5.481  41.451  1.00  0.00    -0.000 C 
BRANCH  27  28
ATOM     28  C   UNL     1      31.854   4.447  40.971  1.00  0.00    -0.000 C 
BRANCH  28  29
ATOM     29  C   UNL     1      30.438   5.043  40.946  1.00  0.00    -0.000 C 
BRANCH  29  30
ATOM     30  C   UNL     1      30.119   5.832  42.233  1.00  0.00    -0.000 C 
BRANCH  30  31
ATOM     31  C   UNL     1      28.642   5.744  42.657  1.00  0.00    -0.003 C 
ATOM     32  C   UNL     1      27.846   4.718  41.854  1.00  0.00     0.004 C 
ENDBRANCH  30  31
ENDBRANCH  29  30
ENDBRANCH  28  29
ENDBRANCH  27  28
ENDBRANCH  26  27
ENDBRANCH  25  26
ENDBRANCH  24  25
ENDBRANCH  23  24
ENDBRANCH  22  23
ENDBRANCH  21  22
ENDBRANCH  20  21
ENDBRANCH  19  20
ENDBRANCH  18  19
ENDBRANCH   1  18
TORSDOF 28
ENDMDL
MODEL 6
REMARK VINA RESULT:    17.137      1.808      3.192
REMARK INTER + INTRA:          43.043
REMARK INTER:                  45.224
REMARK INTRA:                  -2.182
REMARK UNBOUND:                -2.146
REMARK SMILES CCCCCCCCCCCCCCCCCCCCCCCCCCCCCC(=O)[O-]
REMARK SMILES IDX 16 1 17 2 18 3 19 4 20 5 21 6 22 7 23 8 24 9 25 10 26 11
REMARK SMILES IDX 27 12 28 13 29 14 30 15 31 16 32 17 15 18 14 19 13 20 12 21
REMARK SMILES IDX 11 22 10 23 9 24 8 25 7 26 6 27 5 28 4 29 3 30 2 31 1 32
REMARK H PARENT
REMARK Flexibility Score: inf
ROOT
ATOM      1  C   UNL     1      33.260  12.520  40.006  1.00  0.00     0.000 C 
ENDROOT
BRANCH   1   2
ATOM      2  C   UNL     1      32.575  11.972  41.271  1.00  0.00     0.000 C 
BRANCH   2   3
ATOM      3  C   UNL     1      32.587  10.439  41.344  1.00  0.00     0.000 C 
BRANCH   3   4
ATOM      4  C   UNL     1      32.545   9.811  39.941  1.00  0.00     0.000 C 
BRANCH   4   5
ATOM      5  C   UNL     1      33.862   9.106  39.572  1.00  0.00     0.000 C 
BRANCH   5   6
ATOM      6  C   UNL     1      35.075   9.695  40.309  1.00  0.00     0.000 C 
BRANCH   6   7
ATOM      7  C   UNL     1      36.135   8.635  40.656  1.00  0.00     0.000 C 
BRANCH   7   8
ATOM      8  C   UNL     1      35.716   7.678  41.792  1.00  0.00     0.000 C 
BRANCH   8   9
ATOM      9  C   UNL     1      36.017   6.208  41.452  1.00  0.00     0.000 C 
BRANCH   9  10
ATOM     10  C   UNL     1      34.807   5.289  41.688  1.00  0.00     0.000 C 
BRANCH  10  11
ATOM     11  C   UNL     1      33.609   5.655  40.797  1.00  0.00     0.000 C 
BRANCH  11  12
ATOM     12  C   UNL     1      32.284   5.686  41.588  1.00  0.00     0.000 C 
BRANCH  12  13
ATOM     13  C   UNL     1      31.276   4.600  41.164  1.00  0.00     0.006 C 
BRANCH  13  14
ATOM     14  C   UNL     1      29.896   5.151  40.758  1.00  0.00     0.053 C 
BRANCH  14  15
ATOM     15  C   UNL     1      29.259   6.000  41.817  1.00  0.00     0.041 C 
ATOM     16  O   UNL     1      28.964   5.514  42.940  1.00  0.00    -0.550 OA
ATOM     17  O   UNL     1      29.069   7.358  41.589  1.00  0.00    -0.550 OA
ENDBRANCH  14  15
ENDBRANCH  13  14
ENDBRANCH  12  13
ENDBRANCH  11  12
ENDBRANCH  10  11
ENDBRANCH   9  10
ENDBRANCH   8   9
ENDBRANCH   7   8
ENDBRANCH   6   7
ENDBRANCH   5   6
ENDBRANCH   4   5
ENDBRANCH   3   4
ENDBRANCH   2   3
ENDBRANCH   1   2
BRANCH   1  18
ATOM     18  C   UNL     1      34.682  13.066  40.250  1.00  0.00     0.000 C 
BRANCH  18  19
ATOM     19  C   UNL     1      35.141  12.879  41.705  1.00  0.00     0.000 C 
BRANCH  19  20
ATOM     20  C   UNL     1      36.576  13.387  41.943  1.00  0.00     0.000 C 
BRANCH  20  21
ATOM     21  C   UNL     1      36.924  13.680  43.417  1.00  0.00     0.000 C 
BRANCH  21  22
ATOM     22  C   UNL     1      36.548  15.090  43.914  1.00  0.00     0.000 C 
BRANCH  22  23
ATOM     23  C   UNL     1      35.045  15.388  43.792  1.00  0.00     0.000 C 
BRANCH  23  24
ATOM     24  C   UNL     1      34.751  16.876  44.036  1.00  0.00    -0.000 C 
BRANCH  24  25
ATOM     25  C   UNL     1      35.565  17.801  43.114  1.00  0.00    -0.000 C 
BRANCH  25  26
ATOM     26  C   UNL     1      34.758  18.454  41.972  1.00  0.00    -0.000 C 
BRANCH  26  27
ATOM     27  C   UNL     1      33.824  17.497  41.211  1.00  0.00    -0.000 C 
BRANCH  27  28
ATOM     28  C   UNL     1      34.198  17.359  39.727  1.00  0.00    -0.000 C 
BRANCH  28  29
ATOM     29  C   UNL     1      33.380  18.323  38.854  1.00  0.00    -0.000 C 
BRANCH  29  30
ATOM     30  C   UNL     1      32.117  17.651  38.276  1.00  0.00    -0.000 C 
BRANCH  30  31
ATOM     31  C   UNL     1      31.247  18.600  37.433  1.00  0.00    -0.003 C 
ATOM     32  C   UNL     1      31.034  19.962  38.089  1.00  0.00     0.004 C 
ENDBRANCH  30  31
ENDBRANCH  29  30
ENDBRANCH  28  29
ENDBRANCH  27  28
ENDBRANCH  26  27
ENDBRANCH  25  26
ENDBRANCH  24  25
ENDBRANCH  23  24
ENDBRANCH  22  23
ENDBRANCH  21  22
ENDBRANCH  20  21
ENDBRANCH  19  20
ENDBRANCH  18  19
ENDBRANCH   1  18
TORSDOF 28
ENDMDL
MODEL 7
REMARK VINA RESULT:    17.251      2.831     10.405
REMARK INTER + INTRA:          43.344
REMARK INTER:                  45.612
REMARK INTRA:                  -2.268
REMARK UNBOUND:                -2.146
REMARK SMILES CCCCCCCCCCCCCCCCCCCCCCCCCCCCCC(=O)[O-]
REMARK SMILES IDX 16 1 17 2 18 3 19 4 20 5 21 6 22 7 23 8 24 9 25 10 26 11
REMARK SMILES IDX 27 12 28 13 29 14 30 15 31 16 32 17 15 18 14 19 13 20 12 21
REMARK SMILES IDX 11 22 10 23 9 24 8 25 7 26 6 27 5 28 4 29 3 30 2 31 1 32
REMARK H PARENT
REMARK Flexibility Score: inf
ROOT
ATOM      1  C   UNL     1      33.812  10.545  40.978  1.00  0.00     0.000 C 
ENDROOT
BRANCH   1   2
ATOM      2  C   UNL     1      33.138  11.905  40.720  1.00  0.00     0.000 C 
BRANCH   2   3
ATOM      3  C   UNL     1      34.084  12.933  40.084  1.00  0.00     0.000 C 
BRANCH   3   4
ATOM      4  C   UNL     1      35.426  12.996  40.831  1.00  0.00     0.000 C 
BRANCH   4   5
ATOM      5  C   UNL     1      35.249  13.225  42.341  1.00  0.00     0.000 C 
BRANCH   5   6
ATOM      6  C   UNL     1      36.531  13.734  43.018  1.00  0.00     0.000 C 
BRANCH   6   7
ATOM      7  C   UNL     1      36.361  15.127  43.648  1.00  0.00     0.000 C 
BRANCH   7   8
ATOM      8  C   UNL     1      34.895  15.606  43.724  1.00  0.00     0.000 C 
BRANCH   8   9
ATOM      9  C   UNL     1      34.785  17.141  43.714  1.00  0.00     0.000 C 
BRANCH   9  10
ATOM     10  C   UNL     1      34.930  17.734  42.303  1.00  0.00     0.000 C 
BRANCH  10  11
ATOM     11  C   UNL     1      33.696  17.470  41.425  1.00  0.00     0.000 C 
BRANCH  11  12
ATOM     12  C   UNL     1      34.076  17.194  39.955  1.00  0.00     0.000 C 
BRANCH  12  13
ATOM     13  C   UNL     1      33.622  18.292  38.974  1.00  0.00     0.006 C 
BRANCH  13  14
ATOM     14  C   UNL     1      32.115  18.609  39.042  1.00  0.00     0.053 C 
BRANCH  14  15
ATOM     15  C   UNL     1      31.427  18.517  37.713  1.00  0.00     0.041 C 
ATOM     16  O   UNL     1      30.927  17.430  37.322  1.00  0.00    -0.550 OA
ATOM     17  O   UNL     1      31.266  19.661  36.941  1.00  0.00    -0.550 OA
ENDBRANCH  14  15
ENDBRANCH  13  14
ENDBRANCH  12  13
ENDBRANCH  11  12
ENDBRANCH  10  11
ENDBRANCH   9  10
ENDBRANCH   8   9
ENDBRANCH   7   8
ENDBRANCH   6   7
ENDBRANCH   5   6
ENDBRANCH   4   5
ENDBRANCH   3   4
ENDBRANCH   2   3
ENDBRANCH   1   2
BRANCH   1  18
ATOM     18  C   UNL     1      33.361   9.430  40.013  1.00  0.00     0.000 C 
BRANCH  18  19
ATOM     19  C   UNL     1      31.834   9.386  39.836  1.00  0.00     0.000 C 
BRANCH  19  20
ATOM     20  C   UNL     1      31.160   8.360  40.766  1.00  0.00     0.000 C 
BRANCH  20  21
ATOM     21  C   UNL     1      29.689   8.669  41.115  1.00  0.00     0.000 C 
BRANCH  21  22
ATOM     22  C   UNL     1      28.833   7.446  41.501  1.00  0.00     0.000 C 
BRANCH  22  23
ATOM     23  C   UNL     1      29.676   6.238  41.940  1.00  0.00     0.000 C 
BRANCH  23  24
ATOM     24  C   UNL     1      29.450   5.035  41.013  1.00  0.00    -0.000 C 
BRANCH  24  25
ATOM     25  C   UNL     1      29.257   5.445  39.542  1.00  0.00    -0.000 C 
BRANCH  25  26
ATOM     26  C   UNL     1      28.048   4.795  38.839  1.00  0.00    -0.000 C 
BRANCH  26  27
ATOM     27  C   UNL     1      28.172   4.686  37.309  1.00  0.00    -0.000 C 
BRANCH  27  28
ATOM     28  C   UNL     1      26.861   5.023  36.582  1.00  0.00    -0.000 C 
BRANCH  28  29
ATOM     29  C   UNL     1      26.746   6.531  36.310  1.00  0.00    -0.000 C 
BRANCH  29  30
ATOM     30  C   UNL     1      28.129   7.210  36.222  1.00  0.00    -0.000 C 
BRANCH  30  31
ATOM     31  C   UNL     1      28.440   8.129  37.416  1.00  0.00    -0.003 C 
ATOM     32  C   UNL     1      28.060   9.587  37.168  1.00  0.00     0.004 C 
ENDBRANCH  30  31
ENDBRANCH  29  30
ENDBRANCH  28  29
ENDBRANCH  27  28
ENDBRANCH  26  27
ENDBRANCH  25  26
ENDBRANCH  24  25
ENDBRANCH  23  24
ENDBRANCH  22  23
ENDBRANCH  21  22
ENDBRANCH  20  21
ENDBRANCH  19  20
ENDBRANCH  18  19
ENDBRANCH   1  18
TORSDOF 28
ENDMDL
MODEL 8
REMARK VINA RESULT:    17.350      1.521      2.678
REMARK INTER + INTRA:          43.604
REMARK INTER:                  45.767
REMARK INTRA:                  -2.163
REMARK UNBOUND:                -2.146
REMARK SMILES CCCCCCCCCCCCCCCCCCCCCCCCCCCCCC(=O)[O-]
REMARK SMILES IDX 16 1 17 2 18 3 19 4 20 5 21 6 22 7 23 8 24 9 25 10 26 11
REMARK SMILES IDX 27 12 28 13 29 14 30 15 31 16 32 17 15 18 14 19 13 20 12 21
REMARK SMILES IDX 11 22 10 23 9 24 8 25 7 26 6 27 5 28 4 29 3 30 2 31 1 32
REMARK H PARENT
REMARK Flexibility Score: inf
ROOT
ATOM      1  C   UNL     1      33.781  10.634  40.360  1.00  0.00     0.000 C 
ENDROOT
BRANCH   1   2
ATOM      2  C   UNL     1      32.795   9.507  40.002  1.00  0.00     0.000 C 
BRANCH   2   3
ATOM      3  C   UNL     1      31.527   9.522  40.865  1.00  0.00     0.000 C 
BRANCH   3   4
ATOM      4  C   UNL     1      30.738   8.210  40.726  1.00  0.00     0.000 C 
BRANCH   4   5
ATOM      5  C   UNL     1      29.387   8.254  41.460  1.00  0.00     0.000 C 
BRANCH   5   6
ATOM      6  C   UNL     1      28.849   6.854  41.795  1.00  0.00     0.000 C 
BRANCH   6   7
ATOM      7  C   UNL     1      29.934   5.766  41.734  1.00  0.00     0.000 C 
BRANCH   7   8
ATOM      8  C   UNL     1      29.670   4.677  40.672  1.00  0.00     0.000 C 
BRANCH   8   9
ATOM      9  C   UNL     1      28.496   5.042  39.746  1.00  0.00     0.000 C 
BRANCH   9  10
ATOM     10  C   UNL     1      28.867   4.943  38.257  1.00  0.00     0.000 C 
BRANCH  10  11
ATOM     11  C   UNL     1      27.691   4.466  37.389  1.00  0.00     0.000 C 
BRANCH  11  12
ATOM     12  C   UNL     1      27.052   5.622  36.591  1.00  0.00     0.000 C 
BRANCH  12  13
ATOM     13  C   UNL     1      28.054   6.708  36.152  1.00  0.00     0.006 C 
BRANCH  13  14
ATOM     14  C   UNL     1      27.487   8.140  36.198  1.00  0.00     0.053 C 
BRANCH  14  15
ATOM     15  C   UNL     1      28.125   8.999  37.248  1.00  0.00     0.041 C 
ATOM     16  O   UNL     1      27.476   9.925  37.803  1.00  0.00    -0.550 OA
ATOM     17  O   UNL     1      29.417   8.720  37.674  1.00  0.00    -0.550 OA
ENDBRANCH  14  15
ENDBRANCH  13  14
ENDBRANCH  12  13
ENDBRANCH  11  12
ENDBRANCH  10  11
ENDBRANCH   9  10
ENDBRANCH   8   9
ENDBRANCH   7   8
ENDBRANCH   6   7
ENDBRANCH   5   6
ENDBRANCH   4   5
ENDBRANCH   3   4
ENDBRANCH   2   3
ENDBRANCH   1   2
BRANCH   1  18
ATOM     18  C   UNL     1      33.212  12.053  40.153  1.00  0.00     0.000 C 
BRANCH  18  19
ATOM     19  C   UNL     1      34.312  13.126  40.102  1.00  0.00     0.000 C 
BRANCH  19  20
ATOM     20  C   UNL     1      35.444  12.863  41.113  1.00  0.00     0.000 C 
BRANCH  20  21
ATOM     21  C   UNL     1      35.156  13.347  42.549  1.00  0.00     0.000 C 
BRANCH  21  22
ATOM     22  C   UNL     1      36.396  13.775  43.360  1.00  0.00     0.000 C 
BRANCH  22  23
ATOM     23  C   UNL     1      36.362  15.254  43.774  1.00  0.00     0.000 C 
BRANCH  23  24
ATOM     24  C   UNL     1      34.965  15.857  43.570  1.00  0.00    -0.000 C 
BRANCH  24  25
ATOM     25  C   UNL     1      34.993  17.390  43.440  1.00  0.00    -0.000 C 
BRANCH  25  26
ATOM     26  C   UNL     1      34.160  17.960  42.273  1.00  0.00    -0.000 C 
BRANCH  26  27
ATOM     27  C   UNL     1      34.172  17.105  40.993  1.00  0.00    -0.000 C 
BRANCH  27  28
ATOM     28  C   UNL     1      34.220  17.955  39.713  1.00  0.00    -0.000 C 
BRANCH  28  29
ATOM     29  C   UNL     1      32.982  17.712  38.837  1.00  0.00    -0.000 C 
BRANCH  29  30
ATOM     30  C   UNL     1      32.028  18.925  38.833  1.00  0.00    -0.000 C 
BRANCH  30  31
ATOM     31  C   UNL     1      31.161  19.021  37.566  1.00  0.00    -0.003 C 
ATOM     32  C   UNL     1      30.838  17.660  36.953  1.00  0.00     0.004 C 
ENDBRANCH  30  31
ENDBRANCH  29  30
ENDBRANCH  28  29
ENDBRANCH  27  28
ENDBRANCH  26  27
ENDBRANCH  25  26
ENDBRANCH  24  25
ENDBRANCH  23  24
ENDBRANCH  22  23
ENDBRANCH  21  22
ENDBRANCH  20  21
ENDBRANCH  19  20
ENDBRANCH  18  19
ENDBRANCH   1  18
TORSDOF 28
ENDMDL
MODEL 9
REMARK VINA RESULT:    17.429      2.570     10.172
REMARK INTER + INTRA:          43.812
REMARK INTER:                  45.962
REMARK INTRA:                  -2.149
REMARK UNBOUND:                -2.146
REMARK SMILES CCCCCCCCCCCCCCCCCCCCCCCCCCCCCC(=O)[O-]
REMARK SMILES IDX 16 1 17 2 18 3 19 4 20 5 21 6 22 7 23 8 24 9 25 10 26 11
REMARK SMILES IDX 27 12 28 13 29 14 30 15 31 16 32 17 15 18 14 19 13 20 12 21
REMARK SMILES IDX 11 22 10 23 9 24 8 25 7 26 6 27 5 28 4 29 3 30 2 31 1 32
REMARK H PARENT
REMARK Flexibility Score: inf
ROOT
ATOM      1  C   UNL     1      33.717  12.256  40.323  1.00  0.00     0.000 C 
ENDROOT
BRANCH   1   2
ATOM      2  C   UNL     1      35.055  12.904  40.723  1.00  0.00     0.000 C 
BRANCH   2   3
ATOM      3  C   UNL     1      35.311  12.868  42.236  1.00  0.00     0.000 C 
BRANCH   3   4
ATOM      4  C   UNL     1      36.615  13.596  42.601  1.00  0.00     0.000 C 
BRANCH   4   5
ATOM      5  C   UNL     1      36.427  14.596  43.754  1.00  0.00     0.000 C 
BRANCH   5   6
ATOM      6  C   UNL     1      35.103  15.370  43.658  1.00  0.00     0.000 C 
BRANCH   6   7
ATOM      7  C   UNL     1      35.151  16.729  44.377  1.00  0.00     0.000 C 
BRANCH   7   8
ATOM      8  C   UNL     1      35.957  17.808  43.624  1.00  0.00     0.000 C 
BRANCH   8   9
ATOM      9  C   UNL     1      35.044  18.832  42.926  1.00  0.00     0.000 C 
BRANCH   9  10
ATOM     10  C   UNL     1      34.056  18.173  41.949  1.00  0.00     0.000 C 
BRANCH  10  11
ATOM     11  C   UNL     1      34.679  17.917  40.567  1.00  0.00     0.000 C 
BRANCH  11  12
ATOM     12  C   UNL     1      33.640  17.403  39.548  1.00  0.00     0.000 C 
BRANCH  12  13
ATOM     13  C   UNL     1      32.864  18.522  38.827  1.00  0.00     0.006 C 
BRANCH  13  14
ATOM     14  C   UNL     1      31.983  18.025  37.665  1.00  0.00     0.053 C 
BRANCH  14  15
ATOM     15  C   UNL     1      30.845  18.948  37.344  1.00  0.00     0.041 C 
ATOM     16  O   UNL     1      31.050  20.173  37.138  1.00  0.00    -0.550 OA
ATOM     17  O   UNL     1      29.564  18.434  37.188  1.00  0.00    -0.550 OA
ENDBRANCH  14  15
ENDBRANCH  13  14
ENDBRANCH  12  13
ENDBRANCH  11  12
ENDBRANCH  10  11
ENDBRANCH   9  10
ENDBRANCH   8   9
ENDBRANCH   7   8
ENDBRANCH   6   7
ENDBRANCH   5   6
ENDBRANCH   4   5
ENDBRANCH   3   4
ENDBRANCH   2   3
ENDBRANCH   1   2
BRANCH   1  18
ATOM     18  C   UNL     1      33.130  11.318  41.397  1.00  0.00     0.000 C 
BRANCH  18  19
ATOM     19  C   UNL     1      32.179  10.265  40.802  1.00  0.00     0.000 C 
BRANCH  19  20
ATOM     20  C   UNL     1      32.823   9.470  39.651  1.00  0.00     0.000 C 
BRANCH  20  21
ATOM     21  C   UNL     1      34.303   9.092  39.871  1.00  0.00     0.000 C 
BRANCH  21  22
ATOM     22  C   UNL     1      34.540   7.820  40.708  1.00  0.00     0.000 C 
BRANCH  22  23
ATOM     23  C   UNL     1      33.936   6.560  40.070  1.00  0.00     0.000 C 
BRANCH  23  24
ATOM     24  C   UNL     1      33.578   5.513  41.135  1.00  0.00    -0.000 C 
BRANCH  24  25
ATOM     25  C   UNL     1      32.141   4.981  40.986  1.00  0.00    -0.000 C 
BRANCH  25  26
ATOM     26  C   UNL     1      31.153   5.467  42.067  1.00  0.00    -0.000 C 
BRANCH  26  27
ATOM     27  C   UNL     1      29.667   5.346  41.685  1.00  0.00    -0.000 C 
BRANCH  27  28
ATOM     28  C   UNL     1      28.893   6.657  41.895  1.00  0.00    -0.000 C 
BRANCH  28  29
ATOM     29  C   UNL     1      29.400   7.761  40.954  1.00  0.00    -0.000 C 
BRANCH  29  30
ATOM     30  C   UNL     1      28.997   7.501  39.488  1.00  0.00    -0.000 C 
BRANCH  30  31
ATOM     31  C   UNL     1      29.075   8.754  38.598  1.00  0.00    -0.003 C 
ATOM     32  C   UNL     1      28.371   8.582  37.253  1.00  0.00     0.004 C 
ENDBRANCH  30  31
ENDBRANCH  29  30
ENDBRANCH  28  29
ENDBRANCH  27  28
ENDBRANCH  26  27
ENDBRANCH  25  26
ENDBRANCH  24  25
ENDBRANCH  23  24
ENDBRANCH  22  23
ENDBRANCH  21  22
ENDBRANCH  20  21
ENDBRANCH  19  20
ENDBRANCH  18  19
ENDBRANCH   1  18
TORSDOF 28
ENDMDL
