MODEL 1
REMARK VINA RESULT:    -5.303      0.000      0.000
REMARK INTER + INTRA:          -6.514
REMARK INTER:                  -6.233
REMARK INTRA:                  -0.281
REMARK UNBOUND:                -0.281
REMARK SMILES O=c1c(O)c(-c2ccc(O)cc2)oc2cc(O)cc(O)c12
REMARK SMILES IDX 5 1 3 2 2 3 1 4 21 5 19 6 18 7 16 8 15 9 14 10 13 11 6 12
REMARK SMILES IDX 7 13 8 14 9 15 12 16 11 17 10 18 4 20 20 22 17 24
REMARK H PARENT 10 19 4 21 20 23 17 25
REMARK Flexibility Score: inf
ROOT
ATOM      1  C   UNL     1      15.351  34.828  52.619  1.00  0.00     0.180 A 
ATOM      2  C   UNL     1      16.434  34.073  53.102  1.00  0.00     0.208 A 
ATOM      3  C   UNL     1      16.242  33.241  54.217  1.00  0.00     0.238 A 
ATOM      4  O   UNL     1      17.228  32.611  54.677  1.00  0.00    -0.285 OA
ATOM      5  C   UNL     1      14.964  33.161  54.823  1.00  0.00     0.111 A 
ATOM      6  C   UNL     1      14.646  32.321  55.931  1.00  0.00     0.134 A 
ATOM      7  C   UNL     1      13.385  32.420  56.533  1.00  0.00     0.093 A 
ATOM      8  C   UNL     1      12.411  33.278  56.027  1.00  0.00     0.123 A 
ATOM      9  C   UNL     1      12.692  34.062  54.907  1.00  0.00     0.094 A 
ATOM     10  C   UNL     1      13.953  34.012  54.307  1.00  0.00     0.146 A 
ATOM     11  O   UNL     1      14.183  34.781  53.249  1.00  0.00    -0.452 OA
ENDROOT
BRANCH   1  12
ATOM     12  C   UNL     1      15.469  35.708  51.433  1.00  0.00     0.021 A 
ATOM     13  C   UNL     1      15.762  37.079  51.564  1.00  0.00     0.016 A 
ATOM     14  C   UNL     1      15.891  37.885  50.429  1.00  0.00     0.047 A 
ATOM     15  C   UNL     1      15.743  37.331  49.151  1.00  0.00     0.115 A 
ATOM     16  C   UNL     1      15.342  35.157  50.147  1.00  0.00     0.016 A 
ATOM     17  C   UNL     1      15.471  35.967  49.014  1.00  0.00     0.047 A 
BRANCH  15  18
ATOM     18  O   UNL     1      15.869  38.125  48.014  1.00  0.00    -0.508 OA
ATOM     19  H   UNL     1      16.743  38.187  47.505  1.00  0.00     0.293 HD
ENDBRANCH  15  18
ENDBRANCH   1  12
BRANCH   2  20
ATOM     20  O   UNL     1      17.692  34.185  52.502  1.00  0.00    -0.502 OA
ATOM     21  H   UNL     1      18.480  34.616  52.968  1.00  0.00     0.293 HD
ENDBRANCH   2  20
BRANCH   6  22
ATOM     22  O   UNL     1      15.515  31.361  56.459  1.00  0.00    -0.507 OA
ATOM     23  H   UNL     1      16.045  30.701  55.908  1.00  0.00     0.293 HD
ENDBRANCH   6  22
BRANCH   8  24
ATOM     24  O   UNL     1      11.162  33.340  56.640  1.00  0.00    -0.508 OA
ATOM     25  H   UNL     1      11.023  33.841  57.510  1.00  0.00     0.293 HD
ENDBRANCH   8  24
TORSDOF 5
ENDMDL
MODEL 2
REMARK VINA RESULT:    -5.102      5.097      7.929
REMARK INTER + INTRA:          -6.277
REMARK INTER:                  -5.989
REMARK INTRA:                  -0.288
REMARK UNBOUND:                -0.281
REMARK SMILES O=c1c(O)c(-c2ccc(O)cc2)oc2cc(O)cc(O)c12
REMARK SMILES IDX 5 1 3 2 2 3 1 4 21 5 19 6 18 7 16 8 15 9 14 10 13 11 6 12
REMARK SMILES IDX 7 13 8 14 9 15 12 16 11 17 10 18 4 20 20 22 17 24
REMARK H PARENT 10 19 4 21 20 23 17 25
REMARK Flexibility Score: inf
ROOT
ATOM      1  C   UNL     1      11.898  36.249  48.235  1.00  0.00     0.180 A 
ATOM      2  C   UNL     1      12.560  36.330  46.997  1.00  0.00     0.208 A 
ATOM      3  C   UNL     1      13.908  36.722  46.970  1.00  0.00     0.238 A 
ATOM      4  O   UNL     1      14.479  36.845  45.855  1.00  0.00    -0.285 OA
ATOM      5  C   UNL     1      14.582  37.011  48.181  1.00  0.00     0.111 A 
ATOM      6  C   UNL     1      15.958  37.378  48.274  1.00  0.00     0.134 A 
ATOM      7  C   UNL     1      16.485  37.770  49.511  1.00  0.00     0.093 A 
ATOM      8  C   UNL     1      15.707  37.744  50.667  1.00  0.00     0.123 A 
ATOM      9  C   UNL     1      14.376  37.330  50.597  1.00  0.00     0.094 A 
ATOM     10  C   UNL     1      13.811  36.968  49.372  1.00  0.00     0.146 A 
ATOM     11  O   UNL     1      12.538  36.590  49.347  1.00  0.00    -0.452 OA
ENDROOT
BRANCH   1  12
ATOM     12  C   UNL     1      10.485  35.819  48.347  1.00  0.00     0.021 A 
ATOM     13  C   UNL     1       9.431  36.751  48.317  1.00  0.00     0.016 A 
ATOM     14  C   UNL     1       8.103  36.319  48.401  1.00  0.00     0.047 A 
ATOM     15  C   UNL     1       7.813  34.953  48.504  1.00  0.00     0.115 A 
ATOM     16  C   UNL     1      10.183  34.449  48.431  1.00  0.00     0.016 A 
ATOM     17  C   UNL     1       8.855  34.021  48.517  1.00  0.00     0.047 A 
BRANCH  15  18
ATOM     18  O   UNL     1       6.494  34.511  48.590  1.00  0.00    -0.508 OA
ATOM     19  H   UNL     1       6.262  33.526  48.555  1.00  0.00     0.293 HD
ENDBRANCH  15  18
ENDBRANCH   1  12
BRANCH   2  20
ATOM     20  O   UNL     1      11.869  36.061  45.812  1.00  0.00    -0.502 OA
ATOM     21  H   UNL     1      11.863  35.145  45.382  1.00  0.00     0.293 HD
ENDBRANCH   2  20
BRANCH   6  22
ATOM     22  O   UNL     1      16.848  37.349  47.197  1.00  0.00    -0.507 OA
ATOM     23  H   UNL     1      16.601  37.561  46.241  1.00  0.00     0.293 HD
ENDBRANCH   6  22
BRANCH   8  24
ATOM     24  O   UNL     1      16.269  38.125  51.883  1.00  0.00    -0.508 OA
ATOM     25  H   UNL     1      17.066  37.636  52.275  1.00  0.00     0.293 HD
ENDBRANCH   8  24
TORSDOF 5
ENDMDL
MODEL 3
REMARK VINA RESULT:    -4.882      1.909      7.111
REMARK INTER + INTRA:          -6.018
REMARK INTER:                  -5.718
REMARK INTRA:                  -0.300
REMARK UNBOUND:                -0.281
REMARK SMILES O=c1c(O)c(-c2ccc(O)cc2)oc2cc(O)cc(O)c12
REMARK SMILES IDX 5 1 3 2 2 3 1 4 21 5 19 6 18 7 16 8 15 9 14 10 13 11 6 12
REMARK SMILES IDX 7 13 8 14 9 15 12 16 11 17 10 18 4 20 20 22 17 24
REMARK H PARENT 10 19 4 21 20 23 17 25
REMARK Flexibility Score: inf
ROOT
ATOM      1  C   UNL     1      13.926  34.237  53.065  1.00  0.00     0.180 A 
ATOM      2  C   UNL     1      12.762  34.318  52.283  1.00  0.00     0.208 A 
ATOM      3  C   UNL     1      12.763  35.139  51.143  1.00  0.00     0.238 A 
ATOM      4  O   UNL     1      11.701  35.251  50.478  1.00  0.00    -0.285 OA
ATOM      5  C   UNL     1      13.933  35.854  50.791  1.00  0.00     0.111 A 
ATOM      6  C   UNL     1      14.059  36.683  49.636  1.00  0.00     0.134 A 
ATOM      7  C   UNL     1      15.220  37.446  49.457  1.00  0.00     0.093 A 
ATOM      8  C   UNL     1      16.284  37.360  50.354  1.00  0.00     0.123 A 
ATOM      9  C   UNL     1      16.194  36.507  51.455  1.00  0.00     0.094 A 
ATOM     10  C   UNL     1      15.035  35.761  51.680  1.00  0.00     0.146 A 
ATOM     11  O   UNL     1      14.987  34.970  52.746  1.00  0.00    -0.452 OA
ENDROOT
BRANCH   1  12
ATOM     12  C   UNL     1      14.011  33.374  54.266  1.00  0.00     0.021 A 
ATOM     13  C   UNL     1      14.421  32.030  54.176  1.00  0.00     0.016 A 
ATOM     14  C   UNL     1      14.516  31.242  55.327  1.00  0.00     0.047 A 
ATOM     15  C   UNL     1      14.216  31.788  56.581  1.00  0.00     0.115 A 
ATOM     16  C   UNL     1      13.732  33.919  55.530  1.00  0.00     0.016 A 
ATOM     17  C   UNL     1      13.827  33.127  56.679  1.00  0.00     0.047 A 
BRANCH  15  18
ATOM     18  O   UNL     1      14.306  31.011  57.734  1.00  0.00    -0.508 OA
ATOM     19  H   UNL     1      13.997  31.360  58.633  1.00  0.00     0.293 HD
ENDBRANCH  15  18
ENDBRANCH   1  12
BRANCH   2  20
ATOM     20  O   UNL     1      11.611  33.622  52.661  1.00  0.00    -0.502 OA
ATOM     21  H   UNL     1      10.977  33.211  51.987  1.00  0.00     0.293 HD
ENDBRANCH   2  20
BRANCH   6  22
ATOM     22  O   UNL     1      13.093  36.771  48.629  1.00  0.00    -0.507 OA
ATOM     23  H   UNL     1      12.720  35.983  48.120  1.00  0.00     0.293 HD
ENDBRANCH   6  22
BRANCH   8  24
ATOM     24  O   UNL     1      17.429  38.121  50.137  1.00  0.00    -0.508 OA
ATOM     25  H   UNL     1      17.952  38.057  49.270  1.00  0.00     0.293 HD
ENDBRANCH   8  24
TORSDOF 5
ENDMDL
MODEL 4
REMARK VINA RESULT:    -4.858      4.537      6.283
REMARK INTER + INTRA:          -5.990
REMARK INTER:                  -5.694
REMARK INTRA:                  -0.296
REMARK UNBOUND:                -0.281
REMARK SMILES O=c1c(O)c(-c2ccc(O)cc2)oc2cc(O)cc(O)c12
REMARK SMILES IDX 5 1 3 2 2 3 1 4 21 5 19 6 18 7 16 8 15 9 14 10 13 11 6 12
REMARK SMILES IDX 7 13 8 14 9 15 12 16 11 17 10 18 4 20 20 22 17 24
REMARK H PARENT 10 19 4 21 20 23 17 25
REMARK Flexibility Score: inf
ROOT
ATOM      1  C   UNL     1      11.712  35.865  49.146  1.00  0.00     0.180 A 
ATOM      2  C   UNL     1      11.827  34.515  49.521  1.00  0.00     0.208 A 
ATOM      3  C   UNL     1      12.875  34.131  50.372  1.00  0.00     0.238 A 
ATOM      4  O   UNL     1      13.005  32.913  50.660  1.00  0.00    -0.285 OA
ATOM      5  C   UNL     1      13.786  35.104  50.851  1.00  0.00     0.111 A 
ATOM      6  C   UNL     1      14.860  34.834  51.750  1.00  0.00     0.134 A 
ATOM      7  C   UNL     1      15.777  35.848  52.054  1.00  0.00     0.093 A 
ATOM      8  C   UNL     1      15.622  37.137  51.546  1.00  0.00     0.123 A 
ATOM      9  C   UNL     1      14.540  37.426  50.713  1.00  0.00     0.094 A 
ATOM     10  C   UNL     1      13.629  36.427  50.362  1.00  0.00     0.146 A 
ATOM     11  O   UNL     1      12.620  36.742  49.559  1.00  0.00    -0.452 OA
ENDROOT
BRANCH   1  12
ATOM     12  C   UNL     1      10.619  36.351  48.272  1.00  0.00     0.021 A 
ATOM     13  C   UNL     1       9.366  36.714  48.800  1.00  0.00     0.016 A 
ATOM     14  C   UNL     1       8.357  37.192  47.958  1.00  0.00     0.047 A 
ATOM     15  C   UNL     1       8.591  37.327  46.584  1.00  0.00     0.115 A 
ATOM     16  C   UNL     1      10.852  36.508  46.896  1.00  0.00     0.016 A 
ATOM     17  C   UNL     1       9.840  36.985  46.057  1.00  0.00     0.047 A 
BRANCH  15  18
ATOM     18  O   UNL     1       7.593  37.801  45.736  1.00  0.00    -0.508 OA
ATOM     19  H   UNL     1       7.351  37.317  44.880  1.00  0.00     0.293 HD
ENDBRANCH  15  18
ENDBRANCH   1  12
BRANCH   2  20
ATOM     20  O   UNL     1      10.930  33.567  49.019  1.00  0.00    -0.502 OA
ATOM     21  H   UNL     1      10.839  32.641  49.416  1.00  0.00     0.293 HD
ENDBRANCH   2  20
BRANCH   6  22
ATOM     22  O   UNL     1      15.055  33.605  52.388  1.00  0.00    -0.507 OA
ATOM     23  H   UNL     1      14.620  33.334  53.258  1.00  0.00     0.293 HD
ENDBRANCH   6  22
BRANCH   8  24
ATOM     24  O   UNL     1      16.544  38.125  51.882  1.00  0.00    -0.508 OA
ATOM     25  H   UNL     1      17.537  38.000  51.720  1.00  0.00     0.293 HD
ENDBRANCH   8  24
TORSDOF 5
ENDMDL
MODEL 5
REMARK VINA RESULT:    -4.849      1.617      3.437
REMARK INTER + INTRA:          -5.980
REMARK INTER:                  -5.700
REMARK INTRA:                  -0.280
REMARK UNBOUND:                -0.281
REMARK SMILES O=c1c(O)c(-c2ccc(O)cc2)oc2cc(O)cc(O)c12
REMARK SMILES IDX 5 1 3 2 2 3 1 4 21 5 19 6 18 7 16 8 15 9 14 10 13 11 6 12
REMARK SMILES IDX 7 13 8 14 9 15 12 16 11 17 10 18 4 20 20 22 17 24
REMARK H PARENT 10 19 4 21 20 23 17 25
REMARK Flexibility Score: inf
ROOT
ATOM      1  C   UNL     1      14.249  33.947  53.966  1.00  0.00     0.180 A 
ATOM      2  C   UNL     1      12.924  34.059  54.421  1.00  0.00     0.208 A 
ATOM      3  C   UNL     1      12.583  33.511  55.668  1.00  0.00     0.238 A 
ATOM      4  O   UNL     1      11.384  33.567  56.044  1.00  0.00    -0.285 OA
ATOM      5  C   UNL     1      13.574  32.872  56.451  1.00  0.00     0.111 A 
ATOM      6  C   UNL     1      13.349  32.317  57.746  1.00  0.00     0.134 A 
ATOM      7  C   UNL     1      14.371  31.594  58.374  1.00  0.00     0.093 A 
ATOM      8  C   UNL     1      15.627  31.462  57.785  1.00  0.00     0.123 A 
ATOM      9  C   UNL     1      15.876  32.051  56.545  1.00  0.00     0.094 A 
ATOM     10  C   UNL     1      14.866  32.748  55.877  1.00  0.00     0.146 A 
ATOM     11  O   UNL     1      15.141  33.285  54.694  1.00  0.00    -0.452 OA
ENDROOT
BRANCH   1  12
ATOM     12  C   UNL     1      14.691  34.521  52.675  1.00  0.00     0.021 A 
ATOM     13  C   UNL     1      15.312  35.783  52.608  1.00  0.00     0.016 A 
ATOM     14  C   UNL     1      15.742  36.294  51.379  1.00  0.00     0.047 A 
ATOM     15  C   UNL     1      15.570  35.548  50.207  1.00  0.00     0.115 A 
ATOM     16  C   UNL     1      14.541  33.771  51.496  1.00  0.00     0.016 A 
ATOM     17  C   UNL     1      14.972  34.287  50.269  1.00  0.00     0.047 A 
BRANCH  15  18
ATOM     18  O   UNL     1      15.994  36.049  48.978  1.00  0.00    -0.508 OA
ATOM     19  H   UNL     1      16.414  35.448  48.278  1.00  0.00     0.293 HD
ENDBRANCH  15  18
ENDBRANCH   1  12
BRANCH   2  20
ATOM     20  O   UNL     1      11.956  34.674  53.621  1.00  0.00    -0.502 OA
ATOM     21  H   UNL     1      11.178  34.165  53.221  1.00  0.00     0.293 HD
ENDBRANCH   2  20
BRANCH   6  22
ATOM     22  O   UNL     1      12.160  32.470  58.466  1.00  0.00    -0.507 OA
ATOM     23  H   UNL     1      12.001  32.109  59.396  1.00  0.00     0.293 HD
ENDBRANCH   6  22
BRANCH   8  24
ATOM     24  O   UNL     1      16.625  30.748  58.445  1.00  0.00    -0.508 OA
ATOM     25  H   UNL     1      17.372  31.219  58.944  1.00  0.00     0.293 HD
ENDBRANCH   8  24
TORSDOF 5
ENDMDL
MODEL 6
REMARK VINA RESULT:    -4.829      2.044      3.460
REMARK INTER + INTRA:          -5.956
REMARK INTER:                  -5.701
REMARK INTRA:                  -0.256
REMARK UNBOUND:                -0.281
REMARK SMILES O=c1c(O)c(-c2ccc(O)cc2)oc2cc(O)cc(O)c12
REMARK SMILES IDX 5 1 3 2 2 3 1 4 21 5 19 6 18 7 16 8 15 9 14 10 13 11 6 12
REMARK SMILES IDX 7 13 8 14 9 15 12 16 11 17 10 18 4 20 20 22 17 24
REMARK H PARENT 10 19 4 21 20 23 17 25
REMARK Flexibility Score: inf
ROOT
ATOM      1  C   UNL     1      13.039  34.504  52.315  1.00  0.00     0.180 A 
ATOM      2  C   UNL     1      11.681  34.141  52.353  1.00  0.00     0.208 A 
ATOM      3  C   UNL     1      11.150  33.618  53.543  1.00  0.00     0.238 A 
ATOM      4  O   UNL     1       9.949  33.244  53.555  1.00  0.00    -0.285 OA
ATOM      5  C   UNL     1      11.978  33.481  54.684  1.00  0.00     0.111 A 
ATOM      6  C   UNL     1      11.535  33.000  55.952  1.00  0.00     0.134 A 
ATOM      7  C   UNL     1      12.469  32.782  56.972  1.00  0.00     0.093 A 
ATOM      8  C   UNL     1      13.817  33.089  56.793  1.00  0.00     0.123 A 
ATOM      9  C   UNL     1      14.251  33.615  55.575  1.00  0.00     0.094 A 
ATOM     10  C   UNL     1      13.349  33.810  54.527  1.00  0.00     0.146 A 
ATOM     11  O   UNL     1      13.805  34.302  53.381  1.00  0.00    -0.452 OA
ENDROOT
BRANCH   1  12
ATOM     12  C   UNL     1      13.666  35.086  51.105  1.00  0.00     0.021 A 
ATOM     13  C   UNL     1      13.452  36.429  50.743  1.00  0.00     0.016 A 
ATOM     14  C   UNL     1      14.074  36.963  49.610  1.00  0.00     0.047 A 
ATOM     15  C   UNL     1      14.925  36.167  48.833  1.00  0.00     0.115 A 
ATOM     16  C   UNL     1      14.537  34.301  50.332  1.00  0.00     0.016 A 
ATOM     17  C   UNL     1      15.156  34.838  49.199  1.00  0.00     0.047 A 
BRANCH  15  18
ATOM     18  O   UNL     1      15.549  36.688  47.702  1.00  0.00    -0.508 OA
ATOM     19  H   UNL     1      16.438  37.169  47.761  1.00  0.00     0.293 HD
ENDBRANCH  15  18
ENDBRANCH   1  12
BRANCH   2  20
ATOM     20  O   UNL     1      10.888  34.264  51.209  1.00  0.00    -0.502 OA
ATOM     21  H   UNL     1      11.240  34.653  50.343  1.00  0.00     0.293 HD
ENDBRANCH   2  20
BRANCH   6  22
ATOM     22  O   UNL     1      10.196  32.749  56.268  1.00  0.00    -0.507 OA
ATOM     23  H   UNL     1       9.862  32.482  57.183  1.00  0.00     0.293 HD
ENDBRANCH   6  22
BRANCH   8  24
ATOM     24  O   UNL     1      14.716  32.875  57.834  1.00  0.00    -0.508 OA
ATOM     25  H   UNL     1      14.579  32.130  58.508  1.00  0.00     0.293 HD
ENDBRANCH   8  24
TORSDOF 5
ENDMDL
MODEL 7
REMARK VINA RESULT:    -4.824      1.543      2.000
REMARK INTER + INTRA:          -5.951
REMARK INTER:                  -5.677
REMARK INTRA:                  -0.275
REMARK UNBOUND:                -0.281
REMARK SMILES O=c1c(O)c(-c2ccc(O)cc2)oc2cc(O)cc(O)c12
REMARK SMILES IDX 5 1 3 2 2 3 1 4 21 5 19 6 18 7 16 8 15 9 14 10 13 11 6 12
REMARK SMILES IDX 7 13 8 14 9 15 12 16 11 17 10 18 4 20 20 22 17 24
REMARK H PARENT 10 19 4 21 20 23 17 25
REMARK Flexibility Score: inf
ROOT
ATOM      1  C   UNL     1      15.190  35.108  50.859  1.00  0.00     0.180 A 
ATOM      2  C   UNL     1      16.273  34.762  51.686  1.00  0.00     0.208 A 
ATOM      3  C   UNL     1      16.015  34.255  52.969  1.00  0.00     0.238 A 
ATOM      4  O   UNL     1      16.989  33.999  53.724  1.00  0.00    -0.285 OA
ATOM      5  C   UNL     1      14.678  34.084  53.404  1.00  0.00     0.111 A 
ATOM      6  C   UNL     1      14.302  33.541  54.668  1.00  0.00     0.134 A 
ATOM      7  C   UNL     1      12.952  33.540  55.044  1.00  0.00     0.093 A 
ATOM      8  C   UNL     1      11.962  34.000  54.177  1.00  0.00     0.123 A 
ATOM      9  C   UNL     1      12.315  34.478  52.915  1.00  0.00     0.094 A 
ATOM     10  C   UNL     1      13.655  34.526  52.525  1.00  0.00     0.146 A 
ATOM     11  O   UNL     1      13.949  34.998  51.319  1.00  0.00    -0.452 OA
ENDROOT
BRANCH   1  12
ATOM     12  C   UNL     1      15.381  35.625  49.484  1.00  0.00     0.021 A 
ATOM     13  C   UNL     1      15.393  37.007  49.215  1.00  0.00     0.016 A 
ATOM     14  C   UNL     1      15.598  37.471  47.912  1.00  0.00     0.047 A 
ATOM     15  C   UNL     1      15.806  36.564  46.866  1.00  0.00     0.115 A 
ATOM     16  C   UNL     1      15.610  34.723  48.432  1.00  0.00     0.016 A 
ATOM     17  C   UNL     1      15.813  35.191  47.130  1.00  0.00     0.047 A 
BRANCH  15  18
ATOM     18  O   UNL     1      16.010  37.016  45.564  1.00  0.00    -0.508 OA
ATOM     19  H   UNL     1      15.389  36.752  44.808  1.00  0.00     0.293 HD
ENDBRANCH  15  18
ENDBRANCH   1  12
BRANCH   2  20
ATOM     20  O   UNL     1      17.585  34.960  51.245  1.00  0.00    -0.502 OA
ATOM     21  H   UNL     1      17.820  35.059  50.266  1.00  0.00     0.293 HD
ENDBRANCH   2  20
BRANCH   6  22
ATOM     22  O   UNL     1      15.201  32.970  55.573  1.00  0.00    -0.507 OA
ATOM     23  H   UNL     1      15.434  33.360  56.475  1.00  0.00     0.293 HD
ENDBRANCH   6  22
BRANCH   8  24
ATOM     24  O   UNL     1      10.629  33.970  54.578  1.00  0.00    -0.508 OA
ATOM     25  H   UNL     1       9.902  34.426  54.038  1.00  0.00     0.293 HD
ENDBRANCH   8  24
TORSDOF 5
ENDMDL
MODEL 8
REMARK VINA RESULT:    -4.810      4.250      6.992
REMARK INTER + INTRA:          -5.935
REMARK INTER:                  -5.794
REMARK INTRA:                  -0.140
REMARK UNBOUND:                -0.281
REMARK SMILES O=c1c(O)c(-c2ccc(O)cc2)oc2cc(O)cc(O)c12
REMARK SMILES IDX 5 1 3 2 2 3 1 4 21 5 19 6 18 7 16 8 15 9 14 10 13 11 6 12
REMARK SMILES IDX 7 13 8 14 9 15 12 16 11 17 10 18 4 20 20 22 17 24
REMARK H PARENT 10 19 4 21 20 23 17 25
REMARK Flexibility Score: inf
ROOT
ATOM      1  C   UNL     1      15.739  31.916  57.885  1.00  0.00     0.180 A 
ATOM      2  C   UNL     1      15.109  30.842  58.538  1.00  0.00     0.208 A 
ATOM      3  C   UNL     1      15.717  30.286  59.676  1.00  0.00     0.238 A 
ATOM      4  O   UNL     1      15.177  29.291  60.223  1.00  0.00    -0.285 OA
ATOM      5  C   UNL     1      16.936  30.822  60.156  1.00  0.00     0.111 A 
ATOM      6  C   UNL     1      17.619  30.364  61.322  1.00  0.00     0.134 A 
ATOM      7  C   UNL     1      18.884  30.880  61.629  1.00  0.00     0.093 A 
ATOM      8  C   UNL     1      19.461  31.883  60.852  1.00  0.00     0.123 A 
ATOM      9  C   UNL     1      18.776  32.380  59.742  1.00  0.00     0.094 A 
ATOM     10  C   UNL     1      17.529  31.860  59.390  1.00  0.00     0.146 A 
ATOM     11  O   UNL     1      16.914  32.354  58.321  1.00  0.00    -0.452 OA
ENDROOT
BRANCH   1  12
ATOM     12  C   UNL     1      15.148  32.571  56.695  1.00  0.00     0.021 A 
ATOM     13  C   UNL     1      13.907  33.232  56.763  1.00  0.00     0.016 A 
ATOM     14  C   UNL     1      13.381  33.864  55.632  1.00  0.00     0.047 A 
ATOM     15  C   UNL     1      14.091  33.855  54.425  1.00  0.00     0.115 A 
ATOM     16  C   UNL     1      15.863  32.584  55.486  1.00  0.00     0.016 A 
ATOM     17  C   UNL     1      15.332  33.216  54.357  1.00  0.00     0.047 A 
BRANCH  15  18
ATOM     18  O   UNL     1      13.575  34.480  53.292  1.00  0.00    -0.508 OA
ATOM     19  H   UNL     1      12.757  35.075  53.342  1.00  0.00     0.293 HD
ENDBRANCH  15  18
ENDBRANCH   1  12
BRANCH   2  20
ATOM     20  O   UNL     1      13.917  30.314  58.034  1.00  0.00    -0.502 OA
ATOM     21  H   UNL     1      13.899  29.608  57.309  1.00  0.00     0.293 HD
ENDBRANCH   2  20
BRANCH   6  22
ATOM     22  O   UNL     1      17.091  29.431  62.220  1.00  0.00    -0.507 OA
ATOM     23  H   UNL     1      16.202  28.966  62.109  1.00  0.00     0.293 HD
ENDBRANCH   6  22
BRANCH   8  24
ATOM     24  O   UNL     1      20.715  32.384  61.195  1.00  0.00    -0.508 OA
ATOM     25  H   UNL     1      20.848  33.360  61.434  1.00  0.00     0.293 HD
ENDBRANCH   8  24
TORSDOF 5
ENDMDL
MODEL 9
REMARK VINA RESULT:    -4.752      1.244      3.082
REMARK INTER + INTRA:          -5.867
REMARK INTER:                  -5.577
REMARK INTRA:                  -0.289
REMARK UNBOUND:                -0.281
REMARK SMILES O=c1c(O)c(-c2ccc(O)cc2)oc2cc(O)cc(O)c12
REMARK SMILES IDX 5 1 3 2 2 3 1 4 21 5 19 6 18 7 16 8 15 9 14 10 13 11 6 12
REMARK SMILES IDX 7 13 8 14 9 15 12 16 11 17 10 18 4 20 20 22 17 24
REMARK H PARENT 10 19 4 21 20 23 17 25
REMARK Flexibility Score: inf
ROOT
ATOM      1  C   UNL     1      14.800  34.762  52.515  1.00  0.00     0.180 A 
ATOM      2  C   UNL     1      13.464  34.567  52.905  1.00  0.00     0.208 A 
ATOM      3  C   UNL     1      13.192  33.763  54.025  1.00  0.00     0.238 A 
ATOM      4  O   UNL     1      11.992  33.547  54.336  1.00  0.00    -0.285 OA
ATOM      5  C   UNL     1      14.260  33.180  54.749  1.00  0.00     0.111 A 
ATOM      6  C   UNL     1      14.102  32.381  55.921  1.00  0.00     0.134 A 
ATOM      7  C   UNL     1      15.219  31.747  56.479  1.00  0.00     0.093 A 
ATOM      8  C   UNL     1      16.495  31.935  55.949  1.00  0.00     0.123 A 
ATOM      9  C   UNL     1      16.668  32.762  54.838  1.00  0.00     0.094 A 
ATOM     10  C   UNL     1      15.568  33.379  54.237  1.00  0.00     0.146 A 
ATOM     11  O   UNL     1      15.775  34.149  53.175  1.00  0.00    -0.452 OA
ENDROOT
BRANCH   1  12
ATOM     12  C   UNL     1      15.168  35.617  51.362  1.00  0.00     0.021 A 
ATOM     13  C   UNL     1      15.253  35.092  50.059  1.00  0.00     0.016 A 
ATOM     14  C   UNL     1      15.579  35.923  48.983  1.00  0.00     0.047 A 
ATOM     15  C   UNL     1      15.811  37.288  49.192  1.00  0.00     0.115 A 
ATOM     16  C   UNL     1      15.382  36.991  51.560  1.00  0.00     0.016 A 
ATOM     17  C   UNL     1      15.710  37.819  50.481  1.00  0.00     0.047 A 
BRANCH  15  18
ATOM     18  O   UNL     1      16.138  38.125  48.127  1.00  0.00    -0.508 OA
ATOM     19  H   UNL     1      15.432  38.467  47.487  1.00  0.00     0.293 HD
ENDBRANCH  15  18
ENDBRANCH   1  12
BRANCH   2  20
ATOM     20  O   UNL     1      12.424  35.134  52.163  1.00  0.00    -0.502 OA
ATOM     21  H   UNL     1      12.584  35.839  51.454  1.00  0.00     0.293 HD
ENDBRANCH   2  20
BRANCH   6  22
ATOM     22  O   UNL     1      12.886  32.202  56.586  1.00  0.00    -0.507 OA
ATOM     23  H   UNL     1      12.540  32.801  57.322  1.00  0.00     0.293 HD
ENDBRANCH   6  22
BRANCH   8  24
ATOM     24  O   UNL     1      17.585  31.301  56.540  1.00  0.00    -0.508 OA
ATOM     25  H   UNL     1      18.504  31.730  56.553  1.00  0.00     0.293 HD
ENDBRANCH   8  24
TORSDOF 5
ENDMDL
