MODEL 1
REMARK VINA RESULT:     1.608      0.000      0.000
REMARK INTER + INTRA:           1.814
REMARK INTER:                   1.937
REMARK INTRA:                  -0.124
REMARK UNBOUND:                -0.124
REMARK SMILES O=c1c(O)c(-c2ccc(O)cc2O)oc2cc(O)cc(O)c12
REMARK SMILES IDX 5 1 3 2 2 3 1 4 22 5 20 6 19 7 17 8 16 9 15 10 14 11 6 12
REMARK SMILES IDX 8 13 7 14 9 15 11 16 12 17 10 18 13 20 4 22 21 24 18 26
REMARK H PARENT 10 19 13 21 4 23 21 25 18 27
REMARK Flexibility Score: inf
ROOT
ATOM      1  C   UNL     1     -37.492 -35.507 -33.842  1.00  0.00     0.184 A 
ATOM      2  C   UNL     1     -36.091 -35.607 -33.898  1.00  0.00     0.208 A 
ATOM      3  C   UNL     1     -35.472 -35.777 -35.146  1.00  0.00     0.238 A 
ATOM      4  O   UNL     1     -34.214 -35.856 -35.209  1.00  0.00    -0.285 OA
ATOM      5  C   UNL     1     -36.264 -35.862 -36.309  1.00  0.00     0.111 A 
ATOM      6  C   UNL     1     -35.720 -36.037 -37.604  1.00  0.00     0.134 A 
ATOM      7  C   UNL     1     -36.575 -36.122 -38.712  1.00  0.00     0.093 A 
ATOM      8  C   UNL     1     -37.963 -36.038 -38.550  1.00  0.00     0.123 A 
ATOM      9  C   UNL     1     -38.504 -35.867 -37.274  1.00  0.00     0.094 A 
ATOM     10  C   UNL     1     -37.668 -35.777 -36.157  1.00  0.00     0.146 A 
ATOM     11  O   UNL     1     -38.210 -35.608 -34.957  1.00  0.00    -0.451 OA
ENDROOT
BRANCH   1  12
ATOM     12  C   UNL     1     -38.206 -35.318 -32.562  1.00  0.00     0.063 A 
ATOM     13  C   UNL     1     -38.522 -35.971 -30.242  1.00  0.00     0.047 A 
ATOM     14  C   UNL     1     -37.861 -36.121 -31.464  1.00  0.00     0.020 A 
ATOM     15  C   UNL     1     -39.542 -35.027 -30.106  1.00  0.00     0.119 A 
ATOM     16  C   UNL     1     -39.911 -34.237 -31.201  1.00  0.00     0.093 A 
ATOM     17  C   UNL     1     -39.257 -34.385 -32.434  1.00  0.00     0.130 A 
BRANCH  15  18
ATOM     18  O   UNL     1     -40.189 -34.886 -28.879  1.00  0.00    -0.508 OA
ATOM     19  H   UNL     1     -41.125 -34.503 -28.814  1.00  0.00     0.293 HD
ENDBRANCH  15  18
BRANCH  17  20
ATOM     20  O   UNL     1     -39.666 -33.627 -33.531  1.00  0.00    -0.507 OA
ATOM     21  H   UNL     1     -40.035 -34.060 -34.370  1.00  0.00     0.293 HD
ENDBRANCH  17  20
ENDBRANCH   1  12
BRANCH   2  22
ATOM     22  O   UNL     1     -35.337 -35.563 -32.722  1.00  0.00    -0.502 OA
ATOM     23  H   UNL     1     -35.715 -35.221 -31.846  1.00  0.00     0.293 HD
ENDBRANCH   2  22
BRANCH   6  24
ATOM     24  O   UNL     1     -34.341 -36.125 -37.798  1.00  0.00    -0.507 OA
ATOM     25  H   UNL     1     -33.690 -35.556 -37.270  1.00  0.00     0.293 HD
ENDBRANCH   6  24
BRANCH   8  26
ATOM     26  O   UNL     1     -38.814 -36.125 -39.649  1.00  0.00    -0.508 OA
ATOM     27  H   UNL     1     -38.902 -35.362 -40.312  1.00  0.00     0.293 HD
ENDBRANCH   8  26
TORSDOF 6
ENDMDL
