MODEL 1
REMARK VINA RESULT:    -6.557      0.000      0.000
REMARK INTER + INTRA:          -8.215
REMARK INTER:                  -7.899
REMARK INTRA:                  -0.315
REMARK UNBOUND:                -0.315
REMARK SMILES O=c1c(O)c(-c2ccc(O)c(O)c2)oc2cc(O)cc(O)c12
REMARK SMILES IDX 5 1 3 2 2 3 1 4 22 5 20 6 19 7 17 8 16 9 15 10 14 11 6 12
REMARK SMILES IDX 7 13 8 14 9 15 13 16 11 17 10 18 12 20 4 22 21 24 18 26
REMARK H PARENT 10 19 12 21 4 23 21 25 18 27
REMARK Flexibility Score: inf
ROOT
ATOM      1  C   UNL     1      -5.636  -8.031   5.865  1.00  0.00     0.180 A 
ATOM      2  C   UNL     1      -4.462  -8.786   6.034  1.00  0.00     0.208 A 
ATOM      3  C   UNL     1      -3.533  -8.844   4.984  1.00  0.00     0.238 A 
ATOM      4  O   UNL     1      -2.510  -9.565   5.121  1.00  0.00    -0.285 OA
ATOM      5  C   UNL     1      -3.781  -8.136   3.783  1.00  0.00     0.111 A 
ATOM      6  C   UNL     1      -2.890  -8.092   2.669  1.00  0.00     0.134 A 
ATOM      7  C   UNL     1      -3.296  -7.467   1.483  1.00  0.00     0.093 A 
ATOM      8  C   UNL     1      -4.536  -6.828   1.395  1.00  0.00     0.123 A 
ATOM      9  C   UNL     1      -5.387  -6.814   2.497  1.00  0.00     0.094 A 
ATOM     10  C   UNL     1      -5.025  -7.460   3.680  1.00  0.00     0.146 A 
ATOM     11  O   UNL     1      -5.870  -7.432   4.703  1.00  0.00    -0.452 OA
ENDROOT
BRANCH   1  12
ATOM     12  C   UNL     1      -6.650  -7.901   6.936  1.00  0.00     0.025 A 
ATOM     13  C   UNL     1      -7.654  -8.869   7.115  1.00  0.00     0.016 A 
ATOM     14  C   UNL     1      -8.586  -8.737   8.148  1.00  0.00     0.051 A 
ATOM     15  C   UNL     1      -8.521  -7.646   9.024  1.00  0.00     0.157 A 
ATOM     16  C   UNL     1      -6.577  -6.820   7.830  1.00  0.00     0.062 A 
ATOM     17  C   UNL     1      -7.509  -6.684   8.865  1.00  0.00     0.158 A 
BRANCH  15  18
ATOM     18  O   UNL     1      -9.453  -7.516  10.052  1.00  0.00    -0.504 OA
ATOM     19  H   UNL     1     -10.419  -7.802   9.932  1.00  0.00     0.293 HD
ENDBRANCH  15  18
BRANCH  17  20
ATOM     20  O   UNL     1      -7.412  -5.591   9.724  1.00  0.00    -0.504 OA
ATOM     21  H   UNL     1      -7.023  -4.704   9.425  1.00  0.00     0.293 HD
ENDBRANCH  17  20
ENDBRANCH   1  12
BRANCH   2  22
ATOM     22  O   UNL     1      -4.247  -9.496   7.219  1.00  0.00    -0.502 OA
ATOM     23  H   UNL     1      -4.496  -9.124   8.128  1.00  0.00     0.293 HD
ENDBRANCH   2  22
BRANCH   6  24
ATOM     24  O   UNL     1      -1.595  -8.619   2.684  1.00  0.00    -0.507 OA
ATOM     25  H   UNL     1      -0.892  -8.436   1.984  1.00  0.00     0.293 HD
ENDBRANCH   6  24
BRANCH   8  26
ATOM     26  O   UNL     1      -4.926  -6.195   0.217  1.00  0.00    -0.508 OA
ATOM     27  H   UNL     1      -4.358  -6.237  -0.621  1.00  0.00     0.293 HD
ENDBRANCH   8  26
TORSDOF 6
ENDMDL
MODEL 2
REMARK VINA RESULT:    -6.354      1.839      6.688
REMARK INTER + INTRA:          -7.970
REMARK INTER:                  -7.686
REMARK INTRA:                  -0.283
REMARK UNBOUND:                -0.315
REMARK SMILES O=c1c(O)c(-c2ccc(O)c(O)c2)oc2cc(O)cc(O)c12
REMARK SMILES IDX 5 1 3 2 2 3 1 4 22 5 20 6 19 7 17 8 16 9 15 10 14 11 6 12
REMARK SMILES IDX 7 13 8 14 9 15 13 16 11 17 10 18 12 20 4 22 21 24 18 26
REMARK H PARENT 10 19 12 21 4 23 21 25 18 27
REMARK Flexibility Score: inf
ROOT
ATOM      1  C   UNL     1      -4.777  -8.538   4.511  1.00  0.00     0.180 A 
ATOM      2  C   UNL     1      -4.158  -8.803   5.746  1.00  0.00     0.208 A 
ATOM      3  C   UNL     1      -4.894  -8.623   6.928  1.00  0.00     0.238 A 
ATOM      4  O   UNL     1      -4.318  -8.809   8.031  1.00  0.00    -0.285 OA
ATOM      5  C   UNL     1      -6.243  -8.198   6.861  1.00  0.00     0.111 A 
ATOM      6  C   UNL     1      -7.094  -8.022   7.993  1.00  0.00     0.134 A 
ATOM      7  C   UNL     1      -8.370  -7.472   7.819  1.00  0.00     0.093 A 
ATOM      8  C   UNL     1      -8.848  -7.152   6.546  1.00  0.00     0.123 A 
ATOM      9  C   UNL     1      -8.047  -7.376   5.429  1.00  0.00     0.094 A 
ATOM     10  C   UNL     1      -6.756  -7.889   5.574  1.00  0.00     0.146 A 
ATOM     11  O   UNL     1      -6.022  -8.077   4.485  1.00  0.00    -0.452 OA
ENDROOT
BRANCH   1  12
ATOM     12  C   UNL     1      -4.074  -8.728   3.221  1.00  0.00     0.025 A 
ATOM     13  C   UNL     1      -4.332  -9.843   2.405  1.00  0.00     0.016 A 
ATOM     14  C   UNL     1      -3.674  -9.989   1.181  1.00  0.00     0.051 A 
ATOM     15  C   UNL     1      -2.762  -9.017   0.747  1.00  0.00     0.157 A 
ATOM     16  C   UNL     1      -3.175  -7.746   2.773  1.00  0.00     0.062 A 
ATOM     17  C   UNL     1      -2.514  -7.889   1.547  1.00  0.00     0.158 A 
BRANCH  15  18
ATOM     18  O   UNL     1      -2.106  -9.166  -0.474  1.00  0.00    -0.504 OA
ATOM     19  H   UNL     1      -1.618  -8.393  -0.912  1.00  0.00     0.293 HD
ENDBRANCH  15  18
BRANCH  17  20
ATOM     20  O   UNL     1      -1.618  -6.901   1.142  1.00  0.00    -0.504 OA
ATOM     21  H   UNL     1      -0.651  -7.109   0.922  1.00  0.00     0.293 HD
ENDBRANCH  17  20
ENDBRANCH   1  12
BRANCH   2  22
ATOM     22  O   UNL     1      -2.819  -9.201   5.790  1.00  0.00    -0.502 OA
ATOM     23  H   UNL     1      -2.089  -8.610   6.167  1.00  0.00     0.293 HD
ENDBRANCH   2  22
BRANCH   6  24
ATOM     24  O   UNL     1      -6.748  -8.394   9.295  1.00  0.00    -0.507 OA
ATOM     25  H   UNL     1      -5.843  -8.745   9.572  1.00  0.00     0.293 HD
ENDBRANCH   6  24
BRANCH   8  26
ATOM     26  O   UNL     1     -10.125  -6.619   6.380  1.00  0.00    -0.508 OA
ATOM     27  H   UNL     1     -10.937  -7.214   6.267  1.00  0.00     0.293 HD
ENDBRANCH   8  26
TORSDOF 6
ENDMDL
MODEL 3
REMARK VINA RESULT:    -6.251     12.827     14.624
REMARK INTER + INTRA:          -7.845
REMARK INTER:                  -7.594
REMARK INTRA:                  -0.252
REMARK UNBOUND:                -0.315
REMARK SMILES O=c1c(O)c(-c2ccc(O)c(O)c2)oc2cc(O)cc(O)c12
REMARK SMILES IDX 5 1 3 2 2 3 1 4 22 5 20 6 19 7 17 8 16 9 15 10 14 11 6 12
REMARK SMILES IDX 7 13 8 14 9 15 13 16 11 17 10 18 12 20 4 22 21 24 18 26
REMARK H PARENT 10 19 12 21 4 23 21 25 18 27
REMARK Flexibility Score: inf
ROOT
ATOM      1  C   UNL     1      -4.815   6.062   6.541  1.00  0.00     0.180 A 
ATOM      2  C   UNL     1      -5.218   6.012   5.194  1.00  0.00     0.208 A 
ATOM      3  C   UNL     1      -6.076   4.982   4.778  1.00  0.00     0.238 A 
ATOM      4  O   UNL     1      -6.388   4.912   3.560  1.00  0.00    -0.285 OA
ATOM      5  C   UNL     1      -6.534   4.024   5.714  1.00  0.00     0.111 A 
ATOM      6  C   UNL     1      -7.437   2.962   5.411  1.00  0.00     0.134 A 
ATOM      7  C   UNL     1      -7.720   1.996   6.385  1.00  0.00     0.093 A 
ATOM      8  C   UNL     1      -7.183   2.092   7.671  1.00  0.00     0.123 A 
ATOM      9  C   UNL     1      -6.348   3.158   7.994  1.00  0.00     0.094 A 
ATOM     10  C   UNL     1      -6.018   4.117   7.033  1.00  0.00     0.146 A 
ATOM     11  O   UNL     1      -5.210   5.111   7.380  1.00  0.00    -0.452 OA
ENDROOT
BRANCH   1  12
ATOM     12  C   UNL     1      -3.933   7.131   7.061  1.00  0.00     0.025 A 
ATOM     13  C   UNL     1      -4.395   8.449   7.217  1.00  0.00     0.016 A 
ATOM     14  C   UNL     1      -3.551   9.437   7.732  1.00  0.00     0.051 A 
ATOM     15  C   UNL     1      -2.240   9.120   8.111  1.00  0.00     0.157 A 
ATOM     16  C   UNL     1      -2.624   6.814   7.461  1.00  0.00     0.062 A 
ATOM     17  C   UNL     1      -1.776   7.801   7.977  1.00  0.00     0.158 A 
BRANCH  15  18
ATOM     18  O   UNL     1      -1.400  10.108   8.623  1.00  0.00    -0.504 OA
ATOM     19  H   UNL     1      -1.596  11.094   8.487  1.00  0.00     0.293 HD
ENDBRANCH  15  18
BRANCH  17  20
ATOM     20  O   UNL     1      -0.480   7.451   8.352  1.00  0.00    -0.504 OA
ATOM     21  H   UNL     1      -0.294   6.812   9.116  1.00  0.00     0.293 HD
ENDBRANCH  17  20
ENDBRANCH   1  12
BRANCH   2  22
ATOM     22  O   UNL     1      -4.736   6.955   4.282  1.00  0.00    -0.502 OA
ATOM     23  H   UNL     1      -4.969   6.926   3.297  1.00  0.00     0.293 HD
ENDBRANCH   2  22
BRANCH   6  24
ATOM     24  O   UNL     1      -8.100   2.826   4.188  1.00  0.00    -0.507 OA
ATOM     25  H   UNL     1      -7.864   2.148   3.478  1.00  0.00     0.293 HD
ENDBRANCH   6  24
BRANCH   8  26
ATOM     26  O   UNL     1      -7.481   1.136   8.639  1.00  0.00    -0.508 OA
ATOM     27  H   UNL     1      -7.104   1.195   9.578  1.00  0.00     0.293 HD
ENDBRANCH   8  26
TORSDOF 6
ENDMDL
MODEL 4
REMARK VINA RESULT:    -6.148     16.569     18.320
REMARK INTER + INTRA:          -7.721
REMARK INTER:                  -8.265
REMARK INTRA:                   0.544
REMARK UNBOUND:                -0.315
REMARK SMILES O=c1c(O)c(-c2ccc(O)c(O)c2)oc2cc(O)cc(O)c12
REMARK SMILES IDX 5 1 3 2 2 3 1 4 22 5 20 6 19 7 17 8 16 9 15 10 14 11 6 12
REMARK SMILES IDX 7 13 8 14 9 15 13 16 11 17 10 18 12 20 4 22 21 24 18 26
REMARK H PARENT 10 19 12 21 4 23 21 25 18 27
REMARK Flexibility Score: inf
ROOT
ATOM      1  C   UNL     1      -2.484   1.336  -8.825  1.00  0.00     0.180 A 
ATOM      2  C   UNL     1      -2.362   2.734  -8.741  1.00  0.00     0.208 A 
ATOM      3  C   UNL     1      -3.510   3.504  -8.494  1.00  0.00     0.238 A 
ATOM      4  O   UNL     1      -3.403   4.758  -8.475  1.00  0.00    -0.285 OA
ATOM      5  C   UNL     1      -4.762   2.866  -8.318  1.00  0.00     0.111 A 
ATOM      6  C   UNL     1      -5.982   3.544  -8.023  1.00  0.00     0.134 A 
ATOM      7  C   UNL     1      -7.184   2.825  -7.999  1.00  0.00     0.093 A 
ATOM      8  C   UNL     1      -7.199   1.442  -8.194  1.00  0.00     0.123 A 
ATOM      9  C   UNL     1      -6.005   0.763  -8.423  1.00  0.00     0.094 A 
ATOM     10  C   UNL     1      -4.796   1.457  -8.490  1.00  0.00     0.146 A 
ATOM     11  O   UNL     1      -3.682   0.773  -8.720  1.00  0.00    -0.452 OA
ENDROOT
BRANCH   1  12
ATOM     12  C   UNL     1      -1.316   0.455  -9.057  1.00  0.00     0.025 A 
ATOM     13  C   UNL     1      -1.445  -0.944  -9.069  1.00  0.00     0.016 A 
ATOM     14  C   UNL     1      -0.333  -1.754  -9.314  1.00  0.00     0.051 A 
ATOM     15  C   UNL     1       0.919  -1.179  -9.565  1.00  0.00     0.157 A 
ATOM     16  C   UNL     1      -0.062   1.028  -9.330  1.00  0.00     0.062 A 
ATOM     17  C   UNL     1       1.054   0.220  -9.576  1.00  0.00     0.158 A 
BRANCH  15  18
ATOM     18  O   UNL     1       2.028  -1.989  -9.807  1.00  0.00    -0.504 OA
ATOM     19  H   UNL     1       2.215  -2.371 -10.729  1.00  0.00     0.293 HD
ENDBRANCH  15  18
BRANCH  17  20
ATOM     20  O   UNL     1       2.285   0.824  -9.829  1.00  0.00    -0.504 OA
ATOM     21  H   UNL     1       2.603   1.635  -9.311  1.00  0.00     0.293 HD
ENDBRANCH  17  20
ENDBRANCH   1  12
BRANCH   2  22
ATOM     22  O   UNL     1      -1.121   3.344  -8.940  1.00  0.00    -0.502 OA
ATOM     23  H   UNL     1      -0.993   4.347  -8.885  1.00  0.00     0.293 HD
ENDBRANCH   2  22
BRANCH   6  24
ATOM     24  O   UNL     1      -6.065   4.907  -7.722  1.00  0.00    -0.507 OA
ATOM     25  H   UNL     1      -5.570   5.360  -6.969  1.00  0.00     0.293 HD
ENDBRANCH   6  24
BRANCH   8  26
ATOM     26  O   UNL     1      -8.397   0.732  -8.153  1.00  0.00    -0.508 OA
ATOM     27  H   UNL     1      -8.677   0.212  -7.329  1.00  0.00     0.293 HD
ENDBRANCH   8  26
TORSDOF 6
ENDMDL
MODEL 5
REMARK VINA RESULT:    -6.130     11.874     13.025
REMARK INTER + INTRA:          -7.699
REMARK INTER:                  -7.413
REMARK INTRA:                  -0.286
REMARK UNBOUND:                -0.315
REMARK SMILES O=c1c(O)c(-c2ccc(O)c(O)c2)oc2cc(O)cc(O)c12
REMARK SMILES IDX 5 1 3 2 2 3 1 4 22 5 20 6 19 7 17 8 16 9 15 10 14 11 6 12
REMARK SMILES IDX 7 13 8 14 9 15 13 16 11 17 10 18 12 20 4 22 21 24 18 26
REMARK H PARENT 10 19 12 21 4 23 21 25 18 27
REMARK Flexibility Score: inf
ROOT
ATOM      1  C   UNL     1      -6.398   4.635   5.808  1.00  0.00     0.180 A 
ATOM      2  C   UNL     1      -5.152   5.165   6.189  1.00  0.00     0.208 A 
ATOM      3  C   UNL     1      -4.487   6.037   5.314  1.00  0.00     0.238 A 
ATOM      4  O   UNL     1      -3.348   6.465   5.637  1.00  0.00    -0.285 OA
ATOM      5  C   UNL     1      -5.081   6.383   4.076  1.00  0.00     0.111 A 
ATOM      6  C   UNL     1      -4.515   7.289   3.130  1.00  0.00     0.134 A 
ATOM      7  C   UNL     1      -5.127   7.457   1.882  1.00  0.00     0.093 A 
ATOM      8  C   UNL     1      -6.320   6.800   1.571  1.00  0.00     0.123 A 
ATOM      9  C   UNL     1      -6.912   5.959   2.511  1.00  0.00     0.094 A 
ATOM     10  C   UNL     1      -6.306   5.744   3.750  1.00  0.00     0.146 A 
ATOM     11  O   UNL     1      -6.898   4.927   4.613  1.00  0.00    -0.452 OA
ENDROOT
BRANCH   1  12
ATOM     12  C   UNL     1      -7.171   3.729   6.688  1.00  0.00     0.025 A 
ATOM     13  C   UNL     1      -6.837   2.370   6.812  1.00  0.00     0.016 A 
ATOM     14  C   UNL     1      -7.567   1.538   7.667  1.00  0.00     0.051 A 
ATOM     15  C   UNL     1      -8.629   2.055   8.419  1.00  0.00     0.157 A 
ATOM     16  C   UNL     1      -8.225   4.247   7.459  1.00  0.00     0.062 A 
ATOM     17  C   UNL     1      -8.958   3.418   8.316  1.00  0.00     0.158 A 
BRANCH  15  18
ATOM     18  O   UNL     1      -9.357   1.224   9.269  1.00  0.00    -0.504 OA
ATOM     19  H   UNL     1      -9.349   0.215   9.159  1.00  0.00     0.293 HD
ENDBRANCH  15  18
BRANCH  17  20
ATOM     20  O   UNL     1     -10.005   3.964   9.055  1.00  0.00    -0.504 OA
ATOM     21  H   UNL     1     -10.542   3.415   9.716  1.00  0.00     0.293 HD
ENDBRANCH  17  20
ENDBRANCH   1  12
BRANCH   2  22
ATOM     22  O   UNL     1      -4.573   4.793   7.406  1.00  0.00    -0.502 OA
ATOM     23  H   UNL     1      -5.090   4.305   8.127  1.00  0.00     0.293 HD
ENDBRANCH   2  22
BRANCH   6  24
ATOM     24  O   UNL     1      -3.377   8.064   3.376  1.00  0.00    -0.507 OA
ATOM     25  H   UNL     1      -3.181   8.538   4.245  1.00  0.00     0.293 HD
ENDBRANCH   6  24
BRANCH   8  26
ATOM     26  O   UNL     1      -6.931   6.984   0.333  1.00  0.00    -0.508 OA
ATOM     27  H   UNL     1      -6.480   6.698  -0.528  1.00  0.00     0.293 HD
ENDBRANCH   8  26
TORSDOF 6
ENDMDL
MODEL 6
REMARK VINA RESULT:    -6.116     12.326     14.171
REMARK INTER + INTRA:          -7.682
REMARK INTER:                  -7.361
REMARK INTRA:                  -0.321
REMARK UNBOUND:                -0.315
REMARK SMILES O=c1c(O)c(-c2ccc(O)c(O)c2)oc2cc(O)cc(O)c12
REMARK SMILES IDX 5 1 3 2 2 3 1 4 22 5 20 6 19 7 17 8 16 9 15 10 14 11 6 12
REMARK SMILES IDX 7 13 8 14 9 15 13 16 11 17 10 18 12 20 4 22 21 24 18 26
REMARK H PARENT 10 19 12 21 4 23 21 25 18 27
REMARK Flexibility Score: inf
ROOT
ATOM      1  C   UNL     1      -4.754   5.563   7.719  1.00  0.00     0.180 A 
ATOM      2  C   UNL     1      -5.496   5.173   8.848  1.00  0.00     0.208 A 
ATOM      3  C   UNL     1      -6.286   4.015   8.777  1.00  0.00     0.238 A 
ATOM      4  O   UNL     1      -6.990   3.702   9.772  1.00  0.00    -0.285 OA
ATOM      5  C   UNL     1      -6.313   3.252   7.584  1.00  0.00     0.111 A 
ATOM      6  C   UNL     1      -7.046   2.040   7.413  1.00  0.00     0.134 A 
ATOM      7  C   UNL     1      -7.104   1.439   6.149  1.00  0.00     0.093 A 
ATOM      8  C   UNL     1      -6.401   1.972   5.066  1.00  0.00     0.123 A 
ATOM      9  C   UNL     1      -5.634   3.122   5.238  1.00  0.00     0.094 A 
ATOM     10  C   UNL     1      -5.586   3.764   6.477  1.00  0.00     0.146 A 
ATOM     11  O   UNL     1      -4.851   4.863   6.595  1.00  0.00    -0.452 OA
ENDROOT
BRANCH   1  12
ATOM     12  C   UNL     1      -3.878   6.757   7.726  1.00  0.00     0.025 A 
ATOM     13  C   UNL     1      -4.380   8.033   7.418  1.00  0.00     0.016 A 
ATOM     14  C   UNL     1      -3.539   9.150   7.453  1.00  0.00     0.051 A 
ATOM     15  C   UNL     1      -2.192   9.009   7.811  1.00  0.00     0.157 A 
ATOM     16  C   UNL     1      -2.532   6.625   8.103  1.00  0.00     0.062 A 
ATOM     17  C   UNL     1      -1.687   7.740   8.140  1.00  0.00     0.158 A 
BRANCH  15  18
ATOM     18  O   UNL     1      -1.356  10.124   7.844  1.00  0.00    -0.504 OA
ATOM     19  H   UNL     1      -0.346  10.031   7.809  1.00  0.00     0.293 HD
ENDBRANCH  15  18
BRANCH  17  20
ATOM     20  O   UNL     1      -0.353   7.568   8.507  1.00  0.00    -0.504 OA
ATOM     21  H   UNL     1       0.344   8.287   8.353  1.00  0.00     0.293 HD
ENDBRANCH  17  20
ENDBRANCH   1  12
BRANCH   2  22
ATOM     22  O   UNL     1      -5.472   5.952  10.008  1.00  0.00    -0.502 OA
ATOM     23  H   UNL     1      -5.083   6.887  10.027  1.00  0.00     0.293 HD
ENDBRANCH   2  22
BRANCH   6  24
ATOM     24  O   UNL     1      -7.708   1.375   8.450  1.00  0.00    -0.507 OA
ATOM     25  H   UNL     1      -7.642   0.386   8.633  1.00  0.00     0.293 HD
ENDBRANCH   6  24
BRANCH   8  26
ATOM     26  O   UNL     1      -6.451   1.360   3.816  1.00  0.00    -0.508 OA
ATOM     27  H   UNL     1      -5.610   1.176   3.281  1.00  0.00     0.293 HD
ENDBRANCH   8  26
TORSDOF 6
ENDMDL
MODEL 7
REMARK VINA RESULT:    -6.110     16.385     18.133
REMARK INTER + INTRA:          -7.675
REMARK INTER:                  -7.508
REMARK INTRA:                  -0.167
REMARK UNBOUND:                -0.315
REMARK SMILES O=c1c(O)c(-c2ccc(O)c(O)c2)oc2cc(O)cc(O)c12
REMARK SMILES IDX 5 1 3 2 2 3 1 4 22 5 20 6 19 7 17 8 16 9 15 10 14 11 6 12
REMARK SMILES IDX 7 13 8 14 9 15 13 16 11 17 10 18 12 20 4 22 21 24 18 26
REMARK H PARENT 10 19 12 21 4 23 21 25 18 27
REMARK Flexibility Score: inf
ROOT
ATOM      1  C   UNL     1      -4.328   1.844  -8.554  1.00  0.00     0.180 A 
ATOM      2  C   UNL     1      -5.365   1.132  -9.183  1.00  0.00     0.208 A 
ATOM      3  C   UNL     1      -6.696   1.460  -8.882  1.00  0.00     0.238 A 
ATOM      4  O   UNL     1      -7.619   0.784  -9.407  1.00  0.00    -0.285 OA
ATOM      5  C   UNL     1      -6.976   2.506  -7.969  1.00  0.00     0.111 A 
ATOM      6  C   UNL     1      -8.286   2.949  -7.620  1.00  0.00     0.134 A 
ATOM      7  C   UNL     1      -8.447   3.903  -6.607  1.00  0.00     0.093 A 
ATOM      8  C   UNL     1      -7.340   4.476  -5.976  1.00  0.00     0.123 A 
ATOM      9  C   UNL     1      -6.055   4.093  -6.351  1.00  0.00     0.094 A 
ATOM     10  C   UNL     1      -5.864   3.117  -7.332  1.00  0.00     0.146 A 
ATOM     11  O   UNL     1      -4.623   2.774  -7.653  1.00  0.00    -0.452 OA
ENDROOT
BRANCH   1  12
ATOM     12  C   UNL     1      -2.901   1.573  -8.839  1.00  0.00     0.025 A 
ATOM     13  C   UNL     1      -2.080   2.539  -9.445  1.00  0.00     0.016 A 
ATOM     14  C   UNL     1      -0.729   2.269  -9.683  1.00  0.00     0.051 A 
ATOM     15  C   UNL     1      -0.177   1.039  -9.305  1.00  0.00     0.157 A 
ATOM     16  C   UNL     1      -2.337   0.349  -8.443  1.00  0.00     0.062 A 
ATOM     17  C   UNL     1      -0.985   0.075  -8.679  1.00  0.00     0.158 A 
BRANCH  15  18
ATOM     18  O   UNL     1       1.171   0.772  -9.545  1.00  0.00    -0.504 OA
ATOM     19  H   UNL     1       1.489  -0.154  -9.811  1.00  0.00     0.293 HD
ENDBRANCH  15  18
BRANCH  17  20
ATOM     20  O   UNL     1      -0.464  -1.156  -8.285  1.00  0.00    -0.504 OA
ATOM     21  H   UNL     1      -1.007  -1.824  -7.750  1.00  0.00     0.293 HD
ENDBRANCH  17  20
ENDBRANCH   1  12
BRANCH   2  22
ATOM     22  O   UNL     1      -5.067   0.090 -10.065  1.00  0.00    -0.502 OA
ATOM     23  H   UNL     1      -5.593  -0.775 -10.081  1.00  0.00     0.293 HD
ENDBRANCH   2  22
BRANCH   6  24
ATOM     24  O   UNL     1      -9.453   2.508  -8.252  1.00  0.00    -0.507 OA
ATOM     25  H   UNL     1      -9.515   1.689  -8.838  1.00  0.00     0.293 HD
ENDBRANCH   6  24
BRANCH   8  26
ATOM     26  O   UNL     1      -7.508   5.435  -4.980  1.00  0.00    -0.508 OA
ATOM     27  H   UNL     1      -6.822   5.563  -4.246  1.00  0.00     0.293 HD
ENDBRANCH   8  26
TORSDOF 6
ENDMDL
MODEL 8
REMARK VINA RESULT:    -6.079     13.143     15.349
REMARK INTER + INTRA:          -7.638
REMARK INTER:                  -7.324
REMARK INTRA:                  -0.314
REMARK UNBOUND:                -0.315
REMARK SMILES O=c1c(O)c(-c2ccc(O)c(O)c2)oc2cc(O)cc(O)c12
REMARK SMILES IDX 5 1 3 2 2 3 1 4 22 5 20 6 19 7 17 8 16 9 15 10 14 11 6 12
REMARK SMILES IDX 7 13 8 14 9 15 13 16 11 17 10 18 12 20 4 22 21 24 18 26
REMARK H PARENT 10 19 12 21 4 23 21 25 18 27
REMARK Flexibility Score: inf
ROOT
ATOM      1  C   UNL     1      -5.669   6.620   4.843  1.00  0.00     0.180 A 
ATOM      2  C   UNL     1      -4.342   6.844   5.252  1.00  0.00     0.208 A 
ATOM      3  C   UNL     1      -3.861   6.184   6.394  1.00  0.00     0.238 A 
ATOM      4  O   UNL     1      -2.690   6.431   6.785  1.00  0.00    -0.285 OA
ATOM      5  C   UNL     1      -4.705   5.296   7.103  1.00  0.00     0.111 A 
ATOM      6  C   UNL     1      -4.310   4.544   8.250  1.00  0.00     0.134 A 
ATOM      7  C   UNL     1      -5.266   3.797   8.949  1.00  0.00     0.093 A 
ATOM      8  C   UNL     1      -6.589   3.724   8.505  1.00  0.00     0.123 A 
ATOM      9  C   UNL     1      -6.970   4.406   7.353  1.00  0.00     0.094 A 
ATOM     10  C   UNL     1      -6.048   5.189   6.655  1.00  0.00     0.146 A 
ATOM     11  O   UNL     1      -6.455   5.832   5.567  1.00  0.00    -0.452 OA
ENDROOT
BRANCH   1  12
ATOM     12  C   UNL     1      -6.240   7.259   3.636  1.00  0.00     0.025 A 
ATOM     13  C   UNL     1      -6.961   8.463   3.717  1.00  0.00     0.016 A 
ATOM     14  C   UNL     1      -7.471   9.061   2.561  1.00  0.00     0.051 A 
ATOM     15  C   UNL     1      -7.255   8.473   1.308  1.00  0.00     0.157 A 
ATOM     16  C   UNL     1      -6.010   6.685   2.375  1.00  0.00     0.062 A 
ATOM     17  C   UNL     1      -6.519   7.280   1.215  1.00  0.00     0.158 A 
BRANCH  15  18
ATOM     18  O   UNL     1      -7.767   9.070   0.156  1.00  0.00    -0.504 OA
ATOM     19  H   UNL     1      -7.160   9.373  -0.598  1.00  0.00     0.293 HD
ENDBRANCH  15  18
BRANCH  17  20
ATOM     20  O   UNL     1      -6.281   6.674  -0.018  1.00  0.00    -0.504 OA
ATOM     21  H   UNL     1      -5.350   6.597  -0.409  1.00  0.00     0.293 HD
ENDBRANCH  17  20
ENDBRANCH   1  12
BRANCH   2  22
ATOM     22  O   UNL     1      -3.533   7.741   4.550  1.00  0.00    -0.502 OA
ATOM     23  H   UNL     1      -3.834   8.190   3.694  1.00  0.00     0.293 HD
ENDBRANCH   2  22
BRANCH   6  24
ATOM     24  O   UNL     1      -2.996   4.475   8.723  1.00  0.00    -0.507 OA
ATOM     25  H   UNL     1      -2.739   4.277   9.678  1.00  0.00     0.293 HD
ENDBRANCH   6  24
BRANCH   8  26
ATOM     26  O   UNL     1      -7.530   2.965   9.198  1.00  0.00    -0.508 OA
ATOM     27  H   UNL     1      -7.292   2.477  10.053  1.00  0.00     0.293 HD
ENDBRANCH   8  26
TORSDOF 6
ENDMDL
