MODEL 1
REMARK VINA RESULT:    -3.393      0.000      0.000
REMARK INTER + INTRA:          -7.309
REMARK INTER:                  -6.170
REMARK INTRA:                  -1.139
REMARK UNBOUND:                -1.139
REMARK SMILES CCCCCCCCCCCCCCCC(=O)[O-]
REMARK SMILES IDX 9 1 10 2 11 3 12 4 13 5 14 6 15 7 16 8 17 9 18 10 8 11 7 12
REMARK SMILES IDX 6 13 5 14 4 15 3 16 2 17 1 18
REMARK H PARENT
REMARK Flexibility Score: inf
ROOT
ATOM      1  C   UNL     1      25.135  18.875  26.150  1.00  0.00     0.000 C 
ENDROOT
BRANCH   1   2
ATOM      2  C   UNL     1      24.756  19.057  24.670  1.00  0.00     0.000 C 
BRANCH   2   3
ATOM      3  C   UNL     1      25.970  18.951  23.734  1.00  0.00     0.000 C 
BRANCH   3   4
ATOM      4  C   UNL     1      27.308  19.133  24.473  1.00  0.00     0.000 C 
BRANCH   4   5
ATOM      5  C   UNL     1      27.844  20.573  24.393  1.00  0.00     0.000 C 
BRANCH   5   6
ATOM      6  C   UNL     1      29.362  20.716  24.618  1.00  0.00     0.006 C 
BRANCH   6   7
ATOM      7  C   UNL     1      30.210  19.613  23.964  1.00  0.00     0.053 C 
BRANCH   7   8
ATOM      8  C   UNL     1      30.255  19.750  22.473  1.00  0.00     0.041 C 
ATOM      9  O   UNL     1      29.678  18.904  21.741  1.00  0.00    -0.550 OA
ATOM     10  O   UNL     1      30.905  20.832  21.894  1.00  0.00    -0.550 OA
ENDBRANCH   7   8
ENDBRANCH   6   7
ENDBRANCH   5   6
ENDBRANCH   4   5
ENDBRANCH   3   4
ENDBRANCH   2   3
ENDBRANCH   1   2
BRANCH   1  11
ATOM     11  C   UNL     1      23.911  18.875  27.078  1.00  0.00     0.000 C 
BRANCH  11  12
ATOM     12  C   UNL     1      22.721  19.649  26.492  1.00  0.00    -0.000 C 
BRANCH  12  13
ATOM     13  C   UNL     1      22.080  20.556  27.549  1.00  0.00    -0.000 C 
BRANCH  13  14
ATOM     14  C   UNL     1      22.253  22.038  27.181  1.00  0.00    -0.000 C 
BRANCH  14  15
ATOM     15  C   UNL     1      23.451  22.281  26.250  1.00  0.00    -0.000 C 
BRANCH  15  16
ATOM     16  C   UNL     1      24.544  23.141  26.903  1.00  0.00    -0.000 C 
BRANCH  16  17
ATOM     17  C   UNL     1      24.115  24.611  26.976  1.00  0.00    -0.003 C 
ATOM     18  C   UNL     1      25.320  25.543  26.895  1.00  0.00     0.004 C 
ENDBRANCH  16  17
ENDBRANCH  15  16
ENDBRANCH  14  15
ENDBRANCH  13  14
ENDBRANCH  12  13
ENDBRANCH  11  12
ENDBRANCH   1  11
TORSDOF 14
ENDMDL
MODEL 2
REMARK VINA RESULT:    -3.109      3.315      7.242
REMARK INTER + INTRA:          -6.792
REMARK INTER:                  -5.649
REMARK INTRA:                  -1.143
REMARK UNBOUND:                -1.139
REMARK SMILES CCCCCCCCCCCCCCCC(=O)[O-]
REMARK SMILES IDX 9 1 10 2 11 3 12 4 13 5 14 6 15 7 16 8 17 9 18 10 8 11 7 12
REMARK SMILES IDX 6 13 5 14 4 15 3 16 2 17 1 18
REMARK H PARENT
REMARK Flexibility Score: inf
ROOT
ATOM      1  C   UNL     1      25.956  19.896  25.561  1.00  0.00     0.000 C 
ENDROOT
BRANCH   1   2
ATOM      2  C   UNL     1      24.969  19.321  26.591  1.00  0.00     0.000 C 
BRANCH   2   3
ATOM      3  C   UNL     1      23.640  18.886  25.954  1.00  0.00     0.000 C 
BRANCH   3   4
ATOM      4  C   UNL     1      22.601  20.020  25.913  1.00  0.00     0.000 C 
BRANCH   4   5
ATOM      5  C   UNL     1      22.673  20.940  27.144  1.00  0.00     0.000 C 
BRANCH   5   6
ATOM      6  C   UNL     1      22.738  22.448  26.827  1.00  0.00     0.006 C 
BRANCH   6   7
ATOM      7  C   UNL     1      24.125  22.949  26.396  1.00  0.00     0.053 C 
BRANCH   7   8
ATOM      8  C   UNL     1      24.375  24.357  26.842  1.00  0.00     0.041 C 
ATOM      9  O   UNL     1      25.284  25.042  26.302  1.00  0.00    -0.550 OA
ATOM     10  O   UNL     1      23.581  24.925  27.830  1.00  0.00    -0.550 OA
ENDBRANCH   7   8
ENDBRANCH   6   7
ENDBRANCH   5   6
ENDBRANCH   4   5
ENDBRANCH   3   4
ENDBRANCH   2   3
ENDBRANCH   1   2
BRANCH   1  11
ATOM     11  C   UNL     1      25.696  19.377  24.138  1.00  0.00     0.000 C 
BRANCH  11  12
ATOM     12  C   UNL     1      26.696  19.931  23.112  1.00  0.00    -0.000 C 
BRANCH  12  13
ATOM     13  C   UNL     1      27.753  18.881  22.751  1.00  0.00    -0.000 C 
BRANCH  13  14
ATOM     14  C   UNL     1      28.896  18.875  23.778  1.00  0.00    -0.000 C 
BRANCH  14  15
ATOM     15  C   UNL     1      29.748  20.153  23.723  1.00  0.00    -0.000 C 
BRANCH  15  16
ATOM     16  C   UNL     1      30.551  20.274  22.419  1.00  0.00    -0.000 C 
BRANCH  16  17
ATOM     17  C   UNL     1      31.235  18.947  22.072  1.00  0.00    -0.003 C 
ATOM     18  C   UNL     1      32.750  19.050  22.224  1.00  0.00     0.004 C 
ENDBRANCH  16  17
ENDBRANCH  15  16
ENDBRANCH  14  15
ENDBRANCH  13  14
ENDBRANCH  12  13
ENDBRANCH  11  12
ENDBRANCH   1  11
TORSDOF 14
ENDMDL
MODEL 3
REMARK VINA RESULT:    -3.002      1.240      1.650
REMARK INTER + INTRA:          -6.597
REMARK INTER:                  -5.212
REMARK INTRA:                  -1.384
REMARK UNBOUND:                -1.139
REMARK SMILES CCCCCCCCCCCCCCCC(=O)[O-]
REMARK SMILES IDX 9 1 10 2 11 3 12 4 13 5 14 6 15 7 16 8 17 9 18 10 8 11 7 12
REMARK SMILES IDX 6 13 5 14 4 15 3 16 2 17 1 18
REMARK H PARENT
REMARK Flexibility Score: inf
ROOT
ATOM      1  C   UNL     1      24.593  18.938  26.638  1.00  0.00     0.000 C 
ENDROOT
BRANCH   1   2
ATOM      2  C   UNL     1      26.041  18.890  26.119  1.00  0.00     0.000 C 
BRANCH   2   3
ATOM      3  C   UNL     1      26.536  20.260  25.631  1.00  0.00     0.000 C 
BRANCH   3   4
ATOM      4  C   UNL     1      26.465  20.407  24.100  1.00  0.00     0.000 C 
BRANCH   4   5
ATOM      5  C   UNL     1      26.656  19.070  23.363  1.00  0.00     0.000 C 
BRANCH   5   6
ATOM      6  C   UNL     1      28.003  18.919  22.628  1.00  0.00     0.006 C 
BRANCH   6   7
ATOM      7  C   UNL     1      29.235  18.935  23.546  1.00  0.00     0.053 C 
BRANCH   7   8
ATOM      8  C   UNL     1      29.906  20.274  23.561  1.00  0.00     0.041 C 
ATOM      9  O   UNL     1      29.973  20.938  24.628  1.00  0.00    -0.550 OA
ATOM     10  O   UNL     1      30.486  20.775  22.402  1.00  0.00    -0.550 OA
ENDBRANCH   7   8
ENDBRANCH   6   7
ENDBRANCH   5   6
ENDBRANCH   4   5
ENDBRANCH   3   4
ENDBRANCH   2   3
ENDBRANCH   1   2
BRANCH   1  11
ATOM     11  C   UNL     1      23.556  18.889  25.505  1.00  0.00     0.000 C 
BRANCH  11  12
ATOM     12  C   UNL     1      22.378  19.848  25.736  1.00  0.00    -0.000 C 
BRANCH  12  13
ATOM     13  C   UNL     1      22.412  20.429  27.154  1.00  0.00    -0.000 C 
BRANCH  13  14
ATOM     14  C   UNL     1      22.460  21.964  27.120  1.00  0.00    -0.000 C 
BRANCH  14  15
ATOM     15  C   UNL     1      23.852  22.505  26.762  1.00  0.00    -0.000 C 
BRANCH  15  16
ATOM     16  C   UNL     1      23.831  23.997  26.396  1.00  0.00    -0.000 C 
BRANCH  16  17
ATOM     17  C   UNL     1      24.808  24.790  27.273  1.00  0.00    -0.003 C 
ATOM     18  C   UNL     1      25.243  26.081  26.587  1.00  0.00     0.004 C 
ENDBRANCH  16  17
ENDBRANCH  15  16
ENDBRANCH  14  15
ENDBRANCH  13  14
ENDBRANCH  12  13
ENDBRANCH  11  12
ENDBRANCH   1  11
TORSDOF 14
ENDMDL
MODEL 4
REMARK VINA RESULT:    -2.867      2.997      6.623
REMARK INTER + INTRA:          -6.352
REMARK INTER:                  -5.313
REMARK INTRA:                  -1.039
REMARK UNBOUND:                -1.139
REMARK SMILES CCCCCCCCCCCCCCCC(=O)[O-]
REMARK SMILES IDX 9 1 10 2 11 3 12 4 13 5 14 6 15 7 16 8 17 9 18 10 8 11 7 12
REMARK SMILES IDX 6 13 5 14 4 15 3 16 2 17 1 18
REMARK H PARENT
REMARK Flexibility Score: inf
ROOT
ATOM      1  C   UNL     1      25.268  19.600  26.174  1.00  0.00     0.000 C 
ENDROOT
BRANCH   1   2
ATOM      2  C   UNL     1      23.946  18.888  25.837  1.00  0.00     0.000 C 
BRANCH   2   3
ATOM      3  C   UNL     1      22.756  19.857  25.772  1.00  0.00     0.000 C 
BRANCH   3   4
ATOM      4  C   UNL     1      22.607  20.703  27.049  1.00  0.00     0.000 C 
BRANCH   4   5
ATOM      5  C   UNL     1      22.536  22.213  26.760  1.00  0.00     0.000 C 
BRANCH   5   6
ATOM      6  C   UNL     1      23.884  22.957  26.855  1.00  0.00     0.006 C 
BRANCH   6   7
ATOM      7  C   UNL     1      23.762  24.466  27.117  1.00  0.00     0.053 C 
BRANCH   7   8
ATOM      8  C   UNL     1      24.754  25.255  26.320  1.00  0.00     0.041 C 
ATOM      9  O   UNL     1      25.699  25.855  26.898  1.00  0.00    -0.550 OA
ATOM     10  O   UNL     1      24.655  25.301  24.936  1.00  0.00    -0.550 OA
ENDBRANCH   7   8
ENDBRANCH   6   7
ENDBRANCH   5   6
ENDBRANCH   4   5
ENDBRANCH   3   4
ENDBRANCH   2   3
ENDBRANCH   1   2
BRANCH   1  11
ATOM     11  C   UNL     1      26.027  20.062  24.919  1.00  0.00     0.000 C 
BRANCH  11  12
ATOM     12  C   UNL     1      25.878  19.086  23.742  1.00  0.00    -0.000 C 
BRANCH  12  13
ATOM     13  C   UNL     1      26.983  19.305  22.703  1.00  0.00    -0.000 C 
BRANCH  13  14
ATOM     14  C   UNL     1      28.352  18.879  23.256  1.00  0.00    -0.000 C 
BRANCH  14  15
ATOM     15  C   UNL     1      29.515  19.291  22.341  1.00  0.00    -0.000 C 
BRANCH  15  16
ATOM     16  C   UNL     1      30.133  20.641  22.739  1.00  0.00    -0.000 C 
BRANCH  16  17
ATOM     17  C   UNL     1      30.412  20.692  24.246  1.00  0.00    -0.003 C 
ATOM     18  C   UNL     1      29.335  21.486  24.979  1.00  0.00     0.004 C 
ENDBRANCH  16  17
ENDBRANCH  15  16
ENDBRANCH  14  15
ENDBRANCH  13  14
ENDBRANCH  12  13
ENDBRANCH  11  12
ENDBRANCH   1  11
TORSDOF 14
ENDMDL
MODEL 5
REMARK VINA RESULT:    -2.862     20.968     22.812
REMARK INTER + INTRA:          -6.343
REMARK INTER:                  -5.436
REMARK INTRA:                  -0.908
REMARK UNBOUND:                -1.139
REMARK SMILES CCCCCCCCCCCCCCCC(=O)[O-]
REMARK SMILES IDX 9 1 10 2 11 3 12 4 13 5 14 6 15 7 16 8 17 9 18 10 8 11 7 12
REMARK SMILES IDX 6 13 5 14 4 15 3 16 2 17 1 18
REMARK H PARENT
REMARK Flexibility Score: inf
ROOT
ATOM      1  C   UNL     1      16.453  33.775  11.148  1.00  0.00     0.000 C 
ENDROOT
BRANCH   1   2
ATOM      2  C   UNL     1      17.734  34.268  10.454  1.00  0.00     0.000 C 
BRANCH   2   3
ATOM      3  C   UNL     1      17.583  35.684   9.876  1.00  0.00     0.000 C 
BRANCH   3   4
ATOM      4  C   UNL     1      16.136  36.203   9.946  1.00  0.00     0.000 C 
BRANCH   4   5
ATOM      5  C   UNL     1      16.055  37.738  10.009  1.00  0.00     0.000 C 
BRANCH   5   6
ATOM      6  C   UNL     1      17.408  38.467   9.889  1.00  0.00     0.006 C 
BRANCH   6   7
ATOM      7  C   UNL     1      18.061  38.827  11.232  1.00  0.00     0.053 C 
BRANCH   7   8
ATOM      8  C   UNL     1      19.526  38.514  11.246  1.00  0.00     0.041 C 
ATOM      9  O   UNL     1      20.046  37.956  12.248  1.00  0.00    -0.550 OA
ATOM     10  O   UNL     1      20.310  38.809  10.138  1.00  0.00    -0.550 OA
ENDBRANCH   7   8
ENDBRANCH   6   7
ENDBRANCH   5   6
ENDBRANCH   4   5
ENDBRANCH   3   4
ENDBRANCH   2   3
ENDBRANCH   1   2
BRANCH   1  11
ATOM     11  C   UNL     1      15.762  32.639  10.377  1.00  0.00     0.000 C 
BRANCH  11  12
ATOM     12  C   UNL     1      14.338  33.006   9.930  1.00  0.00    -0.000 C 
BRANCH  12  13
ATOM     13  C   UNL     1      13.382  33.057  11.128  1.00  0.00    -0.000 C 
BRANCH  13  14
ATOM     14  C   UNL     1      13.856  32.122  12.251  1.00  0.00    -0.000 C 
BRANCH  14  15
ATOM     15  C   UNL     1      12.875  30.968  12.513  1.00  0.00    -0.000 C 
BRANCH  15  16
ATOM     16  C   UNL     1      13.582  29.612  12.664  1.00  0.00    -0.000 C 
BRANCH  16  17
ATOM     17  C   UNL     1      14.142  29.133  11.319  1.00  0.00    -0.003 C 
ATOM     18  C   UNL     1      13.098  28.342  10.537  1.00  0.00     0.004 C 
ENDBRANCH  16  17
ENDBRANCH  15  16
ENDBRANCH  14  15
ENDBRANCH  13  14
ENDBRANCH  12  13
ENDBRANCH  11  12
ENDBRANCH   1  11
TORSDOF 14
ENDMDL
MODEL 6
REMARK VINA RESULT:    -2.728     20.969     22.971
REMARK INTER + INTRA:          -6.100
REMARK INTER:                  -5.356
REMARK INTRA:                  -0.744
REMARK UNBOUND:                -1.139
REMARK SMILES CCCCCCCCCCCCCCCC(=O)[O-]
REMARK SMILES IDX 9 1 10 2 11 3 12 4 13 5 14 6 15 7 16 8 17 9 18 10 8 11 7 12
REMARK SMILES IDX 6 13 5 14 4 15 3 16 2 17 1 18
REMARK H PARENT
REMARK Flexibility Score: inf
ROOT
ATOM      1  C   UNL     1      18.617  34.245  10.931  1.00  0.00     0.000 C 
ENDROOT
BRANCH   1   2
ATOM      2  C   UNL     1      17.585  34.677   9.875  1.00  0.00     0.000 C 
BRANCH   2   3
ATOM      3  C   UNL     1      16.154  34.261  10.247  1.00  0.00     0.000 C 
BRANCH   3   4
ATOM      4  C   UNL     1      16.115  33.139  11.299  1.00  0.00     0.000 C 
BRANCH   4   5
ATOM      5  C   UNL     1      14.712  32.927  11.895  1.00  0.00     0.000 C 
BRANCH   5   6
ATOM      6  C   UNL     1      13.774  32.041  11.051  1.00  0.00     0.006 C 
BRANCH   6   7
ATOM      7  C   UNL     1      12.916  31.062  11.867  1.00  0.00     0.053 C 
BRANCH   7   8
ATOM      8  C   UNL     1      13.533  29.699  11.936  1.00  0.00     0.041 C 
ATOM      9  O   UNL     1      14.325  29.408  12.870  1.00  0.00    -0.550 OA
ATOM     10  O   UNL     1      13.207  28.739  10.986  1.00  0.00    -0.550 OA
ENDBRANCH   7   8
ENDBRANCH   6   7
ENDBRANCH   5   6
ENDBRANCH   4   5
ENDBRANCH   3   4
ENDBRANCH   2   3
ENDBRANCH   1   2
BRANCH   1  11
ATOM     11  C   UNL     1      19.582  35.379  11.315  1.00  0.00     0.000 C 
BRANCH  11  12
ATOM     12  C   UNL     1      19.952  36.272  10.121  1.00  0.00    -0.000 C 
BRANCH  12  13
ATOM     13  C   UNL     1      18.876  37.336   9.877  1.00  0.00    -0.000 C 
BRANCH  13  14
ATOM     14  C   UNL     1      18.760  38.288  11.077  1.00  0.00    -0.000 C 
BRANCH  14  15
ATOM     15  C   UNL     1      17.378  38.953  11.174  1.00  0.00    -0.000 C 
BRANCH  15  16
ATOM     16  C   UNL     1      16.405  38.458  10.092  1.00  0.00    -0.000 C 
BRANCH  16  17
ATOM     17  C   UNL     1      14.950  38.658  10.531  1.00  0.00    -0.003 C 
ATOM     18  C   UNL     1      14.161  37.356  10.435  1.00  0.00     0.004 C 
ENDBRANCH  16  17
ENDBRANCH  15  16
ENDBRANCH  14  15
ENDBRANCH  13  14
ENDBRANCH  12  13
ENDBRANCH  11  12
ENDBRANCH   1  11
TORSDOF 14
ENDMDL
MODEL 7
REMARK VINA RESULT:    -2.589      1.012      1.375
REMARK INTER + INTRA:          -5.848
REMARK INTER:                  -4.990
REMARK INTRA:                  -0.858
REMARK UNBOUND:                -1.139
REMARK SMILES CCCCCCCCCCCCCCCC(=O)[O-]
REMARK SMILES IDX 9 1 10 2 11 3 12 4 13 5 14 6 15 7 16 8 17 9 18 10 8 11 7 12
REMARK SMILES IDX 6 13 5 14 4 15 3 16 2 17 1 18
REMARK H PARENT
REMARK Flexibility Score: inf
ROOT
ATOM      1  C   UNL     1      25.063  18.907  24.973  1.00  0.00     0.000 C 
ENDROOT
BRANCH   1   2
ATOM      2  C   UNL     1      25.524  19.652  23.709  1.00  0.00     0.000 C 
BRANCH   2   3
ATOM      3  C   UNL     1      27.055  19.724  23.593  1.00  0.00     0.000 C 
BRANCH   3   4
ATOM      4  C   UNL     1      27.680  20.718  24.588  1.00  0.00     0.000 C 
BRANCH   4   5
ATOM      5  C   UNL     1      29.118  20.340  24.985  1.00  0.00     0.000 C 
BRANCH   5   6
ATOM      6  C   UNL     1      29.712  19.142  24.216  1.00  0.00     0.006 C 
BRANCH   6   7
ATOM      7  C   UNL     1      31.175  19.323  23.784  1.00  0.00     0.053 C 
BRANCH   7   8
ATOM      8  C   UNL     1      31.342  19.185  22.302  1.00  0.00     0.041 C 
ATOM      9  O   UNL     1      32.462  18.876  21.816  1.00  0.00    -0.550 OA
ATOM     10  O   UNL     1      30.253  19.363  21.459  1.00  0.00    -0.550 OA
ENDBRANCH   7   8
ENDBRANCH   6   7
ENDBRANCH   5   6
ENDBRANCH   4   5
ENDBRANCH   3   4
ENDBRANCH   2   3
ENDBRANCH   1   2
BRANCH   1  11
ATOM     11  C   UNL     1      24.334  19.824  25.968  1.00  0.00     0.000 C 
BRANCH  11  12
ATOM     12  C   UNL     1      23.273  19.080  26.793  1.00  0.00    -0.000 C 
BRANCH  12  13
ATOM     13  C   UNL     1      22.427  20.062  27.613  1.00  0.00    -0.000 C 
BRANCH  13  14
ATOM     14  C   UNL     1      22.124  21.334  26.807  1.00  0.00    -0.000 C 
BRANCH  14  15
ATOM     15  C   UNL     1      22.805  22.581  27.392  1.00  0.00    -0.000 C 
BRANCH  15  16
ATOM     16  C   UNL     1      23.568  23.391  26.332  1.00  0.00    -0.000 C 
BRANCH  16  17
ATOM     17  C   UNL     1      24.886  23.932  26.901  1.00  0.00    -0.003 C 
ATOM     18  C   UNL     1      24.964  25.450  26.764  1.00  0.00     0.004 C 
ENDBRANCH  16  17
ENDBRANCH  15  16
ENDBRANCH  14  15
ENDBRANCH  13  14
ENDBRANCH  12  13
ENDBRANCH  11  12
ENDBRANCH   1  11
TORSDOF 14
ENDMDL
MODEL 8
REMARK VINA RESULT:    -2.559      1.479      2.063
REMARK INTER + INTRA:          -5.792
REMARK INTER:                  -5.465
REMARK INTRA:                  -0.327
REMARK UNBOUND:                -1.139
REMARK SMILES CCCCCCCCCCCCCCCC(=O)[O-]
REMARK SMILES IDX 9 1 10 2 11 3 12 4 13 5 14 6 15 7 16 8 17 9 18 10 8 11 7 12
REMARK SMILES IDX 6 13 5 14 4 15 3 16 2 17 1 18
REMARK H PARENT
REMARK Flexibility Score: inf
ROOT
ATOM      1  C   UNL     1      26.304  19.180  25.328  1.00  0.00     0.000 C 
ENDROOT
BRANCH   1   2
ATOM      2  C   UNL     1      26.344  20.239  24.212  1.00  0.00     0.000 C 
BRANCH   2   3
ATOM      3  C   UNL     1      26.831  19.664  22.873  1.00  0.00     0.000 C 
BRANCH   3   4
ATOM      4  C   UNL     1      28.157  18.894  23.003  1.00  0.00     0.000 C 
BRANCH   4   5
ATOM      5  C   UNL     1      28.992  18.919  21.711  1.00  0.00     0.000 C 
BRANCH   5   6
ATOM      6  C   UNL     1      30.368  19.603  21.838  1.00  0.00     0.006 C 
BRANCH   6   7
ATOM      7  C   UNL     1      30.377  20.859  22.723  1.00  0.00     0.053 C 
BRANCH   7   8
ATOM      8  C   UNL     1      30.327  20.519  24.181  1.00  0.00     0.041 C 
ATOM      9  O   UNL     1      30.938  19.508  24.617  1.00  0.00    -0.550 OA
ATOM     10  O   UNL     1      29.634  21.338  25.063  1.00  0.00    -0.550 OA
ENDBRANCH   7   8
ENDBRANCH   6   7
ENDBRANCH   5   6
ENDBRANCH   4   5
ENDBRANCH   3   4
ENDBRANCH   2   3
ENDBRANCH   1   2
BRANCH   1  11
ATOM     11  C   UNL     1      25.397  19.590  26.499  1.00  0.00     0.000 C 
BRANCH  11  12
ATOM     12  C   UNL     1      23.999  18.958  26.418  1.00  0.00    -0.000 C 
BRANCH  12  13
ATOM     13  C   UNL     1      22.975  19.957  25.868  1.00  0.00    -0.000 C 
BRANCH  13  14
ATOM     14  C   UNL     1      22.272  20.710  27.007  1.00  0.00    -0.000 C 
BRANCH  14  15
ATOM     15  C   UNL     1      22.536  22.223  26.969  1.00  0.00    -0.000 C 
BRANCH  15  16
ATOM     16  C   UNL     1      24.010  22.561  26.694  1.00  0.00    -0.000 C 
BRANCH  16  17
ATOM     17  C   UNL     1      24.167  24.028  26.279  1.00  0.00    -0.003 C 
ATOM     18  C   UNL     1      24.400  24.923  27.493  1.00  0.00     0.004 C 
ENDBRANCH  16  17
ENDBRANCH  15  16
ENDBRANCH  14  15
ENDBRANCH  13  14
ENDBRANCH  12  13
ENDBRANCH  11  12
ENDBRANCH   1  11
TORSDOF 14
ENDMDL
