MODEL 1
REMARK VINA RESULT:    -4.167      0.000      0.000
REMARK INTER + INTRA:          -7.551
REMARK INTER:                  -6.603
REMARK INTRA:                  -0.948
REMARK UNBOUND:                -0.948
REMARK SMILES CCCCCCCCCCCC(=O)[O-]
REMARK SMILES IDX 7 1 8 2 9 3 10 4 11 5 12 6 13 7 14 8 6 9 5 10 4 11 3 12 2 13
REMARK SMILES IDX 1 14
REMARK H PARENT
REMARK Flexibility Score: inf
ROOT
ATOM      1  C   UNL     1      72.538 -36.579   6.650  1.00  0.00     0.000 C 
ENDROOT
BRANCH   1   2
ATOM      2  C   UNL     1      72.651 -35.858   8.003  1.00  0.00     0.000 C 
BRANCH   2   3
ATOM      3  C   UNL     1      72.035 -36.672   9.156  1.00  0.00     0.000 C 
BRANCH   3   4
ATOM      4  C   UNL     1      72.976 -36.788  10.365  1.00  0.00     0.006 C 
BRANCH   4   5
ATOM      5  C   UNL     1      74.388 -37.238   9.970  1.00  0.00     0.053 C 
BRANCH   5   6
ATOM      6  C   UNL     1      75.275 -37.289  11.174  1.00  0.00     0.041 C 
ATOM      7  O   UNL     1      75.097 -38.170  12.055  1.00  0.00    -0.550 OA
ATOM      8  O   UNL     1      76.267 -36.332  11.348  1.00  0.00    -0.550 OA
ENDBRANCH   5   6
ENDBRANCH   4   5
ENDBRANCH   3   4
ENDBRANCH   2   3
ENDBRANCH   1   2
BRANCH   1   9
ATOM      9  C   UNL     1      72.461 -35.599   5.466  1.00  0.00     0.000 C 
BRANCH   9  10
ATOM     10  C   UNL     1      73.081 -34.226   5.783  1.00  0.00    -0.000 C 
BRANCH  10  11
ATOM     11  C   UNL     1      72.071 -33.072   5.923  1.00  0.00    -0.000 C 
BRANCH  11  12
ATOM     12  C   UNL     1      70.617 -33.516   5.687  1.00  0.00    -0.000 C 
BRANCH  12  13
ATOM     13  C   UNL     1      69.738 -33.335   6.934  1.00  0.00    -0.003 C 
ATOM     14  C   UNL     1      69.031 -34.623   7.353  1.00  0.00     0.004 C 
ENDBRANCH  12  13
ENDBRANCH  11  12
ENDBRANCH  10  11
ENDBRANCH   9  10
ENDBRANCH   1   9
TORSDOF 10
ENDMDL
MODEL 2
REMARK VINA RESULT:    -3.972      2.370      2.740
REMARK INTER + INTRA:          -7.243
REMARK INTER:                  -6.441
REMARK INTRA:                  -0.802
REMARK UNBOUND:                -0.948
REMARK SMILES CCCCCCCCCCCC(=O)[O-]
REMARK SMILES IDX 7 1 8 2 9 3 10 4 11 5 12 6 13 7 14 8 6 9 5 10 4 11 3 12 2 13
REMARK SMILES IDX 1 14
REMARK H PARENT
REMARK Flexibility Score: inf
ROOT
ATOM      1  C   UNL     1      73.702 -36.275   7.399  1.00  0.00     0.000 C 
ENDROOT
BRANCH   1   2
ATOM      2  C   UNL     1      72.778 -36.282   8.628  1.00  0.00     0.000 C 
BRANCH   2   3
ATOM      3  C   UNL     1      73.419 -36.980   9.841  1.00  0.00     0.000 C 
BRANCH   3   4
ATOM      4  C   UNL     1      72.526 -36.928  11.091  1.00  0.00     0.006 C 
BRANCH   4   5
ATOM      5  C   UNL     1      72.280 -38.315  11.697  1.00  0.00     0.053 C 
BRANCH   5   6
ATOM      6  C   UNL     1      70.954 -38.850  11.256  1.00  0.00     0.041 C 
ATOM      7  O   UNL     1      70.688 -40.073  11.389  1.00  0.00    -0.550 OA
ATOM      8  O   UNL     1      70.030 -38.006  10.651  1.00  0.00    -0.550 OA
ENDBRANCH   5   6
ENDBRANCH   4   5
ENDBRANCH   3   4
ENDBRANCH   2   3
ENDBRANCH   1   2
BRANCH   1   9
ATOM      9  C   UNL     1      72.991 -35.773   6.131  1.00  0.00     0.000 C 
BRANCH   9  10
ATOM     10  C   UNL     1      73.342 -34.314   5.785  1.00  0.00    -0.000 C 
BRANCH  10  11
ATOM     11  C   UNL     1      72.132 -33.397   5.526  1.00  0.00    -0.000 C 
BRANCH  11  12
ATOM     12  C   UNL     1      71.457 -32.915   6.822  1.00  0.00    -0.000 C 
BRANCH  12  13
ATOM     13  C   UNL     1      69.939 -33.152   6.817  1.00  0.00    -0.003 C 
ATOM     14  C   UNL     1      69.564 -34.601   7.129  1.00  0.00     0.004 C 
ENDBRANCH  12  13
ENDBRANCH  11  12
ENDBRANCH  10  11
ENDBRANCH   9  10
ENDBRANCH   1   9
TORSDOF 10
ENDMDL
MODEL 3
REMARK VINA RESULT:    -3.940      9.985     12.076
REMARK INTER + INTRA:          -7.192
REMARK INTER:                  -6.560
REMARK INTRA:                  -0.632
REMARK UNBOUND:                -0.948
REMARK SMILES CCCCCCCCCCCC(=O)[O-]
REMARK SMILES IDX 7 1 8 2 9 3 10 4 11 5 12 6 13 7 14 8 6 9 5 10 4 11 3 12 2 13
REMARK SMILES IDX 1 14
REMARK H PARENT
REMARK Flexibility Score: inf
ROOT
ATOM      1  C   UNL     1      62.346 -31.577  14.387  1.00  0.00     0.000 C 
ENDROOT
BRANCH   1   2
ATOM      2  C   UNL     1      62.444 -32.949  13.700  1.00  0.00     0.000 C 
BRANCH   2   3
ATOM      3  C   UNL     1      63.004 -32.851  12.270  1.00  0.00     0.000 C 
BRANCH   3   4
ATOM      4  C   UNL     1      64.070 -33.920  11.980  1.00  0.00     0.006 C 
BRANCH   4   5
ATOM      5  C   UNL     1      63.870 -35.191  12.814  1.00  0.00     0.053 C 
BRANCH   5   6
ATOM      6  C   UNL     1      65.096 -35.484  13.621  1.00  0.00     0.041 C 
ATOM      7  O   UNL     1      65.111 -35.251  14.858  1.00  0.00    -0.550 OA
ATOM      8  O   UNL     1      66.240 -35.967  12.998  1.00  0.00    -0.550 OA
ENDBRANCH   5   6
ENDBRANCH   4   5
ENDBRANCH   3   4
ENDBRANCH   2   3
ENDBRANCH   1   2
BRANCH   1   9
ATOM      9  C   UNL     1      62.900 -30.439  13.513  1.00  0.00     0.000 C 
BRANCH   9  10
ATOM     10  C   UNL     1      63.432 -29.253  14.339  1.00  0.00    -0.000 C 
BRANCH  10  11
ATOM     11  C   UNL     1      62.409 -28.617  15.298  1.00  0.00    -0.000 C 
BRANCH  11  12
ATOM     12  C   UNL     1      61.939 -27.227  14.836  1.00  0.00    -0.000 C 
BRANCH  12  13
ATOM     13  C   UNL     1      62.958 -26.537  13.917  1.00  0.00    -0.003 C 
ATOM     14  C   UNL     1      62.384 -26.197  12.542  1.00  0.00     0.004 C 
ENDBRANCH  12  13
ENDBRANCH  11  12
ENDBRANCH  10  11
ENDBRANCH   9  10
ENDBRANCH   1   9
TORSDOF 10
ENDMDL
MODEL 4
REMARK VINA RESULT:    -3.915      2.160      3.541
REMARK INTER + INTRA:          -7.153
REMARK INTER:                  -6.089
REMARK INTRA:                  -1.064
REMARK UNBOUND:                -0.948
REMARK SMILES CCCCCCCCCCCC(=O)[O-]
REMARK SMILES IDX 7 1 8 2 9 3 10 4 11 5 12 6 13 7 14 8 6 9 5 10 4 11 3 12 2 13
REMARK SMILES IDX 1 14
REMARK H PARENT
REMARK Flexibility Score: inf
ROOT
ATOM      1  C   UNL     1      69.367 -36.193   6.763  1.00  0.00     0.000 C 
ENDROOT
BRANCH   1   2
ATOM      2  C   UNL     1      69.457 -37.410   7.697  1.00  0.00     0.000 C 
BRANCH   2   3
ATOM      3  C   UNL     1      68.689 -37.198   9.015  1.00  0.00     0.000 C 
BRANCH   3   4
ATOM      4  C   UNL     1      69.381 -37.867  10.214  1.00  0.00     0.006 C 
BRANCH   4   5
ATOM      5  C   UNL     1      70.884 -37.568  10.268  1.00  0.00     0.053 C 
BRANCH   5   6
ATOM      6  C   UNL     1      71.564 -38.483  11.237  1.00  0.00     0.041 C 
ATOM      7  O   UNL     1      71.042 -39.589  11.537  1.00  0.00    -0.550 OA
ATOM      8  O   UNL     1      72.749 -38.093  11.847  1.00  0.00    -0.550 OA
ENDBRANCH   5   6
ENDBRANCH   4   5
ENDBRANCH   3   4
ENDBRANCH   2   3
ENDBRANCH   1   2
BRANCH   1   9
ATOM      9  C   UNL     1      68.722 -34.974   7.445  1.00  0.00     0.000 C 
BRANCH   9  10
ATOM     10  C   UNL     1      69.444 -33.653   7.117  1.00  0.00    -0.000 C 
BRANCH  10  11
ATOM     11  C   UNL     1      70.480 -33.742   5.981  1.00  0.00    -0.000 C 
BRANCH  11  12
ATOM     12  C   UNL     1      71.907 -33.400   6.444  1.00  0.00    -0.000 C 
BRANCH  12  13
ATOM     13  C   UNL     1      72.831 -34.627   6.457  1.00  0.00    -0.003 C 
ATOM     14  C   UNL     1      72.737 -35.427   7.756  1.00  0.00     0.004 C 
ENDBRANCH  12  13
ENDBRANCH  11  12
ENDBRANCH  10  11
ENDBRANCH   9  10
ENDBRANCH   1   9
TORSDOF 10
ENDMDL
MODEL 5
REMARK VINA RESULT:    -3.907     11.124     14.135
REMARK INTER + INTRA:          -7.139
REMARK INTER:                  -6.217
REMARK INTRA:                  -0.922
REMARK UNBOUND:                -0.948
REMARK SMILES CCCCCCCCCCCC(=O)[O-]
REMARK SMILES IDX 7 1 8 2 9 3 10 4 11 5 12 6 13 7 14 8 6 9 5 10 4 11 3 12 2 13
REMARK SMILES IDX 1 14
REMARK H PARENT
REMARK Flexibility Score: inf
ROOT
ATOM      1  C   UNL     1      72.176 -32.072  22.405  1.00  0.00     0.000 C 
ENDROOT
BRANCH   1   2
ATOM      2  C   UNL     1      72.142 -32.678  20.993  1.00  0.00     0.000 C 
BRANCH   2   3
ATOM      3  C   UNL     1      71.913 -31.616  19.902  1.00  0.00     0.000 C 
BRANCH   3   4
ATOM      4  C   UNL     1      73.212 -31.218  19.185  1.00  0.00     0.006 C 
BRANCH   4   5
ATOM      5  C   UNL     1      73.127 -29.829  18.541  1.00  0.00     0.053 C 
BRANCH   5   6
ATOM      6  C   UNL     1      72.696 -29.942  17.112  1.00  0.00     0.041 C 
ATOM      7  O   UNL     1      72.895 -31.008  16.472  1.00  0.00    -0.550 OA
ATOM      8  O   UNL     1      72.119 -28.852  16.473  1.00  0.00    -0.550 OA
ENDBRANCH   5   6
ENDBRANCH   4   5
ENDBRANCH   3   4
ENDBRANCH   2   3
ENDBRANCH   1   2
BRANCH   1   9
ATOM      9  C   UNL     1      73.468 -32.419  23.164  1.00  0.00     0.000 C 
BRANCH   9  10
ATOM     10  C   UNL     1      74.634 -32.786  22.227  1.00  0.00    -0.000 C 
BRANCH  10  11
ATOM     11  C   UNL     1      75.521 -33.948  22.714  1.00  0.00    -0.000 C 
BRANCH  11  12
ATOM     12  C   UNL     1      75.116 -35.305  22.112  1.00  0.00    -0.000 C 
BRANCH  12  13
ATOM     13  C   UNL     1      73.971 -35.974  22.889  1.00  0.00    -0.003 C 
ATOM     14  C   UNL     1      72.863 -36.499  21.978  1.00  0.00     0.004 C 
ENDBRANCH  12  13
ENDBRANCH  11  12
ENDBRANCH  10  11
ENDBRANCH   9  10
ENDBRANCH   1   9
TORSDOF 10
ENDMDL
MODEL 6
REMARK VINA RESULT:    -3.905      1.852      3.072
REMARK INTER + INTRA:          -7.136
REMARK INTER:                  -6.581
REMARK INTRA:                  -0.555
REMARK UNBOUND:                -0.948
REMARK SMILES CCCCCCCCCCCC(=O)[O-]
REMARK SMILES IDX 7 1 8 2 9 3 10 4 11 5 12 6 13 7 14 8 6 9 5 10 4 11 3 12 2 13
REMARK SMILES IDX 1 14
REMARK H PARENT
REMARK Flexibility Score: inf
ROOT
ATOM      1  C   UNL     1      70.669 -37.466   9.328  1.00  0.00     0.000 C 
ENDROOT
BRANCH   1   2
ATOM      2  C   UNL     1      70.720 -38.530  10.437  1.00  0.00     0.000 C 
BRANCH   2   3
ATOM      3  C   UNL     1      71.548 -38.073  11.652  1.00  0.00     0.000 C 
BRANCH   3   4
ATOM      4  C   UNL     1      72.726 -37.168  11.256  1.00  0.00     0.006 C 
BRANCH   4   5
ATOM      5  C   UNL     1      74.082 -37.868  11.408  1.00  0.00     0.053 C 
BRANCH   5   6
ATOM      6  C   UNL     1      75.114 -37.196  10.558  1.00  0.00     0.041 C 
ATOM      7  O   UNL     1      74.954 -37.113   9.312  1.00  0.00    -0.550 OA
ATOM      8  O   UNL     1      76.278 -36.704  11.137  1.00  0.00    -0.550 OA
ENDBRANCH   5   6
ENDBRANCH   4   5
ENDBRANCH   3   4
ENDBRANCH   2   3
ENDBRANCH   1   2
BRANCH   1   9
ATOM      9  C   UNL     1      69.230 -37.079   8.949  1.00  0.00     0.000 C 
BRANCH   9  10
ATOM     10  C   UNL     1      68.964 -37.169   7.435  1.00  0.00    -0.000 C 
BRANCH  10  11
ATOM     11  C   UNL     1      69.297 -35.893   6.638  1.00  0.00    -0.000 C 
BRANCH  11  12
ATOM     12  C   UNL     1      69.080 -34.605   7.451  1.00  0.00    -0.000 C 
BRANCH  12  13
ATOM     13  C   UNL     1      69.740 -33.380   6.799  1.00  0.00    -0.003 C 
ATOM     14  C   UNL     1      71.241 -33.298   7.073  1.00  0.00     0.004 C 
ENDBRANCH  12  13
ENDBRANCH  11  12
ENDBRANCH  10  11
ENDBRANCH   9  10
ENDBRANCH   1   9
TORSDOF 10
ENDMDL
MODEL 7
REMARK VINA RESULT:    -3.902      3.589      6.618
REMARK INTER + INTRA:          -7.131
REMARK INTER:                  -6.510
REMARK INTRA:                  -0.621
REMARK UNBOUND:                -0.948
REMARK SMILES CCCCCCCCCCCC(=O)[O-]
REMARK SMILES IDX 7 1 8 2 9 3 10 4 11 5 12 6 13 7 14 8 6 9 5 10 4 11 3 12 2 13
REMARK SMILES IDX 1 14
REMARK H PARENT
REMARK Flexibility Score: inf
ROOT
ATOM      1  C   UNL     1      69.928 -37.934   9.082  1.00  0.00     0.000 C 
ENDROOT
BRANCH   1   2
ATOM      2  C   UNL     1      70.359 -36.913   8.016  1.00  0.00     0.000 C 
BRANCH   2   3
ATOM      3  C   UNL     1      71.739 -36.299   8.314  1.00  0.00     0.000 C 
BRANCH   3   4
ATOM      4  C   UNL     1      72.265 -35.442   7.152  1.00  0.00     0.006 C 
BRANCH   4   5
ATOM      5  C   UNL     1      71.978 -33.948   7.346  1.00  0.00     0.053 C 
BRANCH   5   6
ATOM      6  C   UNL     1      70.794 -33.534   6.529  1.00  0.00     0.041 C 
ATOM      7  O   UNL     1      70.951 -33.126   5.348  1.00  0.00    -0.550 OA
ATOM      8  O   UNL     1      69.523 -33.551   7.088  1.00  0.00    -0.550 OA
ENDBRANCH   5   6
ENDBRANCH   4   5
ENDBRANCH   3   4
ENDBRANCH   2   3
ENDBRANCH   1   2
BRANCH   1   9
ATOM      9  C   UNL     1      70.467 -37.588  10.481  1.00  0.00     0.000 C 
BRANCH   9  10
ATOM     10  C   UNL     1      71.426 -38.658  11.035  1.00  0.00    -0.000 C 
BRANCH  10  11
ATOM     11  C   UNL     1      72.594 -38.113  11.876  1.00  0.00    -0.000 C 
BRANCH  11  12
ATOM     12  C   UNL     1      73.732 -37.532  11.017  1.00  0.00    -0.000 C 
BRANCH  12  13
ATOM     13  C   UNL     1      75.122 -37.864  11.580  1.00  0.00    -0.003 C 
ATOM     14  C   UNL     1      76.171 -36.809  11.231  1.00  0.00     0.004 C 
ENDBRANCH  12  13
ENDBRANCH  11  12
ENDBRANCH  10  11
ENDBRANCH   9  10
ENDBRANCH   1   9
TORSDOF 10
ENDMDL
MODEL 8
REMARK VINA RESULT:    -3.901      1.423      2.824
REMARK INTER + INTRA:          -7.129
REMARK INTER:                  -6.489
REMARK INTRA:                  -0.640
REMARK UNBOUND:                -0.948
REMARK SMILES CCCCCCCCCCCC(=O)[O-]
REMARK SMILES IDX 7 1 8 2 9 3 10 4 11 5 12 6 13 7 14 8 6 9 5 10 4 11 3 12 2 13
REMARK SMILES IDX 1 14
REMARK H PARENT
REMARK Flexibility Score: inf
ROOT
ATOM      1  C   UNL     1      69.307 -36.919   8.243  1.00  0.00     0.000 C 
ENDROOT
BRANCH   1   2
ATOM      2  C   UNL     1      70.615 -37.095   9.032  1.00  0.00     0.000 C 
BRANCH   2   3
ATOM      3  C   UNL     1      70.468 -38.086  10.201  1.00  0.00     0.000 C 
BRANCH   3   4
ATOM      4  C   UNL     1      71.748 -38.197  11.043  1.00  0.00     0.006 C 
BRANCH   4   5
ATOM      5  C   UNL     1      72.693 -37.007  10.838  1.00  0.00     0.053 C 
BRANCH   5   6
ATOM      6  C   UNL     1      74.113 -37.474  10.768  1.00  0.00     0.041 C 
ATOM      7  O   UNL     1      74.796 -37.273   9.729  1.00  0.00    -0.550 OA
ATOM      8  O   UNL     1      74.668 -38.175  11.831  1.00  0.00    -0.550 OA
ENDBRANCH   5   6
ENDBRANCH   4   5
ENDBRANCH   3   4
ENDBRANCH   2   3
ENDBRANCH   1   2
BRANCH   1   9
ATOM      9  C   UNL     1      69.448 -35.916   7.085  1.00  0.00     0.000 C 
BRANCH   9  10
ATOM     10  C   UNL     1      69.065 -34.479   7.487  1.00  0.00    -0.000 C 
BRANCH  10  11
ATOM     11  C   UNL     1      69.823 -33.369   6.736  1.00  0.00    -0.000 C 
BRANCH  11  12
ATOM     12  C   UNL     1      70.919 -33.915   5.805  1.00  0.00    -0.000 C 
BRANCH  12  13
ATOM     13  C   UNL     1      72.326 -33.765   6.403  1.00  0.00    -0.003 C 
ATOM     14  C   UNL     1      73.307 -34.817   5.885  1.00  0.00     0.004 C 
ENDBRANCH  12  13
ENDBRANCH  11  12
ENDBRANCH  10  11
ENDBRANCH   9  10
ENDBRANCH   1   9
TORSDOF 10
ENDMDL
MODEL 9
REMARK VINA RESULT:    -3.879      2.659      5.732
REMARK INTER + INTRA:          -7.094
REMARK INTER:                  -6.320
REMARK INTRA:                  -0.774
REMARK UNBOUND:                -0.948
REMARK SMILES CCCCCCCCCCCC(=O)[O-]
REMARK SMILES IDX 7 1 8 2 9 3 10 4 11 5 12 6 13 7 14 8 6 9 5 10 4 11 3 12 2 13
REMARK SMILES IDX 1 14
REMARK H PARENT
REMARK Flexibility Score: inf
ROOT
ATOM      1  C   UNL     1      69.377 -36.050   6.838  1.00  0.00     0.000 C 
ENDROOT
BRANCH   1   2
ATOM      2  C   UNL     1      68.813 -34.805   7.541  1.00  0.00     0.000 C 
BRANCH   2   3
ATOM      3  C   UNL     1      69.481 -33.504   7.059  1.00  0.00     0.000 C 
BRANCH   3   4
ATOM      4  C   UNL     1      70.488 -33.745   5.923  1.00  0.00     0.006 C 
BRANCH   4   5
ATOM      5  C   UNL     1      71.871 -33.158   6.228  1.00  0.00     0.053 C 
BRANCH   5   6
ATOM      6  C   UNL     1      72.877 -34.253   6.396  1.00  0.00     0.041 C 
ATOM      7  O   UNL     1      72.896 -34.940   7.451  1.00  0.00    -0.550 OA
ATOM      8  O   UNL     1      73.828 -34.482   5.409  1.00  0.00    -0.550 OA
ENDBRANCH   5   6
ENDBRANCH   4   5
ENDBRANCH   3   4
ENDBRANCH   2   3
ENDBRANCH   1   2
BRANCH   1   9
ATOM      9  C   UNL     1      69.464 -37.267   7.775  1.00  0.00     0.000 C 
BRANCH   9  10
ATOM     10  C   UNL     1      70.479 -37.072   8.917  1.00  0.00    -0.000 C 
BRANCH  10  11
ATOM     11  C   UNL     1      70.220 -37.928  10.171  1.00  0.00    -0.000 C 
BRANCH  11  12
ATOM     12  C   UNL     1      71.416 -37.949  11.139  1.00  0.00    -0.000 C 
BRANCH  12  13
ATOM     13  C   UNL     1      72.627 -37.175  10.595  1.00  0.00    -0.003 C 
ATOM     14  C   UNL     1      73.938 -37.573  11.272  1.00  0.00     0.004 C 
ENDBRANCH  12  13
ENDBRANCH  11  12
ENDBRANCH  10  11
ENDBRANCH   9  10
ENDBRANCH   1   9
TORSDOF 10
ENDMDL
