MODEL 1
REMARK VINA RESULT:    -4.658      0.000      0.000
REMARK INTER + INTRA:         -10.843
REMARK INTER:                  -7.653
REMARK INTRA:                  -3.190
REMARK UNBOUND:                -3.190
REMARK SMILES C[C@@H]1O[C@@H](OC[C@H]2O[C@H](Oc3c(-c4ccc(O)c(O)c4)oc4cc(O)cc(O)c4c3=O)[C@@H](O)[C@H](O)[C@H]2O)[C@@H](O)[C@H](O)[C@@H]1O
REMARK SMILES IDX 7 1 36 2 34 3 32 4 9 5 8 6 6 7 5 8 4 9 1 10 2 11 42 12 3 13
REMARK SMILES IDX 40 14 38 15 43 16 41 18 39 20 37 22 35 24 10 26 11 27 12 28
REMARK SMILES IDX 30 29 21 30 29 31 31 32 22 33 27 34 23 35 26 36 24 37 13 38
REMARK SMILES IDX 20 39 14 40 18 41 15 42 16 43 19 44 17 46 28 48 25 50 33 52
REMARK H PARENT 43 17 41 19 39 21 37 23 35 25 19 45 17 47 28 49 25 51 33 53
REMARK Flexibility Score: inf
ROOT
ATOM      1  C   UNL     1     108.531   1.553 -28.911  1.00  0.00     0.180 C 
ATOM      2  C   UNL     1     108.846   1.522 -30.431  1.00  0.00     0.177 C 
ATOM      3  C   UNL     1     109.988   2.487 -30.766  1.00  0.00     0.180 C 
ATOM      4  C   UNL     1     109.678   3.882 -30.197  1.00  0.00     0.214 C 
ATOM      5  C   UNL     1     109.346   3.781 -28.692  1.00  0.00     0.339 C 
ATOM      6  O   UNL     1     108.274   2.875 -28.451  1.00  0.00    -0.332 OA
ENDROOT
BRANCH   1   7
ATOM      7  C   UNL     1     109.558   0.804 -28.022  1.00  0.00     0.198 C 
BRANCH   7   8
ATOM      8  O   UNL     1     108.906  -0.210 -27.279  1.00  0.00    -0.347 OA
BRANCH   8   9
ATOM      9  C   UNL     1     109.432  -1.505 -27.563  1.00  0.00     0.281 C 
ATOM     10  C   UNL     1     107.008  -2.537 -30.146  1.00  0.00     0.041 C 
ATOM     11  C   UNL     1     107.504  -2.159 -28.748  1.00  0.00     0.150 C 
ATOM     12  C   UNL     1     107.111  -3.235 -27.716  1.00  0.00     0.174 C 
ATOM     13  O   UNL     1     108.912  -1.997 -28.793  1.00  0.00    -0.344 OA
ATOM     14  C   UNL     1     107.627  -2.796 -26.332  1.00  0.00     0.179 C 
ATOM     15  C   UNL     1     109.138  -2.483 -26.397  1.00  0.00     0.202 C 
BRANCH  12  16
ATOM     16  O   UNL     1     107.676  -4.471 -28.083  1.00  0.00    -0.388 OA
ATOM     17  H   UNL     1     108.657  -4.390 -27.967  1.00  0.00     0.211 HD
ENDBRANCH  12  16
BRANCH  14  18
ATOM     18  O   UNL     1     107.342  -3.765 -25.355  1.00  0.00    -0.387 OA
ATOM     19  H   UNL     1     107.565  -4.659 -25.725  1.00  0.00     0.211 HD
ENDBRANCH  14  18
BRANCH  15  20
ATOM     20  O   UNL     1     109.555  -1.936 -25.167  1.00  0.00    -0.385 OA
ATOM     21  H   UNL     1     110.517  -2.153 -25.070  1.00  0.00     0.211 HD
ENDBRANCH  15  20
ENDBRANCH   8   9
ENDBRANCH   7   8
ENDBRANCH   1   7
BRANCH   2  22
ATOM     22  O   UNL     1     109.176   0.228 -30.869  1.00  0.00    -0.387 OA
ATOM     23  H   UNL     1     109.981  -0.050 -30.366  1.00  0.00     0.211 HD
ENDBRANCH   2  22
BRANCH   3  24
ATOM     24  O   UNL     1     110.197   2.546 -32.156  1.00  0.00    -0.387 OA
ATOM     25  H   UNL     1     111.049   2.075 -32.353  1.00  0.00     0.211 HD
ENDBRANCH   3  24
BRANCH   5  26
ATOM     26  O   UNL     1     108.937   5.066 -28.215  1.00  0.00    -0.454 OA
BRANCH  26  27
ATOM     27  C   UNL     1     109.590   5.757 -27.185  1.00  0.00     0.214 A 
ATOM     28  C   UNL     1     109.334   5.426 -25.845  1.00  0.00     0.180 A 
ATOM     29  C   UNL     1     110.496   6.792 -27.471  1.00  0.00     0.239 A 
ATOM     30  O   UNL     1     109.891   6.138 -24.873  1.00  0.00    -0.452 OA
ATOM     31  C   UNL     1     111.107   7.505 -26.411  1.00  0.00     0.111 A 
ATOM     32  O   UNL     1     110.740   7.071 -28.674  1.00  0.00    -0.285 OA
ATOM     33  C   UNL     1     110.729   7.144 -25.091  1.00  0.00     0.146 A 
ATOM     34  C   UNL     1     112.039   8.574 -26.582  1.00  0.00     0.134 A 
ATOM     35  C   UNL     1     111.230   7.845 -23.991  1.00  0.00     0.094 A 
ATOM     36  C   UNL     1     112.494   9.277 -25.462  1.00  0.00     0.093 A 
ATOM     37  C   UNL     1     112.102   8.913 -24.172  1.00  0.00     0.123 A 
BRANCH  28  38
ATOM     38  C   UNL     1     108.418   4.327 -25.470  1.00  0.00     0.025 A 
ATOM     39  C   UNL     1     108.949   3.076 -25.117  1.00  0.00     0.062 A 
ATOM     40  C   UNL     1     107.021   4.493 -25.501  1.00  0.00     0.016 A 
ATOM     41  C   UNL     1     108.102   2.014 -24.769  1.00  0.00     0.158 A 
ATOM     42  C   UNL     1     106.175   3.435 -25.151  1.00  0.00     0.051 A 
ATOM     43  C   UNL     1     106.713   2.195 -24.782  1.00  0.00     0.157 A 
BRANCH  41  44
ATOM     44  O   UNL     1     108.635   0.776 -24.405  1.00  0.00    -0.504 OA
ATOM     45  H   UNL     1     108.731   0.022 -25.077  1.00  0.00     0.293 HD
ENDBRANCH  41  44
BRANCH  43  46
ATOM     46  O   UNL     1     105.875   1.141 -24.429  1.00  0.00    -0.504 OA
ATOM     47  H   UNL     1     104.880   1.270 -24.298  1.00  0.00     0.293 HD
ENDBRANCH  43  46
ENDBRANCH  28  38
BRANCH  34  48
ATOM     48  O   UNL     1     112.562   8.973 -27.815  1.00  0.00    -0.507 OA
ATOM     49  H   UNL     1     112.463   9.897 -28.214  1.00  0.00     0.293 HD
ENDBRANCH  34  48
BRANCH  37  50
ATOM     50  O   UNL     1     112.585   9.600 -23.058  1.00  0.00    -0.508 OA
ATOM     51  H   UNL     1     111.960  10.002 -22.367  1.00  0.00     0.293 HD
ENDBRANCH  37  50
ENDBRANCH  26  27
ENDBRANCH   5  26
BRANCH   4  52
ATOM     52  O   UNL     1     110.794   4.720 -30.377  1.00  0.00    -0.384 OA
ATOM     53  H   UNL     1     111.601   4.174 -30.187  1.00  0.00     0.211 HD
ENDBRANCH   4  52
TORSDOF 16
ENDMDL
MODEL 2
REMARK VINA RESULT:    -4.627      1.053      1.928
REMARK INTER + INTRA:         -10.792
REMARK INTER:                  -7.635
REMARK INTRA:                  -3.157
REMARK UNBOUND:                -3.190
REMARK SMILES C[C@@H]1O[C@@H](OC[C@H]2O[C@H](Oc3c(-c4ccc(O)c(O)c4)oc4cc(O)cc(O)c4c3=O)[C@@H](O)[C@H](O)[C@H]2O)[C@@H](O)[C@H](O)[C@@H]1O
REMARK SMILES IDX 7 1 36 2 34 3 32 4 9 5 8 6 6 7 5 8 4 9 1 10 2 11 42 12 3 13
REMARK SMILES IDX 40 14 38 15 43 16 41 18 39 20 37 22 35 24 10 26 11 27 12 28
REMARK SMILES IDX 30 29 21 30 29 31 31 32 22 33 27 34 23 35 26 36 24 37 13 38
REMARK SMILES IDX 20 39 14 40 18 41 15 42 16 43 19 44 17 46 28 48 25 50 33 52
REMARK H PARENT 43 17 41 19 39 21 37 23 35 25 19 45 17 47 28 49 25 51 33 53
REMARK Flexibility Score: inf
ROOT
ATOM      1  C   UNL     1     109.339   1.608 -29.055  1.00  0.00     0.180 C 
ATOM      2  C   UNL     1     109.152   1.676 -30.594  1.00  0.00     0.177 C 
ATOM      3  C   UNL     1     109.814   2.936 -31.163  1.00  0.00     0.180 C 
ATOM      4  C   UNL     1     109.325   4.176 -30.395  1.00  0.00     0.214 C 
ATOM      5  C   UNL     1     109.529   3.976 -28.877  1.00  0.00     0.339 C 
ATOM      6  O   UNL     1     108.885   2.794 -28.413  1.00  0.00    -0.332 OA
ENDROOT
BRANCH   1   7
ATOM      7  C   UNL     1     110.760   1.191 -28.594  1.00  0.00     0.198 C 
BRANCH   7   8
ATOM      8  O   UNL     1     110.807  -0.209 -28.377  1.00  0.00    -0.347 OA
BRANCH   8   9
ATOM      9  C   UNL     1     109.624  -0.693 -27.744  1.00  0.00     0.281 C 
ATOM     10  C   UNL     1     111.093  -1.694 -24.511  1.00  0.00     0.041 C 
ATOM     11  C   UNL     1     110.835  -1.745 -26.019  1.00  0.00     0.150 C 
ATOM     12  C   UNL     1     110.426  -3.165 -26.459  1.00  0.00     0.174 C 
ATOM     13  O   UNL     1     109.821  -0.807 -26.339  1.00  0.00    -0.344 OA
ATOM     14  C   UNL     1     110.191  -3.155 -27.982  1.00  0.00     0.179 C 
ATOM     15  C   UNL     1     109.187  -2.045 -28.363  1.00  0.00     0.202 C 
BRANCH  12  16
ATOM     16  O   UNL     1     109.254  -3.550 -25.782  1.00  0.00    -0.388 OA
ATOM     17  H   UNL     1     108.631  -2.780 -25.814  1.00  0.00     0.211 HD
ENDBRANCH  12  16
BRANCH  14  18
ATOM     18  O   UNL     1     109.764  -4.415 -28.435  1.00  0.00    -0.387 OA
ATOM     19  H   UNL     1     110.157  -4.575 -29.333  1.00  0.00     0.211 HD
ENDBRANCH  14  18
BRANCH  15  20
ATOM     20  O   UNL     1     109.105  -1.950 -29.767  1.00  0.00    -0.385 OA
ATOM     21  H   UNL     1     109.471  -1.063 -30.014  1.00  0.00     0.211 HD
ENDBRANCH  15  20
ENDBRANCH   8   9
ENDBRANCH   7   8
ENDBRANCH   1   7
BRANCH   2  22
ATOM     22  O   UNL     1     109.671   0.538 -31.235  1.00  0.00    -0.387 OA
ATOM     23  H   UNL     1     108.898  -0.018 -31.503  1.00  0.00     0.211 HD
ENDBRANCH   2  22
BRANCH   3  24
ATOM     24  O   UNL     1     109.546   3.059 -32.539  1.00  0.00    -0.387 OA
ATOM     25  H   UNL     1     109.591   4.024 -32.770  1.00  0.00     0.211 HD
ENDBRANCH   3  24
BRANCH   5  26
ATOM     26  O   UNL     1     108.953   5.082 -28.177  1.00  0.00    -0.454 OA
BRANCH  26  27
ATOM     27  C   UNL     1     109.606   5.779 -27.151  1.00  0.00     0.214 A 
ATOM     28  C   UNL     1     109.347   5.457 -25.809  1.00  0.00     0.180 A 
ATOM     29  C   UNL     1     110.516   6.809 -27.443  1.00  0.00     0.239 A 
ATOM     30  O   UNL     1     109.905   6.174 -24.841  1.00  0.00    -0.452 OA
ATOM     31  C   UNL     1     111.127   7.528 -26.386  1.00  0.00     0.111 A 
ATOM     32  O   UNL     1     110.762   7.079 -28.647  1.00  0.00    -0.285 OA
ATOM     33  C   UNL     1     110.746   7.177 -25.064  1.00  0.00     0.146 A 
ATOM     34  C   UNL     1     112.061   8.593 -26.563  1.00  0.00     0.134 A 
ATOM     35  C   UNL     1     111.247   7.883 -23.968  1.00  0.00     0.094 A 
ATOM     36  C   UNL     1     112.517   9.303 -25.447  1.00  0.00     0.093 A 
ATOM     37  C   UNL     1     112.122   8.948 -24.156  1.00  0.00     0.123 A 
BRANCH  28  38
ATOM     38  C   UNL     1     108.428   4.363 -25.428  1.00  0.00     0.025 A 
ATOM     39  C   UNL     1     108.956   3.128 -25.018  1.00  0.00     0.062 A 
ATOM     40  C   UNL     1     107.031   4.516 -25.509  1.00  0.00     0.016 A 
ATOM     41  C   UNL     1     108.106   2.071 -24.663  1.00  0.00     0.158 A 
ATOM     42  C   UNL     1     106.183   3.464 -25.152  1.00  0.00     0.051 A 
ATOM     43  C   UNL     1     106.717   2.241 -24.726  1.00  0.00     0.157 A 
BRANCH  41  44
ATOM     44  O   UNL     1     108.637   0.850 -24.243  1.00  0.00    -0.504 OA
ATOM     45  H   UNL     1     109.605   0.604 -24.419  1.00  0.00     0.293 HD
ENDBRANCH  41  44
BRANCH  43  46
ATOM     46  O   UNL     1     105.876   1.191 -24.366  1.00  0.00    -0.504 OA
ATOM     47  H   UNL     1     105.170   0.832 -24.995  1.00  0.00     0.293 HD
ENDBRANCH  43  46
ENDBRANCH  28  38
BRANCH  34  48
ATOM     48  O   UNL     1     112.587   8.982 -27.798  1.00  0.00    -0.507 OA
ATOM     49  H   UNL     1     112.158   8.795 -28.694  1.00  0.00     0.293 HD
ENDBRANCH  34  48
BRANCH  37  50
ATOM     50  O   UNL     1     112.605   9.642 -23.045  1.00  0.00    -0.508 OA
ATOM     51  H   UNL     1     112.997   9.159 -22.244  1.00  0.00     0.293 HD
ENDBRANCH  37  50
ENDBRANCH  26  27
ENDBRANCH   5  26
BRANCH   4  52
ATOM     52  O   UNL     1     110.048   5.305 -30.821  1.00  0.00    -0.384 OA
ATOM     53  H   UNL     1     110.846   5.379 -30.236  1.00  0.00     0.211 HD
ENDBRANCH   4  52
TORSDOF 16
ENDMDL
MODEL 3
REMARK VINA RESULT:    -4.531      7.665     11.996
REMARK INTER + INTRA:         -10.634
REMARK INTER:                  -7.199
REMARK INTRA:                  -3.435
REMARK UNBOUND:                -3.190
REMARK SMILES C[C@@H]1O[C@@H](OC[C@H]2O[C@H](Oc3c(-c4ccc(O)c(O)c4)oc4cc(O)cc(O)c4c3=O)[C@@H](O)[C@H](O)[C@H]2O)[C@@H](O)[C@H](O)[C@@H]1O
REMARK SMILES IDX 7 1 36 2 34 3 32 4 9 5 8 6 6 7 5 8 4 9 1 10 2 11 42 12 3 13
REMARK SMILES IDX 40 14 38 15 43 16 41 18 39 20 37 22 35 24 10 26 11 27 12 28
REMARK SMILES IDX 30 29 21 30 29 31 31 32 22 33 27 34 23 35 26 36 24 37 13 38
REMARK SMILES IDX 20 39 14 40 18 41 15 42 16 43 19 44 17 46 28 48 25 50 33 52
REMARK H PARENT 43 17 41 19 39 21 37 23 35 25 19 45 17 47 28 49 25 51 33 53
REMARK Flexibility Score: inf
ROOT
ATOM      1  C   UNL     1     111.028   6.016 -37.245  1.00  0.00     0.180 C 
ATOM      2  C   UNL     1     109.975   4.875 -37.246  1.00  0.00     0.177 C 
ATOM      3  C   UNL     1     109.190   4.864 -35.930  1.00  0.00     0.180 C 
ATOM      4  C   UNL     1     110.164   4.847 -34.740  1.00  0.00     0.214 C 
ATOM      5  C   UNL     1     111.182   6.001 -34.868  1.00  0.00     0.339 C 
ATOM      6  O   UNL     1     111.881   5.949 -36.108  1.00  0.00    -0.332 OA
ENDROOT
BRANCH   1   7
ATOM      7  C   UNL     1     110.444   7.435 -37.467  1.00  0.00     0.198 C 
BRANCH   7   8
ATOM      8  O   UNL     1     110.414   7.736 -38.851  1.00  0.00    -0.347 OA
BRANCH   8   9
ATOM      9  C   UNL     1     111.686   7.545 -39.469  1.00  0.00     0.281 C 
ATOM     10  C   UNL     1     112.338  11.029 -40.494  1.00  0.00     0.041 C 
ATOM     11  C   UNL     1     111.641   9.666 -40.492  1.00  0.00     0.150 C 
ATOM     12  C   UNL     1     111.563   9.087 -41.920  1.00  0.00     0.174 C 
ATOM     13  O   UNL     1     112.353   8.791 -39.634  1.00  0.00    -0.344 OA
ATOM     14  C   UNL     1     110.846   7.725 -41.856  1.00  0.00     0.179 C 
ATOM     15  C   UNL     1     111.530   6.806 -40.822  1.00  0.00     0.202 C 
BRANCH  12  16
ATOM     16  O   UNL     1     112.862   8.936 -42.440  1.00  0.00    -0.388 OA
ATOM     17  H   UNL     1     113.473   8.807 -41.670  1.00  0.00     0.211 HD
ENDBRANCH  12  16
BRANCH  14  18
ATOM     18  O   UNL     1     110.790   7.124 -43.125  1.00  0.00    -0.387 OA
ATOM     19  H   UNL     1     110.451   6.196 -43.019  1.00  0.00     0.211 HD
ENDBRANCH  14  18
BRANCH  15  20
ATOM     20  O   UNL     1     110.770   5.629 -40.666  1.00  0.00    -0.385 OA
ATOM     21  H   UNL     1     110.308   5.702 -39.792  1.00  0.00     0.211 HD
ENDBRANCH  15  20
ENDBRANCH   8   9
ENDBRANCH   7   8
ENDBRANCH   1   7
BRANCH   2  22
ATOM     22  O   UNL     1     109.085   4.986 -38.328  1.00  0.00    -0.387 OA
ATOM     23  H   UNL     1     108.236   4.563 -38.047  1.00  0.00     0.211 HD
ENDBRANCH   2  22
BRANCH   3  24
ATOM     24  O   UNL     1     108.317   3.762 -35.882  1.00  0.00    -0.387 OA
ATOM     25  H   UNL     1     108.363   3.381 -34.966  1.00  0.00     0.211 HD
ENDBRANCH   3  24
BRANCH   5  26
ATOM     26  O   UNL     1     112.152   5.889 -33.824  1.00  0.00    -0.454 OA
BRANCH  26  27
ATOM     27  C   UNL     1     112.249   6.787 -32.752  1.00  0.00     0.214 A 
ATOM     28  C   UNL     1     112.844   8.045 -32.942  1.00  0.00     0.180 A 
ATOM     29  C   UNL     1     111.768   6.445 -31.477  1.00  0.00     0.239 A 
ATOM     30  O   UNL     1     113.008   8.859 -31.906  1.00  0.00    -0.452 OA
ATOM     31  C   UNL     1     111.921   7.354 -30.401  1.00  0.00     0.111 A 
ATOM     32  O   UNL     1     111.215   5.326 -31.316  1.00  0.00    -0.285 OA
ATOM     33  C   UNL     1     112.599   8.570 -30.677  1.00  0.00     0.146 A 
ATOM     34  C   UNL     1     111.474   7.114 -29.066  1.00  0.00     0.134 A 
ATOM     35  C   UNL     1     112.855   9.489 -29.657  1.00  0.00     0.094 A 
ATOM     36  C   UNL     1     111.777   8.038 -28.061  1.00  0.00     0.093 A 
ATOM     37  C   UNL     1     112.455   9.224 -28.351  1.00  0.00     0.123 A 
BRANCH  28  38
ATOM     38  C   UNL     1     113.343   8.485 -34.263  1.00  0.00     0.025 A 
ATOM     39  C   UNL     1     112.542   9.320 -35.060  1.00  0.00     0.062 A 
ATOM     40  C   UNL     1     114.585   8.050 -34.762  1.00  0.00     0.016 A 
ATOM     41  C   UNL     1     112.986   9.741 -36.322  1.00  0.00     0.158 A 
ATOM     42  C   UNL     1     115.030   8.473 -36.018  1.00  0.00     0.051 A 
ATOM     43  C   UNL     1     114.234   9.320 -36.799  1.00  0.00     0.157 A 
BRANCH  41  44
ATOM     44  O   UNL     1     112.193  10.583 -37.104  1.00  0.00    -0.504 OA
ATOM     45  H   UNL     1     111.295  10.279 -37.466  1.00  0.00     0.293 HD
ENDBRANCH  41  44
BRANCH  43  46
ATOM     46  O   UNL     1     114.675   9.747 -38.049  1.00  0.00    -0.504 OA
ATOM     47  H   UNL     1     114.770   9.109 -38.828  1.00  0.00     0.293 HD
ENDBRANCH  43  46
ENDBRANCH  28  38
BRANCH  34  48
ATOM     48  O   UNL     1     110.720   6.003 -28.676  1.00  0.00    -0.507 OA
ATOM     49  H   UNL     1     110.766   5.563 -27.767  1.00  0.00     0.293 HD
ENDBRANCH  34  48
BRANCH  37  50
ATOM     50  O   UNL     1     112.726  10.155 -27.348  1.00  0.00    -0.508 OA
ATOM     51  H   UNL     1     113.580  10.703 -27.347  1.00  0.00     0.293 HD
ENDBRANCH  37  50
ENDBRANCH  26  27
ENDBRANCH   5  26
BRANCH   4  52
ATOM     52  O   UNL     1     109.441   4.989 -33.541  1.00  0.00    -0.384 OA
ATOM     53  H   UNL     1     110.076   4.825 -32.796  1.00  0.00     0.211 HD
ENDBRANCH   4  52
TORSDOF 16
ENDMDL
MODEL 4
REMARK VINA RESULT:    -4.454      6.084     10.671
REMARK INTER + INTRA:         -10.508
REMARK INTER:                  -7.058
REMARK INTRA:                  -3.450
REMARK UNBOUND:                -3.190
REMARK SMILES C[C@@H]1O[C@@H](OC[C@H]2O[C@H](Oc3c(-c4ccc(O)c(O)c4)oc4cc(O)cc(O)c4c3=O)[C@@H](O)[C@H](O)[C@H]2O)[C@@H](O)[C@H](O)[C@@H]1O
REMARK SMILES IDX 7 1 36 2 34 3 32 4 9 5 8 6 6 7 5 8 4 9 1 10 2 11 42 12 3 13
REMARK SMILES IDX 40 14 38 15 43 16 41 18 39 20 37 22 35 24 10 26 11 27 12 28
REMARK SMILES IDX 30 29 21 30 29 31 31 32 22 33 27 34 23 35 26 36 24 37 13 38
REMARK SMILES IDX 20 39 14 40 18 41 15 42 16 43 19 44 17 46 28 48 25 50 33 52
REMARK H PARENT 43 17 41 19 39 21 37 23 35 25 19 45 17 47 28 49 25 51 33 53
REMARK Flexibility Score: inf
ROOT
ATOM      1  C   UNL     1     111.571   8.154 -29.231  1.00  0.00     0.180 C 
ATOM      2  C   UNL     1     110.966   6.763 -29.559  1.00  0.00     0.177 C 
ATOM      3  C   UNL     1     111.631   6.164 -30.803  1.00  0.00     0.180 C 
ATOM      4  C   UNL     1     111.586   7.179 -31.959  1.00  0.00     0.214 C 
ATOM      5  C   UNL     1     112.179   8.530 -31.503  1.00  0.00     0.339 C 
ATOM      6  O   UNL     1     111.514   9.033 -30.349  1.00  0.00    -0.332 OA
ENDROOT
BRANCH   1   7
ATOM      7  C   UNL     1     112.978   8.111 -28.581  1.00  0.00     0.198 C 
BRANCH   7   8
ATOM      8  O   UNL     1     112.859   7.947 -27.178  1.00  0.00    -0.347 OA
BRANCH   8   9
ATOM      9  C   UNL     1     112.143   9.021 -26.572  1.00  0.00     0.281 C 
ATOM     10  C   UNL     1     114.859  10.395 -24.487  1.00  0.00     0.041 C 
ATOM     11  C   UNL     1     113.814   9.377 -24.950  1.00  0.00     0.150 C 
ATOM     12  C   UNL     1     112.910   8.945 -23.778  1.00  0.00     0.174 C 
ATOM     13  O   UNL     1     113.044   9.957 -25.990  1.00  0.00    -0.344 OA
ATOM     14  C   UNL     1     111.889   7.917 -24.302  1.00  0.00     0.179 C 
ATOM     15  C   UNL     1     111.135   8.484 -25.524  1.00  0.00     0.202 C 
BRANCH  12  16
ATOM     16  O   UNL     1     112.250  10.070 -23.250  1.00  0.00    -0.388 OA
ATOM     17  H   UNL     1     111.328   9.788 -23.020  1.00  0.00     0.211 HD
ENDBRANCH  12  16
BRANCH  14  18
ATOM     18  O   UNL     1     111.002   7.523 -23.285  1.00  0.00    -0.387 OA
ATOM     19  H   UNL     1     111.040   6.534 -23.202  1.00  0.00     0.211 HD
ENDBRANCH  14  18
BRANCH  15  20
ATOM     20  O   UNL     1     110.322   7.477 -26.081  1.00  0.00    -0.385 OA
ATOM     21  H   UNL     1     110.432   6.674 -25.511  1.00  0.00     0.211 HD
ENDBRANCH  15  20
ENDBRANCH   8   9
ENDBRANCH   7   8
ENDBRANCH   1   7
BRANCH   2  22
ATOM     22  O   UNL     1     111.092   5.871 -28.480  1.00  0.00    -0.387 OA
ATOM     23  H   UNL     1     110.383   5.189 -28.586  1.00  0.00     0.211 HD
ENDBRANCH   2  22
BRANCH   3  24
ATOM     24  O   UNL     1     111.005   4.958 -31.169  1.00  0.00    -0.387 OA
ATOM     25  H   UNL     1     111.188   4.295 -30.453  1.00  0.00     0.211 HD
ENDBRANCH   3  24
BRANCH   5  26
ATOM     26  O   UNL     1     112.011   9.492 -32.548  1.00  0.00    -0.454 OA
BRANCH  26  27
ATOM     27  C   UNL     1     113.075  10.042 -33.277  1.00  0.00     0.214 A 
ATOM     28  C   UNL     1     113.888  11.028 -32.696  1.00  0.00     0.180 A 
ATOM     29  C   UNL     1     113.336   9.630 -34.595  1.00  0.00     0.239 A 
ATOM     30  O   UNL     1     114.841  11.605 -33.419  1.00  0.00    -0.452 OA
ATOM     31  C   UNL     1     114.388  10.236 -35.325  1.00  0.00     0.111 A 
ATOM     32  O   UNL     1     112.619   8.730 -35.104  1.00  0.00    -0.285 OA
ATOM     33  C   UNL     1     115.108  11.273 -34.676  1.00  0.00     0.146 A 
ATOM     34  C   UNL     1     114.743   9.900 -36.667  1.00  0.00     0.134 A 
ATOM     35  C   UNL     1     116.113  11.971 -35.350  1.00  0.00     0.094 A 
ATOM     36  C   UNL     1     115.729  10.641 -37.325  1.00  0.00     0.093 A 
ATOM     37  C   UNL     1     116.419  11.665 -36.672  1.00  0.00     0.123 A 
BRANCH  28  38
ATOM     38  C   UNL     1     113.692  11.487 -31.304  1.00  0.00     0.025 A 
ATOM     39  C   UNL     1     114.524  10.987 -30.289  1.00  0.00     0.062 A 
ATOM     40  C   UNL     1     112.660  12.381 -30.964  1.00  0.00     0.016 A 
ATOM     41  C   UNL     1     114.350  11.396 -28.959  1.00  0.00     0.158 A 
ATOM     42  C   UNL     1     112.489  12.792 -29.639  1.00  0.00     0.051 A 
ATOM     43  C   UNL     1     113.334  12.303 -28.634  1.00  0.00     0.157 A 
BRANCH  41  44
ATOM     44  O   UNL     1     115.189  10.907 -27.955  1.00  0.00    -0.504 OA
ATOM     45  H   UNL     1     114.835  10.323 -27.206  1.00  0.00     0.293 HD
ENDBRANCH  41  44
BRANCH  43  46
ATOM     46  O   UNL     1     113.170  12.714 -27.314  1.00  0.00    -0.504 OA
ATOM     47  H   UNL     1     113.915  13.164 -26.798  1.00  0.00     0.293 HD
ENDBRANCH  43  46
ENDBRANCH  28  38
BRANCH  34  48
ATOM     48  O   UNL     1     114.178   8.845 -37.390  1.00  0.00    -0.507 OA
ATOM     49  H   UNL     1     114.667   8.290 -38.079  1.00  0.00     0.293 HD
ENDBRANCH  34  48
BRANCH  37  50
ATOM     50  O   UNL     1     117.424  12.379 -37.326  1.00  0.00    -0.508 OA
ATOM     51  H   UNL     1     117.444  13.394 -37.324  1.00  0.00     0.293 HD
ENDBRANCH  37  50
ENDBRANCH  26  27
ENDBRANCH   5  26
BRANCH   4  52
ATOM     52  O   UNL     1     112.328   6.683 -33.046  1.00  0.00    -0.384 OA
ATOM     53  H   UNL     1     112.433   5.706 -32.906  1.00  0.00     0.211 HD
ENDBRANCH   4  52
TORSDOF 16
ENDMDL
MODEL 5
REMARK VINA RESULT:    -4.449      7.874     12.457
REMARK INTER + INTRA:         -10.500
REMARK INTER:                  -7.166
REMARK INTRA:                  -3.333
REMARK UNBOUND:                -3.190
REMARK SMILES C[C@@H]1O[C@@H](OC[C@H]2O[C@H](Oc3c(-c4ccc(O)c(O)c4)oc4cc(O)cc(O)c4c3=O)[C@@H](O)[C@H](O)[C@H]2O)[C@@H](O)[C@H](O)[C@@H]1O
REMARK SMILES IDX 7 1 36 2 34 3 32 4 9 5 8 6 6 7 5 8 4 9 1 10 2 11 42 12 3 13
REMARK SMILES IDX 40 14 38 15 43 16 41 18 39 20 37 22 35 24 10 26 11 27 12 28
REMARK SMILES IDX 30 29 21 30 29 31 31 32 22 33 27 34 23 35 26 36 24 37 13 38
REMARK SMILES IDX 20 39 14 40 18 41 15 42 16 43 19 44 17 46 28 48 25 50 33 52
REMARK H PARENT 43 17 41 19 39 21 37 23 35 25 19 45 17 47 28 49 25 51 33 53
REMARK Flexibility Score: inf
ROOT
ATOM      1  C   UNL     1     110.317   6.746 -38.070  1.00  0.00     0.180 C 
ATOM      2  C   UNL     1     109.011   6.138 -38.647  1.00  0.00     0.177 C 
ATOM      3  C   UNL     1     107.939   6.029 -37.557  1.00  0.00     0.180 C 
ATOM      4  C   UNL     1     108.511   5.293 -36.333  1.00  0.00     0.214 C 
ATOM      5  C   UNL     1     109.823   5.965 -35.874  1.00  0.00     0.339 C 
ATOM      6  O   UNL     1     110.777   6.028 -36.930  1.00  0.00    -0.332 OA
ENDROOT
BRANCH   1   7
ATOM      7  C   UNL     1     110.266   8.277 -37.827  1.00  0.00     0.198 C 
BRANCH   7   8
ATOM      8  O   UNL     1     110.704   8.966 -38.985  1.00  0.00    -0.347 OA
BRANCH   8   9
ATOM      9  C   UNL     1     112.063   8.670 -39.303  1.00  0.00     0.281 C 
ATOM     10  C   UNL     1     113.425  12.097 -39.172  1.00  0.00     0.041 C 
ATOM     11  C   UNL     1     112.586  10.931 -39.704  1.00  0.00     0.150 C 
ATOM     12  C   UNL     1     112.843  10.711 -41.208  1.00  0.00     0.174 C 
ATOM     13  O   UNL     1     112.906   9.765 -38.963  1.00  0.00    -0.344 OA
ATOM     14  C   UNL     1     111.968   9.536 -41.686  1.00  0.00     0.179 C 
ATOM     15  C   UNL     1     112.205   8.294 -40.800  1.00  0.00     0.202 C 
BRANCH  12  16
ATOM     16  O   UNL     1     114.206  10.426 -41.418  1.00  0.00    -0.388 OA
ATOM     17  H   UNL     1     114.282   9.448 -41.560  1.00  0.00     0.211 HD
ENDBRANCH  12  16
BRANCH  14  18
ATOM     18  O   UNL     1     112.198   9.254 -43.043  1.00  0.00    -0.387 OA
ATOM     19  H   UNL     1     113.179   9.233 -43.198  1.00  0.00     0.211 HD
ENDBRANCH  14  18
BRANCH  15  20
ATOM     20  O   UNL     1     111.286   7.285 -41.152  1.00  0.00    -0.385 OA
ATOM     21  H   UNL     1     111.460   7.060 -42.101  1.00  0.00     0.211 HD
ENDBRANCH  15  20
ENDBRANCH   8   9
ENDBRANCH   7   8
ENDBRANCH   1   7
BRANCH   2  22
ATOM     22  O   UNL     1     108.516   6.892 -39.725  1.00  0.00    -0.387 OA
ATOM     23  H   UNL     1     107.836   7.508 -39.356  1.00  0.00     0.211 HD
ENDBRANCH   2  22
BRANCH   3  24
ATOM     24  O   UNL     1     106.796   5.373 -38.050  1.00  0.00    -0.387 OA
ATOM     25  H   UNL     1     106.497   5.857 -38.863  1.00  0.00     0.211 HD
ENDBRANCH   3  24
BRANCH   5  26
ATOM     26  O   UNL     1     110.402   5.192 -34.819  1.00  0.00    -0.454 OA
BRANCH  26  27
ATOM     27  C   UNL     1     110.535   5.650 -33.501  1.00  0.00     0.214 A 
ATOM     28  C   UNL     1     111.556   6.557 -33.173  1.00  0.00     0.180 A 
ATOM     29  C   UNL     1     109.664   5.207 -32.491  1.00  0.00     0.239 A 
ATOM     30  O   UNL     1     111.729   6.923 -31.909  1.00  0.00    -0.452 OA
ATOM     31  C   UNL     1     109.850   5.651 -31.159  1.00  0.00     0.111 A 
ATOM     32  O   UNL     1     108.736   4.413 -32.793  1.00  0.00    -0.285 OA
ATOM     33  C   UNL     1     110.954   6.510 -30.914  1.00  0.00     0.146 A 
ATOM     34  C   UNL     1     109.032   5.267 -30.053  1.00  0.00     0.134 A 
ATOM     35  C   UNL     1     111.251   6.935 -29.617  1.00  0.00     0.094 A 
ATOM     36  C   UNL     1     109.376   5.681 -28.763  1.00  0.00     0.093 A 
ATOM     37  C   UNL     1     110.473   6.518 -28.543  1.00  0.00     0.123 A 
BRANCH  28  38
ATOM     38  C   UNL     1     112.487   7.090 -34.190  1.00  0.00     0.025 A 
ATOM     39  C   UNL     1     112.307   8.396 -34.674  1.00  0.00     0.062 A 
ATOM     40  C   UNL     1     113.526   6.303 -34.720  1.00  0.00     0.016 A 
ATOM     41  C   UNL     1     113.169   8.922 -35.648  1.00  0.00     0.158 A 
ATOM     42  C   UNL     1     114.388   6.827 -35.688  1.00  0.00     0.051 A 
ATOM     43  C   UNL     1     114.213   8.137 -36.152  1.00  0.00     0.157 A 
BRANCH  41  44
ATOM     44  O   UNL     1     112.994  10.226 -36.114  1.00  0.00    -0.504 OA
ATOM     45  H   UNL     1     112.817  10.997 -35.479  1.00  0.00     0.293 HD
ENDBRANCH  41  44
BRANCH  43  46
ATOM     46  O   UNL     1     115.072   8.665 -37.113  1.00  0.00    -0.504 OA
ATOM     47  H   UNL     1     115.274   9.655 -37.162  1.00  0.00     0.293 HD
ENDBRANCH  43  46
ENDBRANCH  28  38
BRANCH  34  48
ATOM     48  O   UNL     1     107.867   4.501 -30.165  1.00  0.00    -0.507 OA
ATOM     49  H   UNL     1     107.755   3.563 -29.803  1.00  0.00     0.293 HD
ENDBRANCH  34  48
BRANCH  37  50
ATOM     50  O   UNL     1     110.792   6.953 -27.256  1.00  0.00    -0.508 OA
ATOM     51  H   UNL     1     111.422   7.732 -27.097  1.00  0.00     0.293 HD
ENDBRANCH  37  50
ENDBRANCH  26  27
ENDBRANCH   5  26
BRANCH   4  52
ATOM     52  O   UNL     1     107.572   5.330 -35.285  1.00  0.00    -0.384 OA
ATOM     53  H   UNL     1     107.765   6.144 -34.750  1.00  0.00     0.211 HD
ENDBRANCH   4  52
TORSDOF 16
ENDMDL
MODEL 6
REMARK VINA RESULT:    -4.376      2.818      8.667
REMARK INTER + INTRA:         -10.380
REMARK INTER:                  -7.881
REMARK INTRA:                  -2.498
REMARK UNBOUND:                -3.190
REMARK SMILES C[C@@H]1O[C@@H](OC[C@H]2O[C@H](Oc3c(-c4ccc(O)c(O)c4)oc4cc(O)cc(O)c4c3=O)[C@@H](O)[C@H](O)[C@H]2O)[C@@H](O)[C@H](O)[C@@H]1O
REMARK SMILES IDX 7 1 36 2 34 3 32 4 9 5 8 6 6 7 5 8 4 9 1 10 2 11 42 12 3 13
REMARK SMILES IDX 40 14 38 15 43 16 41 18 39 20 37 22 35 24 10 26 11 27 12 28
REMARK SMILES IDX 30 29 21 30 29 31 31 32 22 33 27 34 23 35 26 36 24 37 13 38
REMARK SMILES IDX 20 39 14 40 18 41 15 42 16 43 19 44 17 46 28 48 25 50 33 52
REMARK H PARENT 43 17 41 19 39 21 37 23 35 25 19 45 17 47 28 49 25 51 33 53
REMARK Flexibility Score: inf
ROOT
ATOM      1  C   UNL     1     112.948   7.158 -29.510  1.00  0.00     0.180 C 
ATOM      2  C   UNL     1     113.423   7.522 -30.942  1.00  0.00     0.177 C 
ATOM      3  C   UNL     1     112.226   7.855 -31.839  1.00  0.00     0.180 C 
ATOM      4  C   UNL     1     111.189   6.721 -31.769  1.00  0.00     0.214 C 
ATOM      5  C   UNL     1     110.823   6.425 -30.298  1.00  0.00     0.339 C 
ATOM      6  O   UNL     1     111.977   6.118 -29.522  1.00  0.00    -0.332 OA
ENDROOT
BRANCH   1   7
ATOM      7  C   UNL     1     112.510   8.369 -28.646  1.00  0.00     0.198 C 
BRANCH   7   8
ATOM      8  O   UNL     1     112.300   7.958 -27.306  1.00  0.00    -0.347 OA
BRANCH   8   9
ATOM      9  C   UNL     1     111.687   8.980 -26.522  1.00  0.00     0.281 C 
ATOM     10  C   UNL     1     114.690  10.210 -24.765  1.00  0.00     0.041 C 
ATOM     11  C   UNL     1     113.582   9.223 -25.144  1.00  0.00     0.150 C 
ATOM     12  C   UNL     1     112.861   8.699 -23.886  1.00  0.00     0.174 C 
ATOM     13  O   UNL     1     112.670   9.875 -26.012  1.00  0.00    -0.344 OA
ATOM     14  C   UNL     1     111.767   7.707 -24.328  1.00  0.00     0.179 C 
ATOM     15  C   UNL     1     110.844   8.360 -25.379  1.00  0.00     0.202 C 
BRANCH  12  16
ATOM     16  O   UNL     1     112.292   9.778 -23.183  1.00  0.00    -0.388 OA
ATOM     17  H   UNL     1     112.561  10.608 -23.653  1.00  0.00     0.211 HD
ENDBRANCH  12  16
BRANCH  14  18
ATOM     18  O   UNL     1     111.039   7.233 -23.224  1.00  0.00    -0.387 OA
ATOM     19  H   UNL     1     110.101   7.547 -23.308  1.00  0.00     0.211 HD
ENDBRANCH  14  18
BRANCH  15  20
ATOM     20  O   UNL     1     109.952   7.392 -25.884  1.00  0.00    -0.385 OA
ATOM     21  H   UNL     1     110.363   6.507 -25.711  1.00  0.00     0.211 HD
ENDBRANCH  15  20
ENDBRANCH   8   9
ENDBRANCH   7   8
ENDBRANCH   1   7
BRANCH   2  22
ATOM     22  O   UNL     1     114.324   8.601 -30.935  1.00  0.00    -0.387 OA
ATOM     23  H   UNL     1     114.303   8.987 -30.025  1.00  0.00     0.211 HD
ENDBRANCH   2  22
BRANCH   3  24
ATOM     24  O   UNL     1     112.645   8.072 -33.165  1.00  0.00    -0.387 OA
ATOM     25  H   UNL     1     113.513   7.605 -33.287  1.00  0.00     0.211 HD
ENDBRANCH   3  24
BRANCH   5  26
ATOM     26  O   UNL     1     109.958   5.287 -30.250  1.00  0.00    -0.454 OA
BRANCH  26  27
ATOM     27  C   UNL     1     109.952   4.359 -29.200  1.00  0.00     0.214 A 
ATOM     28  C   UNL     1     110.591   3.118 -29.357  1.00  0.00     0.180 A 
ATOM     29  C   UNL     1     109.303   4.644 -27.987  1.00  0.00     0.239 A 
ATOM     30  O   UNL     1     110.512   2.211 -28.391  1.00  0.00    -0.452 OA
ATOM     31  C   UNL     1     109.273   3.669 -26.959  1.00  0.00     0.111 A 
ATOM     32  O   UNL     1     108.751   5.766 -27.842  1.00  0.00    -0.285 OA
ATOM     33  C   UNL     1     109.886   2.419 -27.240  1.00  0.00     0.146 A 
ATOM     34  C   UNL     1     108.644   3.847 -25.690  1.00  0.00     0.134 A 
ATOM     35  C   UNL     1     109.838   1.379 -26.309  1.00  0.00     0.094 A 
ATOM     36  C   UNL     1     108.583   2.775 -24.794  1.00  0.00     0.093 A 
ATOM     37  C   UNL     1     109.183   1.550 -25.094  1.00  0.00     0.123 A 
BRANCH  28  38
ATOM     38  C   UNL     1     111.321   2.763 -30.593  1.00  0.00     0.025 A 
ATOM     39  C   UNL     1     112.707   2.978 -30.662  1.00  0.00     0.062 A 
ATOM     40  C   UNL     1     110.651   2.254 -31.721  1.00  0.00     0.016 A 
ATOM     41  C   UNL     1     113.421   2.661 -31.827  1.00  0.00     0.158 A 
ATOM     42  C   UNL     1     111.363   1.934 -32.881  1.00  0.00     0.051 A 
ATOM     43  C   UNL     1     112.748   2.134 -32.936  1.00  0.00     0.157 A 
BRANCH  41  44
ATOM     44  O   UNL     1     114.801   2.863 -31.885  1.00  0.00    -0.504 OA
ATOM     45  H   UNL     1     115.404   2.638 -31.101  1.00  0.00     0.293 HD
ENDBRANCH  41  44
BRANCH  43  46
ATOM     46  O   UNL     1     113.461   1.813 -34.088  1.00  0.00    -0.504 OA
ATOM     47  H   UNL     1     113.726   0.861 -34.305  1.00  0.00     0.293 HD
ENDBRANCH  43  46
ENDBRANCH  28  38
BRANCH  34  48
ATOM     48  O   UNL     1     108.082   5.050 -25.251  1.00  0.00    -0.507 OA
ATOM     49  H   UNL     1     108.554   5.944 -25.258  1.00  0.00     0.293 HD
ENDBRANCH  34  48
BRANCH  37  50
ATOM     50  O   UNL     1     109.145   0.494 -24.182  1.00  0.00    -0.508 OA
ATOM     51  H   UNL     1     109.613  -0.387 -24.366  1.00  0.00     0.293 HD
ENDBRANCH  37  50
ENDBRANCH  26  27
ENDBRANCH   5  26
BRANCH   4  52
ATOM     52  O   UNL     1     110.032   7.101 -32.474  1.00  0.00    -0.384 OA
ATOM     53  H   UNL     1     109.286   7.124 -31.819  1.00  0.00     0.211 HD
ENDBRANCH   4  52
TORSDOF 16
ENDMDL
MODEL 7
REMARK VINA RESULT:    -4.349     10.461     15.186
REMARK INTER + INTRA:         -10.335
REMARK INTER:                  -7.751
REMARK INTRA:                  -2.584
REMARK UNBOUND:                -3.190
REMARK SMILES C[C@@H]1O[C@@H](OC[C@H]2O[C@H](Oc3c(-c4ccc(O)c(O)c4)oc4cc(O)cc(O)c4c3=O)[C@@H](O)[C@H](O)[C@H]2O)[C@@H](O)[C@H](O)[C@@H]1O
REMARK SMILES IDX 7 1 36 2 34 3 32 4 9 5 8 6 6 7 5 8 4 9 1 10 2 11 42 12 3 13
REMARK SMILES IDX 40 14 38 15 43 16 41 18 39 20 37 22 35 24 10 26 11 27 12 28
REMARK SMILES IDX 30 29 21 30 29 31 31 32 22 33 27 34 23 35 26 36 24 37 13 38
REMARK SMILES IDX 20 39 14 40 18 41 15 42 16 43 19 44 17 46 28 48 25 50 33 52
REMARK H PARENT 43 17 41 19 39 21 37 23 35 25 19 45 17 47 28 49 25 51 33 53
REMARK Flexibility Score: inf
ROOT
ATOM      1  C   UNL     1     109.061   9.238 -37.877  1.00  0.00     0.180 C 
ATOM      2  C   UNL     1     107.819   9.785 -37.123  1.00  0.00     0.177 C 
ATOM      3  C   UNL     1     107.094   8.654 -36.385  1.00  0.00     0.180 C 
ATOM      4  C   UNL     1     106.805   7.497 -37.356  1.00  0.00     0.214 C 
ATOM      5  C   UNL     1     108.104   7.065 -38.071  1.00  0.00     0.339 C 
ATOM      6  O   UNL     1     108.723   8.159 -38.741  1.00  0.00    -0.332 OA
ENDROOT
BRANCH   1   7
ATOM      7  C   UNL     1     110.277   8.915 -36.971  1.00  0.00     0.198 C 
BRANCH   7   8
ATOM      8  O   UNL     1     111.429   9.589 -37.448  1.00  0.00    -0.347 OA
BRANCH   8   9
ATOM      9  C   UNL     1     112.397   9.788 -36.419  1.00  0.00     0.281 C 
ATOM     10  C   UNL     1     111.003  12.863 -34.930  1.00  0.00     0.041 C 
ATOM     11  C   UNL     1     111.668  11.988 -35.996  1.00  0.00     0.150 C 
ATOM     12  C   UNL     1     112.982  12.627 -36.489  1.00  0.00     0.174 C 
ATOM     13  O   UNL     1     111.909  10.704 -35.445  1.00  0.00    -0.344 OA
ATOM     14  C   UNL     1     113.599  11.709 -37.562  1.00  0.00     0.179 C 
ATOM     15  C   UNL     1     113.742  10.270 -37.021  1.00  0.00     0.202 C 
BRANCH  12  16
ATOM     16  O   UNL     1     113.868  12.781 -35.406  1.00  0.00    -0.388 OA
ATOM     17  H   UNL     1     113.905  13.749 -35.194  1.00  0.00     0.211 HD
ENDBRANCH  12  16
BRANCH  14  18
ATOM     18  O   UNL     1     114.829  12.215 -38.015  1.00  0.00    -0.387 OA
ATOM     19  H   UNL     1     114.790  12.301 -39.003  1.00  0.00     0.211 HD
ENDBRANCH  14  18
BRANCH  15  20
ATOM     20  O   UNL     1     114.159   9.417 -38.063  1.00  0.00    -0.385 OA
ATOM     21  H   UNL     1     114.124   8.493 -37.706  1.00  0.00     0.211 HD
ENDBRANCH  15  20
ENDBRANCH   8   9
ENDBRANCH   7   8
ENDBRANCH   1   7
BRANCH   2  22
ATOM     22  O   UNL     1     108.165  10.799 -36.213  1.00  0.00    -0.387 OA
ATOM     23  H   UNL     1     107.346  11.327 -36.046  1.00  0.00     0.211 HD
ENDBRANCH   2  22
BRANCH   3  24
ATOM     24  O   UNL     1     105.906   9.127 -35.797  1.00  0.00    -0.387 OA
ATOM     25  H   UNL     1     105.807  10.083 -36.044  1.00  0.00     0.211 HD
ENDBRANCH   3  24
BRANCH   5  26
ATOM     26  O   UNL     1     107.791   6.079 -39.058  1.00  0.00    -0.454 OA
BRANCH  26  27
ATOM     27  C   UNL     1     108.396   4.816 -39.116  1.00  0.00     0.214 A 
ATOM     28  C   UNL     1     109.532   4.619 -39.918  1.00  0.00     0.180 A 
ATOM     29  C   UNL     1     107.877   3.732 -38.389  1.00  0.00     0.239 A 
ATOM     30  O   UNL     1     110.052   3.403 -40.034  1.00  0.00    -0.452 OA
ATOM     31  C   UNL     1     108.481   2.456 -38.502  1.00  0.00     0.111 A 
ATOM     32  O   UNL     1     106.872   3.918 -37.654  1.00  0.00    -0.285 OA
ATOM     33  C   UNL     1     109.580   2.341 -39.393  1.00  0.00     0.146 A 
ATOM     34  C   UNL     1     108.039   1.285 -37.814  1.00  0.00     0.134 A 
ATOM     35  C   UNL     1     110.187   1.102 -39.618  1.00  0.00     0.094 A 
ATOM     36  C   UNL     1     108.645   0.055 -38.088  1.00  0.00     0.093 A 
ATOM     37  C   UNL     1     109.719  -0.039 -38.976  1.00  0.00     0.123 A 
BRANCH  28  38
ATOM     38  C   UNL     1     110.152   5.721 -40.685  1.00  0.00     0.025 A 
ATOM     39  C   UNL     1     111.076   6.567 -40.051  1.00  0.00     0.062 A 
ATOM     40  C   UNL     1     109.804   5.970 -42.025  1.00  0.00     0.016 A 
ATOM     41  C   UNL     1     111.669   7.628 -40.752  1.00  0.00     0.158 A 
ATOM     42  C   UNL     1     110.398   7.024 -42.726  1.00  0.00     0.051 A 
ATOM     43  C   UNL     1     111.332   7.853 -42.093  1.00  0.00     0.157 A 
BRANCH  41  44
ATOM     44  O   UNL     1     112.598   8.457 -40.122  1.00  0.00    -0.504 OA
ATOM     45  H   UNL     1     112.404   9.438 -39.953  1.00  0.00     0.293 HD
ENDBRANCH  41  44
BRANCH  43  46
ATOM     46  O   UNL     1     111.929   8.902 -42.788  1.00  0.00    -0.504 OA
ATOM     47  H   UNL     1     112.929   8.942 -42.938  1.00  0.00     0.293 HD
ENDBRANCH  43  46
ENDBRANCH  28  38
BRANCH  34  48
ATOM     48  O   UNL     1     107.030   1.273 -36.847  1.00  0.00    -0.507 OA
ATOM     49  H   UNL     1     107.151   1.549 -35.881  1.00  0.00     0.293 HD
ENDBRANCH  34  48
BRANCH  37  50
ATOM     50  O   UNL     1     110.339  -1.265 -39.220  1.00  0.00    -0.508 OA
ATOM     51  H   UNL     1     110.452  -1.628 -40.161  1.00  0.00     0.293 HD
ENDBRANCH  37  50
ENDBRANCH  26  27
ENDBRANCH   5  26
BRANCH   4  52
ATOM     52  O   UNL     1     106.277   6.406 -36.641  1.00  0.00    -0.384 OA
ATOM     53  H   UNL     1     106.866   5.627 -36.821  1.00  0.00     0.211 HD
ENDBRANCH   4  52
TORSDOF 16
ENDMDL
MODEL 8
REMARK VINA RESULT:    -4.315      6.866     11.959
REMARK INTER + INTRA:         -10.279
REMARK INTER:                  -6.850
REMARK INTRA:                  -3.429
REMARK UNBOUND:                -3.190
REMARK SMILES C[C@@H]1O[C@@H](OC[C@H]2O[C@H](Oc3c(-c4ccc(O)c(O)c4)oc4cc(O)cc(O)c4c3=O)[C@@H](O)[C@H](O)[C@H]2O)[C@@H](O)[C@H](O)[C@@H]1O
REMARK SMILES IDX 7 1 36 2 34 3 32 4 9 5 8 6 6 7 5 8 4 9 1 10 2 11 42 12 3 13
REMARK SMILES IDX 40 14 38 15 43 16 41 18 39 20 37 22 35 24 10 26 11 27 12 28
REMARK SMILES IDX 30 29 21 30 29 31 31 32 22 33 27 34 23 35 26 36 24 37 13 38
REMARK SMILES IDX 20 39 14 40 18 41 15 42 16 43 19 44 17 46 28 48 25 50 33 52
REMARK H PARENT 43 17 41 19 39 21 37 23 35 25 19 45 17 47 28 49 25 51 33 53
REMARK Flexibility Score: inf
ROOT
ATOM      1  C   UNL     1     111.194   6.703 -32.309  1.00  0.00     0.180 C 
ATOM      2  C   UNL     1     110.957   5.192 -32.046  1.00  0.00     0.177 C 
ATOM      3  C   UNL     1     111.338   4.364 -33.278  1.00  0.00     0.180 C 
ATOM      4  C   UNL     1     110.631   4.924 -34.524  1.00  0.00     0.214 C 
ATOM      5  C   UNL     1     110.909   6.436 -34.659  1.00  0.00     0.339 C 
ATOM      6  O   UNL     1     110.527   7.147 -33.486  1.00  0.00    -0.332 OA
ENDROOT
BRANCH   1   7
ATOM      7  C   UNL     1     112.680   7.142 -32.268  1.00  0.00     0.198 C 
BRANCH   7   8
ATOM      8  O   UNL     1     113.054   7.465 -30.940  1.00  0.00    -0.347 OA
BRANCH   8   9
ATOM      9  C   UNL     1     112.133   8.368 -30.329  1.00  0.00     0.281 C 
ATOM     10  C   UNL     1     114.377  11.269 -29.932  1.00  0.00     0.041 C 
ATOM     11  C   UNL     1     113.839   9.858 -29.683  1.00  0.00     0.150 C 
ATOM     12  C   UNL     1     113.625   9.610 -28.176  1.00  0.00     0.174 C 
ATOM     13  O   UNL     1     112.623   9.702 -30.396  1.00  0.00    -0.344 OA
ATOM     14  C   UNL     1     113.093   8.175 -27.988  1.00  0.00     0.179 C 
ATOM     15  C   UNL     1     111.844   7.947 -28.866  1.00  0.00     0.202 C 
BRANCH  12  16
ATOM     16  O   UNL     1     112.704  10.546 -27.669  1.00  0.00    -0.388 OA
ATOM     17  H   UNL     1     111.799  10.162 -27.790  1.00  0.00     0.211 HD
ENDBRANCH  12  16
BRANCH  14  18
ATOM     18  O   UNL     1     112.830   7.907 -26.634  1.00  0.00    -0.387 OA
ATOM     19  H   UNL     1     112.909   8.756 -26.125  1.00  0.00     0.211 HD
ENDBRANCH  14  18
BRANCH  15  20
ATOM     20  O   UNL     1     111.468   6.590 -28.800  1.00  0.00    -0.385 OA
ATOM     21  H   UNL     1     111.663   6.196 -29.689  1.00  0.00     0.211 HD
ENDBRANCH  15  20
ENDBRANCH   8   9
ENDBRANCH   7   8
ENDBRANCH   1   7
BRANCH   2  22
ATOM     22  O   UNL     1     111.677   4.737 -30.929  1.00  0.00    -0.387 OA
ATOM     23  H   UNL     1     112.360   4.105 -31.264  1.00  0.00     0.211 HD
ENDBRANCH   2  22
BRANCH   3  24
ATOM     24  O   UNL     1     111.016   3.008 -33.084  1.00  0.00    -0.387 OA
ATOM     25  H   UNL     1     110.923   2.857 -32.107  1.00  0.00     0.211 HD
ENDBRANCH   3  24
BRANCH   5  26
ATOM     26  O   UNL     1     110.141   6.959 -35.746  1.00  0.00    -0.454 OA
BRANCH  26  27
ATOM     27  C   UNL     1     110.703   7.420 -36.945  1.00  0.00     0.214 A 
ATOM     28  C   UNL     1     111.318   8.682 -36.993  1.00  0.00     0.180 A 
ATOM     29  C   UNL     1     110.652   6.641 -38.113  1.00  0.00     0.239 A 
ATOM     30  O   UNL     1     111.774   9.148 -38.149  1.00  0.00    -0.452 OA
ATOM     31  C   UNL     1     111.187   7.151 -39.322  1.00  0.00     0.111 A 
ATOM     32  O   UNL     1     110.121   5.502 -38.061  1.00  0.00    -0.285 OA
ATOM     33  C   UNL     1     111.723   8.465 -39.285  1.00  0.00     0.146 A 
ATOM     34  C   UNL     1     111.189   6.451 -40.567  1.00  0.00     0.134 A 
ATOM     35  C   UNL     1     112.204   9.069 -40.449  1.00  0.00     0.094 A 
ATOM     36  C   UNL     1     111.646   7.098 -41.720  1.00  0.00     0.093 A 
ATOM     37  C   UNL     1     112.160   8.395 -41.664  1.00  0.00     0.123 A 
BRANCH  28  38
ATOM     38  C   UNL     1     111.437   9.542 -35.795  1.00  0.00     0.025 A 
ATOM     39  C   UNL     1     112.636   9.546 -35.065  1.00  0.00     0.062 A 
ATOM     40  C   UNL     1     110.358  10.325 -35.343  1.00  0.00     0.016 A 
ATOM     41  C   UNL     1     112.771  10.343 -33.919  1.00  0.00     0.158 A 
ATOM     42  C   UNL     1     110.493  11.122 -34.203  1.00  0.00     0.051 A 
ATOM     43  C   UNL     1     111.699  11.136 -33.490  1.00  0.00     0.157 A 
BRANCH  41  44
ATOM     44  O   UNL     1     113.970  10.355 -33.205  1.00  0.00    -0.504 OA
ATOM     45  H   UNL     1     114.711  11.013 -33.423  1.00  0.00     0.293 HD
ENDBRANCH  41  44
BRANCH  43  46
ATOM     46  O   UNL     1     111.838  11.932 -32.356  1.00  0.00    -0.504 OA
ATOM     47  H   UNL     1     112.699  11.958 -31.825  1.00  0.00     0.293 HD
ENDBRANCH  43  46
ENDBRANCH  28  38
BRANCH  34  48
ATOM     48  O   UNL     1     110.775   5.125 -40.726  1.00  0.00    -0.507 OA
ATOM     49  H   UNL     1     111.147   4.482 -41.412  1.00  0.00     0.293 HD
ENDBRANCH  34  48
BRANCH  37  50
ATOM     50  O   UNL     1     112.643   9.022 -42.814  1.00  0.00    -0.508 OA
ATOM     51  H   UNL     1     113.549   9.477 -42.832  1.00  0.00     0.293 HD
ENDBRANCH  37  50
ENDBRANCH  26  27
ENDBRANCH   5  26
BRANCH   4  52
ATOM     52  O   UNL     1     111.101   4.255 -35.669  1.00  0.00    -0.384 OA
ATOM     53  H   UNL     1     110.552   4.567 -36.435  1.00  0.00     0.211 HD
ENDBRANCH   4  52
TORSDOF 16
ENDMDL
MODEL 9
REMARK VINA RESULT:    -4.295     10.280     13.315
REMARK INTER + INTRA:         -10.247
REMARK INTER:                  -7.011
REMARK INTRA:                  -3.236
REMARK UNBOUND:                -3.190
REMARK SMILES C[C@@H]1O[C@@H](OC[C@H]2O[C@H](Oc3c(-c4ccc(O)c(O)c4)oc4cc(O)cc(O)c4c3=O)[C@@H](O)[C@H](O)[C@H]2O)[C@@H](O)[C@H](O)[C@@H]1O
REMARK SMILES IDX 7 1 36 2 34 3 32 4 9 5 8 6 6 7 5 8 4 9 1 10 2 11 42 12 3 13
REMARK SMILES IDX 40 14 38 15 43 16 41 18 39 20 37 22 35 24 10 26 11 27 12 28
REMARK SMILES IDX 30 29 21 30 29 31 31 32 22 33 27 34 23 35 26 36 24 37 13 38
REMARK SMILES IDX 20 39 14 40 18 41 15 42 16 43 19 44 17 46 28 48 25 50 33 52
REMARK H PARENT 43 17 41 19 39 21 37 23 35 25 19 45 17 47 28 49 25 51 33 53
REMARK Flexibility Score: inf
ROOT
ATOM      1  C   UNL     1     110.397   7.595 -39.357  1.00  0.00     0.180 C 
ATOM      2  C   UNL     1     109.936   7.378 -40.823  1.00  0.00     0.177 C 
ATOM      3  C   UNL     1     111.111   7.555 -41.791  1.00  0.00     0.180 C 
ATOM      4  C   UNL     1     111.811   8.898 -41.523  1.00  0.00     0.214 C 
ATOM      5  C   UNL     1     112.188   9.014 -40.030  1.00  0.00     0.339 C 
ATOM      6  O   UNL     1     111.053   8.847 -39.188  1.00  0.00    -0.332 OA
ENDROOT
BRANCH   1   7
ATOM      7  C   UNL     1     111.203   6.417 -38.751  1.00  0.00     0.198 C 
BRANCH   7   8
ATOM      8  O   UNL     1     110.327   5.355 -38.412  1.00  0.00    -0.347 OA
BRANCH   8   9
ATOM      9  C   UNL     1     109.359   5.749 -37.440  1.00  0.00     0.281 C 
ATOM     10  C   UNL     1     110.671   3.866 -34.551  1.00  0.00     0.041 C 
ATOM     11  C   UNL     1     110.025   4.074 -35.924  1.00  0.00     0.150 C 
ATOM     12  C   UNL     1     108.690   3.309 -36.025  1.00  0.00     0.174 C 
ATOM     13  O   UNL     1     109.825   5.463 -36.126  1.00  0.00    -0.344 OA
ATOM     14  C   UNL     1     108.096   3.549 -37.426  1.00  0.00     0.179 C 
ATOM     15  C   UNL     1     107.998   5.062 -37.717  1.00  0.00     0.202 C 
BRANCH  12  16
ATOM     16  O   UNL     1     107.806   3.768 -35.029  1.00  0.00    -0.388 OA
ATOM     17  H   UNL     1     108.164   3.462 -34.157  1.00  0.00     0.211 HD
ENDBRANCH  12  16
BRANCH  14  18
ATOM     18  O   UNL     1     106.848   2.915 -37.560  1.00  0.00    -0.387 OA
ATOM     19  H   UNL     1     106.684   2.745 -38.525  1.00  0.00     0.211 HD
ENDBRANCH  14  18
BRANCH  15  20
ATOM     20  O   UNL     1     107.601   5.257 -39.055  1.00  0.00    -0.385 OA
ATOM     21  H   UNL     1     107.235   6.176 -39.113  1.00  0.00     0.211 HD
ENDBRANCH  15  20
ENDBRANCH   8   9
ENDBRANCH   7   8
ENDBRANCH   1   7
BRANCH   2  22
ATOM     22  O   UNL     1     109.358   6.110 -41.006  1.00  0.00    -0.387 OA
ATOM     23  H   UNL     1     108.980   5.837 -40.134  1.00  0.00     0.211 HD
ENDBRANCH   2  22
BRANCH   3  24
ATOM     24  O   UNL     1     110.672   7.473 -43.125  1.00  0.00    -0.387 OA
ATOM     25  H   UNL     1     109.700   7.268 -43.110  1.00  0.00     0.211 HD
ENDBRANCH   3  24
BRANCH   5  26
ATOM     26  O   UNL     1     112.720  10.318 -39.781  1.00  0.00    -0.454 OA
BRANCH  26  27
ATOM     27  C   UNL     1     114.000  10.549 -39.257  1.00  0.00     0.214 A 
ATOM     28  C   UNL     1     114.204  10.532 -37.868  1.00  0.00     0.180 A 
ATOM     29  C   UNL     1     115.090  10.811 -40.105  1.00  0.00     0.239 A 
ATOM     30  O   UNL     1     115.399  10.833 -37.375  1.00  0.00    -0.452 OA
ATOM     31  C   UNL     1     116.363  11.087 -39.547  1.00  0.00     0.111 A 
ATOM     32  O   UNL     1     114.908  10.803 -41.350  1.00  0.00    -0.285 OA
ATOM     33  C   UNL     1     116.452  11.118 -38.131  1.00  0.00     0.146 A 
ATOM     34  C   UNL     1     117.538  11.369 -40.308  1.00  0.00     0.134 A 
ATOM     35  C   UNL     1     117.653  11.453 -37.501  1.00  0.00     0.094 A 
ATOM     36  C   UNL     1     118.715  11.735 -39.648  1.00  0.00     0.093 A 
ATOM     37  C   UNL     1     118.780  11.769 -38.253  1.00  0.00     0.123 A 
BRANCH  28  38
ATOM     38  C   UNL     1     113.111  10.232 -36.919  1.00  0.00     0.025 A 
ATOM     39  C   UNL     1     112.961   8.923 -36.430  1.00  0.00     0.062 A 
ATOM     40  C   UNL     1     112.187  11.218 -36.526  1.00  0.00     0.016 A 
ATOM     41  C   UNL     1     111.925   8.609 -35.538  1.00  0.00     0.158 A 
ATOM     42  C   UNL     1     111.156  10.906 -35.634  1.00  0.00     0.051 A 
ATOM     43  C   UNL     1     111.024   9.603 -35.137  1.00  0.00     0.157 A 
BRANCH  41  44
ATOM     44  O   UNL     1     111.790   7.310 -35.044  1.00  0.00    -0.504 OA
ATOM     45  H   UNL     1     112.105   6.506 -35.575  1.00  0.00     0.293 HD
ENDBRANCH  41  44
BRANCH  43  46
ATOM     46  O   UNL     1     110.002   9.289 -34.245  1.00  0.00    -0.504 OA
ATOM     47  H   UNL     1     109.833   9.838 -33.412  1.00  0.00     0.293 HD
ENDBRANCH  43  46
ENDBRANCH  28  38
BRANCH  34  48
ATOM     48  O   UNL     1     117.612  11.287 -41.702  1.00  0.00    -0.507 OA
ATOM     49  H   UNL     1     117.637  10.425 -42.230  1.00  0.00     0.293 HD
ENDBRANCH  34  48
BRANCH  37  50
ATOM     50  O   UNL     1     119.967  12.105 -37.602  1.00  0.00    -0.508 OA
ATOM     51  H   UNL     1     119.972  12.678 -36.765  1.00  0.00     0.293 HD
ENDBRANCH  37  50
ENDBRANCH  26  27
ENDBRANCH   5  26
BRANCH   4  52
ATOM     52  O   UNL     1     112.974   8.985 -42.310  1.00  0.00    -0.384 OA
ATOM     53  H   UNL     1     113.727   9.189 -41.696  1.00  0.00     0.211 HD
ENDBRANCH   4  52
TORSDOF 16
ENDMDL
