MODEL 1
REMARK VINA RESULT:     9.255      0.000      0.000
REMARK INTER + INTRA:          10.971
REMARK INTER:                  11.149
REMARK INTRA:                  -0.178
REMARK UNBOUND:                -0.178
REMARK SMILES O=c1c(O)c(-c2ccc(O)c(O)c2)oc2cc(O)cc(O)c12
REMARK SMILES IDX 5 1 3 2 2 3 1 4 22 5 20 6 19 7 17 8 16 9 15 10 14 11 6 12
REMARK SMILES IDX 7 13 8 14 9 15 13 16 11 17 10 18 12 20 4 22 21 24 18 26
REMARK H PARENT 10 19 12 21 4 23 21 25 18 27
REMARK Flexibility Score: inf
ROOT
ATOM      1  C   UNL     1     134.260 159.757 172.876  1.00  0.00     0.180 A 
ATOM      2  C   UNL     1     133.056 160.446 173.099  1.00  0.00     0.208 A 
ATOM      3  C   UNL     1     133.037 161.504 174.022  1.00  0.00     0.238 A 
ATOM      4  O   UNL     1     131.970 162.153 174.177  1.00  0.00    -0.285 OA
ATOM      5  C   UNL     1     134.218 161.849 174.723  1.00  0.00     0.111 A 
ATOM      6  C   UNL     1     134.304 162.876 175.709  1.00  0.00     0.134 A 
ATOM      7  C   UNL     1     135.553 163.219 176.243  1.00  0.00     0.093 A 
ATOM      8  C   UNL     1     136.707 162.528 175.876  1.00  0.00     0.123 A 
ATOM      9  C   UNL     1     136.625 161.482 174.955  1.00  0.00     0.094 A 
ATOM     10  C   UNL     1     135.399 161.142 174.378  1.00  0.00     0.146 A 
ATOM     11  O   UNL     1     135.365 160.147 173.500  1.00  0.00    -0.452 OA
ENDROOT
BRANCH   1  12
ATOM     12  C   UNL     1     134.353 158.616 171.938  1.00  0.00     0.025 A 
ATOM     13  C   UNL     1     133.650 157.433 172.215  1.00  0.00     0.016 A 
ATOM     14  C   UNL     1     133.707 156.351 171.334  1.00  0.00     0.051 A 
ATOM     15  C   UNL     1     134.454 156.441 170.152  1.00  0.00     0.157 A 
ATOM     16  C   UNL     1     135.086 158.709 170.741  1.00  0.00     0.062 A 
ATOM     17  C   UNL     1     135.144 157.628 169.853  1.00  0.00     0.158 A 
BRANCH  15  18
ATOM     18  O   UNL     1     134.511 155.359 169.275  1.00  0.00    -0.504 OA
ATOM     19  H   UNL     1     134.683 154.417 169.604  1.00  0.00     0.293 HD
ENDBRANCH  15  18
BRANCH  17  20
ATOM     20  O   UNL     1     135.885 157.754 168.679  1.00  0.00    -0.504 OA
ATOM     21  H   UNL     1     136.453 156.998 168.317  1.00  0.00     0.293 HD
ENDBRANCH  17  20
ENDBRANCH   1  12
BRANCH   2  22
ATOM     22  O   UNL     1     131.906 160.104 172.380  1.00  0.00    -0.502 OA
ATOM     23  H   UNL     1     131.121 159.625 172.805  1.00  0.00     0.293 HD
ENDBRANCH   2  22
BRANCH   6  24
ATOM     24  O   UNL     1     133.199 163.567 176.216  1.00  0.00    -0.507 OA
ATOM     25  H   UNL     1     132.322 163.140 176.471  1.00  0.00     0.293 HD
ENDBRANCH   6  24
BRANCH   8  26
ATOM     26  O   UNL     1     137.930 162.884 176.438  1.00  0.00    -0.508 OA
ATOM     27  H   UNL     1     138.690 163.243 175.872  1.00  0.00     0.293 HD
ENDBRANCH   8  26
TORSDOF 6
ENDMDL
