MODEL 1
REMARK VINA RESULT:     9.616      0.000      0.000
REMARK INTER + INTRA:          20.873
REMARK INTER:                  20.858
REMARK INTRA:                   0.015
REMARK UNBOUND:                 0.015
REMARK SMILES CCCCCCCCCCCCCCCCCCCCCC(=O)[O-]
REMARK SMILES IDX 12 1 11 2 10 3 9 4 8 5 7 6 6 7 5 8 4 9 3 10 2 11 1 12 13 13
REMARK SMILES IDX 14 14 15 15 16 16 17 17 18 18 19 19 20 20 21 21 22 22 23 23
REMARK SMILES IDX 24 24
REMARK H PARENT
REMARK Flexibility Score: inf
ROOT
ATOM      1  C   UNL     1     -30.400   7.210   3.075  1.00  0.00     0.000 C 
ENDROOT
BRANCH   1   2
ATOM      2  C   UNL     1     -30.164   7.136   1.556  1.00  0.00     0.000 C 
BRANCH   2   3
ATOM      3  C   UNL     1     -31.425   7.310   0.686  1.00  0.00     0.000 C 
BRANCH   3   4
ATOM      4  C   UNL     1     -31.218   7.087  -0.822  1.00  0.00    -0.000 C 
BRANCH   4   5
ATOM      5  C   UNL     1     -29.761   6.740  -1.178  1.00  0.00    -0.000 C 
BRANCH   5   6
ATOM      6  C   UNL     1     -28.767   7.812  -0.703  1.00  0.00    -0.000 C 
BRANCH   6   7
ATOM      7  C   UNL     1     -27.624   8.036  -1.708  1.00  0.00    -0.000 C 
BRANCH   7   8
ATOM      8  C   UNL     1     -28.131   8.354  -3.123  1.00  0.00    -0.000 C 
BRANCH   8   9
ATOM      9  C   UNL     1     -27.174   7.866  -4.223  1.00  0.00    -0.000 C 
BRANCH   9  10
ATOM     10  C   UNL     1     -27.641   8.338  -5.608  1.00  0.00    -0.000 C 
BRANCH  10  11
ATOM     11  C   UNL     1     -26.581   9.178  -6.334  1.00  0.00    -0.003 C 
ATOM     12  C   UNL     1     -25.485   8.327  -6.974  1.00  0.00     0.004 C 
ENDBRANCH  10  11
ENDBRANCH   9  10
ENDBRANCH   8   9
ENDBRANCH   7   8
ENDBRANCH   6   7
ENDBRANCH   5   6
ENDBRANCH   4   5
ENDBRANCH   3   4
ENDBRANCH   2   3
ENDBRANCH   1   2
BRANCH   1  13
ATOM     13  C   UNL     1     -29.133   7.601   3.857  1.00  0.00     0.000 C 
BRANCH  13  14
ATOM     14  C   UNL     1     -29.232   7.261   5.353  1.00  0.00     0.000 C 
BRANCH  14  15
ATOM     15  C   UNL     1     -27.857   7.017   5.998  1.00  0.00     0.000 C 
BRANCH  15  16
ATOM     16  C   UNL     1     -27.720   5.604   6.593  1.00  0.00     0.000 C 
BRANCH  16  17
ATOM     17  C   UNL     1     -26.717   5.477   7.758  1.00  0.00     0.000 C 
BRANCH  17  18
ATOM     18  C   UNL     1     -27.348   5.215   9.137  1.00  0.00     0.000 C 
BRANCH  18  19
ATOM     19  C   UNL     1     -26.302   4.933  10.227  1.00  0.00     0.000 C 
BRANCH  19  20
ATOM     20  C   UNL     1     -26.964   4.390  11.499  1.00  0.00     0.006 C 
BRANCH  20  21
ATOM     21  C   UNL     1     -28.490   4.495  11.410  1.00  0.00     0.053 C 
BRANCH  21  22
ATOM     22  C   UNL     1     -29.115   3.137  11.477  1.00  0.00     0.041 C 
ATOM     23  O   UNL     1     -28.523   2.142  10.985  1.00  0.00    -0.550 OA
ATOM     24  O   UNL     1     -30.334   2.963  12.120  1.00  0.00    -0.550 OA
ENDBRANCH  21  22
ENDBRANCH  20  21
ENDBRANCH  19  20
ENDBRANCH  18  19
ENDBRANCH  17  18
ENDBRANCH  16  17
ENDBRANCH  15  16
ENDBRANCH  14  15
ENDBRANCH  13  14
ENDBRANCH   1  13
TORSDOF 20
ENDMDL
MODEL 2
REMARK VINA RESULT:     9.825      5.763     13.034
REMARK INTER + INTRA:          21.327
REMARK INTER:                  21.002
REMARK INTRA:                   0.325
REMARK UNBOUND:                 0.015
REMARK SMILES CCCCCCCCCCCCCCCCCCCCCC(=O)[O-]
REMARK SMILES IDX 12 1 11 2 10 3 9 4 8 5 7 6 6 7 5 8 4 9 3 10 2 11 1 12 13 13
REMARK SMILES IDX 14 14 15 15 16 16 17 17 18 18 19 19 20 20 21 21 22 22 23 23
REMARK SMILES IDX 24 24
REMARK H PARENT
REMARK Flexibility Score: inf
ROOT
ATOM      1  C   UNL     1     -30.110   7.144   1.800  1.00  0.00     0.000 C 
ENDROOT
BRANCH   1   2
ATOM      2  C   UNL     1     -30.293   7.260   3.324  1.00  0.00     0.000 C 
BRANCH   2   3
ATOM      3  C   UNL     1     -28.997   7.503   4.124  1.00  0.00     0.000 C 
BRANCH   3   4
ATOM      4  C   UNL     1     -29.092   7.206   5.631  1.00  0.00    -0.000 C 
BRANCH   4   5
ATOM      5  C   UNL     1     -27.726   6.879   6.260  1.00  0.00    -0.000 C 
BRANCH   5   6
ATOM      6  C   UNL     1     -27.625   5.415   6.719  1.00  0.00    -0.000 C 
BRANCH   6   7
ATOM      7  C   UNL     1     -26.728   5.251   7.959  1.00  0.00    -0.000 C 
BRANCH   7   8
ATOM      8  C   UNL     1     -27.534   5.074   9.255  1.00  0.00    -0.000 C 
BRANCH   8   9
ATOM      9  C   UNL     1     -26.641   4.947  10.499  1.00  0.00    -0.000 C 
BRANCH   9  10
ATOM     10  C   UNL     1     -27.366   4.191  11.622  1.00  0.00    -0.000 C 
BRANCH  10  11
ATOM     11  C   UNL     1     -28.851   4.567  11.724  1.00  0.00    -0.003 C 
ATOM     12  C   UNL     1     -29.768   3.347  11.814  1.00  0.00     0.004 C 
ENDBRANCH  10  11
ENDBRANCH   9  10
ENDBRANCH   8   9
ENDBRANCH   7   8
ENDBRANCH   6   7
ENDBRANCH   5   6
ENDBRANCH   4   5
ENDBRANCH   3   4
ENDBRANCH   2   3
ENDBRANCH   1   2
BRANCH   1  13
ATOM     13  C   UNL     1     -31.444   6.970   1.051  1.00  0.00     0.000 C 
BRANCH  13  14
ATOM     14  C   UNL     1     -31.329   7.299  -0.447  1.00  0.00     0.000 C 
BRANCH  14  15
ATOM     15  C   UNL     1     -30.015   6.792  -1.065  1.00  0.00     0.000 C 
BRANCH  15  16
ATOM     16  C   UNL     1     -28.769   7.301  -0.317  1.00  0.00     0.000 C 
BRANCH  16  17
ATOM     17  C   UNL     1     -27.886   8.288  -1.109  1.00  0.00     0.000 C 
BRANCH  17  18
ATOM     18  C   UNL     1     -27.582   7.874  -2.560  1.00  0.00     0.000 C 
BRANCH  18  19
ATOM     19  C   UNL     1     -28.232   8.807  -3.594  1.00  0.00     0.000 C 
BRANCH  19  20
ATOM     20  C   UNL     1     -28.074   8.248  -5.014  1.00  0.00     0.006 C 
BRANCH  20  21
ATOM     21  C   UNL     1     -26.626   7.825  -5.279  1.00  0.00     0.053 C 
BRANCH  21  22
ATOM     22  C   UNL     1     -26.040   8.630  -6.396  1.00  0.00     0.041 C 
ATOM     23  O   UNL     1     -24.930   8.309  -6.894  1.00  0.00    -0.550 OA
ATOM     24  O   UNL     1     -26.740   9.712  -6.916  1.00  0.00    -0.550 OA
ENDBRANCH  21  22
ENDBRANCH  20  21
ENDBRANCH  19  20
ENDBRANCH  18  19
ENDBRANCH  17  18
ENDBRANCH  16  17
ENDBRANCH  15  16
ENDBRANCH  14  15
ENDBRANCH  13  14
ENDBRANCH   1  13
TORSDOF 20
ENDMDL
MODEL 3
REMARK VINA RESULT:    10.340      0.829      1.676
REMARK INTER + INTRA:          22.445
REMARK INTER:                  22.786
REMARK INTRA:                  -0.341
REMARK UNBOUND:                 0.015
REMARK SMILES CCCCCCCCCCCCCCCCCCCCCC(=O)[O-]
REMARK SMILES IDX 12 1 11 2 10 3 9 4 8 5 7 6 6 7 5 8 4 9 3 10 2 11 1 12 13 13
REMARK SMILES IDX 14 14 15 15 16 16 17 17 18 18 19 19 20 20 21 21 22 22 23 23
REMARK SMILES IDX 24 24
REMARK H PARENT
REMARK Flexibility Score: inf
ROOT
ATOM      1  C   UNL     1     -29.188   7.868   4.111  1.00  0.00     0.000 C 
ENDROOT
BRANCH   1   2
ATOM      2  C   UNL     1     -30.449   7.396   3.364  1.00  0.00     0.000 C 
BRANCH   2   3
ATOM      3  C   UNL     1     -30.274   7.188   1.846  1.00  0.00     0.000 C 
BRANCH   3   4
ATOM      4  C   UNL     1     -31.582   7.128   1.037  1.00  0.00    -0.000 C 
BRANCH   4   5
ATOM      5  C   UNL     1     -31.349   7.234  -0.480  1.00  0.00    -0.000 C 
BRANCH   5   6
ATOM      6  C   UNL     1     -30.029   6.581  -0.921  1.00  0.00    -0.000 C 
BRANCH   6   7
ATOM      7  C   UNL     1     -29.468   7.207  -2.209  1.00  0.00    -0.000 C 
BRANCH   7   8
ATOM      8  C   UNL     1     -28.190   8.024  -1.965  1.00  0.00    -0.000 C 
BRANCH   8   9
ATOM      9  C   UNL     1     -27.193   7.932  -3.131  1.00  0.00    -0.000 C 
BRANCH   9  10
ATOM     10  C   UNL     1     -27.872   8.278  -4.464  1.00  0.00    -0.000 C 
BRANCH  10  11
ATOM     11  C   UNL     1     -26.961   8.024  -5.674  1.00  0.00    -0.003 C 
ATOM     12  C   UNL     1     -26.542   9.312  -6.383  1.00  0.00     0.004 C 
ENDBRANCH  10  11
ENDBRANCH   9  10
ENDBRANCH   8   9
ENDBRANCH   7   8
ENDBRANCH   6   7
ENDBRANCH   5   6
ENDBRANCH   4   5
ENDBRANCH   3   4
ENDBRANCH   2   3
ENDBRANCH   1   2
BRANCH   1  13
ATOM     13  C   UNL     1     -29.107   7.321   5.548  1.00  0.00     0.000 C 
BRANCH  13  14
ATOM     14  C   UNL     1     -27.669   6.979   5.969  1.00  0.00     0.000 C 
BRANCH  14  15
ATOM     15  C   UNL     1     -27.563   5.605   6.653  1.00  0.00     0.000 C 
BRANCH  15  16
ATOM     16  C   UNL     1     -26.196   5.377   7.324  1.00  0.00     0.000 C 
BRANCH  16  17
ATOM     17  C   UNL     1     -26.251   5.046   8.830  1.00  0.00     0.000 C 
BRANCH  17  18
ATOM     18  C   UNL     1     -25.251   5.821   9.706  1.00  0.00     0.000 C 
BRANCH  18  19
ATOM     19  C   UNL     1     -24.982   5.133  11.054  1.00  0.00     0.000 C 
BRANCH  19  20
ATOM     20  C   UNL     1     -26.128   4.183  11.425  1.00  0.00     0.006 C 
BRANCH  20  21
ATOM     21  C   UNL     1     -27.444   4.950  11.588  1.00  0.00     0.053 C 
BRANCH  21  22
ATOM     22  C   UNL     1     -28.606   4.007  11.579  1.00  0.00     0.041 C 
ATOM     23  O   UNL     1     -29.731   4.383  12.001  1.00  0.00    -0.550 OA
ATOM     24  O   UNL     1     -28.457   2.724  11.067  1.00  0.00    -0.550 OA
ENDBRANCH  21  22
ENDBRANCH  20  21
ENDBRANCH  19  20
ENDBRANCH  18  19
ENDBRANCH  17  18
ENDBRANCH  16  17
ENDBRANCH  15  16
ENDBRANCH  14  15
ENDBRANCH  13  14
ENDBRANCH   1  13
TORSDOF 20
ENDMDL
MODEL 4
REMARK VINA RESULT:    10.731      5.557     13.034
REMARK INTER + INTRA:          23.293
REMARK INTER:                  24.287
REMARK INTRA:                  -0.994
REMARK UNBOUND:                 0.015
REMARK SMILES CCCCCCCCCCCCCCCCCCCCCC(=O)[O-]
REMARK SMILES IDX 12 1 11 2 10 3 9 4 8 5 7 6 6 7 5 8 4 9 3 10 2 11 1 12 13 13
REMARK SMILES IDX 14 14 15 15 16 16 17 17 18 18 19 19 20 20 21 21 22 22 23 23
REMARK SMILES IDX 24 24
REMARK H PARENT
REMARK Flexibility Score: inf
ROOT
ATOM      1  C   UNL     1     -29.896   7.150   4.054  1.00  0.00     0.000 C 
ENDROOT
BRANCH   1   2
ATOM      2  C   UNL     1     -28.858   7.836   4.960  1.00  0.00     0.000 C 
BRANCH   2   3
ATOM      3  C   UNL     1     -28.585   7.126   6.301  1.00  0.00     0.000 C 
BRANCH   3   4
ATOM      4  C   UNL     1     -27.511   6.025   6.254  1.00  0.00    -0.000 C 
BRANCH   4   5
ATOM      5  C   UNL     1     -27.400   5.244   7.576  1.00  0.00    -0.000 C 
BRANCH   5   6
ATOM      6  C   UNL     1     -25.964   5.209   8.121  1.00  0.00    -0.000 C 
BRANCH   6   7
ATOM      7  C   UNL     1     -25.867   5.766   9.552  1.00  0.00    -0.000 C 
BRANCH   7   8
ATOM      8  C   UNL     1     -25.484   4.692  10.582  1.00  0.00    -0.000 C 
BRANCH   8   9
ATOM      9  C   UNL     1     -26.542   4.519  11.684  1.00  0.00    -0.000 C 
BRANCH   9  10
ATOM     10  C   UNL     1     -27.947   4.839  11.152  1.00  0.00    -0.000 C 
BRANCH  10  11
ATOM     11  C   UNL     1     -29.059   4.264  12.042  1.00  0.00    -0.003 C 
ATOM     12  C   UNL     1     -29.638   2.958  11.500  1.00  0.00     0.004 C 
ENDBRANCH  10  11
ENDBRANCH   9  10
ENDBRANCH   8   9
ENDBRANCH   7   8
ENDBRANCH   6   7
ENDBRANCH   5   6
ENDBRANCH   4   5
ENDBRANCH   3   4
ENDBRANCH   2   3
ENDBRANCH   1   2
BRANCH   1  13
ATOM     13  C   UNL     1     -29.741   7.536   2.572  1.00  0.00     0.000 C 
BRANCH  13  14
ATOM     14  C   UNL     1     -30.712   6.770   1.657  1.00  0.00     0.000 C 
BRANCH  14  15
ATOM     15  C   UNL     1     -30.943   7.480   0.312  1.00  0.00     0.000 C 
BRANCH  15  16
ATOM     16  C   UNL     1     -30.812   6.531  -0.893  1.00  0.00     0.000 C 
BRANCH  16  17
ATOM     17  C   UNL     1     -29.690   6.888  -1.890  1.00  0.00     0.000 C 
BRANCH  17  18
ATOM     18  C   UNL     1     -28.639   7.882  -1.363  1.00  0.00     0.000 C 
BRANCH  18  19
ATOM     19  C   UNL     1     -27.478   8.098  -2.346  1.00  0.00     0.000 C 
BRANCH  19  20
ATOM     20  C   UNL     1     -28.000   8.396  -3.757  1.00  0.00     0.006 C 
BRANCH  20  21
ATOM     21  C   UNL     1     -27.229   7.592  -4.808  1.00  0.00     0.053 C 
BRANCH  21  22
ATOM     22  C   UNL     1     -26.679   8.499  -5.864  1.00  0.00     0.041 C 
ATOM     23  O   UNL     1     -27.456   9.086  -6.662  1.00  0.00    -0.550 OA
ATOM     24  O   UNL     1     -25.311   8.727  -5.943  1.00  0.00    -0.550 OA
ENDBRANCH  21  22
ENDBRANCH  20  21
ENDBRANCH  19  20
ENDBRANCH  18  19
ENDBRANCH  17  18
ENDBRANCH  16  17
ENDBRANCH  15  16
ENDBRANCH  14  15
ENDBRANCH  13  14
ENDBRANCH   1  13
TORSDOF 20
ENDMDL
