MODEL 1
REMARK VINA RESULT:    -4.583      0.000      0.000
REMARK INTER + INTRA:         -10.832
REMARK INTER:                  -8.869
REMARK INTRA:                  -1.962
REMARK UNBOUND:                -1.962
REMARK SMILES CCCCCCCCCCCCCCCCCC(=O)[O-]
REMARK SMILES IDX 10 1 11 2 12 3 13 4 14 5 15 6 16 7 17 8 18 9 19 10 20 11
REMARK SMILES IDX 9 12 8 13 7 14 6 15 5 16 4 17 3 18 2 19 1 20
REMARK H PARENT
REMARK Flexibility Score: inf
ROOT
ATOM      1  C   UNL     1      -5.485   5.860 -36.980  1.00  0.00     0.000 C 
ENDROOT
BRANCH   1   2
ATOM      2  C   UNL     1      -4.695   6.980 -37.681  1.00  0.00     0.000 C 
BRANCH   2   3
ATOM      3  C   UNL     1      -3.384   6.487 -38.309  1.00  0.00     0.000 C 
BRANCH   3   4
ATOM      4  C   UNL     1      -2.314   6.255 -37.234  1.00  0.00     0.000 C 
BRANCH   4   5
ATOM      5  C   UNL     1      -1.585   7.561 -36.891  1.00  0.00     0.000 C 
BRANCH   5   6
ATOM      6  C   UNL     1      -1.030   7.577 -35.456  1.00  0.00     0.000 C 
BRANCH   6   7
ATOM      7  C   UNL     1      -2.028   8.119 -34.412  1.00  0.00     0.006 C 
BRANCH   7   8
ATOM      8  C   UNL     1      -2.905   9.245 -34.978  1.00  0.00     0.053 C 
BRANCH   8   9
ATOM      9  C   UNL     1      -3.359  10.157 -33.883  1.00  0.00     0.041 C 
ATOM     10  O   UNL     1      -2.514  10.775 -33.182  1.00  0.00    -0.550 OA
ATOM     11  O   UNL     1      -4.715  10.366 -33.669  1.00  0.00    -0.550 OA
ENDBRANCH   8   9
ENDBRANCH   7   8
ENDBRANCH   6   7
ENDBRANCH   5   6
ENDBRANCH   4   5
ENDBRANCH   3   4
ENDBRANCH   2   3
ENDBRANCH   1   2
BRANCH   1  12
ATOM     12  C   UNL     1      -5.860   4.666 -37.876  1.00  0.00     0.000 C 
BRANCH  12  13
ATOM     13  C   UNL     1      -6.747   3.635 -37.163  1.00  0.00    -0.000 C 
BRANCH  13  14
ATOM     14  C   UNL     1      -6.359   3.508 -35.682  1.00  0.00    -0.000 C 
BRANCH  14  15
ATOM     15  C   UNL     1      -7.528   3.039 -34.799  1.00  0.00    -0.000 C 
BRANCH  15  16
ATOM     16  C   UNL     1      -8.578   4.140 -34.575  1.00  0.00    -0.000 C 
BRANCH  16  17
ATOM     17  C   UNL     1      -7.944   5.495 -34.219  1.00  0.00    -0.000 C 
BRANCH  17  18
ATOM     18  C   UNL     1      -7.934   5.766 -32.706  1.00  0.00    -0.000 C 
BRANCH  18  19
ATOM     19  C   UNL     1      -6.759   6.672 -32.321  1.00  0.00    -0.003 C 
ATOM     20  C   UNL     1      -5.924   7.044 -33.544  1.00  0.00     0.004 C 
ENDBRANCH  18  19
ENDBRANCH  17  18
ENDBRANCH  16  17
ENDBRANCH  15  16
ENDBRANCH  14  15
ENDBRANCH  13  14
ENDBRANCH  12  13
ENDBRANCH   1  12
TORSDOF 16
ENDMDL
MODEL 2
REMARK VINA RESULT:    -4.475      2.846      5.914
REMARK INTER + INTRA:         -10.623
REMARK INTER:                  -8.856
REMARK INTRA:                  -1.767
REMARK UNBOUND:                -1.962
REMARK SMILES CCCCCCCCCCCCCCCCCC(=O)[O-]
REMARK SMILES IDX 10 1 11 2 12 3 13 4 14 5 15 6 16 7 17 8 18 9 19 10 20 11
REMARK SMILES IDX 9 12 8 13 7 14 6 15 5 16 4 17 3 18 2 19 1 20
REMARK H PARENT
REMARK Flexibility Score: inf
ROOT
ATOM      1  C   UNL     1      -2.353   6.435 -37.270  1.00  0.00     0.000 C 
ENDROOT
BRANCH   1   2
ATOM      2  C   UNL     1      -3.794   6.545 -37.802  1.00  0.00     0.000 C 
BRANCH   2   3
ATOM      3  C   UNL     1      -4.282   5.258 -38.481  1.00  0.00     0.000 C 
BRANCH   3   4
ATOM      4  C   UNL     1      -3.373   4.072 -38.130  1.00  0.00     0.000 C 
BRANCH   4   5
ATOM      5  C   UNL     1      -4.178   2.930 -37.496  1.00  0.00     0.000 C 
BRANCH   5   6
ATOM      6  C   UNL     1      -5.685   3.230 -37.419  1.00  0.00     0.000 C 
BRANCH   6   7
ATOM      7  C   UNL     1      -6.236   3.269 -35.979  1.00  0.00     0.006 C 
BRANCH   7   8
ATOM      8  C   UNL     1      -7.530   4.086 -35.874  1.00  0.00     0.053 C 
BRANCH   8   9
ATOM      9  C   UNL     1      -8.388   3.572 -34.762  1.00  0.00     0.041 C 
ATOM     10  O   UNL     1      -8.072   3.796 -33.563  1.00  0.00    -0.550 OA
ATOM     11  O   UNL     1      -9.564   2.889 -35.049  1.00  0.00    -0.550 OA
ENDBRANCH   8   9
ENDBRANCH   7   8
ENDBRANCH   6   7
ENDBRANCH   5   6
ENDBRANCH   4   5
ENDBRANCH   3   4
ENDBRANCH   2   3
ENDBRANCH   1   2
BRANCH   1  12
ATOM     12  C   UNL     1      -1.683   7.774 -36.914  1.00  0.00     0.000 C 
BRANCH  12  13
ATOM     13  C   UNL     1      -1.001   7.758 -35.539  1.00  0.00    -0.000 C 
BRANCH  13  14
ATOM     14  C   UNL     1      -2.038   7.848 -34.410  1.00  0.00    -0.000 C 
BRANCH  14  15
ATOM     15  C   UNL     1      -2.370   9.299 -34.021  1.00  0.00    -0.000 C 
BRANCH  15  16
ATOM     16  C   UNL     1      -3.641   9.820 -34.712  1.00  0.00    -0.000 C 
BRANCH  16  17
ATOM     17  C   UNL     1      -4.642   8.696 -35.030  1.00  0.00    -0.000 C 
BRANCH  17  18
ATOM     18  C   UNL     1      -5.686   8.498 -33.920  1.00  0.00    -0.000 C 
BRANCH  18  19
ATOM     19  C   UNL     1      -5.848   7.012 -33.581  1.00  0.00    -0.003 C 
ATOM     20  C   UNL     1      -6.834   6.813 -32.433  1.00  0.00     0.004 C 
ENDBRANCH  18  19
ENDBRANCH  17  18
ENDBRANCH  16  17
ENDBRANCH  15  16
ENDBRANCH  14  15
ENDBRANCH  13  14
ENDBRANCH  12  13
ENDBRANCH   1  12
TORSDOF 16
ENDMDL
MODEL 3
REMARK VINA RESULT:    -4.467      2.709      5.542
REMARK INTER + INTRA:         -10.608
REMARK INTER:                  -8.789
REMARK INTRA:                  -1.819
REMARK UNBOUND:                -1.962
REMARK SMILES CCCCCCCCCCCCCCCCCC(=O)[O-]
REMARK SMILES IDX 10 1 11 2 12 3 13 4 14 5 15 6 16 7 17 8 18 9 19 10 20 11
REMARK SMILES IDX 9 12 8 13 7 14 6 15 5 16 4 17 3 18 2 19 1 20
REMARK H PARENT
REMARK Flexibility Score: inf
ROOT
ATOM      1  C   UNL     1      -1.227   7.518 -36.138  1.00  0.00     0.000 C 
ENDROOT
BRANCH   1   2
ATOM      2  C   UNL     1      -1.571   8.240 -34.822  1.00  0.00     0.000 C 
BRANCH   2   3
ATOM      3  C   UNL     1      -2.999   8.805 -34.804  1.00  0.00     0.000 C 
BRANCH   3   4
ATOM      4  C   UNL     1      -3.995   7.766 -34.276  1.00  0.00     0.000 C 
BRANCH   4   5
ATOM      5  C   UNL     1      -5.332   7.854 -35.023  1.00  0.00     0.000 C 
BRANCH   5   6
ATOM      6  C   UNL     1      -6.361   6.819 -34.535  1.00  0.00     0.000 C 
BRANCH   6   7
ATOM      7  C   UNL     1      -6.453   6.716 -32.998  1.00  0.00     0.006 C 
BRANCH   7   8
ATOM      8  C   UNL     1      -7.753   6.042 -32.539  1.00  0.00     0.053 C 
BRANCH   8   9
ATOM      9  C   UNL     1      -8.262   5.110 -33.592  1.00  0.00     0.041 C 
ATOM     10  O   UNL     1      -9.154   5.489 -34.396  1.00  0.00    -0.550 OA
ATOM     11  O   UNL     1      -7.713   3.840 -33.721  1.00  0.00    -0.550 OA
ENDBRANCH   8   9
ENDBRANCH   7   8
ENDBRANCH   6   7
ENDBRANCH   5   6
ENDBRANCH   4   5
ENDBRANCH   3   4
ENDBRANCH   2   3
ENDBRANCH   1   2
BRANCH   1  12
ATOM     12  C   UNL     1      -1.820   8.157 -37.407  1.00  0.00     0.000 C 
BRANCH  12  13
ATOM     13  C   UNL     1      -2.481   7.133 -38.342  1.00  0.00    -0.000 C 
BRANCH  13  14
ATOM     14  C   UNL     1      -3.245   6.069 -37.538  1.00  0.00    -0.000 C 
BRANCH  14  15
ATOM     15  C   UNL     1      -3.903   5.007 -38.435  1.00  0.00    -0.000 C 
BRANCH  15  16
ATOM     16  C   UNL     1      -3.746   3.582 -37.876  1.00  0.00    -0.000 C 
BRANCH  16  17
ATOM     17  C   UNL     1      -5.083   2.827 -37.802  1.00  0.00    -0.000 C 
BRANCH  17  18
ATOM     18  C   UNL     1      -6.059   3.443 -36.789  1.00  0.00    -0.000 C 
BRANCH  18  19
ATOM     19  C   UNL     1      -7.395   3.789 -37.456  1.00  0.00    -0.003 C 
ATOM     20  C   UNL     1      -7.559   5.298 -37.614  1.00  0.00     0.004 C 
ENDBRANCH  18  19
ENDBRANCH  17  18
ENDBRANCH  16  17
ENDBRANCH  15  16
ENDBRANCH  14  15
ENDBRANCH  13  14
ENDBRANCH  12  13
ENDBRANCH   1  12
TORSDOF 16
ENDMDL
MODEL 4
REMARK VINA RESULT:    -4.341      9.639     11.914
REMARK INTER + INTRA:         -10.365
REMARK INTER:                  -8.261
REMARK INTRA:                  -2.104
REMARK UNBOUND:                -1.962
REMARK SMILES CCCCCCCCCCCCCCCCCC(=O)[O-]
REMARK SMILES IDX 10 1 11 2 12 3 13 4 14 5 15 6 16 7 17 8 18 9 19 10 20 11
REMARK SMILES IDX 9 12 8 13 7 14 6 15 5 16 4 17 3 18 2 19 1 20
REMARK H PARENT
REMARK Flexibility Score: inf
ROOT
ATOM      1  C   UNL     1     -11.248  -4.222 -31.881  1.00  0.00     0.000 C 
ENDROOT
BRANCH   1   2
ATOM      2  C   UNL     1      -9.863  -4.145 -32.550  1.00  0.00     0.000 C 
BRANCH   2   3
ATOM      3  C   UNL     1      -9.300  -2.717 -32.598  1.00  0.00     0.000 C 
BRANCH   3   4
ATOM      4  C   UNL     1      -8.836  -2.357 -34.016  1.00  0.00     0.000 C 
BRANCH   4   5
ATOM      5  C   UNL     1      -9.944  -2.628 -35.043  1.00  0.00     0.000 C 
BRANCH   5   6
ATOM      6  C   UNL     1     -10.635  -1.343 -35.531  1.00  0.00     0.000 C 
BRANCH   6   7
ATOM      7  C   UNL     1     -11.985  -1.065 -34.839  1.00  0.00     0.006 C 
BRANCH   7   8
ATOM      8  C   UNL     1     -11.990   0.277 -34.095  1.00  0.00     0.053 C 
BRANCH   8   9
ATOM      9  C   UNL     1     -12.274   1.401 -35.041  1.00  0.00     0.041 C 
ATOM     10  O   UNL     1     -13.463   1.708 -35.320  1.00  0.00    -0.550 OA
ATOM     11  O   UNL     1     -11.228   2.143 -35.573  1.00  0.00    -0.550 OA
ENDBRANCH   8   9
ENDBRANCH   7   8
ENDBRANCH   6   7
ENDBRANCH   5   6
ENDBRANCH   4   5
ENDBRANCH   3   4
ENDBRANCH   2   3
ENDBRANCH   1   2
BRANCH   1  12
ATOM     12  C   UNL     1     -12.118  -2.961 -32.033  1.00  0.00     0.000 C 
BRANCH  12  13
ATOM     13  C   UNL     1     -13.263  -2.896 -31.012  1.00  0.00    -0.000 C 
BRANCH  13  14
ATOM     14  C   UNL     1     -12.787  -2.268 -29.693  1.00  0.00    -0.000 C 
BRANCH  14  15
ATOM     15  C   UNL     1     -13.126  -3.133 -28.467  1.00  0.00    -0.000 C 
BRANCH  15  16
ATOM     16  C   UNL     1     -11.880  -3.513 -27.650  1.00  0.00    -0.000 C 
BRANCH  16  17
ATOM     17  C   UNL     1     -10.579  -3.371 -28.457  1.00  0.00    -0.000 C 
BRANCH  17  18
ATOM     18  C   UNL     1      -9.587  -2.388 -27.817  1.00  0.00    -0.000 C 
BRANCH  18  19
ATOM     19  C   UNL     1      -8.178  -2.580 -28.392  1.00  0.00    -0.003 C 
ATOM     20  C   UNL     1      -8.111  -3.815 -29.286  1.00  0.00     0.004 C 
ENDBRANCH  18  19
ENDBRANCH  17  18
ENDBRANCH  16  17
ENDBRANCH  15  16
ENDBRANCH  14  15
ENDBRANCH  13  14
ENDBRANCH  12  13
ENDBRANCH   1  12
TORSDOF 16
ENDMDL
MODEL 5
REMARK VINA RESULT:    -4.321      1.664      5.814
REMARK INTER + INTRA:         -10.326
REMARK INTER:                  -8.707
REMARK INTRA:                  -1.619
REMARK UNBOUND:                -1.962
REMARK SMILES CCCCCCCCCCCCCCCCCC(=O)[O-]
REMARK SMILES IDX 10 1 11 2 12 3 13 4 14 5 15 6 16 7 17 8 18 9 19 10 20 11
REMARK SMILES IDX 9 12 8 13 7 14 6 15 5 16 4 17 3 18 2 19 1 20
REMARK H PARENT
REMARK Flexibility Score: inf
ROOT
ATOM      1  C   UNL     1      -5.616   5.958 -37.123  1.00  0.00     0.000 C 
ENDROOT
BRANCH   1   2
ATOM      2  C   UNL     1      -6.584   5.027 -37.876  1.00  0.00     0.000 C 
BRANCH   2   3
ATOM      3  C   UNL     1      -6.704   3.638 -37.232  1.00  0.00     0.000 C 
BRANCH   3   4
ATOM      4  C   UNL     1      -6.261   3.674 -35.764  1.00  0.00     0.000 C 
BRANCH   4   5
ATOM      5  C   UNL     1      -7.391   3.207 -34.836  1.00  0.00     0.000 C 
BRANCH   5   6
ATOM      6  C   UNL     1      -8.689   4.011 -35.022  1.00  0.00     0.000 C 
BRANCH   6   7
ATOM      7  C   UNL     1      -8.708   5.344 -34.244  1.00  0.00     0.006 C 
BRANCH   7   8
ATOM      8  C   UNL     1      -7.965   5.244 -32.905  1.00  0.00     0.053 C 
BRANCH   8   9
ATOM      9  C   UNL     1      -6.967   6.352 -32.775  1.00  0.00     0.041 C 
ATOM     10  O   UNL     1      -6.859   6.982 -31.690  1.00  0.00    -0.550 OA
ATOM     11  O   UNL     1      -6.121   6.653 -33.835  1.00  0.00    -0.550 OA
ENDBRANCH   8   9
ENDBRANCH   7   8
ENDBRANCH   6   7
ENDBRANCH   5   6
ENDBRANCH   4   5
ENDBRANCH   3   4
ENDBRANCH   2   3
ENDBRANCH   1   2
BRANCH   1  12
ATOM     12  C   UNL     1      -4.621   6.723 -38.013  1.00  0.00     0.000 C 
BRANCH  12  13
ATOM     13  C   UNL     1      -3.156   6.363 -37.723  1.00  0.00    -0.000 C 
BRANCH  13  14
ATOM     14  C   UNL     1      -2.376   7.593 -37.233  1.00  0.00    -0.000 C 
BRANCH  14  15
ATOM     15  C   UNL     1      -1.361   7.250 -36.129  1.00  0.00    -0.000 C 
BRANCH  15  16
ATOM     16  C   UNL     1      -1.597   8.055 -34.839  1.00  0.00    -0.000 C 
BRANCH  16  17
ATOM     17  C   UNL     1      -3.091   8.253 -34.533  1.00  0.00    -0.000 C 
BRANCH  17  18
ATOM     18  C   UNL     1      -3.464   9.729 -34.325  1.00  0.00    -0.000 C 
BRANCH  18  19
ATOM     19  C   UNL     1      -2.464  10.420 -33.391  1.00  0.00    -0.003 C 
ATOM     20  C   UNL     1      -3.025  11.735 -32.856  1.00  0.00     0.004 C 
ENDBRANCH  18  19
ENDBRANCH  17  18
ENDBRANCH  16  17
ENDBRANCH  15  16
ENDBRANCH  14  15
ENDBRANCH  13  14
ENDBRANCH  12  13
ENDBRANCH   1  12
TORSDOF 16
ENDMDL
MODEL 6
REMARK VINA RESULT:    -4.307      2.854      6.142
REMARK INTER + INTRA:         -10.298
REMARK INTER:                  -7.643
REMARK INTRA:                  -2.655
REMARK UNBOUND:                -1.962
REMARK SMILES CCCCCCCCCCCCCCCCCC(=O)[O-]
REMARK SMILES IDX 10 1 11 2 12 3 13 4 14 5 15 6 16 7 17 8 18 9 19 10 20 11
REMARK SMILES IDX 9 12 8 13 7 14 6 15 5 16 4 17 3 18 2 19 1 20
REMARK H PARENT
REMARK Flexibility Score: inf
ROOT
ATOM      1  C   UNL     1      -1.248   8.129 -37.017  1.00  0.00     0.000 C 
ENDROOT
BRANCH   1   2
ATOM      2  C   UNL     1      -2.500   8.017 -37.906  1.00  0.00     0.000 C 
BRANCH   2   3
ATOM      3  C   UNL     1      -3.515   6.989 -37.386  1.00  0.00     0.000 C 
BRANCH   3   4
ATOM      4  C   UNL     1      -4.763   7.683 -36.826  1.00  0.00     0.000 C 
BRANCH   4   5
ATOM      5  C   UNL     1      -5.647   6.692 -36.057  1.00  0.00     0.000 C 
BRANCH   5   6
ATOM      6  C   UNL     1      -6.379   7.340 -34.869  1.00  0.00     0.000 C 
BRANCH   6   7
ATOM      7  C   UNL     1      -5.984   6.748 -33.501  1.00  0.00     0.006 C 
BRANCH   7   8
ATOM      8  C   UNL     1      -7.206   6.297 -32.689  1.00  0.00     0.053 C 
BRANCH   8   9
ATOM      9  C   UNL     1      -8.031   5.329 -33.477  1.00  0.00     0.041 C 
ATOM     10  O   UNL     1      -7.710   4.111 -33.520  1.00  0.00    -0.550 OA
ATOM     11  O   UNL     1      -9.184   5.760 -34.121  1.00  0.00    -0.550 OA
ENDBRANCH   8   9
ENDBRANCH   7   8
ENDBRANCH   6   7
ENDBRANCH   5   6
ENDBRANCH   4   5
ENDBRANCH   3   4
ENDBRANCH   2   3
ENDBRANCH   1   2
BRANCH   1  12
ATOM     12  C   UNL     1      -1.156   7.091 -35.884  1.00  0.00     0.000 C 
BRANCH  12  13
ATOM     13  C   UNL     1      -1.059   7.729 -34.491  1.00  0.00    -0.000 C 
BRANCH  13  14
ATOM     14  C   UNL     1      -2.443   8.171 -33.991  1.00  0.00    -0.000 C 
BRANCH  14  15
ATOM     15  C   UNL     1      -2.636   9.696 -34.046  1.00  0.00    -0.000 C 
BRANCH  15  16
ATOM     16  C   UNL     1      -4.116  10.107 -33.979  1.00  0.00    -0.000 C 
BRANCH  16  17
ATOM     17  C   UNL     1      -4.530  11.016 -35.148  1.00  0.00    -0.000 C 
BRANCH  17  18
ATOM     18  C   UNL     1      -3.480  11.056 -36.269  1.00  0.00    -0.000 C 
BRANCH  18  19
ATOM     19  C   UNL     1      -4.131  11.395 -37.615  1.00  0.00    -0.003 C 
ATOM     20  C   UNL     1      -5.114  12.555 -37.476  1.00  0.00     0.004 C 
ENDBRANCH  18  19
ENDBRANCH  17  18
ENDBRANCH  16  17
ENDBRANCH  15  16
ENDBRANCH  14  15
ENDBRANCH  13  14
ENDBRANCH  12  13
ENDBRANCH   1  12
TORSDOF 16
ENDMDL
MODEL 7
REMARK VINA RESULT:    -4.291      2.442      5.796
REMARK INTER + INTRA:         -10.267
REMARK INTER:                  -7.616
REMARK INTRA:                  -2.651
REMARK UNBOUND:                -1.962
REMARK SMILES CCCCCCCCCCCCCCCCCC(=O)[O-]
REMARK SMILES IDX 10 1 11 2 12 3 13 4 14 5 15 6 16 7 17 8 18 9 19 10 20 11
REMARK SMILES IDX 9 12 8 13 7 14 6 15 5 16 4 17 3 18 2 19 1 20
REMARK H PARENT
REMARK Flexibility Score: inf
ROOT
ATOM      1  C   UNL     1      -3.986   5.653 -37.628  1.00  0.00     0.000 C 
ENDROOT
BRANCH   1   2
ATOM      2  C   UNL     1      -3.837   4.247 -38.240  1.00  0.00     0.000 C 
BRANCH   2   3
ATOM      3  C   UNL     1      -4.722   3.198 -37.552  1.00  0.00     0.000 C 
BRANCH   3   4
ATOM      4  C   UNL     1      -6.136   3.196 -38.147  1.00  0.00     0.000 C 
BRANCH   4   5
ATOM      5  C   UNL     1      -7.160   3.728 -37.135  1.00  0.00     0.000 C 
BRANCH   5   6
ATOM      6  C   UNL     1      -7.643   5.151 -37.464  1.00  0.00     0.000 C 
BRANCH   6   7
ATOM      7  C   UNL     1      -7.513   6.136 -36.284  1.00  0.00     0.006 C 
BRANCH   7   8
ATOM      8  C   UNL     1      -6.940   5.465 -35.028  1.00  0.00     0.053 C 
BRANCH   8   9
ATOM      9  C   UNL     1      -7.921   5.538 -33.900  1.00  0.00     0.041 C 
ATOM     10  O   UNL     1      -7.514   5.616 -32.711  1.00  0.00    -0.550 OA
ATOM     11  O   UNL     1      -9.284   5.574 -34.166  1.00  0.00    -0.550 OA
ENDBRANCH   8   9
ENDBRANCH   7   8
ENDBRANCH   6   7
ENDBRANCH   5   6
ENDBRANCH   4   5
ENDBRANCH   3   4
ENDBRANCH   2   3
ENDBRANCH   1   2
BRANCH   1  12
ATOM     12  C   UNL     1      -4.480   6.739 -38.602  1.00  0.00     0.000 C 
BRANCH  12  13
ATOM     13  C   UNL     1      -3.464   7.874 -38.800  1.00  0.00    -0.000 C 
BRANCH  13  14
ATOM     14  C   UNL     1      -2.080   7.471 -38.269  1.00  0.00    -0.000 C 
BRANCH  14  15
ATOM     15  C   UNL     1      -1.552   8.436 -37.194  1.00  0.00    -0.000 C 
BRANCH  15  16
ATOM     16  C   UNL     1      -1.166   7.715 -35.892  1.00  0.00    -0.000 C 
BRANCH  16  17
ATOM     17  C   UNL     1      -2.100   8.069 -34.722  1.00  0.00    -0.000 C 
BRANCH  17  18
ATOM     18  C   UNL     1      -3.239   9.013 -35.137  1.00  0.00    -0.000 C 
BRANCH  18  19
ATOM     19  C   UNL     1      -4.583   8.276 -35.148  1.00  0.00    -0.003 C 
ATOM     20  C   UNL     1      -5.474   8.737 -33.996  1.00  0.00     0.004 C 
ENDBRANCH  18  19
ENDBRANCH  17  18
ENDBRANCH  16  17
ENDBRANCH  15  16
ENDBRANCH  14  15
ENDBRANCH  13  14
ENDBRANCH  12  13
ENDBRANCH   1  12
TORSDOF 16
ENDMDL
MODEL 8
REMARK VINA RESULT:    -4.265     11.730     13.357
REMARK INTER + INTRA:         -10.217
REMARK INTER:                  -8.060
REMARK INTRA:                  -2.157
REMARK UNBOUND:                -1.962
REMARK SMILES CCCCCCCCCCCCCCCCCC(=O)[O-]
REMARK SMILES IDX 10 1 11 2 12 3 13 4 14 5 15 6 16 7 17 8 18 9 19 10 20 11
REMARK SMILES IDX 9 12 8 13 7 14 6 15 5 16 4 17 3 18 2 19 1 20
REMARK H PARENT
REMARK Flexibility Score: inf
ROOT
ATOM      1  C   UNL     1      -8.652  -2.735 -29.264  1.00  0.00     0.000 C 
ENDROOT
BRANCH   1   2
ATOM      2  C   UNL     1      -9.701  -2.793 -28.138  1.00  0.00     0.000 C 
BRANCH   2   3
ATOM      3  C   UNL     1      -9.119  -2.454 -26.759  1.00  0.00     0.000 C 
BRANCH   3   4
ATOM      4  C   UNL     1      -8.682  -3.725 -26.019  1.00  0.00     0.000 C 
BRANCH   4   5
ATOM      5  C   UNL     1      -7.154  -3.867 -26.022  1.00  0.00     0.000 C 
BRANCH   5   6
ATOM      6  C   UNL     1      -6.681  -5.232 -26.551  1.00  0.00     0.000 C 
BRANCH   6   7
ATOM      7  C   UNL     1      -5.610  -5.130 -27.656  1.00  0.00     0.006 C 
BRANCH   7   8
ATOM      8  C   UNL     1      -5.248  -3.674 -27.981  1.00  0.00     0.053 C 
BRANCH   8   9
ATOM      9  C   UNL     1      -3.765  -3.516 -28.100  1.00  0.00     0.041 C 
ATOM     10  O   UNL     1      -3.142  -4.077 -29.039  1.00  0.00    -0.550 OA
ATOM     11  O   UNL     1      -3.078  -2.705 -27.205  1.00  0.00    -0.550 OA
ENDBRANCH   8   9
ENDBRANCH   7   8
ENDBRANCH   6   7
ENDBRANCH   5   6
ENDBRANCH   4   5
ENDBRANCH   3   4
ENDBRANCH   2   3
ENDBRANCH   1   2
BRANCH   1  12
ATOM     12  C   UNL     1      -8.372  -4.076 -29.966  1.00  0.00     0.000 C 
BRANCH  12  13
ATOM     13  C   UNL     1      -9.320  -4.347 -31.143  1.00  0.00    -0.000 C 
BRANCH  13  14
ATOM     14  C   UNL     1      -9.367  -3.144 -32.098  1.00  0.00    -0.000 C 
BRANCH  14  15
ATOM     15  C   UNL     1     -10.796  -2.624 -32.329  1.00  0.00    -0.000 C 
BRANCH  15  16
ATOM     16  C   UNL     1     -11.870  -3.628 -31.876  1.00  0.00    -0.000 C 
BRANCH  16  17
ATOM     17  C   UNL     1     -13.117  -2.938 -31.299  1.00  0.00    -0.000 C 
BRANCH  17  18
ATOM     18  C   UNL     1     -12.855  -2.281 -29.935  1.00  0.00    -0.000 C 
BRANCH  18  19
ATOM     19  C   UNL     1     -13.262  -3.217 -28.790  1.00  0.00    -0.003 C 
ATOM     20  C   UNL     1     -14.415  -4.127 -29.205  1.00  0.00     0.004 C 
ENDBRANCH  18  19
ENDBRANCH  17  18
ENDBRANCH  16  17
ENDBRANCH  15  16
ENDBRANCH  14  15
ENDBRANCH  13  14
ENDBRANCH  12  13
ENDBRANCH   1  12
TORSDOF 16
ENDMDL
MODEL 9
REMARK VINA RESULT:    -4.213      1.449      2.501
REMARK INTER + INTRA:         -10.115
REMARK INTER:                  -7.860
REMARK INTRA:                  -2.255
REMARK UNBOUND:                -1.962
REMARK SMILES CCCCCCCCCCCCCCCCCC(=O)[O-]
REMARK SMILES IDX 10 1 11 2 12 3 13 4 14 5 15 6 16 7 17 8 18 9 19 10 20 11
REMARK SMILES IDX 9 12 8 13 7 14 6 15 5 16 4 17 3 18 2 19 1 20
REMARK H PARENT
REMARK Flexibility Score: inf
ROOT
ATOM      1  C   UNL     1      -3.159   6.446 -37.705  1.00  0.00     0.000 C 
ENDROOT
BRANCH   1   2
ATOM      2  C   UNL     1      -2.387   7.695 -38.169  1.00  0.00     0.000 C 
BRANCH   2   3
ATOM      3  C   UNL     1      -1.323   8.151 -37.161  1.00  0.00     0.000 C 
BRANCH   3   4
ATOM      4  C   UNL     1      -1.156   7.123 -36.035  1.00  0.00     0.000 C 
BRANCH   4   5
ATOM      5  C   UNL     1      -1.077   7.812 -34.666  1.00  0.00     0.000 C 
BRANCH   5   6
ATOM      6  C   UNL     1      -2.460   8.074 -34.046  1.00  0.00     0.000 C 
BRANCH   6   7
ATOM      7  C   UNL     1      -2.949   9.527 -34.215  1.00  0.00     0.006 C 
BRANCH   7   8
ATOM      8  C   UNL     1      -4.193   9.621 -35.109  1.00  0.00     0.053 C 
BRANCH   8   9
ATOM      9  C   UNL     1      -3.991  10.640 -36.185  1.00  0.00     0.041 C 
ATOM     10  O   UNL     1      -4.365  10.400 -37.364  1.00  0.00    -0.550 OA
ATOM     11  O   UNL     1      -3.436  11.876 -35.877  1.00  0.00    -0.550 OA
ENDBRANCH   8   9
ENDBRANCH   7   8
ENDBRANCH   6   7
ENDBRANCH   5   6
ENDBRANCH   4   5
ENDBRANCH   3   4
ENDBRANCH   2   3
ENDBRANCH   1   2
BRANCH   1  12
ATOM     12  C   UNL     1      -4.629   6.691 -37.323  1.00  0.00     0.000 C 
BRANCH  12  13
ATOM     13  C   UNL     1      -5.573   5.589 -37.829  1.00  0.00    -0.000 C 
BRANCH  13  14
ATOM     14  C   UNL     1      -4.863   4.227 -37.853  1.00  0.00    -0.000 C 
BRANCH  14  15
ATOM     15  C   UNL     1      -5.677   3.121 -37.159  1.00  0.00    -0.000 C 
BRANCH  15  16
ATOM     16  C   UNL     1      -6.926   3.666 -36.446  1.00  0.00    -0.000 C 
BRANCH  16  17
ATOM     17  C   UNL     1      -6.958   3.304 -34.952  1.00  0.00    -0.000 C 
BRANCH  17  18
ATOM     18  C   UNL     1      -7.582   4.409 -34.086  1.00  0.00    -0.000 C 
BRANCH  18  19
ATOM     19  C   UNL     1      -7.020   5.784 -34.465  1.00  0.00    -0.003 C 
ATOM     20  C   UNL     1      -6.512   6.531 -33.234  1.00  0.00     0.004 C 
ENDBRANCH  18  19
ENDBRANCH  17  18
ENDBRANCH  16  17
ENDBRANCH  15  16
ENDBRANCH  14  15
ENDBRANCH  13  14
ENDBRANCH  12  13
ENDBRANCH   1  12
TORSDOF 16
ENDMDL
