MODEL 1
REMARK VINA RESULT:    -6.236      0.000      0.000
REMARK INTER + INTRA:          -7.151
REMARK INTER:                  -7.329
REMARK INTRA:                   0.178
REMARK UNBOUND:                 0.178
REMARK SMILES O=c1c(O)c(-c2ccc(O)cc2)oc2cc(O)cc(O)c12
REMARK SMILES IDX 5 1 3 2 2 3 1 4 21 5 19 6 18 7 16 8 15 9 14 10 13 11 6 12
REMARK SMILES IDX 7 13 8 14 9 15 12 16 11 17 10 18 4 20 20 22 17 24
REMARK H PARENT 10 19 4 21 20 23 17 25
REMARK Flexibility Score: inf
ROOT
ATOM      1  C   UNL     1      17.947  29.968  32.161  1.00  0.00     0.180 A 
ATOM      2  C   UNL     1      18.475  29.250  33.247  1.00  0.00     0.208 A 
ATOM      3  C   UNL     1      18.326  29.769  34.543  1.00  0.00     0.238 A 
ATOM      4  O   UNL     1      18.754  29.095  35.517  1.00  0.00    -0.285 OA
ATOM      5  C   UNL     1      17.668  31.007  34.735  1.00  0.00     0.111 A 
ATOM      6  C   UNL     1      17.496  31.646  36.000  1.00  0.00     0.134 A 
ATOM      7  C   UNL     1      16.713  32.804  36.088  1.00  0.00     0.093 A 
ATOM      8  C   UNL     1      16.151  33.381  34.947  1.00  0.00     0.123 A 
ATOM      9  C   UNL     1      16.362  32.798  33.701  1.00  0.00     0.094 A 
ATOM     10  C   UNL     1      17.107  31.622  33.586  1.00  0.00     0.146 A 
ATOM     11  O   UNL     1      17.276  31.093  32.380  1.00  0.00    -0.452 OA
ENDROOT
BRANCH   1  12
ATOM     12  C   UNL     1      18.085  29.498  30.764  1.00  0.00     0.021 A 
ATOM     13  C   UNL     1      17.936  28.140  30.428  1.00  0.00     0.016 A 
ATOM     14  C   UNL     1      18.095  27.717  29.106  1.00  0.00     0.047 A 
ATOM     15  C   UNL     1      18.419  28.641  28.104  1.00  0.00     0.115 A 
ATOM     16  C   UNL     1      18.431  30.416  29.756  1.00  0.00     0.016 A 
ATOM     17  C   UNL     1      18.588  29.989  28.434  1.00  0.00     0.047 A 
BRANCH  15  18
ATOM     18  O   UNL     1      18.578  28.231  26.783  1.00  0.00    -0.508 OA
ATOM     19  H   UNL     1      17.781  28.069  26.179  1.00  0.00     0.293 HD
ENDBRANCH  15  18
ENDBRANCH   1  12
BRANCH   2  20
ATOM     20  O   UNL     1      19.104  28.019  33.037  1.00  0.00    -0.502 OA
ATOM     21  H   UNL     1      19.964  27.761  33.505  1.00  0.00     0.293 HD
ENDBRANCH   2  20
BRANCH   6  22
ATOM     22  O   UNL     1      18.092  31.203  37.186  1.00  0.00    -0.507 OA
ATOM     23  H   UNL     1      19.041  30.873  37.263  1.00  0.00     0.293 HD
ENDBRANCH   6  22
BRANCH   8  24
ATOM     24  O   UNL     1      15.386  34.542  35.043  1.00  0.00    -0.508 OA
ATOM     25  H   UNL     1      15.797  35.428  35.310  1.00  0.00     0.293 HD
ENDBRANCH   8  24
TORSDOF 5
ENDMDL
MODEL 2
REMARK VINA RESULT:    -6.235      0.068      1.059
REMARK INTER + INTRA:          -7.151
REMARK INTER:                  -7.350
REMARK INTRA:                   0.200
REMARK UNBOUND:                 0.178
REMARK SMILES O=c1c(O)c(-c2ccc(O)cc2)oc2cc(O)cc(O)c12
REMARK SMILES IDX 5 1 3 2 2 3 1 4 21 5 19 6 18 7 16 8 15 9 14 10 13 11 6 12
REMARK SMILES IDX 7 13 8 14 9 15 12 16 11 17 10 18 4 20 20 22 17 24
REMARK H PARENT 10 19 4 21 20 23 17 25
REMARK Flexibility Score: inf
ROOT
ATOM      1  C   UNL     1      17.979  29.960  32.143  1.00  0.00     0.180 A 
ATOM      2  C   UNL     1      18.500  29.239  33.232  1.00  0.00     0.208 A 
ATOM      3  C   UNL     1      18.345  29.758  34.528  1.00  0.00     0.238 A 
ATOM      4  O   UNL     1      18.766  29.083  35.503  1.00  0.00    -0.285 OA
ATOM      5  C   UNL     1      17.686  30.996  34.717  1.00  0.00     0.111 A 
ATOM      6  C   UNL     1      17.508  31.635  35.981  1.00  0.00     0.134 A 
ATOM      7  C   UNL     1      16.726  32.794  36.066  1.00  0.00     0.093 A 
ATOM      8  C   UNL     1      16.171  33.372  34.923  1.00  0.00     0.123 A 
ATOM      9  C   UNL     1      16.388  32.789  33.677  1.00  0.00     0.094 A 
ATOM     10  C   UNL     1      17.133  31.613  33.565  1.00  0.00     0.146 A 
ATOM     11  O   UNL     1      17.308  31.085  32.360  1.00  0.00    -0.452 OA
ENDROOT
BRANCH   1  12
ATOM     12  C   UNL     1      18.124  29.491  30.747  1.00  0.00     0.021 A 
ATOM     13  C   UNL     1      18.395  30.386  29.696  1.00  0.00     0.016 A 
ATOM     14  C   UNL     1      18.503  29.923  28.382  1.00  0.00     0.047 A 
ATOM     15  C   UNL     1      18.329  28.563  28.097  1.00  0.00     0.115 A 
ATOM     16  C   UNL     1      17.930  28.130  30.450  1.00  0.00     0.016 A 
ATOM     17  C   UNL     1      18.041  27.670  29.134  1.00  0.00     0.047 A 
BRANCH  15  18
ATOM     18  O   UNL     1      18.437  28.090  26.792  1.00  0.00    -0.508 OA
ATOM     19  H   UNL     1      17.651  27.661  26.318  1.00  0.00     0.293 HD
ENDBRANCH  15  18
ENDBRANCH   1  12
BRANCH   2  20
ATOM     20  O   UNL     1      19.128  28.008  33.025  1.00  0.00    -0.502 OA
ATOM     21  H   UNL     1      20.088  27.933  32.711  1.00  0.00     0.293 HD
ENDBRANCH   2  20
BRANCH   6  22
ATOM     22  O   UNL     1      18.097  31.190  37.170  1.00  0.00    -0.507 OA
ATOM     23  H   UNL     1      18.819  30.489  37.226  1.00  0.00     0.293 HD
ENDBRANCH   6  22
BRANCH   8  24
ATOM     24  O   UNL     1      15.407  34.534  35.015  1.00  0.00    -0.508 OA
ATOM     25  H   UNL     1      14.428  34.547  34.755  1.00  0.00     0.293 HD
ENDBRANCH   8  24
TORSDOF 5
ENDMDL
MODEL 3
REMARK VINA RESULT:    -6.111      3.368      6.179
REMARK INTER + INTRA:          -7.005
REMARK INTER:                  -6.705
REMARK INTRA:                  -0.300
REMARK UNBOUND:                 0.178
REMARK SMILES O=c1c(O)c(-c2ccc(O)cc2)oc2cc(O)cc(O)c12
REMARK SMILES IDX 5 1 3 2 2 3 1 4 21 5 19 6 18 7 16 8 15 9 14 10 13 11 6 12
REMARK SMILES IDX 7 13 8 14 9 15 12 16 11 17 10 18 4 20 20 22 17 24
REMARK H PARENT 10 19 4 21 20 23 17 25
REMARK Flexibility Score: inf
ROOT
ATOM      1  C   UNL     1      19.486  26.530  28.761  1.00  0.00     0.180 A 
ATOM      2  C   UNL     1      19.610  27.503  27.754  1.00  0.00     0.208 A 
ATOM      3  C   UNL     1      19.285  28.836  28.052  1.00  0.00     0.238 A 
ATOM      4  O   UNL     1      19.449  29.711  27.161  1.00  0.00    -0.285 OA
ATOM      5  C   UNL     1      18.824  29.177  29.345  1.00  0.00     0.111 A 
ATOM      6  C   UNL     1      18.428  30.488  29.746  1.00  0.00     0.134 A 
ATOM      7  C   UNL     1      18.115  30.736  31.088  1.00  0.00     0.093 A 
ATOM      8  C   UNL     1      18.120  29.705  32.030  1.00  0.00     0.123 A 
ATOM      9  C   UNL     1      18.447  28.410  31.638  1.00  0.00     0.094 A 
ATOM     10  C   UNL     1      18.800  28.140  30.313  1.00  0.00     0.146 A 
ATOM     11  O   UNL     1      19.115  26.893  29.984  1.00  0.00    -0.452 OA
ENDROOT
BRANCH   1  12
ATOM     12  C   UNL     1      19.786  25.101  28.517  1.00  0.00     0.021 A 
ATOM     13  C   UNL     1      18.805  24.218  28.031  1.00  0.00     0.016 A 
ATOM     14  C   UNL     1      19.105  22.867  27.831  1.00  0.00     0.047 A 
ATOM     15  C   UNL     1      20.384  22.378  28.128  1.00  0.00     0.115 A 
ATOM     16  C   UNL     1      21.061  24.598  28.832  1.00  0.00     0.016 A 
ATOM     17  C   UNL     1      21.358  23.247  28.630  1.00  0.00     0.047 A 
BRANCH  15  18
ATOM     18  O   UNL     1      20.695  21.035  27.932  1.00  0.00    -0.508 OA
ATOM     19  H   UNL     1      20.721  20.628  27.004  1.00  0.00     0.293 HD
ENDBRANCH  15  18
ENDBRANCH   1  12
BRANCH   2  20
ATOM     20  O   UNL     1      20.087  27.148  26.489  1.00  0.00    -0.502 OA
ATOM     21  H   UNL     1      21.011  26.760  26.345  1.00  0.00     0.293 HD
ENDBRANCH   2  20
BRANCH   6  22
ATOM     22  O   UNL     1      18.302  31.568  28.865  1.00  0.00    -0.507 OA
ATOM     23  H   UNL     1      18.914  31.747  28.085  1.00  0.00     0.293 HD
ENDBRANCH   6  22
BRANCH   8  24
ATOM     24  O   UNL     1      17.791  29.958  33.361  1.00  0.00    -0.508 OA
ATOM     25  H   UNL     1      18.351  29.596  34.123  1.00  0.00     0.293 HD
ENDBRANCH   8  24
TORSDOF 5
ENDMDL
MODEL 4
REMARK VINA RESULT:    -6.092      2.279      3.401
REMARK INTER + INTRA:          -6.982
REMARK INTER:                  -6.698
REMARK INTRA:                  -0.284
REMARK UNBOUND:                 0.178
REMARK SMILES O=c1c(O)c(-c2ccc(O)cc2)oc2cc(O)cc(O)c12
REMARK SMILES IDX 5 1 3 2 2 3 1 4 21 5 19 6 18 7 16 8 15 9 14 10 13 11 6 12
REMARK SMILES IDX 7 13 8 14 9 15 12 16 11 17 10 18 4 20 20 22 17 24
REMARK H PARENT 10 19 4 21 20 23 17 25
REMARK Flexibility Score: inf
ROOT
ATOM      1  C   UNL     1      19.310  28.073  30.211  1.00  0.00     0.180 A 
ATOM      2  C   UNL     1      19.938  27.055  30.950  1.00  0.00     0.208 A 
ATOM      3  C   UNL     1      19.802  27.046  32.347  1.00  0.00     0.238 A 
ATOM      4  O   UNL     1      20.321  26.102  32.998  1.00  0.00    -0.285 OA
ATOM      5  C   UNL     1      19.055  28.062  32.990  1.00  0.00     0.111 A 
ATOM      6  C   UNL     1      18.885  28.174  34.402  1.00  0.00     0.134 A 
ATOM      7  C   UNL     1      18.017  29.143  34.920  1.00  0.00     0.093 A 
ATOM      8  C   UNL     1      17.364  30.047  34.079  1.00  0.00     0.123 A 
ATOM      9  C   UNL     1      17.570  29.984  32.703  1.00  0.00     0.094 A 
ATOM     10  C   UNL     1      18.401  29.004  32.155  1.00  0.00     0.146 A 
ATOM     11  O   UNL     1      18.561  28.974  30.837  1.00  0.00    -0.452 OA
ENDROOT
BRANCH   1  12
ATOM     12  C   UNL     1      19.428  28.164  28.738  1.00  0.00     0.021 A 
ATOM     13  C   UNL     1      18.565  27.449  27.888  1.00  0.00     0.016 A 
ATOM     14  C   UNL     1      18.711  27.532  26.500  1.00  0.00     0.047 A 
ATOM     15  C   UNL     1      19.728  28.319  25.944  1.00  0.00     0.115 A 
ATOM     16  C   UNL     1      20.458  28.935  28.173  1.00  0.00     0.016 A 
ATOM     17  C   UNL     1      20.601  29.017  26.784  1.00  0.00     0.047 A 
BRANCH  15  18
ATOM     18  O   UNL     1      19.882  28.410  24.563  1.00  0.00    -0.508 OA
ATOM     19  H   UNL     1      20.694  28.024  24.094  1.00  0.00     0.293 HD
ENDBRANCH  15  18
ENDBRANCH   1  12
BRANCH   2  20
ATOM     20  O   UNL     1      20.653  26.049  30.294  1.00  0.00    -0.502 OA
ATOM     21  H   UNL     1      21.200  26.226  29.461  1.00  0.00     0.293 HD
ENDBRANCH   2  20
BRANCH   6  22
ATOM     22  O   UNL     1      19.562  27.380  35.335  1.00  0.00    -0.507 OA
ATOM     23  H   UNL     1      19.971  27.723  36.191  1.00  0.00     0.293 HD
ENDBRANCH   6  22
BRANCH   8  24
ATOM     24  O   UNL     1      16.514  31.019  34.604  1.00  0.00    -0.508 OA
ATOM     25  H   UNL     1      15.530  31.047  34.365  1.00  0.00     0.293 HD
ENDBRANCH   8  24
TORSDOF 5
ENDMDL
MODEL 5
REMARK VINA RESULT:    -6.070      1.849      7.483
REMARK INTER + INTRA:          -6.957
REMARK INTER:                  -6.670
REMARK INTRA:                  -0.286
REMARK UNBOUND:                 0.178
REMARK SMILES O=c1c(O)c(-c2ccc(O)cc2)oc2cc(O)cc(O)c12
REMARK SMILES IDX 5 1 3 2 2 3 1 4 21 5 19 6 18 7 16 8 15 9 14 10 13 11 6 12
REMARK SMILES IDX 7 13 8 14 9 15 12 16 11 17 10 18 4 20 20 22 17 24
REMARK H PARENT 10 19 4 21 20 23 17 25
REMARK Flexibility Score: inf
ROOT
ATOM      1  C   UNL     1      18.340  29.711  30.944  1.00  0.00     0.180 A 
ATOM      2  C   UNL     1      18.475  30.716  29.970  1.00  0.00     0.208 A 
ATOM      3  C   UNL     1      18.687  30.344  28.633  1.00  0.00     0.238 A 
ATOM      4  O   UNL     1      18.753  31.247  27.758  1.00  0.00    -0.285 OA
ATOM      5  C   UNL     1      18.780  28.975  28.288  1.00  0.00     0.111 A 
ATOM      6  C   UNL     1      19.034  28.486  26.972  1.00  0.00     0.134 A 
ATOM      7  C   UNL     1      18.973  27.109  26.723  1.00  0.00     0.093 A 
ATOM      8  C   UNL     1      18.734  26.200  27.756  1.00  0.00     0.123 A 
ATOM      9  C   UNL     1      18.544  26.664  29.055  1.00  0.00     0.094 A 
ATOM     10  C   UNL     1      18.561  28.034  29.328  1.00  0.00     0.146 A 
ATOM     11  O   UNL     1      18.366  28.434  30.578  1.00  0.00    -0.452 OA
ENDROOT
BRANCH   1  12
ATOM     12  C   UNL     1      18.139  30.024  32.377  1.00  0.00     0.021 A 
ATOM     13  C   UNL     1      16.855  30.246  32.906  1.00  0.00     0.016 A 
ATOM     14  C   UNL     1      16.692  30.564  34.257  1.00  0.00     0.047 A 
ATOM     15  C   UNL     1      17.809  30.679  35.094  1.00  0.00     0.115 A 
ATOM     16  C   UNL     1      19.256  30.162  33.218  1.00  0.00     0.016 A 
ATOM     17  C   UNL     1      19.090  30.479  34.570  1.00  0.00     0.047 A 
BRANCH  15  18
ATOM     18  O   UNL     1      17.659  30.994  36.442  1.00  0.00    -0.508 OA
ATOM     19  H   UNL     1      16.981  31.681  36.752  1.00  0.00     0.293 HD
ENDBRANCH  15  18
ENDBRANCH   1  12
BRANCH   2  20
ATOM     20  O   UNL     1      18.359  32.062  30.329  1.00  0.00    -0.502 OA
ATOM     21  H   UNL     1      17.656  32.672  29.930  1.00  0.00     0.293 HD
ENDBRANCH   2  20
BRANCH   6  22
ATOM     22  O   UNL     1      19.374  29.302  25.888  1.00  0.00    -0.507 OA
ATOM     23  H   UNL     1      20.285  29.708  25.739  1.00  0.00     0.293 HD
ENDBRANCH   6  22
BRANCH   8  24
ATOM     24  O   UNL     1      18.691  24.830  27.502  1.00  0.00    -0.508 OA
ATOM     25  H   UNL     1      19.447  24.357  27.023  1.00  0.00     0.293 HD
ENDBRANCH   8  24
TORSDOF 5
ENDMDL
MODEL 6
REMARK VINA RESULT:    -6.057      2.074      6.900
REMARK INTER + INTRA:          -6.941
REMARK INTER:                  -6.899
REMARK INTRA:                  -0.042
REMARK UNBOUND:                 0.178
REMARK SMILES O=c1c(O)c(-c2ccc(O)cc2)oc2cc(O)cc(O)c12
REMARK SMILES IDX 5 1 3 2 2 3 1 4 21 5 19 6 18 7 16 8 15 9 14 10 13 11 6 12
REMARK SMILES IDX 7 13 8 14 9 15 12 16 11 17 10 18 4 20 20 22 17 24
REMARK H PARENT 10 19 4 21 20 23 17 25
REMARK Flexibility Score: inf
ROOT
ATOM      1  C   UNL     1      18.516  28.625  32.111  1.00  0.00     0.180 A 
ATOM      2  C   UNL     1      19.574  27.810  32.549  1.00  0.00     0.208 A 
ATOM      3  C   UNL     1      20.086  26.834  31.679  1.00  0.00     0.238 A 
ATOM      4  O   UNL     1      21.069  26.144  32.057  1.00  0.00    -0.285 OA
ATOM      5  C   UNL     1      19.524  26.673  30.391  1.00  0.00     0.111 A 
ATOM      6  C   UNL     1      19.936  25.689  29.443  1.00  0.00     0.134 A 
ATOM      7  C   UNL     1      19.399  25.707  28.149  1.00  0.00     0.093 A 
ATOM      8  C   UNL     1      18.415  26.632  27.791  1.00  0.00     0.123 A 
ATOM      9  C   UNL     1      17.963  27.558  28.727  1.00  0.00     0.094 A 
ATOM     10  C   UNL     1      18.507  27.588  30.014  1.00  0.00     0.146 A 
ATOM     11  O   UNL     1      18.054  28.494  30.872  1.00  0.00    -0.452 OA
ENDROOT
BRANCH   1  12
ATOM     12  C   UNL     1      17.907  29.659  32.978  1.00  0.00     0.021 A 
ATOM     13  C   UNL     1      17.411  29.345  34.256  1.00  0.00     0.016 A 
ATOM     14  C   UNL     1      16.817  30.333  35.047  1.00  0.00     0.047 A 
ATOM     15  C   UNL     1      16.699  31.644  34.566  1.00  0.00     0.115 A 
ATOM     16  C   UNL     1      17.765  30.971  32.494  1.00  0.00     0.016 A 
ATOM     17  C   UNL     1      17.172  31.958  33.288  1.00  0.00     0.047 A 
BRANCH  15  18
ATOM     18  O   UNL     1      16.112  32.637  35.346  1.00  0.00    -0.508 OA
ATOM     19  H   UNL     1      16.374  32.774  36.315  1.00  0.00     0.293 HD
ENDBRANCH  15  18
ENDBRANCH   1  12
BRANCH   2  20
ATOM     20  O   UNL     1      20.129  28.001  33.817  1.00  0.00    -0.502 OA
ATOM     21  H   UNL     1      20.052  28.876  34.319  1.00  0.00     0.293 HD
ENDBRANCH   2  20
BRANCH   6  22
ATOM     22  O   UNL     1      20.845  24.664  29.727  1.00  0.00    -0.507 OA
ATOM     23  H   UNL     1      21.693  24.489  29.210  1.00  0.00     0.293 HD
ENDBRANCH   6  22
BRANCH   8  24
ATOM     24  O   UNL     1      17.875  26.632  26.507  1.00  0.00    -0.508 OA
ATOM     25  H   UNL     1      18.261  26.055  25.769  1.00  0.00     0.293 HD
ENDBRANCH   8  24
TORSDOF 5
ENDMDL
MODEL 7
REMARK VINA RESULT:    -5.990      2.490      7.216
REMARK INTER + INTRA:          -6.863
REMARK INTER:                  -6.625
REMARK INTRA:                  -0.238
REMARK UNBOUND:                 0.178
REMARK SMILES O=c1c(O)c(-c2ccc(O)cc2)oc2cc(O)cc(O)c12
REMARK SMILES IDX 5 1 3 2 2 3 1 4 21 5 19 6 18 7 16 8 15 9 14 10 13 11 6 12
REMARK SMILES IDX 7 13 8 14 9 15 12 16 11 17 10 18 4 20 20 22 17 24
REMARK H PARENT 10 19 4 21 20 23 17 25
REMARK Flexibility Score: inf
ROOT
ATOM      1  C   UNL     1      17.619  30.614  35.076  1.00  0.00     0.180 A 
ATOM      2  C   UNL     1      17.332  30.769  33.709  1.00  0.00     0.208 A 
ATOM      3  C   UNL     1      17.850  29.836  32.795  1.00  0.00     0.238 A 
ATOM      4  O   UNL     1      17.545  29.948  31.579  1.00  0.00    -0.285 OA
ATOM      5  C   UNL     1      18.661  28.773  33.257  1.00  0.00     0.111 A 
ATOM      6  C   UNL     1      19.272  27.794  32.416  1.00  0.00     0.134 A 
ATOM      7  C   UNL     1      19.946  26.710  32.993  1.00  0.00     0.093 A 
ATOM      8  C   UNL     1      20.087  26.606  34.379  1.00  0.00     0.123 A 
ATOM      9  C   UNL     1      19.546  27.588  35.206  1.00  0.00     0.094 A 
ATOM     10  C   UNL     1      18.837  28.661  34.661  1.00  0.00     0.146 A 
ATOM     11  O   UNL     1      18.329  29.569  35.485  1.00  0.00    -0.452 OA
ENDROOT
BRANCH   1  12
ATOM     12  C   UNL     1      17.131  31.570  36.096  1.00  0.00     0.021 A 
ATOM     13  C   UNL     1      15.793  31.558  36.530  1.00  0.00     0.016 A 
ATOM     14  C   UNL     1      15.348  32.486  37.477  1.00  0.00     0.047 A 
ATOM     15  C   UNL     1      16.230  33.445  37.991  1.00  0.00     0.115 A 
ATOM     16  C   UNL     1      18.003  32.549  36.601  1.00  0.00     0.016 A 
ATOM     17  C   UNL     1      17.556  33.475  37.549  1.00  0.00     0.047 A 
BRANCH  15  18
ATOM     18  O   UNL     1      15.799  34.374  38.935  1.00  0.00    -0.508 OA
ATOM     19  H   UNL     1      16.174  34.384  39.877  1.00  0.00     0.293 HD
ENDBRANCH  15  18
ENDBRANCH   1  12
BRANCH   2  20
ATOM     20  O   UNL     1      16.511  31.813  33.276  1.00  0.00    -0.502 OA
ATOM     21  H   UNL     1      16.241  31.927  32.307  1.00  0.00     0.293 HD
ENDBRANCH   2  20
BRANCH   6  22
ATOM     22  O   UNL     1      19.268  27.854  31.019  1.00  0.00    -0.507 OA
ATOM     23  H   UNL     1      19.405  27.062  30.410  1.00  0.00     0.293 HD
ENDBRANCH   6  22
BRANCH   8  24
ATOM     24  O   UNL     1      20.773  25.533  34.944  1.00  0.00    -0.508 OA
ATOM     25  H   UNL     1      20.343  24.622  35.043  1.00  0.00     0.293 HD
ENDBRANCH   8  24
TORSDOF 5
ENDMDL
MODEL 8
REMARK VINA RESULT:    -5.990      2.608      4.467
REMARK INTER + INTRA:          -6.862
REMARK INTER:                  -6.647
REMARK INTRA:                  -0.216
REMARK UNBOUND:                 0.178
REMARK SMILES O=c1c(O)c(-c2ccc(O)cc2)oc2cc(O)cc(O)c12
REMARK SMILES IDX 5 1 3 2 2 3 1 4 21 5 19 6 18 7 16 8 15 9 14 10 13 11 6 12
REMARK SMILES IDX 7 13 8 14 9 15 12 16 11 17 10 18 4 20 20 22 17 24
REMARK H PARENT 10 19 4 21 20 23 17 25
REMARK Flexibility Score: inf
ROOT
ATOM      1  C   UNL     1      19.124  28.965  29.911  1.00  0.00     0.180 A 
ATOM      2  C   UNL     1      18.469  30.080  30.463  1.00  0.00     0.208 A 
ATOM      3  C   UNL     1      18.256  30.125  31.851  1.00  0.00     0.238 A 
ATOM      4  O   UNL     1      17.717  31.150  32.346  1.00  0.00    -0.285 OA
ATOM      5  C   UNL     1      18.684  29.050  32.665  1.00  0.00     0.111 A 
ATOM      6  C   UNL     1      18.484  28.972  34.076  1.00  0.00     0.134 A 
ATOM      7  C   UNL     1      19.066  27.924  34.800  1.00  0.00     0.093 A 
ATOM      8  C   UNL     1      19.785  26.916  34.154  1.00  0.00     0.123 A 
ATOM      9  C   UNL     1      19.936  26.951  32.770  1.00  0.00     0.094 A 
ATOM     10  C   UNL     1      19.398  28.004  32.026  1.00  0.00     0.146 A 
ATOM     11  O   UNL     1      19.573  28.004  30.710  1.00  0.00    -0.452 OA
ENDROOT
BRANCH   1  12
ATOM     12  C   UNL     1      19.363  28.834  28.456  1.00  0.00     0.021 A 
ATOM     13  C   UNL     1      18.635  27.920  27.673  1.00  0.00     0.016 A 
ATOM     14  C   UNL     1      18.896  27.796  26.305  1.00  0.00     0.047 A 
ATOM     15  C   UNL     1      19.896  28.572  25.705  1.00  0.00     0.115 A 
ATOM     16  C   UNL     1      20.380  29.593  27.850  1.00  0.00     0.016 A 
ATOM     17  C   UNL     1      20.637  29.468  26.482  1.00  0.00     0.047 A 
BRANCH  15  18
ATOM     18  O   UNL     1      20.163  28.458  24.343  1.00  0.00    -0.508 OA
ATOM     19  H   UNL     1      21.062  28.133  24.005  1.00  0.00     0.293 HD
ENDBRANCH  15  18
ENDBRANCH   1  12
BRANCH   2  20
ATOM     20  O   UNL     1      18.073  31.140  29.644  1.00  0.00    -0.502 OA
ATOM     21  H   UNL     1      17.949  32.082  29.995  1.00  0.00     0.293 HD
ENDBRANCH   2  20
BRANCH   6  22
ATOM     22  O   UNL     1      17.705  29.877  34.805  1.00  0.00    -0.507 OA
ATOM     23  H   UNL     1      16.716  29.778  34.973  1.00  0.00     0.293 HD
ENDBRANCH   6  22
BRANCH   8  24
ATOM     24  O   UNL     1      20.348  25.868  34.880  1.00  0.00    -0.508 OA
ATOM     25  H   UNL     1      21.276  25.937  35.278  1.00  0.00     0.293 HD
ENDBRANCH   8  24
TORSDOF 5
ENDMDL
MODEL 9
REMARK VINA RESULT:    -5.972      2.041      3.659
REMARK INTER + INTRA:          -6.841
REMARK INTER:                  -6.658
REMARK INTRA:                  -0.183
REMARK UNBOUND:                 0.178
REMARK SMILES O=c1c(O)c(-c2ccc(O)cc2)oc2cc(O)cc(O)c12
REMARK SMILES IDX 5 1 3 2 2 3 1 4 21 5 19 6 18 7 16 8 15 9 14 10 13 11 6 12
REMARK SMILES IDX 7 13 8 14 9 15 12 16 11 17 10 18 4 20 20 22 17 24
REMARK H PARENT 10 19 4 21 20 23 17 25
REMARK Flexibility Score: inf
ROOT
ATOM      1  C   UNL     1      18.425  29.126  30.269  1.00  0.00     0.180 A 
ATOM      2  C   UNL     1      18.809  30.368  29.735  1.00  0.00     0.208 A 
ATOM      3  C   UNL     1      18.586  31.531  30.490  1.00  0.00     0.238 A 
ATOM      4  O   UNL     1      18.981  32.634  30.029  1.00  0.00    -0.285 OA
ATOM      5  C   UNL     1      17.967  31.440  31.759  1.00  0.00     0.111 A 
ATOM      6  C   UNL     1      17.656  32.557  32.591  1.00  0.00     0.134 A 
ATOM      7  C   UNL     1      17.163  32.340  33.884  1.00  0.00     0.093 A 
ATOM      8  C   UNL     1      16.909  31.048  34.349  1.00  0.00     0.123 A 
ATOM      9  C   UNL     1      17.153  29.954  33.523  1.00  0.00     0.094 A 
ATOM     10  C   UNL     1      17.679  30.138  32.242  1.00  0.00     0.146 A 
ATOM     11  O   UNL     1      17.907  29.067  31.491  1.00  0.00    -0.452 OA
ENDROOT
BRANCH   1  12
ATOM     12  C   UNL     1      18.604  27.859  29.525  1.00  0.00     0.021 A 
ATOM     13  C   UNL     1      17.876  27.587  28.353  1.00  0.00     0.016 A 
ATOM     14  C   UNL     1      18.044  26.373  27.680  1.00  0.00     0.047 A 
ATOM     15  C   UNL     1      18.932  25.410  28.177  1.00  0.00     0.115 A 
ATOM     16  C   UNL     1      19.477  26.878  30.028  1.00  0.00     0.016 A 
ATOM     17  C   UNL     1      19.644  25.666  29.353  1.00  0.00     0.047 A 
BRANCH  15  18
ATOM     18  O   UNL     1      19.109  24.198  27.515  1.00  0.00    -0.508 OA
ATOM     19  H   UNL     1      18.352  23.757  27.006  1.00  0.00     0.293 HD
ENDBRANCH  15  18
ENDBRANCH   1  12
BRANCH   2  20
ATOM     20  O   UNL     1      19.439  30.433  28.489  1.00  0.00    -0.502 OA
ATOM     21  H   UNL     1      20.024  31.213  28.216  1.00  0.00     0.293 HD
ENDBRANCH   2  20
BRANCH   6  22
ATOM     22  O   UNL     1      17.786  33.891  32.188  1.00  0.00    -0.507 OA
ATOM     23  H   UNL     1      18.393  34.566  32.627  1.00  0.00     0.293 HD
ENDBRANCH   6  22
BRANCH   8  24
ATOM     24  O   UNL     1      16.404  30.842  35.632  1.00  0.00    -0.508 OA
ATOM     25  H   UNL     1      16.702  30.058  36.199  1.00  0.00     0.293 HD
ENDBRANCH   8  24
TORSDOF 5
ENDMDL
