MODEL 1
REMARK VINA RESULT:    -4.537      0.000      0.000
REMARK INTER + INTRA:         -12.148
REMARK INTER:                 -10.371
REMARK INTRA:                  -1.777
REMARK UNBOUND:                -1.777
REMARK SMILES CCCCCCCCCCCCCCCCCCCCCCCC(=O)[O-]
REMARK SMILES IDX 13 1 14 2 15 3 16 4 17 5 18 6 19 7 20 8 21 9 22 10 23 11
REMARK SMILES IDX 24 12 25 13 26 14 12 15 11 16 10 17 9 18 8 19 7 20 6 21 5 22
REMARK SMILES IDX 4 23 3 24 2 25 1 26
REMARK H PARENT
REMARK Flexibility Score: inf
ROOT
ATOM      1  C   UNL     1      49.710  34.582   7.841  1.00  0.00     0.000 C 
ENDROOT
BRANCH   1   2
ATOM      2  C   UNL     1      48.827  33.331   8.008  1.00  0.00     0.000 C 
BRANCH   2   3
ATOM      3  C   UNL     1      49.190  32.179   7.047  1.00  0.00     0.000 C 
BRANCH   3   4
ATOM      4  C   UNL     1      50.680  32.179   6.663  1.00  0.00     0.000 C 
BRANCH   4   5
ATOM      5  C   UNL     1      50.901  32.103   5.139  1.00  0.00     0.000 C 
BRANCH   5   6
ATOM      6  C   UNL     1      50.696  33.438   4.401  1.00  0.00     0.000 C 
BRANCH   6   7
ATOM      7  C   UNL     1      51.129  33.370   2.925  1.00  0.00     0.000 C 
BRANCH   7   8
ATOM      8  C   UNL     1      50.084  33.980   1.977  1.00  0.00     0.000 C 
BRANCH   8   9
ATOM      9  C   UNL     1      50.092  33.317   0.591  1.00  0.00     0.000 C 
BRANCH   9  10
ATOM     10  C   UNL     1      51.429  32.616   0.324  1.00  0.00     0.006 C 
BRANCH  10  11
ATOM     11  C   UNL     1      52.132  33.220  -0.896  1.00  0.00     0.053 C 
BRANCH  11  12
ATOM     12  C   UNL     1      53.457  33.795  -0.507  1.00  0.00     0.041 C 
ATOM     13  O   UNL     1      53.591  34.385   0.597  1.00  0.00    -0.550 OA
ATOM     14  O   UNL     1      54.555  33.645  -1.345  1.00  0.00    -0.550 OA
ENDBRANCH  11  12
ENDBRANCH  10  11
ENDBRANCH   9  10
ENDBRANCH   8   9
ENDBRANCH   7   8
ENDBRANCH   6   7
ENDBRANCH   5   6
ENDBRANCH   4   5
ENDBRANCH   3   4
ENDBRANCH   2   3
ENDBRANCH   1   2
BRANCH   1  15
ATOM     15  C   UNL     1      50.122  35.264   9.160  1.00  0.00     0.000 C 
BRANCH  15  16
ATOM     16  C   UNL     1      49.492  34.664  10.436  1.00  0.00     0.000 C 
BRANCH  16  17
ATOM     17  C   UNL     1      48.774  35.675  11.349  1.00  0.00     0.000 C 
BRANCH  17  18
ATOM     18  C   UNL     1      47.247  35.507  11.343  1.00  0.00    -0.000 C 
BRANCH  18  19
ATOM     19  C   UNL     1      46.559  36.769  10.801  1.00  0.00    -0.000 C 
BRANCH  19  20
ATOM     20  C   UNL     1      47.010  38.042  11.547  1.00  0.00    -0.000 C 
BRANCH  20  21
ATOM     21  C   UNL     1      45.966  39.171  11.521  1.00  0.00    -0.000 C 
BRANCH  21  22
ATOM     22  C   UNL     1      45.665  39.673  10.103  1.00  0.00    -0.000 C 
BRANCH  22  23
ATOM     23  C   UNL     1      44.173  39.531   9.775  1.00  0.00    -0.000 C 
BRANCH  23  24
ATOM     24  C   UNL     1      43.971  38.904   8.388  1.00  0.00    -0.000 C 
BRANCH  24  25
ATOM     25  C   UNL     1      43.792  37.380   8.451  1.00  0.00    -0.003 C 
ATOM     26  C   UNL     1      42.564  36.895   7.681  1.00  0.00     0.004 C 
ENDBRANCH  24  25
ENDBRANCH  23  24
ENDBRANCH  22  23
ENDBRANCH  21  22
ENDBRANCH  20  21
ENDBRANCH  19  20
ENDBRANCH  18  19
ENDBRANCH  17  18
ENDBRANCH  16  17
ENDBRANCH  15  16
ENDBRANCH   1  15
TORSDOF 22
ENDMDL
MODEL 2
REMARK VINA RESULT:    -4.518      8.829     12.833
REMARK INTER + INTRA:         -12.106
REMARK INTER:                  -9.971
REMARK INTRA:                  -2.135
REMARK UNBOUND:                -1.777
REMARK SMILES CCCCCCCCCCCCCCCCCCCCCCCC(=O)[O-]
REMARK SMILES IDX 13 1 14 2 15 3 16 4 17 5 18 6 19 7 20 8 21 9 22 10 23 11
REMARK SMILES IDX 24 12 25 13 26 14 12 15 11 16 10 17 9 18 8 19 7 20 6 21 5 22
REMARK SMILES IDX 4 23 3 24 2 25 1 26
REMARK H PARENT
REMARK Flexibility Score: inf
ROOT
ATOM      1  C   UNL     1      45.904  47.413  10.205  1.00  0.00     0.000 C 
ENDROOT
BRANCH   1   2
ATOM      2  C   UNL     1      46.746  48.670  10.500  1.00  0.00     0.000 C 
BRANCH   2   3
ATOM      3  C   UNL     1      47.823  48.458  11.585  1.00  0.00     0.000 C 
BRANCH   3   4
ATOM      4  C   UNL     1      48.985  49.459  11.466  1.00  0.00     0.000 C 
BRANCH   4   5
ATOM      5  C   UNL     1      50.362  48.800  11.683  1.00  0.00     0.000 C 
BRANCH   5   6
ATOM      6  C   UNL     1      50.887  48.014  10.468  1.00  0.00     0.000 C 
BRANCH   6   7
ATOM      7  C   UNL     1      51.746  46.802  10.874  1.00  0.00     0.000 C 
BRANCH   7   8
ATOM      8  C   UNL     1      51.370  46.253  12.259  1.00  0.00     0.000 C 
BRANCH   8   9
ATOM      9  C   UNL     1      52.600  45.819  13.071  1.00  0.00     0.000 C 
BRANCH   9  10
ATOM     10  C   UNL     1      53.887  45.993  12.257  1.00  0.00     0.006 C 
BRANCH  10  11
ATOM     11  C   UNL     1      54.622  44.657  12.100  1.00  0.00     0.053 C 
BRANCH  11  12
ATOM     12  C   UNL     1      54.302  44.033  10.779  1.00  0.00     0.041 C 
ATOM     13  O   UNL     1      54.002  42.812  10.712  1.00  0.00    -0.550 OA
ATOM     14  O   UNL     1      54.295  44.808   9.626  1.00  0.00    -0.550 OA
ENDBRANCH  11  12
ENDBRANCH  10  11
ENDBRANCH   9  10
ENDBRANCH   8   9
ENDBRANCH   7   8
ENDBRANCH   6   7
ENDBRANCH   5   6
ENDBRANCH   4   5
ENDBRANCH   3   4
ENDBRANCH   2   3
ENDBRANCH   1   2
BRANCH   1  15
ATOM     15  C   UNL     1      46.092  46.259  11.208  1.00  0.00     0.000 C 
BRANCH  15  16
ATOM     16  C   UNL     1      44.797  45.759  11.886  1.00  0.00     0.000 C 
BRANCH  16  17
ATOM     17  C   UNL     1      44.232  44.441  11.326  1.00  0.00     0.000 C 
BRANCH  17  18
ATOM     18  C   UNL     1      45.284  43.610  10.576  1.00  0.00    -0.000 C 
BRANCH  18  19
ATOM     19  C   UNL     1      45.996  42.639  11.529  1.00  0.00    -0.000 C 
BRANCH  19  20
ATOM     20  C   UNL     1      45.141  41.391  11.834  1.00  0.00    -0.000 C 
BRANCH  20  21
ATOM     21  C   UNL     1      45.750  40.084  11.300  1.00  0.00    -0.000 C 
BRANCH  21  22
ATOM     22  C   UNL     1      45.520  39.890   9.795  1.00  0.00    -0.000 C 
BRANCH  22  23
ATOM     23  C   UNL     1      44.032  39.678   9.489  1.00  0.00    -0.000 C 
BRANCH  23  24
ATOM     24  C   UNL     1      43.529  40.697   8.457  1.00  0.00    -0.000 C 
BRANCH  24  25
ATOM     25  C   UNL     1      44.675  41.351   7.669  1.00  0.00    -0.003 C 
ATOM     26  C   UNL     1      44.198  42.489   6.766  1.00  0.00     0.004 C 
ENDBRANCH  24  25
ENDBRANCH  23  24
ENDBRANCH  22  23
ENDBRANCH  21  22
ENDBRANCH  20  21
ENDBRANCH  19  20
ENDBRANCH  18  19
ENDBRANCH  17  18
ENDBRANCH  16  17
ENDBRANCH  15  16
ENDBRANCH   1  15
TORSDOF 22
ENDMDL
MODEL 3
REMARK VINA RESULT:    -4.510      8.900     13.309
REMARK INTER + INTRA:         -12.086
REMARK INTER:                  -9.737
REMARK INTRA:                  -2.349
REMARK UNBOUND:                -1.777
REMARK SMILES CCCCCCCCCCCCCCCCCCCCCCCC(=O)[O-]
REMARK SMILES IDX 13 1 14 2 15 3 16 4 17 5 18 6 19 7 20 8 21 9 22 10 23 11
REMARK SMILES IDX 24 12 25 13 26 14 12 15 11 16 10 17 9 18 8 19 7 20 6 21 5 22
REMARK SMILES IDX 4 23 3 24 2 25 1 26
REMARK H PARENT
REMARK Flexibility Score: inf
ROOT
ATOM      1  C   UNL     1      48.092  47.770  11.279  1.00  0.00     0.000 C 
ENDROOT
BRANCH   1   2
ATOM      2  C   UNL     1      48.856  48.763  12.175  1.00  0.00     0.000 C 
BRANCH   2   3
ATOM      3  C   UNL     1      50.037  49.461  11.466  1.00  0.00     0.000 C 
BRANCH   3   4
ATOM      4  C   UNL     1      51.197  49.778  12.425  1.00  0.00     0.000 C 
BRANCH   4   5
ATOM      5  C   UNL     1      51.304  48.767  13.584  1.00  0.00     0.000 C 
BRANCH   5   6
ATOM      6  C   UNL     1      52.684  48.097  13.716  1.00  0.00     0.000 C 
BRANCH   6   7
ATOM      7  C   UNL     1      52.622  46.572  13.513  1.00  0.00     0.000 C 
BRANCH   7   8
ATOM      8  C   UNL     1      51.607  46.163  12.435  1.00  0.00     0.000 C 
BRANCH   8   9
ATOM      9  C   UNL     1      52.175  46.296  11.014  1.00  0.00     0.000 C 
BRANCH   9  10
ATOM     10  C   UNL     1      53.701  46.157  11.015  1.00  0.00     0.006 C 
BRANCH  10  11
ATOM     11  C   UNL     1      54.145  44.958  10.170  1.00  0.00     0.053 C 
BRANCH  11  12
ATOM     12  C   UNL     1      54.324  43.747  11.030  1.00  0.00     0.041 C 
ATOM     13  O   UNL     1      54.262  42.596  10.522  1.00  0.00    -0.550 OA
ATOM     14  O   UNL     1      54.601  43.888  12.384  1.00  0.00    -0.550 OA
ENDBRANCH  11  12
ENDBRANCH  10  11
ENDBRANCH   9  10
ENDBRANCH   8   9
ENDBRANCH   7   8
ENDBRANCH   6   7
ENDBRANCH   5   6
ENDBRANCH   4   5
ENDBRANCH   3   4
ENDBRANCH   2   3
ENDBRANCH   1   2
BRANCH   1  15
ATOM     15  C   UNL     1      46.583  48.052  11.140  1.00  0.00     0.000 C 
BRANCH  15  16
ATOM     16  C   UNL     1      45.661  46.844  11.405  1.00  0.00     0.000 C 
BRANCH  16  17
ATOM     17  C   UNL     1      46.384  45.498  11.596  1.00  0.00     0.000 C 
BRANCH  17  18
ATOM     18  C   UNL     1      45.625  44.317  10.970  1.00  0.00    -0.000 C 
BRANCH  18  19
ATOM     19  C   UNL     1      44.541  44.814  10.001  1.00  0.00    -0.000 C 
BRANCH  19  20
ATOM     20  C   UNL     1      44.869  44.466   8.534  1.00  0.00    -0.000 C 
BRANCH  20  21
ATOM     21  C   UNL     1      43.859  43.501   7.892  1.00  0.00    -0.000 C 
BRANCH  21  22
ATOM     22  C   UNL     1      44.524  42.259   7.284  1.00  0.00    -0.000 C 
BRANCH  22  23
ATOM     23  C   UNL     1      43.663  41.010   7.507  1.00  0.00    -0.000 C 
BRANCH  23  24
ATOM     24  C   UNL     1      44.426  39.950   8.315  1.00  0.00    -0.000 C 
BRANCH  24  25
ATOM     25  C   UNL     1      45.326  40.569   9.395  1.00  0.00    -0.003 C 
ATOM     26  C   UNL     1      44.580  40.849  10.699  1.00  0.00     0.004 C 
ENDBRANCH  24  25
ENDBRANCH  23  24
ENDBRANCH  22  23
ENDBRANCH  21  22
ENDBRANCH  20  21
ENDBRANCH  19  20
ENDBRANCH  18  19
ENDBRANCH  17  18
ENDBRANCH  16  17
ENDBRANCH  15  16
ENDBRANCH   1  15
TORSDOF 22
ENDMDL
MODEL 4
REMARK VINA RESULT:    -4.467     10.677     13.481
REMARK INTER + INTRA:         -11.988
REMARK INTER:                  -8.218
REMARK INTRA:                  -3.770
REMARK UNBOUND:                -1.777
REMARK SMILES CCCCCCCCCCCCCCCCCCCCCCCC(=O)[O-]
REMARK SMILES IDX 13 1 14 2 15 3 16 4 17 5 18 6 19 7 20 8 21 9 22 10 23 11
REMARK SMILES IDX 24 12 25 13 26 14 12 15 11 16 10 17 9 18 8 19 7 20 6 21 5 22
REMARK SMILES IDX 4 23 3 24 2 25 1 26
REMARK H PARENT
REMARK Flexibility Score: inf
ROOT
ATOM      1  C   UNL     1      46.248  43.976  12.191  1.00  0.00     0.000 C 
ENDROOT
BRANCH   1   2
ATOM      2  C   UNL     1      46.969  45.308  12.470  1.00  0.00     0.000 C 
BRANCH   2   3
ATOM      3  C   UNL     1      46.054  46.400  13.064  1.00  0.00     0.000 C 
BRANCH   3   4
ATOM      4  C   UNL     1      45.781  47.545  12.072  1.00  0.00     0.000 C 
BRANCH   4   5
ATOM      5  C   UNL     1      46.680  47.474  10.822  1.00  0.00     0.000 C 
BRANCH   5   6
ATOM      6  C   UNL     1      47.585  48.703  10.621  1.00  0.00     0.000 C 
BRANCH   6   7
ATOM      7  C   UNL     1      48.748  48.751  11.629  1.00  0.00     0.000 C 
BRANCH   7   8
ATOM      8  C   UNL     1      49.744  47.598  11.433  1.00  0.00     0.000 C 
BRANCH   8   9
ATOM      9  C   UNL     1      50.798  47.909  10.360  1.00  0.00     0.000 C 
BRANCH   9  10
ATOM     10  C   UNL     1      51.841  46.789  10.271  1.00  0.00     0.006 C 
BRANCH  10  11
ATOM     11  C   UNL     1      51.972  46.052  11.608  1.00  0.00     0.053 C 
BRANCH  11  12
ATOM     12  C   UNL     1      53.217  46.477  12.322  1.00  0.00     0.041 C 
ATOM     13  O   UNL     1      54.330  45.982  12.002  1.00  0.00    -0.550 OA
ATOM     14  O   UNL     1      53.155  47.448  13.313  1.00  0.00    -0.550 OA
ENDBRANCH  11  12
ENDBRANCH  10  11
ENDBRANCH   9  10
ENDBRANCH   8   9
ENDBRANCH   7   8
ENDBRANCH   6   7
ENDBRANCH   5   6
ENDBRANCH   4   5
ENDBRANCH   3   4
ENDBRANCH   2   3
ENDBRANCH   1   2
BRANCH   1  15
ATOM     15  C   UNL     1      45.659  43.843  10.773  1.00  0.00     0.000 C 
BRANCH  15  16
ATOM     16  C   UNL     1      45.281  42.407  10.350  1.00  0.00     0.000 C 
BRANCH  16  17
ATOM     17  C   UNL     1      44.535  42.296   9.007  1.00  0.00     0.000 C 
BRANCH  17  18
ATOM     18  C   UNL     1      44.715  43.535   8.118  1.00  0.00    -0.000 C 
BRANCH  18  19
ATOM     19  C   UNL     1      43.383  43.944   7.471  1.00  0.00    -0.000 C 
BRANCH  19  20
ATOM     20  C   UNL     1      43.195  45.475   7.443  1.00  0.00    -0.000 C 
BRANCH  20  21
ATOM     21  C   UNL     1      43.895  46.201   8.604  1.00  0.00    -0.000 C 
BRANCH  21  22
ATOM     22  C   UNL     1      42.909  46.801   9.614  1.00  0.00    -0.000 C 
BRANCH  22  23
ATOM     23  C   UNL     1      42.720  45.869  10.818  1.00  0.00    -0.000 C 
BRANCH  23  24
ATOM     24  C   UNL     1      41.581  44.870  10.568  1.00  0.00    -0.000 C 
BRANCH  24  25
ATOM     25  C   UNL     1      41.790  43.541  11.311  1.00  0.00    -0.003 C 
ATOM     26  C   UNL     1      42.537  43.714  12.633  1.00  0.00     0.004 C 
ENDBRANCH  24  25
ENDBRANCH  23  24
ENDBRANCH  22  23
ENDBRANCH  21  22
ENDBRANCH  20  21
ENDBRANCH  19  20
ENDBRANCH  18  19
ENDBRANCH  17  18
ENDBRANCH  16  17
ENDBRANCH  15  16
ENDBRANCH   1  15
TORSDOF 22
ENDMDL
MODEL 5
REMARK VINA RESULT:    -4.443     10.640     13.265
REMARK INTER + INTRA:         -11.934
REMARK INTER:                  -9.116
REMARK INTRA:                  -2.818
REMARK UNBOUND:                -1.777
REMARK SMILES CCCCCCCCCCCCCCCCCCCCCCCC(=O)[O-]
REMARK SMILES IDX 13 1 14 2 15 3 16 4 17 5 18 6 19 7 20 8 21 9 22 10 23 11
REMARK SMILES IDX 24 12 25 13 26 14 12 15 11 16 10 17 9 18 8 19 7 20 6 21 5 22
REMARK SMILES IDX 4 23 3 24 2 25 1 26
REMARK H PARENT
REMARK Flexibility Score: inf
ROOT
ATOM      1  C   UNL     1      45.933  47.705  10.178  1.00  0.00     0.000 C 
ENDROOT
BRANCH   1   2
ATOM      2  C   UNL     1      46.715  48.950  10.640  1.00  0.00     0.000 C 
BRANCH   2   3
ATOM      3  C   UNL     1      47.738  48.663  11.760  1.00  0.00     0.000 C 
BRANCH   3   4
ATOM      4  C   UNL     1      49.007  49.524  11.634  1.00  0.00     0.000 C 
BRANCH   4   5
ATOM      5  C   UNL     1      50.298  48.719  11.886  1.00  0.00     0.000 C 
BRANCH   5   6
ATOM      6  C   UNL     1      50.974  48.189  10.608  1.00  0.00     0.000 C 
BRANCH   6   7
ATOM      7  C   UNL     1      51.588  46.791  10.800  1.00  0.00     0.000 C 
BRANCH   7   8
ATOM      8  C   UNL     1      51.277  46.197  12.182  1.00  0.00     0.000 C 
BRANCH   8   9
ATOM      9  C   UNL     1      52.536  46.027  13.045  1.00  0.00     0.000 C 
BRANCH   9  10
ATOM     10  C   UNL     1      53.794  45.942  12.174  1.00  0.00     0.006 C 
BRANCH  10  11
ATOM     11  C   UNL     1      54.349  44.514  12.148  1.00  0.00     0.053 C 
BRANCH  11  12
ATOM     12  C   UNL     1      54.252  43.937  10.771  1.00  0.00     0.041 C 
ATOM     13  O   UNL     1      54.113  42.695  10.614  1.00  0.00    -0.550 OA
ATOM     14  O   UNL     1      54.272  44.773   9.662  1.00  0.00    -0.550 OA
ENDBRANCH  11  12
ENDBRANCH  10  11
ENDBRANCH   9  10
ENDBRANCH   8   9
ENDBRANCH   7   8
ENDBRANCH   6   7
ENDBRANCH   5   6
ENDBRANCH   4   5
ENDBRANCH   3   4
ENDBRANCH   2   3
ENDBRANCH   1   2
BRANCH   1  15
ATOM     15  C   UNL     1      46.135  46.453  11.053  1.00  0.00     0.000 C 
BRANCH  15  16
ATOM     16  C   UNL     1      44.969  46.123  12.009  1.00  0.00     0.000 C 
BRANCH  16  17
ATOM     17  C   UNL     1      44.831  44.636  12.385  1.00  0.00     0.000 C 
BRANCH  17  18
ATOM     18  C   UNL     1      46.099  43.823  12.085  1.00  0.00    -0.000 C 
BRANCH  18  19
ATOM     19  C   UNL     1      45.812  42.720  11.055  1.00  0.00    -0.000 C 
BRANCH  19  20
ATOM     20  C   UNL     1      44.299  42.511  10.834  1.00  0.00    -0.000 C 
BRANCH  20  21
ATOM     21  C   UNL     1      43.837  42.838   9.405  1.00  0.00    -0.000 C 
BRANCH  21  22
ATOM     22  C   UNL     1      44.780  43.806   8.679  1.00  0.00    -0.000 C 
BRANCH  22  23
ATOM     23  C   UNL     1      44.054  45.107   8.311  1.00  0.00    -0.000 C 
BRANCH  23  24
ATOM     24  C   UNL     1      42.531  44.914   8.328  1.00  0.00    -0.000 C 
BRANCH  24  25
ATOM     25  C   UNL     1      41.772  46.234   8.530  1.00  0.00    -0.003 C 
ATOM     26  C   UNL     1      42.228  46.994   9.775  1.00  0.00     0.004 C 
ENDBRANCH  24  25
ENDBRANCH  23  24
ENDBRANCH  22  23
ENDBRANCH  21  22
ENDBRANCH  20  21
ENDBRANCH  19  20
ENDBRANCH  18  19
ENDBRANCH  17  18
ENDBRANCH  16  17
ENDBRANCH  15  16
ENDBRANCH   1  15
TORSDOF 22
ENDMDL
MODEL 6
REMARK VINA RESULT:    -4.424     10.127     13.307
REMARK INTER + INTRA:         -11.890
REMARK INTER:                  -8.992
REMARK INTRA:                  -2.898
REMARK UNBOUND:                -1.777
REMARK SMILES CCCCCCCCCCCCCCCCCCCCCCCC(=O)[O-]
REMARK SMILES IDX 13 1 14 2 15 3 16 4 17 5 18 6 19 7 20 8 21 9 22 10 23 11
REMARK SMILES IDX 24 12 25 13 26 14 12 15 11 16 10 17 9 18 8 19 7 20 6 21 5 22
REMARK SMILES IDX 4 23 3 24 2 25 1 26
REMARK H PARENT
REMARK Flexibility Score: inf
ROOT
ATOM      1  C   UNL     1      47.116  46.502  11.644  1.00  0.00     0.000 C 
ENDROOT
BRANCH   1   2
ATOM      2  C   UNL     1      46.060  47.586  11.932  1.00  0.00     0.000 C 
BRANCH   2   3
ATOM      3  C   UNL     1      46.621  49.024  11.910  1.00  0.00     0.000 C 
BRANCH   3   4
ATOM      4  C   UNL     1      47.988  49.113  11.209  1.00  0.00     0.000 C 
BRANCH   4   5
ATOM      5  C   UNL     1      49.114  49.566  12.160  1.00  0.00     0.000 C 
BRANCH   5   6
ATOM      6  C   UNL     1      50.536  49.328  11.619  1.00  0.00     0.000 C 
BRANCH   6   7
ATOM      7  C   UNL     1      50.560  48.345  10.434  1.00  0.00     0.000 C 
BRANCH   7   8
ATOM      8  C   UNL     1      51.201  46.998  10.801  1.00  0.00     0.000 C 
BRANCH   8   9
ATOM      9  C   UNL     1      51.801  47.000  12.215  1.00  0.00     0.000 C 
BRANCH   9  10
ATOM     10  C   UNL     1      53.220  46.418  12.212  1.00  0.00     0.006 C 
BRANCH  10  11
ATOM     11  C   UNL     1      53.391  45.393  11.086  1.00  0.00     0.053 C 
BRANCH  11  12
ATOM     12  C   UNL     1      54.240  44.248  11.542  1.00  0.00     0.041 C 
ATOM     13  O   UNL     1      54.787  44.279  12.676  1.00  0.00    -0.550 OA
ATOM     14  O   UNL     1      54.394  43.130  10.733  1.00  0.00    -0.550 OA
ENDBRANCH  11  12
ENDBRANCH  10  11
ENDBRANCH   9  10
ENDBRANCH   8   9
ENDBRANCH   7   8
ENDBRANCH   6   7
ENDBRANCH   5   6
ENDBRANCH   4   5
ENDBRANCH   3   4
ENDBRANCH   2   3
ENDBRANCH   1   2
BRANCH   1  15
ATOM     15  C   UNL     1      47.917  46.034  12.874  1.00  0.00     0.000 C 
BRANCH  15  16
ATOM     16  C   UNL     1      47.072  45.711  14.125  1.00  0.00     0.000 C 
BRANCH  16  17
ATOM     17  C   UNL     1      46.405  44.323  14.123  1.00  0.00     0.000 C 
BRANCH  17  18
ATOM     18  C   UNL     1      44.902  44.383  13.809  1.00  0.00    -0.000 C 
BRANCH  18  19
ATOM     19  C   UNL     1      44.531  43.369  12.716  1.00  0.00    -0.000 C 
BRANCH  19  20
ATOM     20  C   UNL     1      45.761  42.913  11.904  1.00  0.00    -0.000 C 
BRANCH  20  21
ATOM     21  C   UNL     1      45.580  43.056  10.384  1.00  0.00    -0.000 C 
BRANCH  21  22
ATOM     22  C   UNL     1      44.661  44.222   9.999  1.00  0.00    -0.000 C 
BRANCH  22  23
ATOM     23  C   UNL     1      44.801  44.564   8.510  1.00  0.00    -0.000 C 
BRANCH  23  24
ATOM     24  C   UNL     1      43.430  44.593   7.819  1.00  0.00    -0.000 C 
BRANCH  24  25
ATOM     25  C   UNL     1      43.308  43.538   6.709  1.00  0.00    -0.003 C 
ATOM     26  C   UNL     1      44.248  42.351   6.915  1.00  0.00     0.004 C 
ENDBRANCH  24  25
ENDBRANCH  23  24
ENDBRANCH  22  23
ENDBRANCH  21  22
ENDBRANCH  20  21
ENDBRANCH  19  20
ENDBRANCH  18  19
ENDBRANCH  17  18
ENDBRANCH  16  17
ENDBRANCH  15  16
ENDBRANCH   1  15
TORSDOF 22
ENDMDL
MODEL 7
REMARK VINA RESULT:    -4.387      9.883     13.497
REMARK INTER + INTRA:         -11.805
REMARK INTER:                  -8.838
REMARK INTRA:                  -2.968
REMARK UNBOUND:                -1.777
REMARK SMILES CCCCCCCCCCCCCCCCCCCCCCCC(=O)[O-]
REMARK SMILES IDX 13 1 14 2 15 3 16 4 17 5 18 6 19 7 20 8 21 9 22 10 23 11
REMARK SMILES IDX 24 12 25 13 26 14 12 15 11 16 10 17 9 18 8 19 7 20 6 21 5 22
REMARK SMILES IDX 4 23 3 24 2 25 1 26
REMARK H PARENT
REMARK Flexibility Score: inf
ROOT
ATOM      1  C   UNL     1      44.738  46.404   9.317  1.00  0.00     0.000 C 
ENDROOT
BRANCH   1   2
ATOM      2  C   UNL     1      44.853  46.304  10.850  1.00  0.00     0.000 C 
BRANCH   2   3
ATOM      3  C   UNL     1      46.264  46.619  11.391  1.00  0.00     0.000 C 
BRANCH   3   4
ATOM      4  C   UNL     1      46.530  48.130  11.501  1.00  0.00     0.000 C 
BRANCH   4   5
ATOM      5  C   UNL     1      47.766  48.576  10.695  1.00  0.00     0.000 C 
BRANCH   5   6
ATOM      6  C   UNL     1      48.962  49.015  11.560  1.00  0.00     0.000 C 
BRANCH   6   7
ATOM      7  C   UNL     1      49.439  47.908  12.516  1.00  0.00     0.000 C 
BRANCH   7   8
ATOM      8  C   UNL     1      50.821  47.356  12.133  1.00  0.00     0.000 C 
BRANCH   8   9
ATOM      9  C   UNL     1      51.185  47.647  10.670  1.00  0.00     0.000 C 
BRANCH   9  10
ATOM     10  C   UNL     1      52.059  46.531  10.087  1.00  0.00     0.006 C 
BRANCH  10  11
ATOM     11  C   UNL     1      52.466  45.528  11.171  1.00  0.00     0.053 C 
BRANCH  11  12
ATOM     12  C   UNL     1      53.882  45.085  10.972  1.00  0.00     0.041 C 
ATOM     13  O   UNL     1      54.284  44.746   9.828  1.00  0.00    -0.550 OA
ATOM     14  O   UNL     1      54.769  45.087  12.041  1.00  0.00    -0.550 OA
ENDBRANCH  11  12
ENDBRANCH  10  11
ENDBRANCH   9  10
ENDBRANCH   8   9
ENDBRANCH   7   8
ENDBRANCH   6   7
ENDBRANCH   5   6
ENDBRANCH   4   5
ENDBRANCH   3   4
ENDBRANCH   2   3
ENDBRANCH   1   2
BRANCH   1  15
ATOM     15  C   UNL     1      43.770  47.491   8.810  1.00  0.00     0.000 C 
BRANCH  15  16
ATOM     16  C   UNL     1      42.797  47.039   7.700  1.00  0.00     0.000 C 
BRANCH  16  17
ATOM     17  C   UNL     1      42.980  45.587   7.220  1.00  0.00     0.000 C 
BRANCH  17  18
ATOM     18  C   UNL     1      41.661  44.929   6.787  1.00  0.00    -0.000 C 
BRANCH  18  19
ATOM     19  C   UNL     1      41.254  43.821   7.770  1.00  0.00    -0.000 C 
BRANCH  19  20
ATOM     20  C   UNL     1      40.900  44.381   9.164  1.00  0.00    -0.000 C 
BRANCH  20  21
ATOM     21  C   UNL     1      41.778  43.816  10.293  1.00  0.00    -0.000 C 
BRANCH  21  22
ATOM     22  C   UNL     1      42.607  42.603   9.854  1.00  0.00    -0.000 C 
BRANCH  22  23
ATOM     23  C   UNL     1      44.103  42.841  10.098  1.00  0.00    -0.000 C 
BRANCH  23  24
ATOM     24  C   UNL     1      44.899  42.740   8.789  1.00  0.00    -0.000 C 
BRANCH  24  25
ATOM     25  C   UNL     1      44.354  41.652   7.851  1.00  0.00    -0.003 C 
ATOM     26  C   UNL     1      44.229  42.128   6.404  1.00  0.00     0.004 C 
ENDBRANCH  24  25
ENDBRANCH  23  24
ENDBRANCH  22  23
ENDBRANCH  21  22
ENDBRANCH  20  21
ENDBRANCH  19  20
ENDBRANCH  18  19
ENDBRANCH  17  18
ENDBRANCH  16  17
ENDBRANCH  15  16
ENDBRANCH   1  15
TORSDOF 22
ENDMDL
MODEL 8
REMARK VINA RESULT:    -4.376     11.453     14.314
REMARK INTER + INTRA:         -11.780
REMARK INTER:                  -8.389
REMARK INTRA:                  -3.391
REMARK UNBOUND:                -1.777
REMARK SMILES CCCCCCCCCCCCCCCCCCCCCCCC(=O)[O-]
REMARK SMILES IDX 13 1 14 2 15 3 16 4 17 5 18 6 19 7 20 8 21 9 22 10 23 11
REMARK SMILES IDX 24 12 25 13 26 14 12 15 11 16 10 17 9 18 8 19 7 20 6 21 5 22
REMARK SMILES IDX 4 23 3 24 2 25 1 26
REMARK H PARENT
REMARK Flexibility Score: inf
ROOT
ATOM      1  C   UNL     1      47.925  48.173  10.690  1.00  0.00     0.000 C 
ENDROOT
BRANCH   1   2
ATOM      2  C   UNL     1      48.727  48.929  11.767  1.00  0.00     0.000 C 
BRANCH   2   3
ATOM      3  C   UNL     1      50.049  49.534  11.248  1.00  0.00     0.000 C 
BRANCH   3   4
ATOM      4  C   UNL     1      50.715  50.465  12.276  1.00  0.00     0.000 C 
BRANCH   4   5
ATOM      5  C   UNL     1      50.913  49.791  13.648  1.00  0.00     0.000 C 
BRANCH   5   6
ATOM      6  C   UNL     1      52.377  49.447  13.980  1.00  0.00     0.000 C 
BRANCH   6   7
ATOM      7  C   UNL     1      52.777  48.040  13.502  1.00  0.00     0.000 C 
BRANCH   7   8
ATOM      8  C   UNL     1      51.664  47.004  13.726  1.00  0.00     0.000 C 
BRANCH   8   9
ATOM      9  C   UNL     1      51.286  46.261  12.435  1.00  0.00     0.000 C 
BRANCH   9  10
ATOM     10  C   UNL     1      52.340  46.482  11.344  1.00  0.00     0.006 C 
BRANCH  10  11
ATOM     11  C   UNL     1      52.815  45.148  10.760  1.00  0.00     0.053 C 
BRANCH  11  12
ATOM     12  C   UNL     1      54.171  44.797  11.286  1.00  0.00     0.041 C 
ATOM     13  O   UNL     1      54.652  43.651  11.082  1.00  0.00    -0.550 OA
ATOM     14  O   UNL     1      54.921  45.747  11.967  1.00  0.00    -0.550 OA
ENDBRANCH  11  12
ENDBRANCH  10  11
ENDBRANCH   9  10
ENDBRANCH   8   9
ENDBRANCH   7   8
ENDBRANCH   6   7
ENDBRANCH   5   6
ENDBRANCH   4   5
ENDBRANCH   3   4
ENDBRANCH   2   3
ENDBRANCH   1   2
BRANCH   1  15
ATOM     15  C   UNL     1      46.417  48.489  10.665  1.00  0.00     0.000 C 
BRANCH  15  16
ATOM     16  C   UNL     1      45.560  47.688  11.668  1.00  0.00     0.000 C 
BRANCH  16  17
ATOM     17  C   UNL     1      46.116  46.303  12.045  1.00  0.00     0.000 C 
BRANCH  17  18
ATOM     18  C   UNL     1      45.098  45.172  11.836  1.00  0.00    -0.000 C 
BRANCH  18  19
ATOM     19  C   UNL     1      45.702  44.042  10.988  1.00  0.00    -0.000 C 
BRANCH  19  20
ATOM     20  C   UNL     1      44.894  43.787   9.698  1.00  0.00    -0.000 C 
BRANCH  20  21
ATOM     21  C   UNL     1      44.973  44.941   8.687  1.00  0.00    -0.000 C 
BRANCH  21  22
ATOM     22  C   UNL     1      43.608  45.580   8.402  1.00  0.00    -0.000 C 
BRANCH  22  23
ATOM     23  C   UNL     1      43.671  47.105   8.560  1.00  0.00    -0.000 C 
BRANCH  23  24
ATOM     24  C   UNL     1      42.473  47.626   9.368  1.00  0.00    -0.000 C 
BRANCH  24  25
ATOM     25  C   UNL     1      41.956  46.596  10.384  1.00  0.00    -0.003 C 
ATOM     26  C   UNL     1      41.899  47.147  11.809  1.00  0.00     0.004 C 
ENDBRANCH  24  25
ENDBRANCH  23  24
ENDBRANCH  22  23
ENDBRANCH  21  22
ENDBRANCH  20  21
ENDBRANCH  19  20
ENDBRANCH  18  19
ENDBRANCH  17  18
ENDBRANCH  16  17
ENDBRANCH  15  16
ENDBRANCH   1  15
TORSDOF 22
ENDMDL
MODEL 9
REMARK VINA RESULT:    -4.314      8.928     12.541
REMARK INTER + INTRA:         -11.640
REMARK INTER:                  -9.078
REMARK INTRA:                  -2.562
REMARK UNBOUND:                -1.777
REMARK SMILES CCCCCCCCCCCCCCCCCCCCCCCC(=O)[O-]
REMARK SMILES IDX 13 1 14 2 15 3 16 4 17 5 18 6 19 7 20 8 21 9 22 10 23 11
REMARK SMILES IDX 24 12 25 13 26 14 12 15 11 16 10 17 9 18 8 19 7 20 6 21 5 22
REMARK SMILES IDX 4 23 3 24 2 25 1 26
REMARK H PARENT
REMARK Flexibility Score: inf
ROOT
ATOM      1  C   UNL     1      45.991  42.399  11.831  1.00  0.00     0.000 C 
ENDROOT
BRANCH   1   2
ATOM      2  C   UNL     1      46.013  43.929  11.649  1.00  0.00     0.000 C 
BRANCH   2   3
ATOM      3  C   UNL     1      45.489  44.710  12.873  1.00  0.00     0.000 C 
BRANCH   3   4
ATOM      4  C   UNL     1      46.131  46.102  13.004  1.00  0.00     0.000 C 
BRANCH   4   5
ATOM      5  C   UNL     1      47.158  46.389  11.891  1.00  0.00     0.000 C 
BRANCH   5   6
ATOM      6  C   UNL     1      47.265  47.873  11.494  1.00  0.00     0.000 C 
BRANCH   6   7
ATOM      7  C   UNL     1      48.724  48.347  11.365  1.00  0.00     0.000 C 
BRANCH   7   8
ATOM      8  C   UNL     1      49.726  47.327  11.930  1.00  0.00     0.000 C 
BRANCH   8   9
ATOM      9  C   UNL     1      50.992  47.211  11.069  1.00  0.00     0.000 C 
BRANCH   9  10
ATOM     10  C   UNL     1      51.907  46.094  11.583  1.00  0.00     0.006 C 
BRANCH  10  11
ATOM     11  C   UNL     1      52.844  45.597  10.477  1.00  0.00     0.053 C 
BRANCH  11  12
ATOM     12  C   UNL     1      54.210  45.331  11.026  1.00  0.00     0.041 C 
ATOM     13  O   UNL     1      54.586  44.149  11.244  1.00  0.00    -0.550 OA
ATOM     14  O   UNL     1      55.085  46.385  11.259  1.00  0.00    -0.550 OA
ENDBRANCH  11  12
ENDBRANCH  10  11
ENDBRANCH   9  10
ENDBRANCH   8   9
ENDBRANCH   7   8
ENDBRANCH   6   7
ENDBRANCH   5   6
ENDBRANCH   4   5
ENDBRANCH   3   4
ENDBRANCH   2   3
ENDBRANCH   1   2
BRANCH   1  15
ATOM     15  C   UNL     1      45.146  41.636  10.792  1.00  0.00     0.000 C 
BRANCH  15  16
ATOM     16  C   UNL     1      45.610  40.194  10.499  1.00  0.00     0.000 C 
BRANCH  16  17
ATOM     17  C   UNL     1      44.868  39.488   9.349  1.00  0.00     0.000 C 
BRANCH  17  18
ATOM     18  C   UNL     1      43.753  40.350   8.739  1.00  0.00    -0.000 C 
BRANCH  18  19
ATOM     19  C   UNL     1      44.112  40.777   7.307  1.00  0.00    -0.000 C 
BRANCH  19  20
ATOM     20  C   UNL     1      44.519  42.263   7.228  1.00  0.00    -0.000 C 
BRANCH  20  21
ATOM     21  C   UNL     1      43.424  43.169   6.643  1.00  0.00    -0.000 C 
BRANCH  21  22
ATOM     22  C   UNL     1      42.627  43.914   7.722  1.00  0.00    -0.000 C 
BRANCH  22  23
ATOM     23  C   UNL     1      43.522  44.283   8.911  1.00  0.00    -0.000 C 
BRANCH  23  24
ATOM     24  C   UNL     1      44.528  45.378   8.526  1.00  0.00    -0.000 C 
BRANCH  24  25
ATOM     25  C   UNL     1      44.430  46.613   9.434  1.00  0.00    -0.003 C 
ATOM     26  C   UNL     1      43.303  46.505  10.461  1.00  0.00     0.004 C 
ENDBRANCH  24  25
ENDBRANCH  23  24
ENDBRANCH  22  23
ENDBRANCH  21  22
ENDBRANCH  20  21
ENDBRANCH  19  20
ENDBRANCH  18  19
ENDBRANCH  17  18
ENDBRANCH  16  17
ENDBRANCH  15  16
ENDBRANCH   1  15
TORSDOF 22
ENDMDL
