MODEL 1
REMARK VINA RESULT:    -4.583      0.000      0.000
REMARK INTER + INTRA:          -9.708
REMARK INTER:                  -7.799
REMARK INTRA:                  -1.910
REMARK UNBOUND:                -1.910
REMARK SMILES CCCCCCCCCCCCCC(=O)[O-]
REMARK SMILES IDX 8 1 9 2 10 3 11 4 12 5 13 6 14 7 15 8 16 9 7 10 6 11 5 12
REMARK SMILES IDX 4 13 3 14 2 15 1 16
REMARK H PARENT
REMARK Flexibility Score: inf
ROOT
ATOM      1  C   UNL     1     180.815 180.958 179.626  1.00  0.00     0.000 C 
ENDROOT
BRANCH   1   2
ATOM      2  C   UNL     1     182.078 181.790 179.349  1.00  0.00     0.000 C 
BRANCH   2   3
ATOM      3  C   UNL     1     181.929 183.254 179.793  1.00  0.00     0.000 C 
BRANCH   3   4
ATOM      4  C   UNL     1     182.154 183.443 181.304  1.00  0.00     0.000 C 
BRANCH   4   5
ATOM      5  C   UNL     1     180.921 184.021 182.016  1.00  0.00     0.006 C 
BRANCH   5   6
ATOM      6  C   UNL     1     180.022 182.932 182.615  1.00  0.00     0.053 C 
BRANCH   6   7
ATOM      7  C   UNL     1     178.612 183.102 182.145  1.00  0.00     0.041 C 
ATOM      8  O   UNL     1     177.687 183.298 182.976  1.00  0.00    -0.550 OA
ATOM      9  O   UNL     1     178.312 182.994 180.794  1.00  0.00    -0.550 OA
ENDBRANCH   6   7
ENDBRANCH   5   6
ENDBRANCH   4   5
ENDBRANCH   3   4
ENDBRANCH   2   3
ENDBRANCH   1   2
BRANCH   1  10
ATOM     10  C   UNL     1     181.038 179.872 180.693  1.00  0.00     0.000 C 
BRANCH  10  11
ATOM     11  C   UNL     1     182.508 179.648 181.103  1.00  0.00    -0.000 C 
BRANCH  11  12
ATOM     12  C   UNL     1     182.876 180.129 182.521  1.00  0.00    -0.000 C 
BRANCH  12  13
ATOM     13  C   UNL     1     184.346 180.544 182.708  1.00  0.00    -0.000 C 
BRANCH  13  14
ATOM     14  C   UNL     1     185.018 180.969 181.392  1.00  0.00    -0.000 C 
BRANCH  14  15
ATOM     15  C   UNL     1     186.202 181.922 181.616  1.00  0.00    -0.003 C 
ATOM     16  C   UNL     1     185.762 183.339 181.985  1.00  0.00     0.004 C 
ENDBRANCH  14  15
ENDBRANCH  13  14
ENDBRANCH  12  13
ENDBRANCH  11  12
ENDBRANCH  10  11
ENDBRANCH   1  10
TORSDOF 12
ENDMDL
MODEL 2
REMARK VINA RESULT:    -4.562      1.274      3.419
REMARK INTER + INTRA:          -9.672
REMARK INTER:                  -7.595
REMARK INTRA:                  -2.078
REMARK UNBOUND:                -1.910
REMARK SMILES CCCCCCCCCCCCCC(=O)[O-]
REMARK SMILES IDX 8 1 9 2 10 3 11 4 12 5 13 6 14 7 15 8 16 9 7 10 6 11 5 12
REMARK SMILES IDX 4 13 3 14 2 15 1 16
REMARK H PARENT
REMARK Flexibility Score: inf
ROOT
ATOM      1  C   UNL     1     183.223 180.467 182.889  1.00  0.00     0.000 C 
ENDROOT
BRANCH   1   2
ATOM      2  C   UNL     1     182.401 179.812 181.767  1.00  0.00     0.000 C 
BRANCH   2   3
ATOM      3  C   UNL     1     181.008 180.444 181.611  1.00  0.00     0.000 C 
BRANCH   3   4
ATOM      4  C   UNL     1     180.843 181.732 182.438  1.00  0.00     0.000 C 
BRANCH   4   5
ATOM      5  C   UNL     1     180.276 182.895 181.609  1.00  0.00     0.006 C 
BRANCH   5   6
ATOM      6  C   UNL     1     179.014 182.504 180.830  1.00  0.00     0.053 C 
BRANCH   6   7
ATOM      7  C   UNL     1     177.888 182.218 181.772  1.00  0.00     0.041 C 
ATOM      8  O   UNL     1     177.281 181.116 181.718  1.00  0.00    -0.550 OA
ATOM      9  O   UNL     1     177.473 183.188 182.675  1.00  0.00    -0.550 OA
ENDBRANCH   6   7
ENDBRANCH   5   6
ENDBRANCH   4   5
ENDBRANCH   3   4
ENDBRANCH   2   3
ENDBRANCH   1   2
BRANCH   1  10
ATOM     10  C   UNL     1     184.721 180.572 182.548  1.00  0.00     0.000 C 
BRANCH  10  11
ATOM     11  C   UNL     1     185.092 181.711 181.576  1.00  0.00    -0.000 C 
BRANCH  11  12
ATOM     12  C   UNL     1     184.285 183.013 181.751  1.00  0.00    -0.000 C 
BRANCH  12  13
ATOM     13  C   UNL     1     183.485 183.456 180.512  1.00  0.00    -0.000 C 
BRANCH  13  14
ATOM     14  C   UNL     1     183.504 182.411 179.384  1.00  0.00    -0.000 C 
BRANCH  14  15
ATOM     15  C   UNL     1     182.370 182.619 178.369  1.00  0.00    -0.003 C 
ATOM     16  C   UNL     1     181.461 181.398 178.235  1.00  0.00     0.004 C 
ENDBRANCH  14  15
ENDBRANCH  13  14
ENDBRANCH  12  13
ENDBRANCH  11  12
ENDBRANCH  10  11
ENDBRANCH   1  10
TORSDOF 12
ENDMDL
MODEL 3
REMARK VINA RESULT:    -4.512      3.032      5.752
REMARK INTER + INTRA:          -9.588
REMARK INTER:                  -7.648
REMARK INTRA:                  -1.940
REMARK UNBOUND:                -1.910
REMARK SMILES CCCCCCCCCCCCCC(=O)[O-]
REMARK SMILES IDX 8 1 9 2 10 3 11 4 12 5 13 6 14 7 15 8 16 9 7 10 6 11 5 12
REMARK SMILES IDX 4 13 3 14 2 15 1 16
REMARK H PARENT
REMARK Flexibility Score: inf
ROOT
ATOM      1  C   UNL     1     182.726 182.700 179.460  1.00  0.00     0.000 C 
ENDROOT
BRANCH   1   2
ATOM      2  C   UNL     1     181.401 181.924 179.385  1.00  0.00     0.000 C 
BRANCH   2   3
ATOM      3  C   UNL     1     181.527 180.488 179.921  1.00  0.00     0.000 C 
BRANCH   3   4
ATOM      4  C   UNL     1     181.685 180.437 181.451  1.00  0.00     0.000 C 
BRANCH   4   5
ATOM      5  C   UNL     1     183.068 179.924 181.884  1.00  0.00     0.006 C 
BRANCH   5   6
ATOM      6  C   UNL     1     183.907 181.005 182.578  1.00  0.00     0.053 C 
BRANCH   6   7
ATOM      7  C   UNL     1     185.312 180.984 182.064  1.00  0.00     0.041 C 
ATOM      8  O   UNL     1     185.541 181.157 180.838  1.00  0.00    -0.550 OA
ATOM      9  O   UNL     1     186.365 180.724 182.931  1.00  0.00    -0.550 OA
ENDBRANCH   6   7
ENDBRANCH   5   6
ENDBRANCH   4   5
ENDBRANCH   3   4
ENDBRANCH   2   3
ENDBRANCH   1   2
BRANCH   1  10
ATOM     10  C   UNL     1     182.696 183.834 180.501  1.00  0.00     0.000 C 
BRANCH  10  11
ATOM     11  C   UNL     1     181.292 184.210 181.017  1.00  0.00    -0.000 C 
BRANCH  11  12
ATOM     12  C   UNL     1     181.030 183.887 182.502  1.00  0.00    -0.000 C 
BRANCH  12  13
ATOM     13  C   UNL     1     179.655 183.261 182.800  1.00  0.00    -0.000 C 
BRANCH  13  14
ATOM     14  C   UNL     1     178.829 183.003 181.529  1.00  0.00    -0.000 C 
BRANCH  14  15
ATOM     15  C   UNL     1     177.637 182.067 181.782  1.00  0.00    -0.003 C 
ATOM     16  C   UNL     1     178.065 180.643 182.135  1.00  0.00     0.004 C 
ENDBRANCH  14  15
ENDBRANCH  13  14
ENDBRANCH  12  13
ENDBRANCH  11  12
ENDBRANCH  10  11
ENDBRANCH   1  10
TORSDOF 12
ENDMDL
MODEL 4
REMARK VINA RESULT:    -4.503      3.111      5.677
REMARK INTER + INTRA:          -9.572
REMARK INTER:                  -7.651
REMARK INTRA:                  -1.921
REMARK UNBOUND:                -1.910
REMARK SMILES CCCCCCCCCCCCCC(=O)[O-]
REMARK SMILES IDX 8 1 9 2 10 3 11 4 12 5 13 6 14 7 15 8 16 9 7 10 6 11 5 12
REMARK SMILES IDX 4 13 3 14 2 15 1 16
REMARK H PARENT
REMARK Flexibility Score: inf
ROOT
ATOM      1  C   UNL     1     180.928 181.450 179.160  1.00  0.00     0.000 C 
ENDROOT
BRANCH   1   2
ATOM      2  C   UNL     1     180.889 180.288 180.167  1.00  0.00     0.000 C 
BRANCH   2   3
ATOM      3  C   UNL     1     182.284 179.921 180.698  1.00  0.00     0.000 C 
BRANCH   3   4
ATOM      4  C   UNL     1     182.391 180.050 182.228  1.00  0.00     0.000 C 
BRANCH   4   5
ATOM      5  C   UNL     1     183.791 180.489 182.686  1.00  0.00     0.006 C 
BRANCH   5   6
ATOM      6  C   UNL     1     184.699 180.880 181.513  1.00  0.00     0.053 C 
BRANCH   6   7
ATOM      7  C   UNL     1     185.987 181.449 182.017  1.00  0.00     0.041 C 
ATOM      8  O   UNL     1     186.424 182.535 181.554  1.00  0.00    -0.550 OA
ATOM      9  O   UNL     1     186.731 180.756 182.963  1.00  0.00    -0.550 OA
ENDBRANCH   6   7
ENDBRANCH   5   6
ENDBRANCH   4   5
ENDBRANCH   3   4
ENDBRANCH   2   3
ENDBRANCH   1   2
BRANCH   1  10
ATOM     10  C   UNL     1     182.308 182.127 179.084  1.00  0.00     0.000 C 
BRANCH  10  11
ATOM     11  C   UNL     1     182.467 183.391 179.953  1.00  0.00    -0.000 C 
BRANCH  11  12
ATOM     12  C   UNL     1     181.183 183.865 180.664  1.00  0.00    -0.000 C 
BRANCH  12  13
ATOM     13  C   UNL     1     181.155 183.629 182.185  1.00  0.00    -0.000 C 
BRANCH  13  14
ATOM     14  C   UNL     1     179.739 183.353 182.720  1.00  0.00    -0.000 C 
BRANCH  14  15
ATOM     15  C   UNL     1     178.734 183.051 181.597  1.00  0.00    -0.003 C 
ATOM     16  C   UNL     1     177.908 181.793 181.864  1.00  0.00     0.004 C 
ENDBRANCH  14  15
ENDBRANCH  13  14
ENDBRANCH  12  13
ENDBRANCH  11  12
ENDBRANCH  10  11
ENDBRANCH   1  10
TORSDOF 12
ENDMDL
MODEL 5
REMARK VINA RESULT:    -4.503      1.492      3.098
REMARK INTER + INTRA:          -9.571
REMARK INTER:                  -7.512
REMARK INTRA:                  -2.059
REMARK UNBOUND:                -1.910
REMARK SMILES CCCCCCCCCCCCCC(=O)[O-]
REMARK SMILES IDX 8 1 9 2 10 3 11 4 12 5 13 6 14 7 15 8 16 9 7 10 6 11 5 12
REMARK SMILES IDX 4 13 3 14 2 15 1 16
REMARK H PARENT
REMARK Flexibility Score: inf
ROOT
ATOM      1  C   UNL     1     182.676 181.368 183.376  1.00  0.00     0.000 C 
ENDROOT
BRANCH   1   2
ATOM      2  C   UNL     1     181.332 181.444 182.635  1.00  0.00     0.000 C 
BRANCH   2   3
ATOM      3  C   UNL     1     181.217 180.398 181.513  1.00  0.00     0.000 C 
BRANCH   3   4
ATOM      4  C   UNL     1     180.473 180.932 180.276  1.00  0.00     0.000 C 
BRANCH   4   5
ATOM      5  C   UNL     1     179.887 182.335 180.501  1.00  0.00     0.006 C 
BRANCH   5   6
ATOM      6  C   UNL     1     178.353 182.346 180.469  1.00  0.00     0.053 C 
BRANCH   6   7
ATOM      7  C   UNL     1     177.801 182.109 181.838  1.00  0.00     0.041 C 
ATOM      8  O   UNL     1     177.667 183.070 182.642  1.00  0.00    -0.550 OA
ATOM      9  O   UNL     1     177.482 180.821 182.247  1.00  0.00    -0.550 OA
ENDBRANCH   6   7
ENDBRANCH   5   6
ENDBRANCH   4   5
ENDBRANCH   3   4
ENDBRANCH   2   3
ENDBRANCH   1   2
BRANCH   1  10
ATOM     10  C   UNL     1     183.612 180.285 182.808  1.00  0.00     0.000 C 
BRANCH  10  11
ATOM     11  C   UNL     1     185.000 180.788 182.363  1.00  0.00    -0.000 C 
BRANCH  11  12
ATOM     12  C   UNL     1     184.996 182.101 181.554  1.00  0.00    -0.000 C 
BRANCH  12  13
ATOM     13  C   UNL     1     184.317 182.016 180.175  1.00  0.00    -0.000 C 
BRANCH  13  14
ATOM     14  C   UNL     1     183.321 183.162 179.929  1.00  0.00    -0.000 C 
BRANCH  14  15
ATOM     15  C   UNL     1     183.336 184.207 181.055  1.00  0.00    -0.003 C 
ATOM     16  C   UNL     1     182.072 185.066 181.085  1.00  0.00     0.004 C 
ENDBRANCH  14  15
ENDBRANCH  13  14
ENDBRANCH  12  13
ENDBRANCH  11  12
ENDBRANCH  10  11
ENDBRANCH   1  10
TORSDOF 12
ENDMDL
MODEL 6
REMARK VINA RESULT:    -4.478      3.220      5.472
REMARK INTER + INTRA:          -9.530
REMARK INTER:                  -7.822
REMARK INTRA:                  -1.708
REMARK UNBOUND:                -1.910
REMARK SMILES CCCCCCCCCCCCCC(=O)[O-]
REMARK SMILES IDX 8 1 9 2 10 3 11 4 12 5 13 6 14 7 15 8 16 9 7 10 6 11 5 12
REMARK SMILES IDX 4 13 3 14 2 15 1 16
REMARK H PARENT
REMARK Flexibility Score: inf
ROOT
ATOM      1  C   UNL     1     181.648 184.588 181.155  1.00  0.00     0.000 C 
ENDROOT
BRANCH   1   2
ATOM      2  C   UNL     1     183.176 184.657 180.993  1.00  0.00     0.000 C 
BRANCH   2   3
ATOM      3  C   UNL     1     183.874 183.358 181.428  1.00  0.00     0.000 C 
BRANCH   3   4
ATOM      4  C   UNL     1     184.161 182.414 180.247  1.00  0.00     0.000 C 
BRANCH   4   5
ATOM      5  C   UNL     1     185.076 181.242 180.638  1.00  0.00     0.006 C 
BRANCH   5   6
ATOM      6  C   UNL     1     186.058 181.611 181.758  1.00  0.00     0.053 C 
BRANCH   6   7
ATOM      7  C   UNL     1     185.899 180.680 182.918  1.00  0.00     0.041 C 
ATOM      8  O   UNL     1     186.903 180.333 183.594  1.00  0.00    -0.550 OA
ATOM      9  O   UNL     1     184.650 180.156 183.223  1.00  0.00    -0.550 OA
ENDBRANCH   6   7
ENDBRANCH   5   6
ENDBRANCH   4   5
ENDBRANCH   3   4
ENDBRANCH   2   3
ENDBRANCH   1   2
BRANCH   1  10
ATOM     10  C   UNL     1     181.216 183.849 182.434  1.00  0.00     0.000 C 
BRANCH  10  11
ATOM     11  C   UNL     1     179.748 183.374 182.451  1.00  0.00    -0.000 C 
BRANCH  11  12
ATOM     12  C   UNL     1     179.462 182.096 181.638  1.00  0.00    -0.000 C 
BRANCH  12  13
ATOM     13  C   UNL     1     180.565 181.024 181.696  1.00  0.00    -0.000 C 
BRANCH  13  14
ATOM     14  C   UNL     1     181.040 180.581 180.302  1.00  0.00    -0.000 C 
BRANCH  14  15
ATOM     15  C   UNL     1     180.637 181.573 179.199  1.00  0.00    -0.003 C 
ATOM     16  C   UNL     1     181.592 181.555 178.006  1.00  0.00     0.004 C 
ENDBRANCH  14  15
ENDBRANCH  13  14
ENDBRANCH  12  13
ENDBRANCH  11  12
ENDBRANCH  10  11
ENDBRANCH   1  10
TORSDOF 12
ENDMDL
MODEL 7
REMARK VINA RESULT:    -4.472      1.098      2.098
REMARK INTER + INTRA:          -9.518
REMARK INTER:                  -7.451
REMARK INTRA:                  -2.067
REMARK UNBOUND:                -1.910
REMARK SMILES CCCCCCCCCCCCCC(=O)[O-]
REMARK SMILES IDX 8 1 9 2 10 3 11 4 12 5 13 6 14 7 15 8 16 9 7 10 6 11 5 12
REMARK SMILES IDX 4 13 3 14 2 15 1 16
REMARK H PARENT
REMARK Flexibility Score: inf
ROOT
ATOM      1  C   UNL     1     183.000 182.771 179.458  1.00  0.00     0.000 C 
ENDROOT
BRANCH   1   2
ATOM      2  C   UNL     1     182.948 183.846 180.557  1.00  0.00     0.000 C 
BRANCH   2   3
ATOM      3  C   UNL     1     181.515 184.316 180.855  1.00  0.00     0.000 C 
BRANCH   3   4
ATOM      4  C   UNL     1     181.156 184.216 182.348  1.00  0.00     0.000 C 
BRANCH   4   5
ATOM      5  C   UNL     1     180.311 182.973 182.669  1.00  0.00     0.006 C 
BRANCH   5   6
ATOM      6  C   UNL     1     178.825 183.169 182.343  1.00  0.00     0.053 C 
BRANCH   6   7
ATOM      7  C   UNL     1     178.349 182.098 181.414  1.00  0.00     0.041 C 
ATOM      8  O   UNL     1     178.226 182.334 180.183  1.00  0.00    -0.550 OA
ATOM      9  O   UNL     1     177.991 180.853 181.915  1.00  0.00    -0.550 OA
ENDBRANCH   6   7
ENDBRANCH   5   6
ENDBRANCH   4   5
ENDBRANCH   3   4
ENDBRANCH   2   3
ENDBRANCH   1   2
BRANCH   1  10
ATOM     10  C   UNL     1     181.631 182.117 179.198  1.00  0.00     0.000 C 
BRANCH  10  11
ATOM     11  C   UNL     1     181.429 180.738 179.859  1.00  0.00    -0.000 C 
BRANCH  11  12
ATOM     12  C   UNL     1     182.648 180.194 180.631  1.00  0.00    -0.000 C 
BRANCH  12  13
ATOM     13  C   UNL     1     182.484 180.149 182.161  1.00  0.00    -0.000 C 
BRANCH  13  14
ATOM     14  C   UNL     1     183.532 181.000 182.898  1.00  0.00    -0.000 C 
BRANCH  14  15
ATOM     15  C   UNL     1     184.971 180.568 182.579  1.00  0.00    -0.003 C 
ATOM     16  C   UNL     1     185.767 181.649 181.847  1.00  0.00     0.004 C 
ENDBRANCH  14  15
ENDBRANCH  13  14
ENDBRANCH  12  13
ENDBRANCH  11  12
ENDBRANCH  10  11
ENDBRANCH   1  10
TORSDOF 12
ENDMDL
MODEL 8
REMARK VINA RESULT:    -4.468      3.164      5.138
REMARK INTER + INTRA:          -9.512
REMARK INTER:                  -7.389
REMARK INTRA:                  -2.123
REMARK UNBOUND:                -1.910
REMARK SMILES CCCCCCCCCCCCCC(=O)[O-]
REMARK SMILES IDX 8 1 9 2 10 3 11 4 12 5 13 6 14 7 15 8 16 9 7 10 6 11 5 12
REMARK SMILES IDX 4 13 3 14 2 15 1 16
REMARK H PARENT
REMARK Flexibility Score: inf
ROOT
ATOM      1  C   UNL     1     179.714 180.658 181.736  1.00  0.00     0.000 C 
ENDROOT
BRANCH   1   2
ATOM      2  C   UNL     1     180.702 180.311 180.610  1.00  0.00     0.000 C 
BRANCH   2   3
ATOM      3  C   UNL     1     182.077 179.878 181.144  1.00  0.00     0.000 C 
BRANCH   3   4
ATOM      4  C   UNL     1     182.314 180.317 182.600  1.00  0.00     0.000 C 
BRANCH   4   5
ATOM      5  C   UNL     1     183.658 181.040 182.787  1.00  0.00     0.006 C 
BRANCH   5   6
ATOM      6  C   UNL     1     184.646 180.749 181.650  1.00  0.00     0.053 C 
BRANCH   6   7
ATOM      7  C   UNL     1     185.985 181.339 181.960  1.00  0.00     0.041 C 
ATOM      8  O   UNL     1     186.761 180.762 182.767  1.00  0.00    -0.550 OA
ATOM      9  O   UNL     1     186.358 182.552 181.397  1.00  0.00    -0.550 OA
ENDBRANCH   6   7
ENDBRANCH   5   6
ENDBRANCH   4   5
ENDBRANCH   3   4
ENDBRANCH   2   3
ENDBRANCH   1   2
BRANCH   1  10
ATOM     10  C   UNL     1     178.583 181.592 181.271  1.00  0.00     0.000 C 
BRANCH  10  11
ATOM     11  C   UNL     1     178.908 183.099 181.344  1.00  0.00    -0.000 C 
BRANCH  11  12
ATOM     12  C   UNL     1     179.803 183.522 182.525  1.00  0.00    -0.000 C 
BRANCH  12  13
ATOM     13  C   UNL     1     181.257 183.866 182.152  1.00  0.00    -0.000 C 
BRANCH  13  14
ATOM     14  C   UNL     1     181.472 183.975 180.633  1.00  0.00    -0.000 C 
BRANCH  14  15
ATOM     15  C   UNL     1     182.926 183.695 180.223  1.00  0.00    -0.003 C 
ATOM     16  C   UNL     1     183.035 182.722 179.049  1.00  0.00     0.004 C 
ENDBRANCH  14  15
ENDBRANCH  13  14
ENDBRANCH  12  13
ENDBRANCH  11  12
ENDBRANCH  10  11
ENDBRANCH   1  10
TORSDOF 12
ENDMDL
MODEL 9
REMARK VINA RESULT:    -4.439      0.925      3.114
REMARK INTER + INTRA:          -9.462
REMARK INTER:                  -7.542
REMARK INTRA:                  -1.920
REMARK UNBOUND:                -1.910
REMARK SMILES CCCCCCCCCCCCCC(=O)[O-]
REMARK SMILES IDX 8 1 9 2 10 3 11 4 12 5 13 6 14 7 15 8 16 9 7 10 6 11 5 12
REMARK SMILES IDX 4 13 3 14 2 15 1 16
REMARK H PARENT
REMARK Flexibility Score: inf
ROOT
ATOM      1  C   UNL     1     184.109 183.486 181.690  1.00  0.00     0.000 C 
ENDROOT
BRANCH   1   2
ATOM      2  C   UNL     1     183.300 183.595 180.386  1.00  0.00     0.000 C 
BRANCH   2   3
ATOM      3  C   UNL     1     181.822 183.933 180.636  1.00  0.00     0.000 C 
BRANCH   3   4
ATOM      4  C   UNL     1     181.481 184.042 182.133  1.00  0.00     0.000 C 
BRANCH   4   5
ATOM      5  C   UNL     1     180.312 183.132 182.539  1.00  0.00     0.006 C 
BRANCH   5   6
ATOM      6  C   UNL     1     179.157 183.170 181.530  1.00  0.00     0.053 C 
BRANCH   6   7
ATOM      7  C   UNL     1     177.914 182.603 182.138  1.00  0.00     0.041 C 
ATOM      8  O   UNL     1     177.249 183.279 182.967  1.00  0.00    -0.550 OA
ATOM      9  O   UNL     1     177.516 181.309 181.828  1.00  0.00    -0.550 OA
ENDBRANCH   6   7
ENDBRANCH   5   6
ENDBRANCH   4   5
ENDBRANCH   3   4
ENDBRANCH   2   3
ENDBRANCH   1   2
BRANCH   1  10
ATOM     10  C   UNL     1     185.315 182.538 181.567  1.00  0.00     0.000 C 
BRANCH  10  11
ATOM     11  C   UNL     1     184.964 181.037 181.513  1.00  0.00    -0.000 C 
BRANCH  11  12
ATOM     12  C   UNL     1     184.186 180.500 182.731  1.00  0.00    -0.000 C 
BRANCH  12  13
ATOM     13  C   UNL     1     182.701 180.187 182.471  1.00  0.00    -0.000 C 
BRANCH  13  14
ATOM     14  C   UNL     1     182.426 179.768 181.017  1.00  0.00    -0.000 C 
BRANCH  14  15
ATOM     15  C   UNL     1     180.974 180.034 180.592  1.00  0.00    -0.003 C 
ATOM     16  C   UNL     1     180.872 180.891 179.331  1.00  0.00     0.004 C 
ENDBRANCH  14  15
ENDBRANCH  13  14
ENDBRANCH  12  13
ENDBRANCH  11  12
ENDBRANCH  10  11
ENDBRANCH   1  10
TORSDOF 12
ENDMDL
