MODEL 1
REMARK VINA RESULT:    -3.741      0.000      0.000
REMARK INTER + INTRA:         -14.867
REMARK INTER:                  -9.428
REMARK INTRA:                  -5.440
REMARK UNBOUND:                -5.440
REMARK SMILES CCCCCCCCCCCCCCCCCCCCCCCCCCCC(=O)[O-]
REMARK SMILES IDX 15 1 16 2 17 3 18 4 19 5 20 6 21 7 22 8 23 9 24 10 25 11
REMARK SMILES IDX 26 12 27 13 28 14 29 15 30 16 14 17 13 18 12 19 11 20 10 21
REMARK SMILES IDX 9 22 8 23 7 24 6 25 5 26 4 27 3 28 2 29 1 30
REMARK H PARENT
REMARK Flexibility Score: inf
ROOT
ATOM      1  C   UNL     1      26.361  28.147 -10.293  1.00  0.00     0.000 C 
ENDROOT
BRANCH   1   2
ATOM      2  C   UNL     1      27.616  28.999 -10.015  1.00  0.00     0.000 C 
BRANCH   2   3
ATOM      3  C   UNL     1      27.839  30.182 -10.982  1.00  0.00     0.000 C 
BRANCH   3   4
ATOM      4  C   UNL     1      29.071  30.057 -11.903  1.00  0.00     0.000 C 
BRANCH   4   5
ATOM      5  C   UNL     1      28.765  30.132 -13.409  1.00  0.00     0.000 C 
BRANCH   5   6
ATOM      6  C   UNL     1      27.361  30.689 -13.702  1.00  0.00     0.000 C 
BRANCH   6   7
ATOM      7  C   UNL     1      26.687  30.020 -14.914  1.00  0.00     0.000 C 
BRANCH   7   8
ATOM      8  C   UNL     1      25.163  29.829 -14.797  1.00  0.00     0.000 C 
BRANCH   8   9
ATOM      9  C   UNL     1      24.362  30.808 -15.670  1.00  0.00     0.000 C 
BRANCH   9  10
ATOM     10  C   UNL     1      23.490  31.724 -14.804  1.00  0.00     0.000 C 
BRANCH  10  11
ATOM     11  C   UNL     1      24.355  32.657 -13.942  1.00  0.00     0.000 C 
BRANCH  11  12
ATOM     12  C   UNL     1      23.933  32.660 -12.461  1.00  0.00     0.006 C 
BRANCH  12  13
ATOM     13  C   UNL     1      24.587  31.558 -11.612  1.00  0.00     0.053 C 
BRANCH  13  14
ATOM     14  C   UNL     1      23.584  30.566 -11.109  1.00  0.00     0.041 C 
ATOM     15  O   UNL     1      23.463  30.358  -9.872  1.00  0.00    -0.550 OA
ATOM     16  O   UNL     1      22.754  29.903 -12.004  1.00  0.00    -0.550 OA
ENDBRANCH  13  14
ENDBRANCH  12  13
ENDBRANCH  11  12
ENDBRANCH  10  11
ENDBRANCH   9  10
ENDBRANCH   8   9
ENDBRANCH   7   8
ENDBRANCH   6   7
ENDBRANCH   5   6
ENDBRANCH   4   5
ENDBRANCH   3   4
ENDBRANCH   2   3
ENDBRANCH   1   2
BRANCH   1  17
ATOM     17  C   UNL     1      26.068  27.893 -11.784  1.00  0.00     0.000 C 
BRANCH  17  18
ATOM     18  C   UNL     1      27.008  26.845 -12.403  1.00  0.00     0.000 C 
BRANCH  18  19
ATOM     19  C   UNL     1      26.657  26.521 -13.870  1.00  0.00     0.000 C 
BRANCH  19  20
ATOM     20  C   UNL     1      25.236  25.955 -14.071  1.00  0.00     0.000 C 
BRANCH  20  21
ATOM     21  C   UNL     1      25.143  24.705 -14.968  1.00  0.00     0.000 C 
BRANCH  21  22
ATOM     22  C   UNL     1      25.382  23.363 -14.246  1.00  0.00    -0.000 C 
BRANCH  22  23
ATOM     23  C   UNL     1      26.863  22.970 -14.083  1.00  0.00    -0.000 C 
BRANCH  23  24
ATOM     24  C   UNL     1      27.382  22.967 -12.632  1.00  0.00    -0.000 C 
BRANCH  24  25
ATOM     25  C   UNL     1      26.294  22.796 -11.556  1.00  0.00    -0.000 C 
BRANCH  25  26
ATOM     26  C   UNL     1      26.279  23.950 -10.537  1.00  0.00    -0.000 C 
BRANCH  26  27
ATOM     27  C   UNL     1      24.889  24.592 -10.392  1.00  0.00    -0.000 C 
BRANCH  27  28
ATOM     28  C   UNL     1      23.800  23.816 -11.150  1.00  0.00    -0.000 C 
BRANCH  28  29
ATOM     29  C   UNL     1      22.511  24.641 -11.255  1.00  0.00    -0.003 C 
ATOM     30  C   UNL     1      22.055  24.766 -12.705  1.00  0.00     0.004 C 
ENDBRANCH  28  29
ENDBRANCH  27  28
ENDBRANCH  26  27
ENDBRANCH  25  26
ENDBRANCH  24  25
ENDBRANCH  23  24
ENDBRANCH  22  23
ENDBRANCH  21  22
ENDBRANCH  20  21
ENDBRANCH  19  20
ENDBRANCH  18  19
ENDBRANCH  17  18
ENDBRANCH   1  17
TORSDOF 26
ENDMDL
MODEL 2
REMARK VINA RESULT:    -3.709      2.662      7.150
REMARK INTER + INTRA:         -14.787
REMARK INTER:                 -10.364
REMARK INTRA:                  -4.423
REMARK UNBOUND:                -5.440
REMARK SMILES CCCCCCCCCCCCCCCCCCCCCCCCCCCC(=O)[O-]
REMARK SMILES IDX 15 1 16 2 17 3 18 4 19 5 20 6 21 7 22 8 23 9 24 10 25 11
REMARK SMILES IDX 26 12 27 13 28 14 29 15 30 16 14 17 13 18 12 19 11 20 10 21
REMARK SMILES IDX 9 22 8 23 7 24 6 25 5 26 4 27 3 28 2 29 1 30
REMARK H PARENT
REMARK Flexibility Score: inf
ROOT
ATOM      1  C   UNL     1      26.613  28.584  -9.224  1.00  0.00     0.000 C 
ENDROOT
BRANCH   1   2
ATOM      2  C   UNL     1      26.039  28.254 -10.617  1.00  0.00     0.000 C 
BRANCH   2   3
ATOM      3  C   UNL     1      25.468  26.829 -10.775  1.00  0.00     0.000 C 
BRANCH   3   4
ATOM      4  C   UNL     1      26.207  25.932 -11.791  1.00  0.00     0.000 C 
BRANCH   4   5
ATOM      5  C   UNL     1      27.088  26.687 -12.802  1.00  0.00     0.000 C 
BRANCH   5   6
ATOM      6  C   UNL     1      26.748  26.337 -14.262  1.00  0.00     0.000 C 
BRANCH   6   7
ATOM      7  C   UNL     1      25.248  26.064 -14.484  1.00  0.00     0.000 C 
BRANCH   7   8
ATOM      8  C   UNL     1      24.919  24.730 -15.179  1.00  0.00     0.000 C 
BRANCH   8   9
ATOM      9  C   UNL     1      23.621  24.086 -14.667  1.00  0.00     0.000 C 
BRANCH   9  10
ATOM     10  C   UNL     1      23.887  22.677 -14.125  1.00  0.00     0.000 C 
BRANCH  10  11
ATOM     11  C   UNL     1      25.395  22.410 -14.001  1.00  0.00     0.000 C 
BRANCH  11  12
ATOM     12  C   UNL     1      25.745  21.527 -12.788  1.00  0.00     0.006 C 
BRANCH  12  13
ATOM     13  C   UNL     1      26.519  22.254 -11.676  1.00  0.00     0.053 C 
BRANCH  13  14
ATOM     14  C   UNL     1      27.982  22.350 -11.981  1.00  0.00     0.041 C 
ATOM     15  O   UNL     1      28.409  23.242 -12.764  1.00  0.00    -0.550 OA
ATOM     16  O   UNL     1      28.878  21.483 -11.369  1.00  0.00    -0.550 OA
ENDBRANCH  13  14
ENDBRANCH  12  13
ENDBRANCH  11  12
ENDBRANCH  10  11
ENDBRANCH   9  10
ENDBRANCH   8   9
ENDBRANCH   7   8
ENDBRANCH   6   7
ENDBRANCH   5   6
ENDBRANCH   4   5
ENDBRANCH   3   4
ENDBRANCH   2   3
ENDBRANCH   1   2
BRANCH   1  17
ATOM     17  C   UNL     1      27.735  29.641  -9.220  1.00  0.00     0.000 C 
BRANCH  17  18
ATOM     18  C   UNL     1      27.838  30.401 -10.553  1.00  0.00     0.000 C 
BRANCH  18  19
ATOM     19  C   UNL     1      29.048  29.955 -11.402  1.00  0.00     0.000 C 
BRANCH  19  20
ATOM     20  C   UNL     1      28.921  30.276 -12.905  1.00  0.00     0.000 C 
BRANCH  20  21
ATOM     21  C   UNL     1      27.483  30.287 -13.459  1.00  0.00     0.000 C 
BRANCH  21  22
ATOM     22  C   UNL     1      27.372  30.163 -14.992  1.00  0.00    -0.000 C 
BRANCH  22  23
ATOM     23  C   UNL     1      26.018  29.634 -15.503  1.00  0.00    -0.000 C 
BRANCH  23  24
ATOM     24  C   UNL     1      24.834  29.827 -14.536  1.00  0.00    -0.000 C 
BRANCH  24  25
ATOM     25  C   UNL     1      23.989  31.089 -14.790  1.00  0.00    -0.000 C 
BRANCH  25  26
ATOM     26  C   UNL     1      24.614  32.357 -14.180  1.00  0.00    -0.000 C 
BRANCH  26  27
ATOM     27  C   UNL     1      24.030  32.698 -12.800  1.00  0.00    -0.000 C 
BRANCH  27  28
ATOM     28  C   UNL     1      24.688  31.893 -11.667  1.00  0.00    -0.000 C 
BRANCH  28  29
ATOM     29  C   UNL     1      23.653  31.028 -10.936  1.00  0.00    -0.003 C 
ATOM     30  C   UNL     1      22.264  31.202 -11.543  1.00  0.00     0.004 C 
ENDBRANCH  28  29
ENDBRANCH  27  28
ENDBRANCH  26  27
ENDBRANCH  25  26
ENDBRANCH  24  25
ENDBRANCH  23  24
ENDBRANCH  22  23
ENDBRANCH  21  22
ENDBRANCH  20  21
ENDBRANCH  19  20
ENDBRANCH  18  19
ENDBRANCH  17  18
ENDBRANCH   1  17
TORSDOF 26
ENDMDL
MODEL 3
REMARK VINA RESULT:    -3.638      1.888      4.311
REMARK INTER + INTRA:         -14.607
REMARK INTER:                  -9.868
REMARK INTRA:                  -4.738
REMARK UNBOUND:                -5.440
REMARK SMILES CCCCCCCCCCCCCCCCCCCCCCCCCCCC(=O)[O-]
REMARK SMILES IDX 15 1 16 2 17 3 18 4 19 5 20 6 21 7 22 8 23 9 24 10 25 11
REMARK SMILES IDX 26 12 27 13 28 14 29 15 30 16 14 17 13 18 12 19 11 20 10 21
REMARK SMILES IDX 9 22 8 23 7 24 6 25 5 26 4 27 3 28 2 29 1 30
REMARK H PARENT
REMARK Flexibility Score: inf
ROOT
ATOM      1  C   UNL     1      22.819  30.687 -10.977  1.00  0.00     0.000 C 
ENDROOT
BRANCH   1   2
ATOM      2  C   UNL     1      24.288  30.547 -11.424  1.00  0.00     0.000 C 
BRANCH   2   3
ATOM      3  C   UNL     1      24.960  31.851 -11.905  1.00  0.00     0.000 C 
BRANCH   3   4
ATOM      4  C   UNL     1      24.124  32.702 -12.883  1.00  0.00     0.000 C 
BRANCH   4   5
ATOM      5  C   UNL     1      24.686  32.787 -14.313  1.00  0.00     0.000 C 
BRANCH   5   6
ATOM      6  C   UNL     1      23.764  32.124 -15.352  1.00  0.00     0.000 C 
BRANCH   6   7
ATOM      7  C   UNL     1      23.517  30.629 -15.075  1.00  0.00     0.000 C 
BRANCH   7   8
ATOM      8  C   UNL     1      24.408  29.657 -15.871  1.00  0.00     0.000 C 
BRANCH   8   9
ATOM      9  C   UNL     1      25.604  29.132 -15.062  1.00  0.00     0.000 C 
BRANCH   9  10
ATOM     10  C   UNL     1      26.864  29.955 -15.355  1.00  0.00     0.000 C 
BRANCH  10  11
ATOM     11  C   UNL     1      27.458  30.534 -14.062  1.00  0.00     0.000 C 
BRANCH  11  12
ATOM     12  C   UNL     1      27.746  29.453 -13.003  1.00  0.00     0.006 C 
BRANCH  12  13
ATOM     13  C   UNL     1      28.844  29.830 -11.995  1.00  0.00     0.053 C 
BRANCH  13  14
ATOM     14  C   UNL     1      28.290  30.076 -10.626  1.00  0.00     0.041 C 
ATOM     15  O   UNL     1      28.214  31.250 -10.175  1.00  0.00    -0.550 OA
ATOM     16  O   UNL     1      27.819  29.013  -9.866  1.00  0.00    -0.550 OA
ENDBRANCH  13  14
ENDBRANCH  12  13
ENDBRANCH  11  12
ENDBRANCH  10  11
ENDBRANCH   9  10
ENDBRANCH   8   9
ENDBRANCH   7   8
ENDBRANCH   6   7
ENDBRANCH   5   6
ENDBRANCH   4   5
ENDBRANCH   3   4
ENDBRANCH   2   3
ENDBRANCH   1   2
BRANCH   1  17
ATOM     17  C   UNL     1      21.797  29.960 -11.873  1.00  0.00     0.000 C 
BRANCH  17  18
ATOM     18  C   UNL     1      21.914  28.429 -11.783  1.00  0.00     0.000 C 
BRANCH  18  19
ATOM     19  C   UNL     1      22.326  27.782 -13.122  1.00  0.00     0.000 C 
BRANCH  19  20
ATOM     20  C   UNL     1      23.166  26.497 -12.973  1.00  0.00     0.000 C 
BRANCH  20  21
ATOM     21  C   UNL     1      24.086  26.448 -11.738  1.00  0.00     0.000 C 
BRANCH  21  22
ATOM     22  C   UNL     1      25.482  27.073 -11.937  1.00  0.00    -0.000 C 
BRANCH  22  23
ATOM     23  C   UNL     1      26.630  26.058 -12.098  1.00  0.00    -0.000 C 
BRANCH  23  24
ATOM     24  C   UNL     1      27.036  25.756 -13.554  1.00  0.00    -0.000 C 
BRANCH  24  25
ATOM     25  C   UNL     1      26.122  24.757 -14.287  1.00  0.00    -0.000 C 
BRANCH  25  26
ATOM     26  C   UNL     1      26.735  23.348 -14.382  1.00  0.00    -0.000 C 
BRANCH  26  27
ATOM     27  C   UNL     1      25.975  22.315 -13.534  1.00  0.00    -0.000 C 
BRANCH  27  28
ATOM     28  C   UNL     1      26.742  21.919 -12.262  1.00  0.00    -0.000 C 
BRANCH  28  29
ATOM     29  C   UNL     1      26.699  20.400 -12.046  1.00  0.00    -0.003 C 
ATOM     30  C   UNL     1      25.822  20.040 -10.851  1.00  0.00     0.004 C 
ENDBRANCH  28  29
ENDBRANCH  27  28
ENDBRANCH  26  27
ENDBRANCH  25  26
ENDBRANCH  24  25
ENDBRANCH  23  24
ENDBRANCH  22  23
ENDBRANCH  21  22
ENDBRANCH  20  21
ENDBRANCH  19  20
ENDBRANCH  18  19
ENDBRANCH  17  18
ENDBRANCH   1  17
TORSDOF 26
ENDMDL
MODEL 4
REMARK VINA RESULT:    -3.629      1.390      2.648
REMARK INTER + INTRA:         -14.586
REMARK INTER:                  -9.424
REMARK INTRA:                  -5.162
REMARK UNBOUND:                -5.440
REMARK SMILES CCCCCCCCCCCCCCCCCCCCCCCCCCCC(=O)[O-]
REMARK SMILES IDX 15 1 16 2 17 3 18 4 19 5 20 6 21 7 22 8 23 9 24 10 25 11
REMARK SMILES IDX 26 12 27 13 28 14 29 15 30 16 14 17 13 18 12 19 11 20 10 21
REMARK SMILES IDX 9 22 8 23 7 24 6 25 5 26 4 27 3 28 2 29 1 30
REMARK H PARENT
REMARK Flexibility Score: inf
ROOT
ATOM      1  C   UNL     1      25.985  27.489 -10.331  1.00  0.00     0.000 C 
ENDROOT
BRANCH   1   2
ATOM      2  C   UNL     1      26.242  28.865  -9.684  1.00  0.00     0.000 C 
BRANCH   2   3
ATOM      3  C   UNL     1      27.727  29.249  -9.515  1.00  0.00     0.000 C 
BRANCH   3   4
ATOM      4  C   UNL     1      28.202  30.442 -10.370  1.00  0.00     0.000 C 
BRANCH   4   5
ATOM      5  C   UNL     1      29.336  30.121 -11.359  1.00  0.00     0.000 C 
BRANCH   5   6
ATOM      6  C   UNL     1      28.871  30.156 -12.826  1.00  0.00     0.000 C 
BRANCH   6   7
ATOM      7  C   UNL     1      27.384  30.526 -12.980  1.00  0.00     0.000 C 
BRANCH   7   8
ATOM      8  C   UNL     1      26.902  30.721 -14.429  1.00  0.00     0.000 C 
BRANCH   8   9
ATOM      9  C   UNL     1      25.632  31.580 -14.534  1.00  0.00     0.000 C 
BRANCH   9  10
ATOM     10  C   UNL     1      24.754  31.410 -13.289  1.00  0.00     0.000 C 
BRANCH  10  11
ATOM     11  C   UNL     1      23.774  30.239 -13.460  1.00  0.00     0.000 C 
BRANCH  11  12
ATOM     12  C   UNL     1      22.628  30.267 -12.432  1.00  0.00     0.006 C 
BRANCH  12  13
ATOM     13  C   UNL     1      22.754  29.221 -11.312  1.00  0.00     0.053 C 
BRANCH  13  14
ATOM     14  C   UNL     1      22.621  29.835  -9.953  1.00  0.00     0.041 C 
ATOM     15  O   UNL     1      22.351  29.113  -8.955  1.00  0.00    -0.550 OA
ATOM     16  O   UNL     1      22.835  31.196  -9.781  1.00  0.00    -0.550 OA
ENDBRANCH  13  14
ENDBRANCH  12  13
ENDBRANCH  11  12
ENDBRANCH  10  11
ENDBRANCH   9  10
ENDBRANCH   8   9
ENDBRANCH   7   8
ENDBRANCH   6   7
ENDBRANCH   5   6
ENDBRANCH   4   5
ENDBRANCH   3   4
ENDBRANCH   2   3
ENDBRANCH   1   2
BRANCH   1  17
ATOM     17  C   UNL     1      25.824  27.514 -11.864  1.00  0.00     0.000 C 
BRANCH  17  18
ATOM     18  C   UNL     1      27.061  26.971 -12.598  1.00  0.00     0.000 C 
BRANCH  18  19
ATOM     19  C   UNL     1      26.767  26.598 -14.067  1.00  0.00     0.000 C 
BRANCH  19  20
ATOM     20  C   UNL     1      25.516  27.282 -14.656  1.00  0.00     0.000 C 
BRANCH  20  21
ATOM     21  C   UNL     1      24.398  26.328 -15.120  1.00  0.00     0.000 C 
BRANCH  21  22
ATOM     22  C   UNL     1      23.428  25.868 -14.013  1.00  0.00    -0.000 C 
BRANCH  22  23
ATOM     23  C   UNL     1      23.690  24.451 -13.469  1.00  0.00    -0.000 C 
BRANCH  23  24
ATOM     24  C   UNL     1      24.358  23.482 -14.464  1.00  0.00    -0.000 C 
BRANCH  24  25
ATOM     25  C   UNL     1      25.414  22.546 -13.847  1.00  0.00    -0.000 C 
BRANCH  25  26
ATOM     26  C   UNL     1      26.854  23.034 -14.085  1.00  0.00    -0.000 C 
BRANCH  26  27
ATOM     27  C   UNL     1      27.614  23.293 -12.774  1.00  0.00    -0.000 C 
BRANCH  27  28
ATOM     28  C   UNL     1      27.540  22.101 -11.806  1.00  0.00    -0.000 C 
BRANCH  28  29
ATOM     29  C   UNL     1      26.995  22.538 -10.440  1.00  0.00    -0.003 C 
ATOM     30  C   UNL     1      26.290  23.888 -10.535  1.00  0.00     0.004 C 
ENDBRANCH  28  29
ENDBRANCH  27  28
ENDBRANCH  26  27
ENDBRANCH  25  26
ENDBRANCH  24  25
ENDBRANCH  23  24
ENDBRANCH  22  23
ENDBRANCH  21  22
ENDBRANCH  20  21
ENDBRANCH  19  20
ENDBRANCH  18  19
ENDBRANCH  17  18
ENDBRANCH   1  17
TORSDOF 26
ENDMDL
MODEL 5
REMARK VINA RESULT:    -3.627      2.565      6.770
REMARK INTER + INTRA:         -14.579
REMARK INTER:                  -9.395
REMARK INTRA:                  -5.183
REMARK UNBOUND:                -5.440
REMARK SMILES CCCCCCCCCCCCCCCCCCCCCCCCCCCC(=O)[O-]
REMARK SMILES IDX 15 1 16 2 17 3 18 4 19 5 20 6 21 7 22 8 23 9 24 10 25 11
REMARK SMILES IDX 26 12 27 13 28 14 29 15 30 16 14 17 13 18 12 19 11 20 10 21
REMARK SMILES IDX 9 22 8 23 7 24 6 25 5 26 4 27 3 28 2 29 1 30
REMARK H PARENT
REMARK Flexibility Score: inf
ROOT
ATOM      1  C   UNL     1      26.327  28.416 -10.526  1.00  0.00     0.000 C 
ENDROOT
BRANCH   1   2
ATOM      2  C   UNL     1      26.619  27.086 -11.250  1.00  0.00     0.000 C 
BRANCH   2   3
ATOM      3  C   UNL     1      26.998  27.215 -12.741  1.00  0.00     0.000 C 
BRANCH   3   4
ATOM      4  C   UNL     1      27.100  25.882 -13.513  1.00  0.00     0.000 C 
BRANCH   4   5
ATOM      5  C   UNL     1      26.049  25.692 -14.621  1.00  0.00     0.000 C 
BRANCH   5   6
ATOM      6  C   UNL     1      25.457  27.025 -15.111  1.00  0.00     0.000 C 
BRANCH   6   7
ATOM      7  C   UNL     1      24.060  27.314 -14.532  1.00  0.00     0.000 C 
BRANCH   7   8
ATOM      8  C   UNL     1      23.018  26.198 -14.737  1.00  0.00     0.000 C 
BRANCH   8   9
ATOM      9  C   UNL     1      22.383  25.715 -13.424  1.00  0.00     0.000 C 
BRANCH   9  10
ATOM     10  C   UNL     1      23.192  26.200 -12.216  1.00  0.00     0.000 C 
BRANCH  10  11
ATOM     11  C   UNL     1      23.536  25.033 -11.278  1.00  0.00     0.000 C 
BRANCH  11  12
ATOM     12  C   UNL     1      24.282  23.892 -11.996  1.00  0.00     0.006 C 
BRANCH  12  13
ATOM     13  C   UNL     1      25.529  23.384 -11.254  1.00  0.00     0.053 C 
BRANCH  13  14
ATOM     14  C   UNL     1      26.403  22.545 -12.133  1.00  0.00     0.041 C 
ATOM     15  O   UNL     1      27.654  22.554 -11.978  1.00  0.00    -0.550 OA
ATOM     16  O   UNL     1      25.834  21.721 -13.096  1.00  0.00    -0.550 OA
ENDBRANCH  13  14
ENDBRANCH  12  13
ENDBRANCH  11  12
ENDBRANCH  10  11
ENDBRANCH   9  10
ENDBRANCH   8   9
ENDBRANCH   7   8
ENDBRANCH   6   7
ENDBRANCH   5   6
ENDBRANCH   4   5
ENDBRANCH   3   4
ENDBRANCH   2   3
ENDBRANCH   1   2
BRANCH   1  17
ATOM     17  C   UNL     1      27.527  29.021  -9.773  1.00  0.00     0.000 C 
BRANCH  17  18
ATOM     18  C   UNL     1      28.041  30.318 -10.421  1.00  0.00     0.000 C 
BRANCH  18  19
ATOM     19  C   UNL     1      29.267  30.085 -11.329  1.00  0.00     0.000 C 
BRANCH  19  20
ATOM     20  C   UNL     1      28.976  30.234 -12.836  1.00  0.00     0.000 C 
BRANCH  20  21
ATOM     21  C   UNL     1      27.556  30.714 -13.191  1.00  0.00     0.000 C 
BRANCH  21  22
ATOM     22  C   UNL     1      27.102  30.407 -14.633  1.00  0.00    -0.000 C 
BRANCH  22  23
ATOM     23  C   UNL     1      25.596  30.599 -14.894  1.00  0.00    -0.000 C 
BRANCH  23  24
ATOM     24  C   UNL     1      25.070  32.029 -14.661  1.00  0.00    -0.000 C 
BRANCH  24  25
ATOM     25  C   UNL     1      23.729  32.346 -15.350  1.00  0.00    -0.000 C 
BRANCH  25  26
ATOM     26  C   UNL     1      22.713  31.195 -15.232  1.00  0.00    -0.000 C 
BRANCH  26  27
ATOM     27  C   UNL     1      21.919  31.240 -13.917  1.00  0.00    -0.000 C 
BRANCH  27  28
ATOM     28  C   UNL     1      22.500  30.302 -12.846  1.00  0.00    -0.000 C 
BRANCH  28  29
ATOM     29  C   UNL     1      22.757  31.058 -11.536  1.00  0.00    -0.003 C 
ATOM     30  C   UNL     1      24.252  31.227 -11.283  1.00  0.00     0.004 C 
ENDBRANCH  28  29
ENDBRANCH  27  28
ENDBRANCH  26  27
ENDBRANCH  25  26
ENDBRANCH  24  25
ENDBRANCH  23  24
ENDBRANCH  22  23
ENDBRANCH  21  22
ENDBRANCH  20  21
ENDBRANCH  19  20
ENDBRANCH  18  19
ENDBRANCH  17  18
ENDBRANCH   1  17
TORSDOF 26
ENDMDL
MODEL 6
REMARK VINA RESULT:    -3.605      2.584      6.967
REMARK INTER + INTRA:         -14.524
REMARK INTER:                 -10.170
REMARK INTRA:                  -4.354
REMARK UNBOUND:                -5.440
REMARK SMILES CCCCCCCCCCCCCCCCCCCCCCCCCCCC(=O)[O-]
REMARK SMILES IDX 15 1 16 2 17 3 18 4 19 5 20 6 21 7 22 8 23 9 24 10 25 11
REMARK SMILES IDX 26 12 27 13 28 14 29 15 30 16 14 17 13 18 12 19 11 20 10 21
REMARK SMILES IDX 9 22 8 23 7 24 6 25 5 26 4 27 3 28 2 29 1 30
REMARK H PARENT
REMARK Flexibility Score: inf
ROOT
ATOM      1  C   UNL     1      29.191  29.963 -11.439  1.00  0.00     0.000 C 
ENDROOT
BRANCH   1   2
ATOM      2  C   UNL     1      28.062  30.481 -10.524  1.00  0.00     0.000 C 
BRANCH   2   3
ATOM      3  C   UNL     1      27.330  29.399  -9.702  1.00  0.00     0.000 C 
BRANCH   3   4
ATOM      4  C   UNL     1      26.978  28.110 -10.474  1.00  0.00     0.000 C 
BRANCH   4   5
ATOM      5  C   UNL     1      25.618  28.135 -11.193  1.00  0.00     0.000 C 
BRANCH   5   6
ATOM      6  C   UNL     1      25.631  27.343 -12.513  1.00  0.00     0.000 C 
BRANCH   6   7
ATOM      7  C   UNL     1      27.041  26.880 -12.926  1.00  0.00     0.000 C 
BRANCH   7   8
ATOM      8  C   UNL     1      27.085  25.626 -13.819  1.00  0.00     0.000 C 
BRANCH   8   9
ATOM      9  C   UNL     1      25.784  25.394 -14.602  1.00  0.00     0.000 C 
BRANCH   9  10
ATOM     10  C   UNL     1      25.455  23.899 -14.684  1.00  0.00     0.000 C 
BRANCH  10  11
ATOM     11  C   UNL     1      26.663  23.045 -14.270  1.00  0.00     0.000 C 
BRANCH  11  12
ATOM     12  C   UNL     1      26.402  22.222 -12.995  1.00  0.00     0.006 C 
BRANCH  12  13
ATOM     13  C   UNL     1      27.571  22.212 -11.996  1.00  0.00     0.053 C 
BRANCH  13  14
ATOM     14  C   UNL     1      27.098  22.300 -10.578  1.00  0.00     0.041 C 
ATOM     15  O   UNL     1      26.536  23.348 -10.160  1.00  0.00    -0.550 OA
ATOM     16  O   UNL     1      27.240  21.210  -9.729  1.00  0.00    -0.550 OA
ENDBRANCH  13  14
ENDBRANCH  12  13
ENDBRANCH  11  12
ENDBRANCH  10  11
ENDBRANCH   9  10
ENDBRANCH   8   9
ENDBRANCH   7   8
ENDBRANCH   6   7
ENDBRANCH   5   6
ENDBRANCH   4   5
ENDBRANCH   3   4
ENDBRANCH   2   3
ENDBRANCH   1   2
BRANCH   1  17
ATOM     17  C   UNL     1      28.940  30.156 -12.947  1.00  0.00     0.000 C 
BRANCH  17  18
ATOM     18  C   UNL     1      27.490  30.560 -13.261  1.00  0.00     0.000 C 
BRANCH  18  19
ATOM     19  C   UNL     1      27.034  30.107 -14.664  1.00  0.00     0.000 C 
BRANCH  19  20
ATOM     20  C   UNL     1      25.649  30.640 -15.083  1.00  0.00     0.000 C 
BRANCH  20  21
ATOM     21  C   UNL     1      25.294  32.044 -14.560  1.00  0.00     0.000 C 
BRANCH  21  22
ATOM     22  C   UNL     1      23.806  32.431 -14.680  1.00  0.00    -0.000 C 
BRANCH  22  23
ATOM     23  C   UNL     1      22.996  31.586 -15.682  1.00  0.00    -0.000 C 
BRANCH  23  24
ATOM     24  C   UNL     1      21.907  30.695 -15.055  1.00  0.00    -0.000 C 
BRANCH  24  25
ATOM     25  C   UNL     1      22.437  29.511 -14.225  1.00  0.00    -0.000 C 
BRANCH  25  26
ATOM     26  C   UNL     1      21.570  29.215 -12.988  1.00  0.00    -0.000 C 
BRANCH  26  27
ATOM     27  C   UNL     1      22.252  29.632 -11.675  1.00  0.00    -0.000 C 
BRANCH  27  28
ATOM     28  C   UNL     1      21.804  31.021 -11.193  1.00  0.00    -0.000 C 
BRANCH  28  29
ATOM     29  C   UNL     1      22.974  32.013 -11.214  1.00  0.00    -0.003 C 
ATOM     30  C   UNL     1      24.314  31.282 -11.218  1.00  0.00     0.004 C 
ENDBRANCH  28  29
ENDBRANCH  27  28
ENDBRANCH  26  27
ENDBRANCH  25  26
ENDBRANCH  24  25
ENDBRANCH  23  24
ENDBRANCH  22  23
ENDBRANCH  21  22
ENDBRANCH  20  21
ENDBRANCH  19  20
ENDBRANCH  18  19
ENDBRANCH  17  18
ENDBRANCH   1  17
TORSDOF 26
ENDMDL
MODEL 7
REMARK VINA RESULT:    -3.586      1.121      2.493
REMARK INTER + INTRA:         -14.476
REMARK INTER:                 -10.203
REMARK INTRA:                  -4.273
REMARK UNBOUND:                -5.440
REMARK SMILES CCCCCCCCCCCCCCCCCCCCCCCCCCCC(=O)[O-]
REMARK SMILES IDX 15 1 16 2 17 3 18 4 19 5 20 6 21 7 22 8 23 9 24 10 25 11
REMARK SMILES IDX 26 12 27 13 28 14 29 15 30 16 14 17 13 18 12 19 11 20 10 21
REMARK SMILES IDX 9 22 8 23 7 24 6 25 5 26 4 27 3 28 2 29 1 30
REMARK H PARENT
REMARK Flexibility Score: inf
ROOT
ATOM      1  C   UNL     1      25.793  28.397 -10.891  1.00  0.00     0.000 C 
ENDROOT
BRANCH   1   2
ATOM      2  C   UNL     1      26.263  28.827  -9.486  1.00  0.00     0.000 C 
BRANCH   2   3
ATOM      3  C   UNL     1      27.729  29.300  -9.396  1.00  0.00     0.000 C 
BRANCH   3   4
ATOM      4  C   UNL     1      28.129  30.403 -10.398  1.00  0.00     0.000 C 
BRANCH   4   5
ATOM      5  C   UNL     1      29.384  30.097 -11.234  1.00  0.00     0.000 C 
BRANCH   5   6
ATOM      6  C   UNL     1      29.128  30.201 -12.748  1.00  0.00     0.000 C 
BRANCH   6   7
ATOM      7  C   UNL     1      27.659  30.509 -13.092  1.00  0.00     0.000 C 
BRANCH   7   8
ATOM      8  C   UNL     1      27.327  30.534 -14.596  1.00  0.00     0.000 C 
BRANCH   8   9
ATOM      9  C   UNL     1      26.133  29.640 -14.966  1.00  0.00     0.000 C 
BRANCH   9  10
ATOM     10  C   UNL     1      24.807  30.361 -14.695  1.00  0.00     0.000 C 
BRANCH  10  11
ATOM     11  C   UNL     1      25.018  31.878 -14.576  1.00  0.00     0.000 C 
BRANCH  11  12
ATOM     12  C   UNL     1      24.242  32.496 -13.397  1.00  0.00     0.006 C 
BRANCH  12  13
ATOM     13  C   UNL     1      24.523  31.835 -12.037  1.00  0.00     0.053 C 
BRANCH  13  14
ATOM     14  C   UNL     1      23.282  31.261 -11.426  1.00  0.00     0.041 C 
ATOM     15  O   UNL     1      22.268  31.039 -12.140  1.00  0.00    -0.550 OA
ATOM     16  O   UNL     1      23.261  30.933 -10.076  1.00  0.00    -0.550 OA
ENDBRANCH  13  14
ENDBRANCH  12  13
ENDBRANCH  11  12
ENDBRANCH  10  11
ENDBRANCH   9  10
ENDBRANCH   8   9
ENDBRANCH   7   8
ENDBRANCH   6   7
ENDBRANCH   5   6
ENDBRANCH   4   5
ENDBRANCH   3   4
ENDBRANCH   2   3
ENDBRANCH   1   2
BRANCH   1  17
ATOM     17  C   UNL     1      26.186  26.962 -11.294  1.00  0.00     0.000 C 
BRANCH  17  18
ATOM     18  C   UNL     1      27.060  26.920 -12.559  1.00  0.00     0.000 C 
BRANCH  18  19
ATOM     19  C   UNL     1      26.859  25.629 -13.380  1.00  0.00     0.000 C 
BRANCH  19  20
ATOM     20  C   UNL     1      26.007  25.814 -14.652  1.00  0.00     0.000 C 
BRANCH  20  21
ATOM     21  C   UNL     1      25.293  24.546 -15.160  1.00  0.00     0.000 C 
BRANCH  21  22
ATOM     22  C   UNL     1      25.535  23.277 -14.317  1.00  0.00    -0.000 C 
BRANCH  22  23
ATOM     23  C   UNL     1      24.258  22.517 -13.909  1.00  0.00    -0.000 C 
BRANCH  23  24
ATOM     24  C   UNL     1      24.043  22.369 -12.391  1.00  0.00    -0.000 C 
BRANCH  24  25
ATOM     25  C   UNL     1      24.120  23.686 -11.595  1.00  0.00    -0.000 C 
BRANCH  25  26
ATOM     26  C   UNL     1      25.122  23.617 -10.428  1.00  0.00    -0.000 C 
BRANCH  26  27
ATOM     27  C   UNL     1      25.700  22.207 -10.227  1.00  0.00    -0.000 C 
BRANCH  27  28
ATOM     28  C   UNL     1      27.233  22.207 -10.129  1.00  0.00    -0.000 C 
BRANCH  28  29
ATOM     29  C   UNL     1      27.859  21.451 -11.310  1.00  0.00    -0.003 C 
ATOM     30  C   UNL     1      26.941  20.333 -11.795  1.00  0.00     0.004 C 
ENDBRANCH  28  29
ENDBRANCH  27  28
ENDBRANCH  26  27
ENDBRANCH  25  26
ENDBRANCH  24  25
ENDBRANCH  23  24
ENDBRANCH  22  23
ENDBRANCH  21  22
ENDBRANCH  20  21
ENDBRANCH  19  20
ENDBRANCH  18  19
ENDBRANCH  17  18
ENDBRANCH   1  17
TORSDOF 26
ENDMDL
MODEL 8
REMARK VINA RESULT:    -3.534      3.068      7.024
REMARK INTER + INTRA:         -14.346
REMARK INTER:                 -10.031
REMARK INTRA:                  -4.315
REMARK UNBOUND:                -5.440
REMARK SMILES CCCCCCCCCCCCCCCCCCCCCCCCCCCC(=O)[O-]
REMARK SMILES IDX 15 1 16 2 17 3 18 4 19 5 20 6 21 7 22 8 23 9 24 10 25 11
REMARK SMILES IDX 26 12 27 13 28 14 29 15 30 16 14 17 13 18 12 19 11 20 10 21
REMARK SMILES IDX 9 22 8 23 7 24 6 25 5 26 4 27 3 28 2 29 1 30
REMARK H PARENT
REMARK Flexibility Score: inf
ROOT
ATOM      1  C   UNL     1      27.930  30.390 -10.505  1.00  0.00     0.000 C 
ENDROOT
BRANCH   1   2
ATOM      2  C   UNL     1      27.354  29.152  -9.787  1.00  0.00     0.000 C 
BRANCH   2   3
ATOM      3  C   UNL     1      26.221  28.420 -10.538  1.00  0.00     0.000 C 
BRANCH   3   4
ATOM      4  C   UNL     1      26.627  27.092 -11.211  1.00  0.00     0.000 C 
BRANCH   4   5
ATOM      5  C   UNL     1      26.479  27.068 -12.742  1.00  0.00     0.000 C 
BRANCH   5   6
ATOM      6  C   UNL     1      25.012  27.159 -13.197  1.00  0.00     0.000 C 
BRANCH   6   7
ATOM      7  C   UNL     1      24.850  27.112 -14.728  1.00  0.00     0.000 C 
BRANCH   7   8
ATOM      8  C   UNL     1      25.244  25.778 -15.390  1.00  0.00     0.000 C 
BRANCH   8   9
ATOM      9  C   UNL     1      24.048  24.843 -15.624  1.00  0.00     0.000 C 
BRANCH   9  10
ATOM     10  C   UNL     1      24.378  23.413 -15.180  1.00  0.00     0.000 C 
BRANCH  10  11
ATOM     11  C   UNL     1      25.768  23.344 -14.529  1.00  0.00     0.000 C 
BRANCH  11  12
ATOM     12  C   UNL     1      25.751  22.635 -13.162  1.00  0.00     0.006 C 
BRANCH  12  13
ATOM     13  C   UNL     1      27.036  22.816 -12.338  1.00  0.00     0.053 C 
BRANCH  13  14
ATOM     14  C   UNL     1      27.519  21.522 -11.760  1.00  0.00     0.041 C 
ATOM     15  O   UNL     1      28.519  21.505 -10.992  1.00  0.00    -0.550 OA
ATOM     16  O   UNL     1      26.841  20.342 -12.035  1.00  0.00    -0.550 OA
ENDBRANCH  13  14
ENDBRANCH  12  13
ENDBRANCH  11  12
ENDBRANCH  10  11
ENDBRANCH   9  10
ENDBRANCH   8   9
ENDBRANCH   7   8
ENDBRANCH   6   7
ENDBRANCH   5   6
ENDBRANCH   4   5
ENDBRANCH   3   4
ENDBRANCH   2   3
ENDBRANCH   1   2
BRANCH   1  17
ATOM     17  C   UNL     1      29.258  30.148 -11.248  1.00  0.00     0.000 C 
BRANCH  17  18
ATOM     18  C   UNL     1      29.094  30.164 -12.777  1.00  0.00     0.000 C 
BRANCH  18  19
ATOM     19  C   UNL     1      27.663  30.541 -13.219  1.00  0.00     0.000 C 
BRANCH  19  20
ATOM     20  C   UNL     1      27.350  30.216 -14.694  1.00  0.00     0.000 C 
BRANCH  20  21
ATOM     21  C   UNL     1      25.912  30.529 -15.149  1.00  0.00     0.000 C 
BRANCH  21  22
ATOM     22  C   UNL     1      24.911  30.805 -14.009  1.00  0.00    -0.000 C 
BRANCH  22  23
ATOM     23  C   UNL     1      24.581  32.293 -13.781  1.00  0.00    -0.000 C 
BRANCH  23  24
ATOM     24  C   UNL     1      24.216  32.667 -12.332  1.00  0.00    -0.000 C 
BRANCH  24  25
ATOM     25  C   UNL     1      24.526  31.581 -11.285  1.00  0.00    -0.000 C 
BRANCH  25  26
ATOM     26  C   UNL     1      23.258  30.905 -10.734  1.00  0.00    -0.000 C 
BRANCH  26  27
ATOM     27  C   UNL     1      21.967  31.565 -11.246  1.00  0.00    -0.000 C 
BRANCH  27  28
ATOM     28  C   UNL     1      20.812  30.562 -11.395  1.00  0.00    -0.000 C 
BRANCH  28  29
ATOM     29  C   UNL     1      20.125  30.716 -12.759  1.00  0.00    -0.003 C 
ATOM     30  C   UNL     1      21.118  31.165 -13.827  1.00  0.00     0.004 C 
ENDBRANCH  28  29
ENDBRANCH  27  28
ENDBRANCH  26  27
ENDBRANCH  25  26
ENDBRANCH  24  25
ENDBRANCH  23  24
ENDBRANCH  22  23
ENDBRANCH  21  22
ENDBRANCH  20  21
ENDBRANCH  19  20
ENDBRANCH  18  19
ENDBRANCH  17  18
ENDBRANCH   1  17
TORSDOF 26
ENDMDL
MODEL 9
REMARK VINA RESULT:    -3.533      2.619      7.235
REMARK INTER + INTRA:         -14.342
REMARK INTER:                  -9.176
REMARK INTRA:                  -5.167
REMARK UNBOUND:                -5.440
REMARK SMILES CCCCCCCCCCCCCCCCCCCCCCCCCCCC(=O)[O-]
REMARK SMILES IDX 15 1 16 2 17 3 18 4 19 5 20 6 21 7 22 8 23 9 24 10 25 11
REMARK SMILES IDX 26 12 27 13 28 14 29 15 30 16 14 17 13 18 12 19 11 20 10 21
REMARK SMILES IDX 9 22 8 23 7 24 6 25 5 26 4 27 3 28 2 29 1 30
REMARK H PARENT
REMARK Flexibility Score: inf
ROOT
ATOM      1  C   UNL     1      23.676  29.680 -11.766  1.00  0.00     0.000 C 
ENDROOT
BRANCH   1   2
ATOM      2  C   UNL     1      24.821  28.757 -11.300  1.00  0.00     0.000 C 
BRANCH   2   3
ATOM      3  C   UNL     1      24.570  28.012  -9.972  1.00  0.00     0.000 C 
BRANCH   3   4
ATOM      4  C   UNL     1      25.630  26.955  -9.599  1.00  0.00     0.000 C 
BRANCH   4   5
ATOM      5  C   UNL     1      25.801  25.817 -10.621  1.00  0.00     0.000 C 
BRANCH   5   6
ATOM      6  C   UNL     1      24.457  25.215 -11.067  1.00  0.00     0.000 C 
BRANCH   6   7
ATOM      7  C   UNL     1      24.300  25.156 -12.598  1.00  0.00     0.000 C 
BRANCH   7   8
ATOM      8  C   UNL     1      25.491  25.710 -13.403  1.00  0.00     0.000 C 
BRANCH   8   9
ATOM      9  C   UNL     1      25.805  24.887 -14.662  1.00  0.00     0.000 C 
BRANCH   9  10
ATOM     10  C   UNL     1      26.497  23.569 -14.294  1.00  0.00     0.000 C 
BRANCH  10  11
ATOM     11  C   UNL     1      27.614  23.801 -13.265  1.00  0.00     0.000 C 
BRANCH  11  12
ATOM     12  C   UNL     1      27.745  22.642 -12.258  1.00  0.00     0.006 C 
BRANCH  12  13
ATOM     13  C   UNL     1      26.412  22.176 -11.652  1.00  0.00     0.053 C 
BRANCH  13  14
ATOM     14  C   UNL     1      26.523  21.917 -10.181  1.00  0.00     0.041 C 
ATOM     15  O   UNL     1      25.604  22.285  -9.401  1.00  0.00    -0.550 OA
ATOM     16  O   UNL     1      27.622  21.232  -9.677  1.00  0.00    -0.550 OA
ENDBRANCH  13  14
ENDBRANCH  12  13
ENDBRANCH  11  12
ENDBRANCH  10  11
ENDBRANCH   9  10
ENDBRANCH   8   9
ENDBRANCH   7   8
ENDBRANCH   6   7
ENDBRANCH   5   6
ENDBRANCH   4   5
ENDBRANCH   3   4
ENDBRANCH   2   3
ENDBRANCH   1   2
BRANCH   1  17
ATOM     17  C   UNL     1      23.473  30.944 -10.908  1.00  0.00     0.000 C 
BRANCH  17  18
ATOM     18  C   UNL     1      23.574  32.240 -11.730  1.00  0.00     0.000 C 
BRANCH  18  19
ATOM     19  C   UNL     1      24.733  32.212 -12.749  1.00  0.00     0.000 C 
BRANCH  19  20
ATOM     20  C   UNL     1      24.345  32.688 -14.164  1.00  0.00     0.000 C 
BRANCH  20  21
ATOM     21  C   UNL     1      23.186  31.918 -14.826  1.00  0.00     0.000 C 
BRANCH  21  22
ATOM     22  C   UNL     1      23.610  30.904 -15.909  1.00  0.00    -0.000 C 
BRANCH  22  23
ATOM     23  C   UNL     1      23.951  29.497 -15.381  1.00  0.00    -0.000 C 
BRANCH  23  24
ATOM     24  C   UNL     1      25.346  28.973 -15.772  1.00  0.00    -0.000 C 
BRANCH  24  25
ATOM     25  C   UNL     1      26.384  28.981 -14.634  1.00  0.00    -0.000 C 
BRANCH  25  26
ATOM     26  C   UNL     1      27.196  30.287 -14.579  1.00  0.00    -0.000 C 
BRANCH  26  27
ATOM     27  C   UNL     1      27.922  30.476 -13.237  1.00  0.00    -0.000 C 
BRANCH  27  28
ATOM     28  C   UNL     1      28.122  29.151 -12.485  1.00  0.00    -0.000 C 
BRANCH  28  29
ATOM     29  C   UNL     1      28.394  29.401 -10.996  1.00  0.00    -0.003 C 
ATOM     30  C   UNL     1      28.027  30.829 -10.602  1.00  0.00     0.004 C 
ENDBRANCH  28  29
ENDBRANCH  27  28
ENDBRANCH  26  27
ENDBRANCH  25  26
ENDBRANCH  24  25
ENDBRANCH  23  24
ENDBRANCH  22  23
ENDBRANCH  21  22
ENDBRANCH  20  21
ENDBRANCH  19  20
ENDBRANCH  18  19
ENDBRANCH  17  18
ENDBRANCH   1  17
TORSDOF 26
ENDMDL
