MODEL 1
REMARK VINA RESULT:    -6.423      0.000      0.000
REMARK INTER + INTRA:          -7.826
REMARK INTER:                  -7.549
REMARK INTRA:                  -0.276
REMARK UNBOUND:                -0.276
REMARK SMILES O=c1cc(-c2ccc(O)c(O)c2)oc2cc(O)cc(O)c12
REMARK SMILES IDX 4 1 3 2 2 3 1 4 21 5 19 6 18 7 16 8 15 9 14 10 13 11 5 12
REMARK SMILES IDX 6 13 7 14 8 15 12 16 10 17 9 18 11 20 20 22 17 24
REMARK H PARENT 9 19 11 21 20 23 17 25
REMARK Flexibility Score: inf
ROOT
ATOM      1  C   UNL     1      40.926  -1.185 -15.902  1.00  0.00     0.138 A 
ATOM      2  C   UNL     1      42.127  -1.167 -15.180  1.00  0.00     0.100 A 
ATOM      3  C   UNL     1      43.303  -1.616 -15.784  1.00  0.00     0.197 A 
ATOM      4  O   UNL     1      44.374  -1.535 -15.129  1.00  0.00    -0.289 OA
ATOM      5  C   UNL     1      43.268  -2.120 -17.106  1.00  0.00     0.107 A 
ATOM      6  C   UNL     1      44.397  -2.636 -17.811  1.00  0.00     0.134 A 
ATOM      7  C   UNL     1      44.258  -3.016 -19.152  1.00  0.00     0.093 A 
ATOM      8  C   UNL     1      43.020  -2.952 -19.796  1.00  0.00     0.123 A 
ATOM      9  C   UNL     1      41.901  -2.496 -19.101  1.00  0.00     0.094 A 
ATOM     10  C   UNL     1      42.014  -2.078 -17.773  1.00  0.00     0.146 A 
ATOM     11  O   UNL     1      40.926  -1.633 -17.153  1.00  0.00    -0.456 OA
ENDROOT
BRANCH   1  12
ATOM     12  C   UNL     1      39.647  -0.722 -15.309  1.00  0.00     0.021 A 
ATOM     13  C   UNL     1      38.456  -1.456 -15.453  1.00  0.00     0.016 A 
ATOM     14  C   UNL     1      37.270  -1.000 -14.874  1.00  0.00     0.051 A 
ATOM     15  C   UNL     1      37.244   0.189 -14.137  1.00  0.00     0.157 A 
ATOM     16  C   UNL     1      39.624   0.464 -14.556  1.00  0.00     0.062 A 
ATOM     17  C   UNL     1      38.438   0.929 -13.974  1.00  0.00     0.158 A 
BRANCH  15  18
ATOM     18  O   UNL     1      36.025   0.590 -13.588  1.00  0.00    -0.504 OA
ATOM     19  H   UNL     1      35.178   0.041 -13.630  1.00  0.00     0.293 HD
ENDBRANCH  15  18
BRANCH  17  20
ATOM     20  O   UNL     1      38.492   2.121 -13.247  1.00  0.00    -0.504 OA
ATOM     21  H   UNL     1      38.355   3.036 -13.653  1.00  0.00     0.293 HD
ENDBRANCH  17  20
ENDBRANCH   1  12
BRANCH   6  22
ATOM     22  O   UNL     1      45.661  -2.818 -17.242  1.00  0.00    -0.507 OA
ATOM     23  H   UNL     1      46.522  -2.446 -17.611  1.00  0.00     0.293 HD
ENDBRANCH   6  22
BRANCH   8  24
ATOM     24  O   UNL     1      42.888  -3.346 -21.125  1.00  0.00    -0.508 OA
ATOM     25  H   UNL     1      42.947  -4.321 -21.397  1.00  0.00     0.293 HD
ENDBRANCH   8  24
TORSDOF 5
ENDMDL
MODEL 2
REMARK VINA RESULT:    -6.272      2.074      2.790
REMARK INTER + INTRA:          -7.648
REMARK INTER:                  -7.330
REMARK INTRA:                  -0.319
REMARK UNBOUND:                -0.276
REMARK SMILES O=c1cc(-c2ccc(O)c(O)c2)oc2cc(O)cc(O)c12
REMARK SMILES IDX 4 1 3 2 2 3 1 4 21 5 19 6 18 7 16 8 15 9 14 10 13 11 5 12
REMARK SMILES IDX 6 13 7 14 8 15 12 16 10 17 9 18 11 20 20 22 17 24
REMARK H PARENT 9 19 11 21 20 23 17 25
REMARK Flexibility Score: inf
ROOT
ATOM      1  C   UNL     1      41.073  -0.557 -17.357  1.00  0.00     0.138 A 
ATOM      2  C   UNL     1      41.758   0.564 -17.846  1.00  0.00     0.100 A 
ATOM      3  C   UNL     1      42.635   0.423 -18.923  1.00  0.00     0.197 A 
ATOM      4  O   UNL     1      43.191   1.457 -19.374  1.00  0.00    -0.289 OA
ATOM      5  C   UNL     1      42.854  -0.856 -19.489  1.00  0.00     0.107 A 
ATOM      6  C   UNL     1      43.750  -1.127 -20.568  1.00  0.00     0.134 A 
ATOM      7  C   UNL     1      43.808  -2.417 -21.109  1.00  0.00     0.093 A 
ATOM      8  C   UNL     1      43.046  -3.458 -20.574  1.00  0.00     0.123 A 
ATOM      9  C   UNL     1      42.206  -3.216 -19.490  1.00  0.00     0.094 A 
ATOM     10  C   UNL     1      42.099  -1.932 -18.949  1.00  0.00     0.146 A 
ATOM     11  O   UNL     1      41.272  -1.740 -17.927  1.00  0.00    -0.456 OA
ENDROOT
BRANCH   1  12
ATOM     12  C   UNL     1      40.132  -0.464 -16.213  1.00  0.00     0.021 A 
ATOM     13  C   UNL     1      39.901   0.750 -15.541  1.00  0.00     0.016 A 
ATOM     14  C   UNL     1      39.002   0.807 -14.475  1.00  0.00     0.051 A 
ATOM     15  C   UNL     1      38.311  -0.336 -14.058  1.00  0.00     0.157 A 
ATOM     16  C   UNL     1      39.427  -1.608 -15.803  1.00  0.00     0.062 A 
ATOM     17  C   UNL     1      38.525  -1.559 -14.733  1.00  0.00     0.158 A 
BRANCH  15  18
ATOM     18  O   UNL     1      37.429  -0.210 -12.984  1.00  0.00    -0.504 OA
ATOM     19  H   UNL     1      37.105   0.675 -12.618  1.00  0.00     0.293 HD
ENDBRANCH  15  18
BRANCH  17  20
ATOM     20  O   UNL     1      37.868  -2.741 -14.380  1.00  0.00    -0.504 OA
ATOM     21  H   UNL     1      38.130  -3.655 -14.720  1.00  0.00     0.293 HD
ENDBRANCH  17  20
ENDBRANCH   1  12
BRANCH   6  22
ATOM     22  O   UNL     1      44.615  -0.179 -21.125  1.00  0.00    -0.507 OA
ATOM     23  H   UNL     1      45.025  -0.239 -22.044  1.00  0.00     0.293 HD
ENDBRANCH   6  22
BRANCH   8  24
ATOM     24  O   UNL     1      43.122  -4.742 -21.109  1.00  0.00    -0.508 OA
ATOM     25  H   UNL     1      42.689  -4.973 -21.996  1.00  0.00     0.293 HD
ENDBRANCH   8  24
TORSDOF 5
ENDMDL
MODEL 3
REMARK VINA RESULT:    -6.234     15.548     18.889
REMARK INTER + INTRA:          -7.604
REMARK INTER:                  -7.314
REMARK INTRA:                  -0.290
REMARK UNBOUND:                -0.276
REMARK SMILES O=c1cc(-c2ccc(O)c(O)c2)oc2cc(O)cc(O)c12
REMARK SMILES IDX 4 1 3 2 2 3 1 4 21 5 19 6 18 7 16 8 15 9 14 10 13 11 5 12
REMARK SMILES IDX 6 13 7 14 8 15 12 16 10 17 9 18 11 20 20 22 17 24
REMARK H PARENT 9 19 11 21 20 23 17 25
REMARK Flexibility Score: inf
ROOT
ATOM      1  C   UNL     1      29.858 -13.095  -9.614  1.00  0.00     0.138 A 
ATOM      2  C   UNL     1      28.568 -13.625  -9.481  1.00  0.00     0.100 A 
ATOM      3  C   UNL     1      27.923 -13.571  -8.245  1.00  0.00     0.197 A 
ATOM      4  O   UNL     1      26.744 -14.004  -8.172  1.00  0.00    -0.289 OA
ATOM      5  C   UNL     1      28.589 -13.015  -7.126  1.00  0.00     0.107 A 
ATOM      6  C   UNL     1      28.044 -12.937  -5.808  1.00  0.00     0.134 A 
ATOM      7  C   UNL     1      28.760 -12.276  -4.804  1.00  0.00     0.093 A 
ATOM      8  C   UNL     1      30.026 -11.740  -5.053  1.00  0.00     0.123 A 
ATOM      9  C   UNL     1      30.588 -11.854  -6.322  1.00  0.00     0.094 A 
ATOM     10  C   UNL     1      29.884 -12.478  -7.356  1.00  0.00     0.146 A 
ATOM     11  O   UNL     1      30.450 -12.550  -8.556  1.00  0.00    -0.456 OA
ENDROOT
BRANCH   1  12
ATOM     12  C   UNL     1      30.592 -13.128 -10.904  1.00  0.00     0.021 A 
ATOM     13  C   UNL     1      30.673 -14.298 -11.679  1.00  0.00     0.016 A 
ATOM     14  C   UNL     1      31.361 -14.296 -12.894  1.00  0.00     0.051 A 
ATOM     15  C   UNL     1      31.976 -13.131 -13.365  1.00  0.00     0.157 A 
ATOM     16  C   UNL     1      31.197 -11.955 -11.385  1.00  0.00     0.062 A 
ATOM     17  C   UNL     1      31.891 -11.944 -12.602  1.00  0.00     0.158 A 
BRANCH  15  18
ATOM     18  O   UNL     1      32.651 -13.197 -14.586  1.00  0.00    -0.504 OA
ATOM     19  H   UNL     1      33.653 -13.286 -14.674  1.00  0.00     0.293 HD
ENDBRANCH  15  18
BRANCH  17  20
ATOM     20  O   UNL     1      32.474 -10.742 -13.009  1.00  0.00    -0.504 OA
ATOM     21  H   UNL     1      33.287 -10.333 -12.571  1.00  0.00     0.293 HD
ENDBRANCH  17  20
ENDBRANCH   1  12
BRANCH   6  22
ATOM     22  O   UNL     1      26.824 -13.508  -5.430  1.00  0.00    -0.507 OA
ATOM     23  H   UNL     1      26.578 -14.478  -5.546  1.00  0.00     0.293 HD
ENDBRANCH   6  22
BRANCH   8  24
ATOM     24  O   UNL     1      30.738 -11.097  -4.043  1.00  0.00    -0.508 OA
ATOM     25  H   UNL     1      31.750 -11.147  -3.994  1.00  0.00     0.293 HD
ENDBRANCH   8  24
TORSDOF 5
ENDMDL
MODEL 4
REMARK VINA RESULT:    -6.119     14.942     17.211
REMARK INTER + INTRA:          -7.468
REMARK INTER:                  -7.181
REMARK INTRA:                  -0.287
REMARK UNBOUND:                -0.276
REMARK SMILES O=c1cc(-c2ccc(O)c(O)c2)oc2cc(O)cc(O)c12
REMARK SMILES IDX 4 1 3 2 2 3 1 4 21 5 19 6 18 7 16 8 15 9 14 10 13 11 5 12
REMARK SMILES IDX 6 13 7 14 8 15 12 16 10 17 9 18 11 20 20 22 17 24
REMARK H PARENT 9 19 11 21 20 23 17 25
REMARK Flexibility Score: inf
ROOT
ATOM      1  C   UNL     1      30.536 -12.325  -8.562  1.00  0.00     0.138 A 
ATOM      2  C   UNL     1      30.002 -13.620  -8.602  1.00  0.00     0.100 A 
ATOM      3  C   UNL     1      30.088 -14.367  -9.777  1.00  0.00     0.197 A 
ATOM      4  O   UNL     1      29.649 -15.546  -9.764  1.00  0.00    -0.289 OA
ATOM      5  C   UNL     1      30.680 -13.800 -10.931  1.00  0.00     0.107 A 
ATOM      6  C   UNL     1      30.793 -14.454 -12.195  1.00  0.00     0.134 A 
ATOM      7  C   UNL     1      31.489 -13.827 -13.237  1.00  0.00     0.093 A 
ATOM      8  C   UNL     1      32.025 -12.547 -13.078  1.00  0.00     0.123 A 
ATOM      9  C   UNL     1      31.877 -11.879 -11.865  1.00  0.00     0.094 A 
ATOM     10  C   UNL     1      31.218 -12.492 -10.795  1.00  0.00     0.146 A 
ATOM     11  O   UNL     1      31.115 -11.827  -9.649  1.00  0.00    -0.456 OA
ENDROOT
BRANCH   1  12
ATOM     12  C   UNL     1      30.469 -11.486  -7.340  1.00  0.00     0.021 A 
ATOM     13  C   UNL     1      30.429 -10.082  -7.407  1.00  0.00     0.016 A 
ATOM     14  C   UNL     1      30.356  -9.320  -6.239  1.00  0.00     0.051 A 
ATOM     15  C   UNL     1      30.315  -9.936  -4.984  1.00  0.00     0.157 A 
ATOM     16  C   UNL     1      30.414 -12.104  -6.079  1.00  0.00     0.062 A 
ATOM     17  C   UNL     1      30.342 -11.347  -4.903  1.00  0.00     0.158 A 
BRANCH  15  18
ATOM     18  O   UNL     1      30.246  -9.115  -3.857  1.00  0.00    -0.504 OA
ATOM     19  H   UNL     1      30.728  -9.304  -2.989  1.00  0.00     0.293 HD
ENDBRANCH  15  18
BRANCH  17  20
ATOM     20  O   UNL     1      30.299 -12.033  -3.687  1.00  0.00    -0.504 OA
ATOM     21  H   UNL     1      30.842 -11.776  -2.875  1.00  0.00     0.293 HD
ENDBRANCH  17  20
ENDBRANCH   1  12
BRANCH   6  22
ATOM     22  O   UNL     1      30.226 -15.699 -12.487  1.00  0.00    -0.507 OA
ATOM     23  H   UNL     1      29.383 -16.063 -12.072  1.00  0.00     0.293 HD
ENDBRANCH   6  22
BRANCH   8  24
ATOM     24  O   UNL     1      32.701 -11.925 -14.125  1.00  0.00    -0.508 OA
ATOM     25  H   UNL     1      33.128 -11.013 -14.012  1.00  0.00     0.293 HD
ENDBRANCH   8  24
TORSDOF 5
ENDMDL
MODEL 5
REMARK VINA RESULT:    -6.038      2.884      6.883
REMARK INTER + INTRA:          -7.373
REMARK INTER:                  -7.057
REMARK INTRA:                  -0.316
REMARK UNBOUND:                -0.276
REMARK SMILES O=c1cc(-c2ccc(O)c(O)c2)oc2cc(O)cc(O)c12
REMARK SMILES IDX 4 1 3 2 2 3 1 4 21 5 19 6 18 7 16 8 15 9 14 10 13 11 5 12
REMARK SMILES IDX 6 13 7 14 8 15 12 16 10 17 9 18 11 20 20 22 17 24
REMARK H PARENT 9 19 11 21 20 23 17 25
REMARK Flexibility Score: inf
ROOT
ATOM      1  C   UNL     1      40.426  -0.351 -15.295  1.00  0.00     0.138 A 
ATOM      2  C   UNL     1      40.911   0.699 -14.503  1.00  0.00     0.100 A 
ATOM      3  C   UNL     1      40.532   0.784 -13.162  1.00  0.00     0.197 A 
ATOM      4  O   UNL     1      41.028   1.706 -12.464  1.00  0.00    -0.289 OA
ATOM      5  C   UNL     1      39.634  -0.167 -12.622  1.00  0.00     0.107 A 
ATOM      6  C   UNL     1      39.150  -0.160 -11.278  1.00  0.00     0.134 A 
ATOM      7  C   UNL     1      38.341  -1.212 -10.831  1.00  0.00     0.093 A 
ATOM      8  C   UNL     1      37.951  -2.239 -11.694  1.00  0.00     0.123 A 
ATOM      9  C   UNL     1      38.376  -2.229 -13.020  1.00  0.00     0.094 A 
ATOM     10  C   UNL     1      39.213  -1.212 -13.488  1.00  0.00     0.146 A 
ATOM     11  O   UNL     1      39.610  -1.250 -14.755  1.00  0.00    -0.456 OA
ENDROOT
BRANCH   1  12
ATOM     12  C   UNL     1      40.795  -0.489 -16.726  1.00  0.00     0.021 A 
ATOM     13  C   UNL     1      41.450   0.540 -17.424  1.00  0.00     0.016 A 
ATOM     14  C   UNL     1      41.793   0.377 -18.768  1.00  0.00     0.051 A 
ATOM     15  C   UNL     1      41.497  -0.812 -19.442  1.00  0.00     0.157 A 
ATOM     16  C   UNL     1      40.511  -1.689 -17.400  1.00  0.00     0.062 A 
ATOM     17  C   UNL     1      40.850  -1.860 -18.749  1.00  0.00     0.158 A 
BRANCH  15  18
ATOM     18  O   UNL     1      41.864  -0.909 -20.786  1.00  0.00    -0.504 OA
ATOM     19  H   UNL     1      41.454  -0.357 -21.526  1.00  0.00     0.293 HD
ENDBRANCH  15  18
BRANCH  17  20
ATOM     20  O   UNL     1      40.527  -3.078 -19.352  1.00  0.00    -0.504 OA
ATOM     21  H   UNL     1      40.395  -3.197 -20.346  1.00  0.00     0.293 HD
ENDBRANCH  17  20
ENDBRANCH   1  12
BRANCH   6  22
ATOM     22  O   UNL     1      39.413   0.858 -10.356  1.00  0.00    -0.507 OA
ATOM     23  H   UNL     1      38.817   1.106  -9.582  1.00  0.00     0.293 HD
ENDBRANCH   6  22
BRANCH   8  24
ATOM     24  O   UNL     1      37.133  -3.273 -11.244  1.00  0.00    -0.508 OA
ATOM     25  H   UNL     1      37.445  -4.238 -11.254  1.00  0.00     0.293 HD
ENDBRANCH   8  24
TORSDOF 5
ENDMDL
MODEL 6
REMARK VINA RESULT:    -5.940      1.820      2.737
REMARK INTER + INTRA:          -7.258
REMARK INTER:                  -6.949
REMARK INTRA:                  -0.309
REMARK UNBOUND:                -0.276
REMARK SMILES O=c1cc(-c2ccc(O)c(O)c2)oc2cc(O)cc(O)c12
REMARK SMILES IDX 4 1 3 2 2 3 1 4 21 5 19 6 18 7 16 8 15 9 14 10 13 11 5 12
REMARK SMILES IDX 6 13 7 14 8 15 12 16 10 17 9 18 11 20 20 22 17 24
REMARK H PARENT 9 19 11 21 20 23 17 25
REMARK Flexibility Score: inf
ROOT
ATOM      1  C   UNL     1      40.863  -0.576 -16.441  1.00  0.00     0.138 A 
ATOM      2  C   UNL     1      40.983   0.319 -17.514  1.00  0.00     0.100 A 
ATOM      3  C   UNL     1      41.993   0.134 -18.458  1.00  0.00     0.197 A 
ATOM      4  O   UNL     1      42.040   0.920 -19.438  1.00  0.00    -0.289 OA
ATOM      5  C   UNL     1      42.912  -0.933 -18.307  1.00  0.00     0.107 A 
ATOM      6  C   UNL     1      44.003  -1.200 -19.189  1.00  0.00     0.134 A 
ATOM      7  C   UNL     1      44.785  -2.345 -18.991  1.00  0.00     0.093 A 
ATOM      8  C   UNL     1      44.552  -3.200 -17.912  1.00  0.00     0.123 A 
ATOM      9  C   UNL     1      43.522  -2.922 -17.017  1.00  0.00     0.094 A 
ATOM     10  C   UNL     1      42.701  -1.807 -17.207  1.00  0.00     0.146 A 
ATOM     11  O   UNL     1      41.718  -1.588 -16.340  1.00  0.00    -0.456 OA
ENDROOT
BRANCH   1  12
ATOM     12  C   UNL     1      39.809  -0.425 -15.407  1.00  0.00     0.021 A 
ATOM     13  C   UNL     1      39.233   0.824 -15.114  1.00  0.00     0.016 A 
ATOM     14  C   UNL     1      38.237   0.933 -14.143  1.00  0.00     0.051 A 
ATOM     15  C   UNL     1      37.788  -0.196 -13.449  1.00  0.00     0.157 A 
ATOM     16  C   UNL     1      39.347  -1.560 -14.720  1.00  0.00     0.062 A 
ATOM     17  C   UNL     1      38.349  -1.459 -13.743  1.00  0.00     0.158 A 
BRANCH  15  18
ATOM     18  O   UNL     1      36.790  -0.017 -12.488  1.00  0.00    -0.504 OA
ATOM     19  H   UNL     1      36.422   0.883 -12.216  1.00  0.00     0.293 HD
ENDBRANCH  15  18
BRANCH  17  20
ATOM     20  O   UNL     1      37.949  -2.631 -13.097  1.00  0.00    -0.504 OA
ATOM     21  H   UNL     1      37.243  -3.260 -13.454  1.00  0.00     0.293 HD
ENDBRANCH  17  20
ENDBRANCH   1  12
BRANCH   6  22
ATOM     22  O   UNL     1      44.374  -0.369 -20.251  1.00  0.00    -0.507 OA
ATOM     23  H   UNL     1      44.904   0.483 -20.162  1.00  0.00     0.293 HD
ENDBRANCH   6  22
BRANCH   8  24
ATOM     24  O   UNL     1      45.346  -4.328 -17.715  1.00  0.00    -0.508 OA
ATOM     25  H   UNL     1      45.992  -4.652 -18.425  1.00  0.00     0.293 HD
ENDBRANCH   8  24
TORSDOF 5
ENDMDL
MODEL 7
REMARK VINA RESULT:    -5.935     15.913     18.427
REMARK INTER + INTRA:          -7.253
REMARK INTER:                  -6.958
REMARK INTRA:                  -0.294
REMARK UNBOUND:                -0.276
REMARK SMILES O=c1cc(-c2ccc(O)c(O)c2)oc2cc(O)cc(O)c12
REMARK SMILES IDX 4 1 3 2 2 3 1 4 21 5 19 6 18 7 16 8 15 9 14 10 13 11 5 12
REMARK SMILES IDX 6 13 7 14 8 15 12 16 10 17 9 18 11 20 20 22 17 24
REMARK H PARENT 9 19 11 21 20 23 17 25
REMARK Flexibility Score: inf
ROOT
ATOM      1  C   UNL     1      30.503 -11.640  -8.220  1.00  0.00     0.138 A 
ATOM      2  C   UNL     1      30.716 -10.260  -8.331  1.00  0.00     0.100 A 
ATOM      3  C   UNL     1      30.664  -9.458  -7.190  1.00  0.00     0.197 A 
ATOM      4  O   UNL     1      30.915  -8.232  -7.315  1.00  0.00    -0.289 OA
ATOM      5  C   UNL     1      30.362 -10.039  -5.935  1.00  0.00     0.107 A 
ATOM      6  C   UNL     1      30.249  -9.316  -4.708  1.00  0.00     0.134 A 
ATOM      7  C   UNL     1      30.042 -10.015  -3.512  1.00  0.00     0.093 A 
ATOM      8  C   UNL     1      29.887 -11.403  -3.505  1.00  0.00     0.123 A 
ATOM      9  C   UNL     1      29.946 -12.113  -4.703  1.00  0.00     0.094 A 
ATOM     10  C   UNL     1      30.185 -11.449  -5.909  1.00  0.00     0.146 A 
ATOM     11  O   UNL     1      30.252 -12.165  -7.026  1.00  0.00    -0.456 OA
ENDROOT
BRANCH   1  12
ATOM     12  C   UNL     1      30.543 -12.539  -9.401  1.00  0.00     0.021 A 
ATOM     13  C   UNL     1      30.466 -13.937  -9.271  1.00  0.00     0.016 A 
ATOM     14  C   UNL     1      30.496 -14.755 -10.402  1.00  0.00     0.051 A 
ATOM     15  C   UNL     1      30.597 -14.201 -11.683  1.00  0.00     0.157 A 
ATOM     16  C   UNL     1      30.629 -11.983 -10.689  1.00  0.00     0.062 A 
ATOM     17  C   UNL     1      30.662 -12.797 -11.828  1.00  0.00     0.158 A 
BRANCH  15  18
ATOM     18  O   UNL     1      30.625 -15.076 -12.771  1.00  0.00    -0.504 OA
ATOM     19  H   UNL     1      30.052 -15.904 -12.845  1.00  0.00     0.293 HD
ENDBRANCH  15  18
BRANCH  17  20
ATOM     20  O   UNL     1      30.758 -12.171 -13.074  1.00  0.00    -0.504 OA
ATOM     21  H   UNL     1      30.391 -12.561 -13.930  1.00  0.00     0.293 HD
ENDBRANCH  17  20
ENDBRANCH   1  12
BRANCH   6  22
ATOM     22  O   UNL     1      30.308  -7.922  -4.612  1.00  0.00    -0.507 OA
ATOM     23  H   UNL     1      31.155  -7.376  -4.622  1.00  0.00     0.293 HD
ENDBRANCH   6  22
BRANCH   8  24
ATOM     24  O   UNL     1      29.666 -12.088  -2.313  1.00  0.00    -0.508 OA
ATOM     25  H   UNL     1      30.354 -12.090  -1.568  1.00  0.00     0.293 HD
ENDBRANCH   8  24
TORSDOF 5
ENDMDL
MODEL 8
REMARK VINA RESULT:    -5.924      2.998      3.955
REMARK INTER + INTRA:          -7.239
REMARK INTER:                  -6.929
REMARK INTRA:                  -0.310
REMARK UNBOUND:                -0.276
REMARK SMILES O=c1cc(-c2ccc(O)c(O)c2)oc2cc(O)cc(O)c12
REMARK SMILES IDX 4 1 3 2 2 3 1 4 21 5 19 6 18 7 16 8 15 9 14 10 13 11 5 12
REMARK SMILES IDX 6 13 7 14 8 15 12 16 10 17 9 18 11 20 20 22 17 24
REMARK H PARENT 9 19 11 21 20 23 17 25
REMARK Flexibility Score: inf
ROOT
ATOM      1  C   UNL     1      39.662  -0.567 -13.557  1.00  0.00     0.138 A 
ATOM      2  C   UNL     1      40.524   0.532 -13.440  1.00  0.00     0.100 A 
ATOM      3  C   UNL     1      41.317   0.907 -14.525  1.00  0.00     0.197 A 
ATOM      4  O   UNL     1      42.038   1.931 -14.406  1.00  0.00    -0.289 OA
ATOM      5  C   UNL     1      41.273   0.154 -15.723  1.00  0.00     0.107 A 
ATOM      6  C   UNL     1      42.062   0.421 -16.883  1.00  0.00     0.134 A 
ATOM      7  C   UNL     1      41.859  -0.335 -18.044  1.00  0.00     0.093 A 
ATOM      8  C   UNL     1      40.938  -1.385 -18.070  1.00  0.00     0.123 A 
ATOM      9  C   UNL     1      40.199  -1.686 -16.928  1.00  0.00     0.094 A 
ATOM     10  C   UNL     1      40.353  -0.928 -15.764  1.00  0.00     0.146 A 
ATOM     11  O   UNL     1      39.616  -1.238 -14.703  1.00  0.00    -0.456 OA
ENDROOT
BRANCH   1  12
ATOM     12  C   UNL     1      38.798  -1.011 -12.434  1.00  0.00     0.021 A 
ATOM     13  C   UNL     1      38.392  -0.127 -11.418  1.00  0.00     0.016 A 
ATOM     14  C   UNL     1      37.572  -0.571 -10.380  1.00  0.00     0.051 A 
ATOM     15  C   UNL     1      37.133  -1.899 -10.334  1.00  0.00     0.157 A 
ATOM     16  C   UNL     1      38.345  -2.340 -12.394  1.00  0.00     0.062 A 
ATOM     17  C   UNL     1      37.523  -2.794 -11.356  1.00  0.00     0.158 A 
BRANCH  15  18
ATOM     18  O   UNL     1      36.316  -2.279  -9.267  1.00  0.00    -0.504 OA
ATOM     19  H   UNL     1      36.523  -3.045  -8.641  1.00  0.00     0.293 HD
ENDBRANCH  15  18
BRANCH  17  20
ATOM     20  O   UNL     1      37.121  -4.132 -11.381  1.00  0.00    -0.504 OA
ATOM     21  H   UNL     1      36.200  -4.449 -11.111  1.00  0.00     0.293 HD
ENDBRANCH  17  20
ENDBRANCH   1  12
BRANCH   6  22
ATOM     22  O   UNL     1      43.066   1.393 -16.941  1.00  0.00    -0.507 OA
ATOM     23  H   UNL     1      42.934   2.374 -16.748  1.00  0.00     0.293 HD
ENDBRANCH   6  22
BRANCH   8  24
ATOM     24  O   UNL     1      40.754  -2.141 -19.225  1.00  0.00    -0.508 OA
ATOM     25  H   UNL     1      39.903  -2.073 -19.773  1.00  0.00     0.293 HD
ENDBRANCH   8  24
TORSDOF 5
ENDMDL
MODEL 9
REMARK VINA RESULT:    -5.852      1.298      6.846
REMARK INTER + INTRA:          -7.155
REMARK INTER:                  -6.868
REMARK INTRA:                  -0.286
REMARK UNBOUND:                -0.276
REMARK SMILES O=c1cc(-c2ccc(O)c(O)c2)oc2cc(O)cc(O)c12
REMARK SMILES IDX 4 1 3 2 2 3 1 4 21 5 19 6 18 7 16 8 15 9 14 10 13 11 5 12
REMARK SMILES IDX 6 13 7 14 8 15 12 16 10 17 9 18 11 20 20 22 17 24
REMARK H PARENT 9 19 11 21 20 23 17 25
REMARK Flexibility Score: inf
ROOT
ATOM      1  C   UNL     1      41.555  -1.277 -16.131  1.00  0.00     0.138 A 
ATOM      2  C   UNL     1      42.384  -0.758 -15.127  1.00  0.00     0.100 A 
ATOM      3  C   UNL     1      41.819  -0.065 -14.055  1.00  0.00     0.197 A 
ATOM      4  O   UNL     1      42.583   0.340 -13.142  1.00  0.00    -0.289 OA
ATOM      5  C   UNL     1      40.419   0.141 -14.009  1.00  0.00     0.107 A 
ATOM      6  C   UNL     1      39.735   0.862 -12.984  1.00  0.00     0.134 A 
ATOM      7  C   UNL     1      38.335   0.914 -12.994  1.00  0.00     0.093 A 
ATOM      8  C   UNL     1      37.599   0.321 -14.022  1.00  0.00     0.123 A 
ATOM      9  C   UNL     1      38.259  -0.342 -15.054  1.00  0.00     0.094 A 
ATOM     10  C   UNL     1      39.653  -0.442 -15.054  1.00  0.00     0.146 A 
ATOM     11  O   UNL     1      40.242  -1.098 -16.048  1.00  0.00    -0.456 OA
ENDROOT
BRANCH   1  12
ATOM     12  C   UNL     1      42.103  -2.020 -17.294  1.00  0.00     0.021 A 
ATOM     13  C   UNL     1      41.463  -2.012 -18.546  1.00  0.00     0.016 A 
ATOM     14  C   UNL     1      42.008  -2.712 -19.623  1.00  0.00     0.051 A 
ATOM     15  C   UNL     1      43.201  -3.428 -19.481  1.00  0.00     0.157 A 
ATOM     16  C   UNL     1      43.309  -2.728 -17.156  1.00  0.00     0.062 A 
ATOM     17  C   UNL     1      43.862  -3.434 -18.232  1.00  0.00     0.158 A 
BRANCH  15  18
ATOM     18  O   UNL     1      43.691  -4.109 -20.598  1.00  0.00    -0.504 OA
ATOM     19  H   UNL     1      43.874  -5.102 -20.619  1.00  0.00     0.293 HD
ENDBRANCH  15  18
BRANCH  17  20
ATOM     20  O   UNL     1      45.059  -4.121 -18.014  1.00  0.00    -0.504 OA
ATOM     21  H   UNL     1      45.932  -3.889 -18.465  1.00  0.00     0.293 HD
ENDBRANCH  17  20
ENDBRANCH   1  12
BRANCH   6  22
ATOM     22  O   UNL     1      40.375   1.558 -11.954  1.00  0.00    -0.507 OA
ATOM     23  H   UNL     1      41.258   1.300 -11.542  1.00  0.00     0.293 HD
ENDBRANCH   6  22
BRANCH   8  24
ATOM     24  O   UNL     1      36.207   0.392 -14.033  1.00  0.00    -0.508 OA
ATOM     25  H   UNL     1      35.708   0.913 -14.745  1.00  0.00     0.293 HD
ENDBRANCH   8  24
TORSDOF 5
ENDMDL
