MODEL 1
REMARK VINA RESULT:    -5.359      0.000      0.000
REMARK INTER + INTRA:          -6.797
REMARK INTER:                  -6.456
REMARK INTRA:                  -0.341
REMARK UNBOUND:                -0.341
REMARK SMILES Oc1cc(O)c2cc(O)c(-c3ccc(O)c(O)c3)[o+]c2c1
REMARK SMILES IDX 10 1 19 2 20 3 21 4 2 5 3 6 4 7 6 8 7 9 8 10 11 11 12 12
REMARK SMILES IDX 13 13 14 14 18 15 16 16 15 17 17 19 9 21 1 23 5 25
REMARK H PARENT 15 18 17 20 9 22 1 24 5 26
REMARK Flexibility Score: inf
ROOT
ATOM      1  C   UNL     1     -21.652 -64.360  57.641  1.00  0.00     0.402 A 
ATOM      2  O   UNL     1     -22.919 -64.319  57.240  1.00  0.00    -0.202 OA
ATOM      3  C   UNL     1     -23.684 -65.401  57.126  1.00  0.00     0.368 A 
ATOM      4  C   UNL     1     -25.006 -65.256  56.698  1.00  0.00     0.162 A 
ATOM      5  C   UNL     1     -25.833 -66.377  56.572  1.00  0.00     0.128 A 
ATOM      6  C   UNL     1     -25.336 -67.645  56.877  1.00  0.00     0.093 A 
ATOM      7  C   UNL     1     -24.015 -67.816  57.308  1.00  0.00     0.136 A 
ATOM      8  C   UNL     1     -23.170 -66.683  57.435  1.00  0.00     0.125 A 
ATOM      9  C   UNL     1     -21.829 -66.761  57.847  1.00  0.00     0.078 A 
ATOM     10  C   UNL     1     -21.058 -65.599  57.943  1.00  0.00     0.223 A 
ENDROOT
BRANCH   1  11
ATOM     11  C   UNL     1     -20.907 -63.084  57.738  1.00  0.00     0.087 A 
ATOM     12  C   UNL     1     -20.103 -62.623  56.684  1.00  0.00     0.022 A 
ATOM     13  C   UNL     1     -19.393 -61.428  56.808  1.00  0.00     0.051 A 
ATOM     14  C   UNL     1     -19.458 -60.677  57.986  1.00  0.00     0.157 A 
ATOM     15  C   UNL     1     -20.956 -62.344  58.930  1.00  0.00     0.068 A 
ATOM     16  C   UNL     1     -20.247 -61.143  59.064  1.00  0.00     0.158 A 
BRANCH  14  17
ATOM     17  O   UNL     1     -18.727 -59.489  58.044  1.00  0.00    -0.504 OA
ATOM     18  H   UNL     1     -17.914 -59.354  58.629  1.00  0.00     0.293 HD
ENDBRANCH  14  17
BRANCH  16  19
ATOM     19  O   UNL     1     -20.355 -60.454  60.273  1.00  0.00    -0.504 OA
ATOM     20  H   UNL     1     -19.704 -60.553  61.039  1.00  0.00     0.293 HD
ENDBRANCH  16  19
ENDBRANCH   1  11
BRANCH  10  21
ATOM     21  O   UNL     1     -19.712 -65.681  58.304  1.00  0.00    -0.500 OA
ATOM     22  H   UNL     1     -19.024 -65.033  57.940  1.00  0.00     0.294 HD
ENDBRANCH  10  21
BRANCH   5  23
ATOM     23  O   UNL     1     -27.153 -66.240  56.145  1.00  0.00    -0.507 OA
ATOM     24  H   UNL     1     -27.855 -66.936  56.369  1.00  0.00     0.293 HD
ENDBRANCH   5  23
BRANCH   7  25
ATOM     25  O   UNL     1     -23.595 -69.119  57.596  1.00  0.00    -0.507 OA
ATOM     26  H   UNL     1     -22.759 -69.347  58.115  1.00  0.00     0.293 HD
ENDBRANCH   7  25
TORSDOF 6
ENDMDL
MODEL 2
REMARK VINA RESULT:    -5.271      9.650     10.784
REMARK INTER + INTRA:          -6.691
REMARK INTER:                  -6.345
REMARK INTRA:                  -0.346
REMARK UNBOUND:                -0.341
REMARK SMILES Oc1cc(O)c2cc(O)c(-c3ccc(O)c(O)c3)[o+]c2c1
REMARK SMILES IDX 10 1 19 2 20 3 21 4 2 5 3 6 4 7 6 8 7 9 8 10 11 11 12 12
REMARK SMILES IDX 13 13 14 14 18 15 16 16 15 17 17 19 9 21 1 23 5 25
REMARK H PARENT 15 18 17 20 9 22 1 24 5 26
REMARK Flexibility Score: inf
ROOT
ATOM      1  C   UNL     1     -27.129 -55.472  55.309  1.00  0.00     0.402 A 
ATOM      2  O   UNL     1     -28.400 -55.746  55.594  1.00  0.00    -0.202 OA
ATOM      3  C   UNL     1     -28.889 -56.981  55.634  1.00  0.00     0.368 A 
ATOM      4  C   UNL     1     -30.239 -57.168  55.945  1.00  0.00     0.162 A 
ATOM      5  C   UNL     1     -30.779 -58.456  55.996  1.00  0.00     0.128 A 
ATOM      6  C   UNL     1     -29.966 -59.562  55.737  1.00  0.00     0.093 A 
ATOM      7  C   UNL     1     -28.610 -59.401  55.424  1.00  0.00     0.136 A 
ATOM      8  C   UNL     1     -28.058 -58.095  55.367  1.00  0.00     0.125 A 
ATOM      9  C   UNL     1     -26.714 -57.838  55.048  1.00  0.00     0.078 A 
ATOM     10  C   UNL     1     -26.243 -56.523  55.007  1.00  0.00     0.223 A 
ENDROOT
BRANCH   1  11
ATOM     11  C   UNL     1     -26.702 -54.054  55.307  1.00  0.00     0.087 A 
ATOM     12  C   UNL     1     -26.288 -53.412  56.484  1.00  0.00     0.022 A 
ATOM     13  C   UNL     1     -25.911 -52.068  56.459  1.00  0.00     0.051 A 
ATOM     14  C   UNL     1     -25.951 -51.336  55.268  1.00  0.00     0.157 A 
ATOM     15  C   UNL     1     -26.765 -53.316  54.114  1.00  0.00     0.068 A 
ATOM     16  C   UNL     1     -26.388 -51.967  54.080  1.00  0.00     0.158 A 
BRANCH  14  17
ATOM     17  O   UNL     1     -25.557 -49.997  55.311  1.00  0.00    -0.504 OA
ATOM     18  H   UNL     1     -26.193 -49.219  55.208  1.00  0.00     0.293 HD
ENDBRANCH  14  17
BRANCH  16  19
ATOM     19  O   UNL     1     -26.465 -51.301  52.855  1.00  0.00    -0.504 OA
ATOM     20  H   UNL     1     -27.283 -51.299  52.263  1.00  0.00     0.293 HD
ENDBRANCH  16  19
ENDBRANCH   1  11
BRANCH  10  21
ATOM     21  O   UNL     1     -24.921 -56.263  54.641  1.00  0.00    -0.500 OA
ATOM     22  H   UNL     1     -24.599 -55.324  54.443  1.00  0.00     0.294 HD
ENDBRANCH  10  21
BRANCH   5  23
ATOM     23  O   UNL     1     -32.124 -58.650  56.305  1.00  0.00    -0.507 OA
ATOM     24  H   UNL     1     -32.413 -59.322  57.006  1.00  0.00     0.293 HD
ENDBRANCH   5  23
BRANCH   7  25
ATOM     25  O   UNL     1     -27.864 -60.558  55.180  1.00  0.00    -0.507 OA
ATOM     26  H   UNL     1     -27.080 -60.859  55.740  1.00  0.00     0.293 HD
ENDBRANCH   7  25
TORSDOF 6
ENDMDL
MODEL 3
REMARK VINA RESULT:    -5.133      3.039      5.135
REMARK INTER + INTRA:          -6.525
REMARK INTER:                  -6.199
REMARK INTRA:                  -0.326
REMARK UNBOUND:                -0.341
REMARK SMILES Oc1cc(O)c2cc(O)c(-c3ccc(O)c(O)c3)[o+]c2c1
REMARK SMILES IDX 10 1 19 2 20 3 21 4 2 5 3 6 4 7 6 8 7 9 8 10 11 11 12 12
REMARK SMILES IDX 13 13 14 14 18 15 16 16 15 17 17 19 9 21 1 23 5 25
REMARK H PARENT 15 18 17 20 9 22 1 24 5 26
REMARK Flexibility Score: inf
ROOT
ATOM      1  C   UNL     1     -26.142 -64.163  56.235  1.00  0.00     0.402 A 
ATOM      2  O   UNL     1     -26.585 -65.317  56.726  1.00  0.00    -0.202 OA
ATOM      3  C   UNL     1     -27.611 -65.984  56.209  1.00  0.00     0.368 A 
ATOM      4  C   UNL     1     -28.002 -67.192  56.796  1.00  0.00     0.162 A 
ATOM      5  C   UNL     1     -29.076 -67.916  56.271  1.00  0.00     0.128 A 
ATOM      6  C   UNL     1     -29.761 -67.432  55.154  1.00  0.00     0.093 A 
ATOM      7  C   UNL     1     -29.388 -66.226  54.547  1.00  0.00     0.136 A 
ATOM      8  C   UNL     1     -28.301 -65.485  55.079  1.00  0.00     0.125 A 
ATOM      9  C   UNL     1     -27.866 -64.260  54.545  1.00  0.00     0.078 A 
ATOM     10  C   UNL     1     -26.789 -63.586  55.127  1.00  0.00     0.223 A 
ENDROOT
BRANCH   1  11
ATOM     11  C   UNL     1     -24.982 -63.520  56.894  1.00  0.00     0.087 A 
ATOM     12  C   UNL     1     -23.667 -63.930  56.625  1.00  0.00     0.022 A 
ATOM     13  C   UNL     1     -22.592 -63.323  57.276  1.00  0.00     0.051 A 
ATOM     14  C   UNL     1     -22.805 -62.307  58.214  1.00  0.00     0.157 A 
ATOM     15  C   UNL     1     -25.201 -62.517  57.851  1.00  0.00     0.068 A 
ATOM     16  C   UNL     1     -24.128 -61.901  58.509  1.00  0.00     0.158 A 
BRANCH  14  17
ATOM     17  O   UNL     1     -21.686 -61.739  58.827  1.00  0.00    -0.504 OA
ATOM     18  H   UNL     1     -21.118 -62.213  59.514  1.00  0.00     0.293 HD
ENDBRANCH  14  17
BRANCH  16  19
ATOM     19  O   UNL     1     -24.421 -60.902  59.439  1.00  0.00    -0.504 OA
ATOM     20  H   UNL     1     -23.750 -60.524  60.093  1.00  0.00     0.293 HD
ENDBRANCH  16  19
ENDBRANCH   1  11
BRANCH  10  21
ATOM     21  O   UNL     1     -26.389 -62.345  54.628  1.00  0.00    -0.500 OA
ATOM     22  H   UNL     1     -25.612 -61.836  55.031  1.00  0.00     0.294 HD
ENDBRANCH  10  21
BRANCH   5  23
ATOM     23  O   UNL     1     -29.471 -69.120  56.850  1.00  0.00    -0.507 OA
ATOM     24  H   UNL     1     -29.610 -69.955  56.293  1.00  0.00     0.293 HD
ENDBRANCH   5  23
BRANCH   7  25
ATOM     25  O   UNL     1     -30.123 -65.813  53.432  1.00  0.00    -0.507 OA
ATOM     26  H   UNL     1     -31.131 -65.796  53.387  1.00  0.00     0.293 HD
ENDBRANCH   7  25
TORSDOF 6
ENDMDL
MODEL 4
REMARK VINA RESULT:    -5.108      1.942      3.791
REMARK INTER + INTRA:          -6.494
REMARK INTER:                  -6.268
REMARK INTRA:                  -0.226
REMARK UNBOUND:                -0.341
REMARK SMILES Oc1cc(O)c2cc(O)c(-c3ccc(O)c(O)c3)[o+]c2c1
REMARK SMILES IDX 10 1 19 2 20 3 21 4 2 5 3 6 4 7 6 8 7 9 8 10 11 11 12 12
REMARK SMILES IDX 13 13 14 14 18 15 16 16 15 17 17 19 9 21 1 23 5 25
REMARK H PARENT 15 18 17 20 9 22 1 24 5 26
REMARK Flexibility Score: inf
ROOT
ATOM      1  C   UNL     1     -20.801 -64.412  57.386  1.00  0.00     0.402 A 
ATOM      2  O   UNL     1     -20.003 -65.144  58.160  1.00  0.00    -0.202 OA
ATOM      3  C   UNL     1     -20.342 -66.337  58.636  1.00  0.00     0.368 A 
ATOM      4  C   UNL     1     -19.434 -67.031  59.441  1.00  0.00     0.162 A 
ATOM      5  C   UNL     1     -19.764 -68.290  59.953  1.00  0.00     0.128 A 
ATOM      6  C   UNL     1     -21.005 -68.857  59.657  1.00  0.00     0.093 A 
ATOM      7  C   UNL     1     -21.932 -68.182  58.852  1.00  0.00     0.136 A 
ATOM      8  C   UNL     1     -21.604 -66.903  58.333  1.00  0.00     0.125 A 
ATOM      9  C   UNL     1     -22.475 -66.149  57.530  1.00  0.00     0.078 A 
ATOM     10  C   UNL     1     -22.082 -64.892  57.059  1.00  0.00     0.223 A 
ENDROOT
BRANCH   1  11
ATOM     11  C   UNL     1     -20.304 -63.101  56.910  1.00  0.00     0.087 A 
ATOM     12  C   UNL     1     -20.096 -62.848  55.545  1.00  0.00     0.022 A 
ATOM     13  C   UNL     1     -19.606 -61.612  55.123  1.00  0.00     0.051 A 
ATOM     14  C   UNL     1     -19.303 -60.609  56.050  1.00  0.00     0.157 A 
ATOM     15  C   UNL     1     -19.980 -62.105  57.844  1.00  0.00     0.068 A 
ATOM     16  C   UNL     1     -19.488 -60.860  57.430  1.00  0.00     0.158 A 
BRANCH  14  17
ATOM     17  O   UNL     1     -18.820 -59.393  55.561  1.00  0.00    -0.504 OA
ATOM     18  H   UNL     1     -18.737 -59.173  54.579  1.00  0.00     0.293 HD
ENDBRANCH  14  17
BRANCH  16  19
ATOM     19  O   UNL     1     -19.199 -59.914  58.415  1.00  0.00    -0.504 OA
ATOM     20  H   UNL     1     -19.500 -58.950  58.378  1.00  0.00     0.293 HD
ENDBRANCH  16  19
ENDBRANCH   1  11
BRANCH  10  21
ATOM     21  O   UNL     1     -22.966 -64.121  56.303  1.00  0.00    -0.500 OA
ATOM     22  H   UNL     1     -22.926 -63.109  56.307  1.00  0.00     0.294 HD
ENDBRANCH  10  21
BRANCH   5  23
ATOM     23  O   UNL     1     -18.864 -68.988  60.756  1.00  0.00    -0.507 OA
ATOM     24  H   UNL     1     -19.088 -69.229  61.714  1.00  0.00     0.293 HD
ENDBRANCH   5  23
BRANCH   7  25
ATOM     25  O   UNL     1     -23.151 -68.820  58.601  1.00  0.00    -0.507 OA
ATOM     26  H   UNL     1     -23.342 -69.384  57.786  1.00  0.00     0.293 HD
ENDBRANCH   7  25
TORSDOF 6
ENDMDL
MODEL 5
REMARK VINA RESULT:    -5.060      2.717      7.767
REMARK INTER + INTRA:          -6.437
REMARK INTER:                  -6.086
REMARK INTRA:                  -0.351
REMARK UNBOUND:                -0.341
REMARK SMILES Oc1cc(O)c2cc(O)c(-c3ccc(O)c(O)c3)[o+]c2c1
REMARK SMILES IDX 10 1 19 2 20 3 21 4 2 5 3 6 4 7 6 8 7 9 8 10 11 11 12 12
REMARK SMILES IDX 13 13 14 14 18 15 16 16 15 17 17 19 9 21 1 23 5 25
REMARK H PARENT 15 18 17 20 9 22 1 24 5 26
REMARK Flexibility Score: inf
ROOT
ATOM      1  C   UNL     1     -25.715 -65.588  56.073  1.00  0.00     0.402 A 
ATOM      2  O   UNL     1     -25.884 -64.533  56.864  1.00  0.00    -0.202 OA
ATOM      3  C   UNL     1     -24.877 -63.806  57.337  1.00  0.00     0.368 A 
ATOM      4  C   UNL     1     -25.156 -62.712  58.162  1.00  0.00     0.162 A 
ATOM      5  C   UNL     1     -24.115 -61.930  58.671  1.00  0.00     0.128 A 
ATOM      6  C   UNL     1     -22.791 -62.241  58.353  1.00  0.00     0.093 A 
ATOM      7  C   UNL     1     -22.486 -63.331  57.528  1.00  0.00     0.136 A 
ATOM      8  C   UNL     1     -23.538 -64.131  57.012  1.00  0.00     0.125 A 
ATOM      9  C   UNL     1     -23.325 -65.250  56.189  1.00  0.00     0.078 A 
ATOM     10  C   UNL     1     -24.414 -65.992  55.723  1.00  0.00     0.223 A 
ENDROOT
BRANCH   1  11
ATOM     11  C   UNL     1     -26.919 -66.311  55.602  1.00  0.00     0.087 A 
ATOM     12  C   UNL     1     -27.492 -66.041  54.349  1.00  0.00     0.022 A 
ATOM     13  C   UNL     1     -28.640 -66.720  53.938  1.00  0.00     0.051 A 
ATOM     14  C   UNL     1     -29.246 -67.668  54.768  1.00  0.00     0.157 A 
ATOM     15  C   UNL     1     -27.538 -67.245  56.447  1.00  0.00     0.068 A 
ATOM     16  C   UNL     1     -28.690 -67.932  56.042  1.00  0.00     0.158 A 
BRANCH  14  17
ATOM     17  O   UNL     1     -30.390 -68.314  54.295  1.00  0.00    -0.504 OA
ATOM     18  H   UNL     1     -31.260 -68.367  54.805  1.00  0.00     0.293 HD
ENDBRANCH  14  17
BRANCH  16  19
ATOM     19  O   UNL     1     -29.243 -68.857  56.930  1.00  0.00    -0.504 OA
ATOM     20  H   UNL     1     -29.492 -69.803  56.678  1.00  0.00     0.293 HD
ENDBRANCH  16  19
ENDBRANCH   1  11
BRANCH  10  21
ATOM     21  O   UNL     1     -24.201 -67.133  54.947  1.00  0.00    -0.500 OA
ATOM     22  H   UNL     1     -23.456 -67.787  55.156  1.00  0.00     0.294 HD
ENDBRANCH  10  21
BRANCH   5  23
ATOM     23  O   UNL     1     -24.385 -60.838  59.494  1.00  0.00    -0.507 OA
ATOM     24  H   UNL     1     -25.038 -60.115  59.215  1.00  0.00     0.293 HD
ENDBRANCH   5  23
BRANCH   7  25
ATOM     25  O   UNL     1     -21.136 -63.574  57.256  1.00  0.00    -0.507 OA
ATOM     26  H   UNL     1     -20.785 -64.412  56.815  1.00  0.00     0.293 HD
ENDBRANCH   7  25
TORSDOF 6
ENDMDL
MODEL 6
REMARK VINA RESULT:    -5.056      7.006      9.703
REMARK INTER + INTRA:          -6.432
REMARK INTER:                  -6.306
REMARK INTRA:                  -0.126
REMARK UNBOUND:                -0.341
REMARK SMILES Oc1cc(O)c2cc(O)c(-c3ccc(O)c(O)c3)[o+]c2c1
REMARK SMILES IDX 10 1 19 2 20 3 21 4 2 5 3 6 4 7 6 8 7 9 8 10 11 11 12 12
REMARK SMILES IDX 13 13 14 14 18 15 16 16 15 17 17 19 9 21 1 23 5 25
REMARK H PARENT 15 18 17 20 9 22 1 24 5 26
REMARK Flexibility Score: inf
ROOT
ATOM      1  C   UNL     1     -17.558 -58.760  55.015  1.00  0.00     0.402 A 
ATOM      2  O   UNL     1     -17.768 -57.517  55.442  1.00  0.00    -0.202 OA
ATOM      3  C   UNL     1     -18.320 -56.571  54.689  1.00  0.00     0.368 A 
ATOM      4  C   UNL     1     -18.502 -55.294  55.227  1.00  0.00     0.162 A 
ATOM      5  C   UNL     1     -19.082 -54.281  54.458  1.00  0.00     0.128 A 
ATOM      6  C   UNL     1     -19.483 -54.546  53.147  1.00  0.00     0.093 A 
ATOM      7  C   UNL     1     -19.312 -55.817  52.585  1.00  0.00     0.136 A 
ATOM      8  C   UNL     1     -18.721 -56.848  53.360  1.00  0.00     0.125 A 
ATOM      9  C   UNL     1     -18.498 -58.148  52.875  1.00  0.00     0.078 A 
ATOM     10  C   UNL     1     -17.905 -59.110  53.698  1.00  0.00     0.223 A 
ENDROOT
BRANCH   1  11
ATOM     11  C   UNL     1     -16.945 -59.728  55.953  1.00  0.00     0.087 A 
ATOM     12  C   UNL     1     -15.740 -60.380  55.649  1.00  0.00     0.022 A 
ATOM     13  C   UNL     1     -15.194 -61.306  56.540  1.00  0.00     0.051 A 
ATOM     14  C   UNL     1     -15.842 -61.608  57.742  1.00  0.00     0.157 A 
ATOM     15  C   UNL     1     -17.609 -60.046  57.149  1.00  0.00     0.068 A 
ATOM     16  C   UNL     1     -17.068 -60.973  58.050  1.00  0.00     0.158 A 
BRANCH  14  17
ATOM     17  O   UNL     1     -15.240 -62.539  58.591  1.00  0.00    -0.504 OA
ATOM     18  H   UNL     1     -15.425 -62.602  59.582  1.00  0.00     0.293 HD
ENDBRANCH  14  17
BRANCH  16  19
ATOM     19  O   UNL     1     -17.777 -61.230  59.224  1.00  0.00    -0.504 OA
ATOM     20  H   UNL     1     -17.939 -62.155  59.595  1.00  0.00     0.293 HD
ENDBRANCH  16  19
ENDBRANCH   1  11
BRANCH  10  21
ATOM     21  O   UNL     1     -17.638 -60.387  53.201  1.00  0.00    -0.500 OA
ATOM     22  H   UNL     1     -18.170 -61.195  53.498  1.00  0.00     0.294 HD
ENDBRANCH  10  21
BRANCH   5  23
ATOM     23  O   UNL     1     -19.266 -53.005  54.988  1.00  0.00    -0.507 OA
ATOM     24  H   UNL     1     -19.581 -52.869  55.942  1.00  0.00     0.293 HD
ENDBRANCH   5  23
BRANCH   7  25
ATOM     25  O   UNL     1     -19.742 -56.002  51.267  1.00  0.00    -0.507 OA
ATOM     26  H   UNL     1     -20.669 -55.780  50.934  1.00  0.00     0.293 HD
ENDBRANCH   7  25
TORSDOF 6
ENDMDL
MODEL 7
REMARK VINA RESULT:    -4.993      1.747      2.334
REMARK INTER + INTRA:          -6.357
REMARK INTER:                  -6.010
REMARK INTRA:                  -0.347
REMARK UNBOUND:                -0.341
REMARK SMILES Oc1cc(O)c2cc(O)c(-c3ccc(O)c(O)c3)[o+]c2c1
REMARK SMILES IDX 10 1 19 2 20 3 21 4 2 5 3 6 4 7 6 8 7 9 8 10 11 11 12 12
REMARK SMILES IDX 13 13 14 14 18 15 16 16 15 17 17 19 9 21 1 23 5 25
REMARK H PARENT 15 18 17 20 9 22 1 24 5 26
REMARK Flexibility Score: inf
ROOT
ATOM      1  C   UNL     1     -20.171 -64.356  57.331  1.00  0.00     0.402 A 
ATOM      2  O   UNL     1     -21.457 -64.691  57.391  1.00  0.00    -0.202 OA
ATOM      3  C   UNL     1     -21.884 -65.870  57.831  1.00  0.00     0.368 A 
ATOM      4  C   UNL     1     -23.258 -66.128  57.858  1.00  0.00     0.162 A 
ATOM      5  C   UNL     1     -23.735 -67.359  58.318  1.00  0.00     0.128 A 
ATOM      6  C   UNL     1     -22.835 -68.334  58.756  1.00  0.00     0.093 A 
ATOM      7  C   UNL     1     -21.455 -68.099  58.740  1.00  0.00     0.136 A 
ATOM      8  C   UNL     1     -20.965 -66.853  58.270  1.00  0.00     0.125 A 
ATOM      9  C   UNL     1     -19.598 -66.535  58.205  1.00  0.00     0.078 A 
ATOM     10  C   UNL     1     -19.192 -65.287  57.725  1.00  0.00     0.223 A 
ENDROOT
BRANCH   1  11
ATOM     11  C   UNL     1     -19.821 -63.007  56.831  1.00  0.00     0.087 A 
ATOM     12  C   UNL     1     -19.630 -62.759  55.463  1.00  0.00     0.022 A 
ATOM     13  C   UNL     1     -19.278 -61.484  55.018  1.00  0.00     0.051 A 
ATOM     14  C   UNL     1     -19.098 -60.435  55.927  1.00  0.00     0.157 A 
ATOM     15  C   UNL     1     -19.618 -61.962  57.747  1.00  0.00     0.068 A 
ATOM     16  C   UNL     1     -19.266 -60.678  57.310  1.00  0.00     0.158 A 
BRANCH  14  17
ATOM     17  O   UNL     1     -18.750 -59.183  55.416  1.00  0.00    -0.504 OA
ATOM     18  H   UNL     1     -19.358 -58.622  54.836  1.00  0.00     0.293 HD
ENDBRANCH  14  17
BRANCH  16  19
ATOM     19  O   UNL     1     -19.093 -59.686  58.277  1.00  0.00    -0.504 OA
ATOM     20  H   UNL     1     -18.463 -58.903  58.177  1.00  0.00     0.293 HD
ENDBRANCH  16  19
ENDBRANCH   1  11
BRANCH  10  21
ATOM     21  O   UNL     1     -17.833 -64.989  57.614  1.00  0.00    -0.500 OA
ATOM     22  H   UNL     1     -17.511 -64.104  57.240  1.00  0.00     0.294 HD
ENDBRANCH  10  21
BRANCH   5  23
ATOM     23  O   UNL     1     -25.103 -67.624  58.348  1.00  0.00    -0.507 OA
ATOM     24  H   UNL     1     -25.729 -67.103  58.950  1.00  0.00     0.293 HD
ENDBRANCH   5  23
BRANCH   7  25
ATOM     25  O   UNL     1     -20.622 -69.125  59.197  1.00  0.00    -0.507 OA
ATOM     26  H   UNL     1     -20.183 -69.141  60.106  1.00  0.00     0.293 HD
ENDBRANCH   7  25
TORSDOF 6
ENDMDL
MODEL 8
REMARK VINA RESULT:    -4.966      3.633      5.252
REMARK INTER + INTRA:          -6.323
REMARK INTER:                  -6.031
REMARK INTRA:                  -0.293
REMARK UNBOUND:                -0.341
REMARK SMILES Oc1cc(O)c2cc(O)c(-c3ccc(O)c(O)c3)[o+]c2c1
REMARK SMILES IDX 10 1 19 2 20 3 21 4 2 5 3 6 4 7 6 8 7 9 8 10 11 11 12 12
REMARK SMILES IDX 13 13 14 14 18 15 16 16 15 17 17 19 9 21 1 23 5 25
REMARK H PARENT 15 18 17 20 9 22 1 24 5 26
REMARK Flexibility Score: inf
ROOT
ATOM      1  C   UNL     1     -23.254 -66.678  57.426  1.00  0.00     0.402 A 
ATOM      2  O   UNL     1     -23.859 -65.604  57.927  1.00  0.00    -0.202 OA
ATOM      3  C   UNL     1     -24.838 -64.960  57.301  1.00  0.00     0.368 A 
ATOM      4  C   UNL     1     -25.414 -63.841  57.910  1.00  0.00     0.162 A 
ATOM      5  C   UNL     1     -26.448 -63.146  57.276  1.00  0.00     0.128 A 
ATOM      6  C   UNL     1     -26.909 -63.573  56.028  1.00  0.00     0.093 A 
ATOM      7  C   UNL     1     -26.349 -64.691  55.397  1.00  0.00     0.136 A 
ATOM      8  C   UNL     1     -25.297 -65.398  56.035  1.00  0.00     0.125 A 
ATOM      9  C   UNL     1     -24.667 -66.520  55.472  1.00  0.00     0.078 A 
ATOM     10  C   UNL     1     -23.633 -67.162  56.161  1.00  0.00     0.223 A 
ENDROOT
BRANCH   1  11
ATOM     11  C   UNL     1     -22.182 -67.314  58.225  1.00  0.00     0.087 A 
ATOM     12  C   UNL     1     -22.377 -68.551  58.859  1.00  0.00     0.022 A 
ATOM     13  C   UNL     1     -21.358 -69.120  59.625  1.00  0.00     0.051 A 
ATOM     14  C   UNL     1     -20.134 -68.464  59.785  1.00  0.00     0.157 A 
ATOM     15  C   UNL     1     -20.962 -66.643  58.403  1.00  0.00     0.068 A 
ATOM     16  C   UNL     1     -19.933 -67.207  59.170  1.00  0.00     0.158 A 
BRANCH  14  17
ATOM     17  O   UNL     1     -19.155 -69.090  60.561  1.00  0.00    -0.504 OA
ATOM     18  H   UNL     1     -19.193 -69.159  61.568  1.00  0.00     0.293 HD
ENDBRANCH  14  17
BRANCH  16  19
ATOM     19  O   UNL     1     -18.743 -66.487  59.291  1.00  0.00    -0.504 OA
ATOM     20  H   UNL     1     -18.251 -66.073  58.512  1.00  0.00     0.293 HD
ENDBRANCH  16  19
ENDBRANCH   1  11
BRANCH  10  21
ATOM     21  O   UNL     1     -22.974 -68.246  55.580  1.00  0.00    -0.500 OA
ATOM     22  H   UNL     1     -23.339 -69.188  55.646  1.00  0.00     0.294 HD
ENDBRANCH  10  21
BRANCH   5  23
ATOM     23  O   UNL     1     -27.027 -62.030  57.877  1.00  0.00    -0.507 OA
ATOM     24  H   UNL     1     -27.394 -61.264  57.325  1.00  0.00     0.293 HD
ENDBRANCH   5  23
BRANCH   7  25
ATOM     25  O   UNL     1     -26.868 -65.054  54.151  1.00  0.00    -0.507 OA
ATOM     26  H   UNL     1     -27.506 -64.487  53.612  1.00  0.00     0.293 HD
ENDBRANCH   7  25
TORSDOF 6
ENDMDL
