MODEL 1
REMARK VINA RESULT:    -4.115      0.000      0.000
REMARK INTER + INTRA:          -4.115
REMARK INTER:                  -4.115
REMARK INTRA:                   0.000
REMARK UNBOUND:                 0.000
REMARK SMILES C=C1CC[C@@H]2C[C@H]1C2(C)C
REMARK SMILES IDX 9 1 8 2 5 3 4 4 3 5 2 6 1 7 7 8 6 9 10 10
REMARK H PARENT
REMARK Flexibility Score: inf
ROOT
ATOM      1  C   UNL     1      29.633  23.162  13.298  1.00  0.00     0.012 C 
ATOM      2  C   UNL     1      29.162  24.253  12.299  1.00  0.00    -0.026 C 
ATOM      3  C   UNL     1      29.564  24.119  10.808  1.00  0.00    -0.004 C 
ATOM      4  C   UNL     1      31.004  23.529  10.666  1.00  0.00     0.008 C 
ATOM      5  C   UNL     1      32.064  24.303  11.539  1.00  0.00     0.031 C 
ATOM      6  C   UNL     1      31.412  25.348  12.457  1.00  0.00    -0.074 C 
ATOM      7  C   UNL     1      32.125  26.010  13.376  1.00  0.00     0.008 C 
ATOM      8  C   UNL     1      29.919  25.601  12.273  1.00  0.00     0.021 C 
ATOM      9  C   UNL     1      29.710  25.648  10.750  1.00  0.00     0.012 C 
ATOM     10  C   UNL     1      27.634  24.447  12.472  1.00  0.00     0.012 C 
ENDROOT
TORSDOF 0
ENDMDL
MODEL 2
REMARK VINA RESULT:    -3.936      1.122      2.147
REMARK INTER + INTRA:          -3.936
REMARK INTER:                  -3.936
REMARK INTRA:                   0.000
REMARK UNBOUND:                 0.000
REMARK SMILES C=C1CC[C@@H]2C[C@H]1C2(C)C
REMARK SMILES IDX 9 1 8 2 5 3 4 4 3 5 2 6 1 7 7 8 6 9 10 10
REMARK H PARENT
REMARK Flexibility Score: inf
ROOT
ATOM      1  C   UNL     1      31.392  24.765  13.341  1.00  0.00     0.012 C 
ATOM      2  C   UNL     1      30.201  24.097  12.602  1.00  0.00    -0.026 C 
ATOM      3  C   UNL     1      30.368  23.727  11.106  1.00  0.00    -0.004 C 
ATOM      4  C   UNL     1      31.225  24.795  10.356  1.00  0.00     0.008 C 
ATOM      5  C   UNL     1      30.701  26.264  10.588  1.00  0.00     0.031 C 
ATOM      6  C   UNL     1      29.576  26.323  11.632  1.00  0.00    -0.074 C 
ATOM      7  C   UNL     1      29.095  27.492  12.072  1.00  0.00     0.008 C 
ATOM      8  C   UNL     1      29.028  24.993  12.141  1.00  0.00     0.021 C 
ATOM      9  C   UNL     1      28.896  24.113  10.887  1.00  0.00     0.012 C 
ATOM     10  C   UNL     1      29.714  22.893  13.447  1.00  0.00     0.012 C 
ENDROOT
TORSDOF 0
ENDMDL
MODEL 3
REMARK VINA RESULT:    -3.924      1.790      3.532
REMARK INTER + INTRA:          -3.924
REMARK INTER:                  -3.924
REMARK INTRA:                   0.000
REMARK UNBOUND:                 0.000
REMARK SMILES C=C1CC[C@@H]2C[C@H]1C2(C)C
REMARK SMILES IDX 9 1 8 2 5 3 4 4 3 5 2 6 1 7 7 8 6 9 10 10
REMARK H PARENT
REMARK Flexibility Score: inf
ROOT
ATOM      1  C   UNL     1      31.555  22.649  11.109  1.00  0.00     0.012 C 
ATOM      2  C   UNL     1      30.454  23.356  11.945  1.00  0.00    -0.026 C 
ATOM      3  C   UNL     1      30.884  24.248  13.138  1.00  0.00    -0.004 C 
ATOM      4  C   UNL     1      32.124  23.644  13.871  1.00  0.00     0.008 C 
ATOM      5  C   UNL     1      31.922  22.129  14.255  1.00  0.00     0.031 C 
ATOM      6  C   UNL     1      30.625  21.547  13.673  1.00  0.00    -0.074 C 
ATOM      7  C   UNL     1      30.342  20.243  13.768  1.00  0.00     0.008 C 
ATOM      8  C   UNL     1      29.673  22.522  12.987  1.00  0.00     0.021 C 
ATOM      9  C   UNL     1      29.643  23.758  13.901  1.00  0.00     0.012 C 
ATOM     10  C   UNL     1      29.508  24.106  10.973  1.00  0.00     0.012 C 
ENDROOT
TORSDOF 0
ENDMDL
MODEL 4
REMARK VINA RESULT:    -3.868      1.088      2.924
REMARK INTER + INTRA:          -3.868
REMARK INTER:                  -3.868
REMARK INTRA:                   0.000
REMARK UNBOUND:                 0.000
REMARK SMILES C=C1CC[C@@H]2C[C@H]1C2(C)C
REMARK SMILES IDX 9 1 8 2 5 3 4 4 3 5 2 6 1 7 7 8 6 9 10 10
REMARK H PARENT
REMARK Flexibility Score: inf
ROOT
ATOM      1  C   UNL     1      31.772  25.031  13.372  1.00  0.00     0.012 C 
ATOM      2  C   UNL     1      30.695  25.119  12.257  1.00  0.00    -0.026 C 
ATOM      3  C   UNL     1      29.264  24.610  12.565  1.00  0.00    -0.004 C 
ATOM      4  C   UNL     1      29.302  23.350  13.488  1.00  0.00     0.008 C 
ATOM      5  C   UNL     1      30.267  22.230  12.942  1.00  0.00     0.031 C 
ATOM      6  C   UNL     1      31.075  22.698  11.723  1.00  0.00    -0.074 C 
ATOM      7  C   UNL     1      32.048  21.944  11.201  1.00  0.00     0.008 C 
ATOM      8  C   UNL     1      30.716  24.058  11.132  1.00  0.00     0.021 C 
ATOM      9  C   UNL     1      29.179  24.093  11.120  1.00  0.00     0.012 C 
ATOM     10  C   UNL     1      30.689  26.563  11.695  1.00  0.00     0.012 C 
ENDROOT
TORSDOF 0
ENDMDL
MODEL 5
REMARK VINA RESULT:    -3.811      1.220      1.728
REMARK INTER + INTRA:          -3.811
REMARK INTER:                  -3.811
REMARK INTRA:                   0.000
REMARK UNBOUND:                 0.000
REMARK SMILES C=C1CC[C@@H]2C[C@H]1C2(C)C
REMARK SMILES IDX 9 1 8 2 5 3 4 4 3 5 2 6 1 7 7 8 6 9 10 10
REMARK H PARENT
REMARK Flexibility Score: inf
ROOT
ATOM      1  C   UNL     1      28.301  24.307  12.158  1.00  0.00     0.012 C 
ATOM      2  C   UNL     1      29.344  25.412  11.838  1.00  0.00    -0.026 C 
ATOM      3  C   UNL     1      30.272  25.226  10.611  1.00  0.00    -0.004 C 
ATOM      4  C   UNL     1      30.676  23.727  10.435  1.00  0.00     0.008 C 
ATOM      5  C   UNL     1      31.247  23.094  11.761  1.00  0.00     0.031 C 
ATOM      6  C   UNL     1      31.118  24.042  12.962  1.00  0.00    -0.074 C 
ATOM      7  C   UNL     1      31.415  23.638  14.202  1.00  0.00     0.008 C 
ATOM      8  C   UNL     1      30.641  25.463  12.679  1.00  0.00     0.021 C 
ATOM      9  C   UNL     1      31.402  25.892  11.414  1.00  0.00     0.012 C 
ATOM     10  C   UNL     1      28.615  26.779  11.812  1.00  0.00     0.012 C 
ENDROOT
TORSDOF 0
ENDMDL
MODEL 6
REMARK VINA RESULT:    -3.791      0.976      3.238
REMARK INTER + INTRA:          -3.791
REMARK INTER:                  -3.791
REMARK INTRA:                   0.000
REMARK UNBOUND:                 0.000
REMARK SMILES C=C1CC[C@@H]2C[C@H]1C2(C)C
REMARK SMILES IDX 9 1 8 2 5 3 4 4 3 5 2 6 1 7 7 8 6 9 10 10
REMARK H PARENT
REMARK Flexibility Score: inf
ROOT
ATOM      1  C   UNL     1      31.048  22.984  10.734  1.00  0.00     0.012 C 
ATOM      2  C   UNL     1      31.075  24.493  11.099  1.00  0.00    -0.026 C 
ATOM      3  C   UNL     1      31.517  24.904  12.527  1.00  0.00    -0.004 C 
ATOM      4  C   UNL     1      31.015  23.874  13.589  1.00  0.00     0.008 C 
ATOM      5  C   UNL     1      29.472  23.581  13.465  1.00  0.00     0.031 C 
ATOM      6  C   UNL     1      28.849  24.243  12.227  1.00  0.00    -0.074 C 
ATOM      7  C   UNL     1      27.584  23.999  11.869  1.00  0.00     0.008 C 
ATOM      8  C   UNL     1      29.735  25.193  11.426  1.00  0.00     0.021 C 
ATOM      9  C   UNL     1      30.473  26.032  12.483  1.00  0.00     0.012 C 
ATOM     10  C   UNL     1      31.872  25.247  10.006  1.00  0.00     0.012 C 
ENDROOT
TORSDOF 0
ENDMDL
MODEL 7
REMARK VINA RESULT:    -3.743      1.231      2.868
REMARK INTER + INTRA:          -3.743
REMARK INTER:                  -3.743
REMARK INTRA:                   0.000
REMARK UNBOUND:                 0.000
REMARK SMILES C=C1CC[C@@H]2C[C@H]1C2(C)C
REMARK SMILES IDX 9 1 8 2 5 3 4 4 3 5 2 6 1 7 7 8 6 9 10 10
REMARK H PARENT
REMARK Flexibility Score: inf
ROOT
ATOM      1  C   UNL     1      30.313  26.597  12.211  1.00  0.00     0.012 C 
ATOM      2  C   UNL     1      30.797  25.469  11.259  1.00  0.00    -0.026 C 
ATOM      3  C   UNL     1      29.749  24.485  10.681  1.00  0.00    -0.004 C 
ATOM      4  C   UNL     1      28.637  24.167  11.731  1.00  0.00     0.008 C 
ATOM      5  C   UNL     1      29.228  23.716  13.120  1.00  0.00     0.031 C 
ATOM      6  C   UNL     1      30.757  23.854  13.177  1.00  0.00    -0.074 C 
ATOM      7  C   UNL     1      31.432  23.656  14.314  1.00  0.00     0.008 C 
ATOM      8  C   UNL     1      31.470  24.223  11.880  1.00  0.00     0.021 C 
ATOM      9  C   UNL     1      30.795  23.364  10.798  1.00  0.00     0.012 C 
ATOM     10  C   UNL     1      31.668  26.108  10.148  1.00  0.00     0.012 C 
ENDROOT
TORSDOF 0
ENDMDL
MODEL 8
REMARK VINA RESULT:    -3.705      1.409      3.046
REMARK INTER + INTRA:          -3.705
REMARK INTER:                  -3.705
REMARK INTRA:                   0.000
REMARK UNBOUND:                 0.000
REMARK SMILES C=C1CC[C@@H]2C[C@H]1C2(C)C
REMARK SMILES IDX 9 1 8 2 5 3 4 4 3 5 2 6 1 7 7 8 6 9 10 10
REMARK H PARENT
REMARK Flexibility Score: inf
ROOT
ATOM      1  C   UNL     1      31.314  22.925  10.750  1.00  0.00     0.012 C 
ATOM      2  C   UNL     1      31.314  22.720  12.289  1.00  0.00    -0.026 C 
ATOM      3  C   UNL     1      29.960  22.754  13.043  1.00  0.00    -0.004 C 
ATOM      4  C   UNL     1      28.995  23.811  12.418  1.00  0.00     0.008 C 
ATOM      5  C   UNL     1      29.668  25.228  12.264  1.00  0.00     0.031 C 
ATOM      6  C   UNL     1      31.166  25.203  12.605  1.00  0.00    -0.074 C 
ATOM      7  C   UNL     1      31.944  26.272  12.402  1.00  0.00     0.008 C 
ATOM      8  C   UNL     1      31.725  23.909  13.189  1.00  0.00     0.021 C 
ATOM      9  C   UNL     1      30.674  23.450  14.214  1.00  0.00     0.012 C 
ATOM     10  C   UNL     1      32.125  21.440  12.612  1.00  0.00     0.012 C 
ENDROOT
TORSDOF 0
ENDMDL
MODEL 9
REMARK VINA RESULT:    -3.699      1.701      3.228
REMARK INTER + INTRA:          -3.699
REMARK INTER:                  -3.699
REMARK INTRA:                   0.000
REMARK UNBOUND:                 0.000
REMARK SMILES C=C1CC[C@@H]2C[C@H]1C2(C)C
REMARK SMILES IDX 9 1 8 2 5 3 4 4 3 5 2 6 1 7 7 8 6 9 10 10
REMARK H PARENT
REMARK Flexibility Score: inf
ROOT
ATOM      1  C   UNL     1      30.079  24.696  12.637  1.00  0.00     0.012 C 
ATOM      2  C   UNL     1      30.714  25.186  11.307  1.00  0.00    -0.026 C 
ATOM      3  C   UNL     1      31.973  26.087  11.373  1.00  0.00    -0.004 C 
ATOM      4  C   UNL     1      31.898  27.069  12.585  1.00  0.00     0.008 C 
ATOM      5  C   UNL     1      30.543  27.872  12.631  1.00  0.00     0.031 C 
ATOM      6  C   UNL     1      29.540  27.385  11.574  1.00  0.00    -0.074 C 
ATOM      7  C   UNL     1      28.284  27.843  11.543  1.00  0.00     0.008 C 
ATOM      8  C   UNL     1      30.041  26.361  10.560  1.00  0.00     0.021 C 
ATOM      9  C   UNL     1      31.438  26.856  10.153  1.00  0.00     0.012 C 
ATOM     10  C   UNL     1      30.928  23.958  10.386  1.00  0.00     0.012 C 
ENDROOT
TORSDOF 0
ENDMDL
