MODEL 1
REMARK VINA RESULT:    -6.110      0.000      0.000
REMARK INTER + INTRA:         -12.245
REMARK INTER:                 -11.468
REMARK INTRA:                  -0.777
REMARK UNBOUND:                -0.777
REMARK SMILES CCCCCCCCC=CCCCCCCCC(=O)[O-]
REMARK SMILES IDX 10 1 9 2 11 3 12 4 13 5 14 6 15 7 16 8 17 9 18 10 19 11
REMARK SMILES IDX 20 12 8 13 7 14 6 15 5 16 4 17 3 18 2 19 1 20
REMARK H PARENT
REMARK Flexibility Score: inf
ROOT
ATOM      1  C   UNL     1      23.584   0.040 -16.065  1.00  0.00    -0.031 C 
ATOM      2  C   UNL     1      24.748  -0.619 -15.907  1.00  0.00    -0.031 C 
ENDROOT
BRANCH   1   3
ATOM      3  C   UNL     1      23.352   1.140 -17.070  1.00  0.00     0.027 C 
BRANCH   3   4
ATOM      4  C   UNL     1      22.423   2.214 -16.485  1.00  0.00     0.004 C 
BRANCH   4   5
ATOM      5  C   UNL     1      21.115   1.627 -15.929  1.00  0.00     0.000 C 
BRANCH   5   6
ATOM      6  C   UNL     1      19.927   1.826 -16.886  1.00  0.00     0.000 C 
BRANCH   6   7
ATOM      7  C   UNL     1      18.573   1.819 -16.157  1.00  0.00     0.000 C 
BRANCH   7   8
ATOM      8  C   UNL     1      18.437   0.652 -15.167  1.00  0.00     0.006 C 
BRANCH   8   9
ATOM      9  C   UNL     1      17.435  -0.386 -15.679  1.00  0.00     0.053 C 
BRANCH   9  10
ATOM     10  C   UNL     1      16.201   0.283 -16.195  1.00  0.00     0.041 C 
ATOM     11  O   UNL     1      15.930   0.248 -17.424  1.00  0.00    -0.550 OA
ATOM     12  O   UNL     1      15.325   0.901 -15.313  1.00  0.00    -0.550 OA
ENDBRANCH   9  10
ENDBRANCH   8   9
ENDBRANCH   7   8
ENDBRANCH   6   7
ENDBRANCH   5   6
ENDBRANCH   4   5
ENDBRANCH   3   4
ENDBRANCH   1   3
BRANCH   2  13
ATOM     13  C   UNL     1      25.971  -0.415 -16.768  1.00  0.00     0.027 C 
BRANCH  13  14
ATOM     14  C   UNL     1      27.282  -0.584 -15.976  1.00  0.00     0.004 C 
BRANCH  14  15
ATOM     15  C   UNL     1      28.447  -1.138 -16.816  1.00  0.00     0.000 C 
BRANCH  15  16
ATOM     16  C   UNL     1      29.754  -1.255 -16.020  1.00  0.00     0.000 C 
BRANCH  16  17
ATOM     17  C   UNL     1      30.045   0.038 -15.244  1.00  0.00    -0.000 C 
BRANCH  17  18
ATOM     18  C   UNL     1      31.073   0.934 -15.952  1.00  0.00    -0.000 C 
BRANCH  18  19
ATOM     19  C   UNL     1      32.204   0.131 -16.613  1.00  0.00    -0.003 C 
ATOM     20  C   UNL     1      33.292  -0.219 -15.603  1.00  0.00     0.004 C 
ENDBRANCH  18  19
ENDBRANCH  17  18
ENDBRANCH  16  17
ENDBRANCH  15  16
ENDBRANCH  14  15
ENDBRANCH  13  14
ENDBRANCH   2  13
TORSDOF 15
ENDMDL
MODEL 2
REMARK VINA RESULT:    -6.079     11.570     14.455
REMARK INTER + INTRA:         -12.188
REMARK INTER:                 -11.130
REMARK INTRA:                  -1.057
REMARK UNBOUND:                -0.777
REMARK SMILES CCCCCCCCC=CCCCCCCCC(=O)[O-]
REMARK SMILES IDX 10 1 9 2 11 3 12 4 13 5 14 6 15 7 16 8 17 9 18 10 19 11
REMARK SMILES IDX 20 12 8 13 7 14 6 15 5 16 4 17 3 18 2 19 1 20
REMARK H PARENT
REMARK Flexibility Score: inf
ROOT
ATOM      1  C   UNL     1      23.855   2.227 -25.972  1.00  0.00    -0.031 C 
ATOM      2  C   UNL     1      23.660   0.898 -26.061  1.00  0.00    -0.031 C 
ENDROOT
BRANCH   1   3
ATOM      3  C   UNL     1      25.007   2.968 -26.603  1.00  0.00     0.027 C 
BRANCH   3   4
ATOM      4  C   UNL     1      25.845   3.676 -25.528  1.00  0.00     0.004 C 
BRANCH   4   5
ATOM      5  C   UNL     1      27.283   3.963 -25.992  1.00  0.00     0.000 C 
BRANCH   5   6
ATOM      6  C   UNL     1      27.427   3.916 -27.523  1.00  0.00     0.000 C 
BRANCH   6   7
ATOM      7  C   UNL     1      28.896   3.894 -27.977  1.00  0.00     0.000 C 
BRANCH   7   8
ATOM      8  C   UNL     1      29.871   3.608 -26.825  1.00  0.00     0.006 C 
BRANCH   8   9
ATOM      9  C   UNL     1      31.103   4.513 -26.913  1.00  0.00     0.053 C 
BRANCH   9  10
ATOM     10  C   UNL     1      31.075   5.547 -25.833  1.00  0.00     0.041 C 
ATOM     11  O   UNL     1      31.631   6.663 -26.011  1.00  0.00    -0.550 OA
ATOM     12  O   UNL     1      30.393   5.299 -24.649  1.00  0.00    -0.550 OA
ENDBRANCH   9  10
ENDBRANCH   8   9
ENDBRANCH   7   8
ENDBRANCH   6   7
ENDBRANCH   5   6
ENDBRANCH   4   5
ENDBRANCH   3   4
ENDBRANCH   1   3
BRANCH   2  13
ATOM     13  C   UNL     1      24.515  -0.041 -26.876  1.00  0.00     0.027 C 
BRANCH  13  14
ATOM     14  C   UNL     1      24.486  -1.484 -26.335  1.00  0.00     0.004 C 
BRANCH  14  15
ATOM     15  C   UNL     1      23.184  -1.844 -25.597  1.00  0.00     0.000 C 
BRANCH  15  16
ATOM     16  C   UNL     1      22.943  -3.357 -25.516  1.00  0.00     0.000 C 
BRANCH  16  17
ATOM     17  C   UNL     1      21.580  -3.732 -26.116  1.00  0.00    -0.000 C 
BRANCH  17  18
ATOM     18  C   UNL     1      21.329  -3.065 -27.477  1.00  0.00    -0.000 C 
BRANCH  18  19
ATOM     19  C   UNL     1      20.014  -3.521 -28.127  1.00  0.00    -0.003 C 
ATOM     20  C   UNL     1      19.087  -4.161 -27.098  1.00  0.00     0.004 C 
ENDBRANCH  18  19
ENDBRANCH  17  18
ENDBRANCH  16  17
ENDBRANCH  15  16
ENDBRANCH  14  15
ENDBRANCH  13  14
ENDBRANCH   2  13
TORSDOF 15
ENDMDL
MODEL 3
REMARK VINA RESULT:    -6.043     11.794     14.809
REMARK INTER + INTRA:         -12.120
REMARK INTER:                 -11.111
REMARK INTRA:                  -1.010
REMARK UNBOUND:                -0.777
REMARK SMILES CCCCCCCCC=CCCCCCCCC(=O)[O-]
REMARK SMILES IDX 10 1 9 2 11 3 12 4 13 5 14 6 15 7 16 8 17 9 18 10 19 11
REMARK SMILES IDX 20 12 8 13 7 14 6 15 5 16 4 17 3 18 2 19 1 20
REMARK H PARENT
REMARK Flexibility Score: inf
ROOT
ATOM      1  C   UNL     1      24.763  -0.379 -26.522  1.00  0.00    -0.031 C 
ATOM      2  C   UNL     1      24.285  -1.555 -26.972  1.00  0.00    -0.031 C 
ENDROOT
BRANCH   1   3
ATOM      3  C   UNL     1      23.911   0.742 -25.981  1.00  0.00     0.027 C 
BRANCH   3   4
ATOM      4  C   UNL     1      23.857   1.907 -26.981  1.00  0.00     0.004 C 
BRANCH   4   5
ATOM      5  C   UNL     1      25.189   2.670 -27.073  1.00  0.00     0.000 C 
BRANCH   5   6
ATOM      6  C   UNL     1      25.509   3.452 -25.788  1.00  0.00     0.000 C 
BRANCH   6   7
ATOM      7  C   UNL     1      26.987   3.867 -25.702  1.00  0.00     0.000 C 
BRANCH   7   8
ATOM      8  C   UNL     1      27.512   4.473 -27.013  1.00  0.00     0.006 C 
BRANCH   8   9
ATOM      9  C   UNL     1      28.751   3.720 -27.506  1.00  0.00     0.053 C 
BRANCH   9  10
ATOM     10  C   UNL     1      29.999   4.420 -27.073  1.00  0.00     0.041 C 
ATOM     11  O   UNL     1      29.987   5.661 -26.860  1.00  0.00    -0.550 OA
ATOM     12  O   UNL     1      31.164   3.695 -26.855  1.00  0.00    -0.550 OA
ENDBRANCH   9  10
ENDBRANCH   8   9
ENDBRANCH   7   8
ENDBRANCH   6   7
ENDBRANCH   5   6
ENDBRANCH   4   5
ENDBRANCH   3   4
ENDBRANCH   1   3
BRANCH   2  13
ATOM     13  C   UNL     1      22.833  -1.963 -26.925  1.00  0.00     0.027 C 
BRANCH  13  14
ATOM     14  C   UNL     1      22.622  -3.299 -26.185  1.00  0.00     0.004 C 
BRANCH  14  15
ATOM     15  C   UNL     1      21.317  -4.020 -26.567  1.00  0.00     0.000 C 
BRANCH  15  16
ATOM     16  C   UNL     1      20.648  -3.424 -27.812  1.00  0.00     0.000 C 
BRANCH  16  17
ATOM     17  C   UNL     1      19.190  -3.893 -27.933  1.00  0.00    -0.000 C 
BRANCH  17  18
ATOM     18  C   UNL     1      18.351  -3.543 -26.695  1.00  0.00    -0.000 C 
BRANCH  18  19
ATOM     19  C   UNL     1      17.146  -4.477 -26.512  1.00  0.00    -0.003 C 
ATOM     20  C   UNL     1      17.431  -5.860 -27.088  1.00  0.00     0.004 C 
ENDBRANCH  18  19
ENDBRANCH  17  18
ENDBRANCH  16  17
ENDBRANCH  15  16
ENDBRANCH  14  15
ENDBRANCH  13  14
ENDBRANCH   2  13
TORSDOF 15
ENDMDL
MODEL 4
REMARK VINA RESULT:    -5.973     10.947     11.626
REMARK INTER + INTRA:         -11.988
REMARK INTER:                 -11.279
REMARK INTRA:                  -0.709
REMARK UNBOUND:                -0.777
REMARK SMILES CCCCCCCCC=CCCCCCCCC(=O)[O-]
REMARK SMILES IDX 10 1 9 2 11 3 12 4 13 5 14 6 15 7 16 8 17 9 18 10 19 11
REMARK SMILES IDX 20 12 8 13 7 14 6 15 5 16 4 17 3 18 2 19 1 20
REMARK H PARENT
REMARK Flexibility Score: inf
ROOT
ATOM      1  C   UNL     1      23.612   0.203 -26.813  1.00  0.00    -0.031 C 
ATOM      2  C   UNL     1      24.051   1.473 -26.898  1.00  0.00    -0.031 C 
ENDROOT
BRANCH   1   3
ATOM      3  C   UNL     1      24.471  -0.977 -26.433  1.00  0.00     0.027 C 
BRANCH   3   4
ATOM      4  C   UNL     1      23.599  -2.139 -25.937  1.00  0.00     0.004 C 
BRANCH   4   5
ATOM      5  C   UNL     1      22.770  -2.780 -27.062  1.00  0.00     0.000 C 
BRANCH   5   6
ATOM      6  C   UNL     1      21.475  -3.428 -26.543  1.00  0.00     0.000 C 
BRANCH   6   7
ATOM      7  C   UNL     1      20.433  -3.637 -27.654  1.00  0.00     0.000 C 
BRANCH   7   8
ATOM      8  C   UNL     1      18.990  -3.449 -27.161  1.00  0.00     0.006 C 
BRANCH   8   9
ATOM      9  C   UNL     1      18.111  -4.632 -27.578  1.00  0.00     0.053 C 
BRANCH   9  10
ATOM     10  C   UNL     1      17.435  -5.232 -26.386  1.00  0.00     0.041 C 
ATOM     11  O   UNL     1      17.640  -4.757 -25.238  1.00  0.00    -0.550 OA
ATOM     12  O   UNL     1      16.542  -6.282 -26.548  1.00  0.00    -0.550 OA
ENDBRANCH   9  10
ENDBRANCH   8   9
ENDBRANCH   7   8
ENDBRANCH   6   7
ENDBRANCH   5   6
ENDBRANCH   4   5
ENDBRANCH   3   4
ENDBRANCH   1   3
BRANCH   2  13
ATOM     13  C   UNL     1      25.447   1.922 -26.543  1.00  0.00     0.027 C 
BRANCH  13  14
ATOM     14  C   UNL     1      25.638   3.442 -26.711  1.00  0.00     0.004 C 
BRANCH  14  15
ATOM     15  C   UNL     1      26.739   4.034 -25.813  1.00  0.00     0.000 C 
BRANCH  15  16
ATOM     16  C   UNL     1      27.802   4.808 -26.604  1.00  0.00     0.000 C 
BRANCH  16  17
ATOM     17  C   UNL     1      28.489   3.902 -27.637  1.00  0.00    -0.000 C 
BRANCH  17  18
ATOM     18  C   UNL     1      30.003   4.148 -27.726  1.00  0.00    -0.000 C 
BRANCH  18  19
ATOM     19  C   UNL     1      30.609   4.601 -26.389  1.00  0.00    -0.003 C 
ATOM     20  C   UNL     1      31.341   5.931 -26.541  1.00  0.00     0.004 C 
ENDBRANCH  18  19
ENDBRANCH  17  18
ENDBRANCH  16  17
ENDBRANCH  15  16
ENDBRANCH  14  15
ENDBRANCH  13  14
ENDBRANCH   2  13
TORSDOF 15
ENDMDL
MODEL 5
REMARK VINA RESULT:    -5.923     11.287     14.182
REMARK INTER + INTRA:         -11.895
REMARK INTER:                 -10.785
REMARK INTRA:                  -1.110
REMARK UNBOUND:                -0.777
REMARK SMILES CCCCCCCCC=CCCCCCCCC(=O)[O-]
REMARK SMILES IDX 10 1 9 2 11 3 12 4 13 5 14 6 15 7 16 8 17 9 18 10 19 11
REMARK SMILES IDX 20 12 8 13 7 14 6 15 5 16 4 17 3 18 2 19 1 20
REMARK H PARENT
REMARK Flexibility Score: inf
ROOT
ATOM      1  C   UNL     1      24.789   3.610 -24.202  1.00  0.00    -0.031 C 
ATOM      2  C   UNL     1      24.284   2.430 -23.794  1.00  0.00    -0.031 C 
ENDROOT
BRANCH   1   3
ATOM      3  C   UNL     1      25.971   3.763 -25.127  1.00  0.00     0.027 C 
BRANCH   3   4
ATOM      4  C   UNL     1      25.539   3.568 -26.588  1.00  0.00     0.004 C 
BRANCH   4   5
ATOM      5  C   UNL     1      26.634   2.914 -27.447  1.00  0.00     0.000 C 
BRANCH   5   6
ATOM      6  C   UNL     1      27.600   3.947 -28.054  1.00  0.00     0.000 C 
BRANCH   6   7
ATOM      7  C   UNL     1      29.061   3.702 -27.643  1.00  0.00     0.000 C 
BRANCH   7   8
ATOM      8  C   UNL     1      29.821   5.002 -27.341  1.00  0.00     0.006 C 
BRANCH   8   9
ATOM      9  C   UNL     1      31.124   4.713 -26.590  1.00  0.00     0.053 C 
BRANCH   9  10
ATOM     10  C   UNL     1      31.342   5.721 -25.507  1.00  0.00     0.041 C 
ATOM     11  O   UNL     1      30.921   5.497 -24.341  1.00  0.00    -0.550 OA
ATOM     12  O   UNL     1      32.053   6.884 -25.771  1.00  0.00    -0.550 OA
ENDBRANCH   9  10
ENDBRANCH   8   9
ENDBRANCH   7   8
ENDBRANCH   6   7
ENDBRANCH   5   6
ENDBRANCH   4   5
ENDBRANCH   3   4
ENDBRANCH   1   3
BRANCH   2  13
ATOM     13  C   UNL     1      24.770   1.082 -24.267  1.00  0.00     0.027 C 
BRANCH  13  14
ATOM     14  C   UNL     1      23.819   0.443 -25.299  1.00  0.00     0.004 C 
BRANCH  14  15
ATOM     15  C   UNL     1      24.505   0.066 -26.624  1.00  0.00     0.000 C 
BRANCH  15  16
ATOM     16  C   UNL     1      24.227  -1.382 -27.049  1.00  0.00     0.000 C 
BRANCH  16  17
ATOM     17  C   UNL     1      22.763  -1.763 -26.782  1.00  0.00    -0.000 C 
BRANCH  17  18
ATOM     18  C   UNL     1      22.580  -3.268 -26.534  1.00  0.00    -0.000 C 
BRANCH  18  19
ATOM     19  C   UNL     1      21.114  -3.713 -26.647  1.00  0.00    -0.003 C 
ATOM     20  C   UNL     1      20.487  -3.213 -27.944  1.00  0.00     0.004 C 
ENDBRANCH  18  19
ENDBRANCH  17  18
ENDBRANCH  16  17
ENDBRANCH  15  16
ENDBRANCH  14  15
ENDBRANCH  13  14
ENDBRANCH   2  13
TORSDOF 15
ENDMDL
MODEL 6
REMARK VINA RESULT:    -5.822     10.358     11.362
REMARK INTER + INTRA:         -11.705
REMARK INTER:                 -10.589
REMARK INTRA:                  -1.116
REMARK UNBOUND:                -0.777
REMARK SMILES CCCCCCCCC=CCCCCCCCC(=O)[O-]
REMARK SMILES IDX 10 1 9 2 11 3 12 4 13 5 14 6 15 7 16 8 17 9 18 10 19 11
REMARK SMILES IDX 20 12 8 13 7 14 6 15 5 16 4 17 3 18 2 19 1 20
REMARK H PARENT
REMARK Flexibility Score: inf
ROOT
ATOM      1  C   UNL     1      24.341   2.923 -24.259  1.00  0.00    -0.031 C 
ATOM      2  C   UNL     1      25.407   3.514 -24.831  1.00  0.00    -0.031 C 
ENDROOT
BRANCH   1   3
ATOM      3  C   UNL     1      23.239   2.226 -25.016  1.00  0.00     0.027 C 
BRANCH   3   4
ATOM      4  C   UNL     1      23.543   0.727 -25.151  1.00  0.00     0.004 C 
BRANCH   4   5
ATOM      5  C   UNL     1      23.901   0.322 -26.591  1.00  0.00     0.000 C 
BRANCH   5   6
ATOM      6  C   UNL     1      24.283  -1.164 -26.707  1.00  0.00     0.000 C 
BRANCH   6   7
ATOM      7  C   UNL     1      23.438  -2.064 -25.790  1.00  0.00     0.000 C 
BRANCH   7   8
ATOM      8  C   UNL     1      22.802  -3.246 -26.538  1.00  0.00     0.006 C 
BRANCH   8   9
ATOM      9  C   UNL     1      21.475  -2.835 -27.182  1.00  0.00     0.053 C 
BRANCH   9  10
ATOM     10  C   UNL     1      20.473  -3.940 -27.071  1.00  0.00     0.041 C 
ATOM     11  O   UNL     1      19.701  -4.192 -28.033  1.00  0.00    -0.550 OA
ATOM     12  O   UNL     1      20.424  -4.723 -25.926  1.00  0.00    -0.550 OA
ENDBRANCH   9  10
ENDBRANCH   8   9
ENDBRANCH   7   8
ENDBRANCH   6   7
ENDBRANCH   5   6
ENDBRANCH   4   5
ENDBRANCH   3   4
ENDBRANCH   1   3
BRANCH   2  13
ATOM     13  C   UNL     1      25.704   3.496 -26.311  1.00  0.00     0.027 C 
BRANCH  13  14
ATOM     14  C   UNL     1      27.140   3.959 -26.628  1.00  0.00     0.004 C 
BRANCH  14  15
ATOM     15  C   UNL     1      27.631   3.543 -28.026  1.00  0.00     0.000 C 
BRANCH  15  16
ATOM     16  C   UNL     1      29.026   4.091 -28.356  1.00  0.00     0.000 C 
BRANCH  16  17
ATOM     17  C   UNL     1      29.974   3.946 -27.157  1.00  0.00    -0.000 C 
BRANCH  17  18
ATOM     18  C   UNL     1      30.941   5.132 -27.020  1.00  0.00    -0.000 C 
BRANCH  18  19
ATOM     19  C   UNL     1      31.163   5.550 -25.559  1.00  0.00    -0.003 C 
ATOM     20  C   UNL     1      30.058   5.006 -24.658  1.00  0.00     0.004 C 
ENDBRANCH  18  19
ENDBRANCH  17  18
ENDBRANCH  16  17
ENDBRANCH  15  16
ENDBRANCH  14  15
ENDBRANCH  13  14
ENDBRANCH   2  13
TORSDOF 15
ENDMDL
MODEL 7
REMARK VINA RESULT:    -5.814      4.645      7.192
REMARK INTER + INTRA:         -11.690
REMARK INTER:                  -9.909
REMARK INTRA:                  -1.782
REMARK UNBOUND:                -0.777
REMARK SMILES CCCCCCCCC=CCCCCCCCC(=O)[O-]
REMARK SMILES IDX 10 1 9 2 11 3 12 4 13 5 14 6 15 7 16 8 17 9 18 10 19 11
REMARK SMILES IDX 20 12 8 13 7 14 6 15 5 16 4 17 3 18 2 19 1 20
REMARK H PARENT
REMARK Flexibility Score: inf
ROOT
ATOM      1  C   UNL     1      16.975   0.374 -15.388  1.00  0.00    -0.031 C 
ATOM      2  C   UNL     1      17.987   1.009 -14.765  1.00  0.00    -0.031 C 
ENDROOT
BRANCH   1   3
ATOM      3  C   UNL     1      17.143  -0.573 -16.549  1.00  0.00     0.027 C 
BRANCH   3   4
ATOM      4  C   UNL     1      16.844   0.142 -17.875  1.00  0.00     0.004 C 
BRANCH   4   5
ATOM      5  C   UNL     1      18.087   0.275 -18.770  1.00  0.00     0.000 C 
BRANCH   5   6
ATOM      6  C   UNL     1      18.283   1.707 -19.297  1.00  0.00     0.000 C 
BRANCH   6   7
ATOM      7  C   UNL     1      19.607   1.880 -20.058  1.00  0.00     0.000 C 
BRANCH   7   8
ATOM      8  C   UNL     1      19.728   3.253 -20.737  1.00  0.00     0.006 C 
BRANCH   8   9
ATOM      9  C   UNL     1      20.968   4.002 -20.241  1.00  0.00     0.053 C 
BRANCH   9  10
ATOM     10  C   UNL     1      21.985   4.117 -21.331  1.00  0.00     0.041 C 
ATOM     11  O   UNL     1      22.597   5.202 -21.514  1.00  0.00    -0.550 OA
ATOM     12  O   UNL     1      22.293   3.012 -22.114  1.00  0.00    -0.550 OA
ENDBRANCH   9  10
ENDBRANCH   8   9
ENDBRANCH   7   8
ENDBRANCH   6   7
ENDBRANCH   5   6
ENDBRANCH   4   5
ENDBRANCH   3   4
ENDBRANCH   1   3
BRANCH   2  13
ATOM     13  C   UNL     1      19.448   0.802 -15.079  1.00  0.00     0.027 C 
BRANCH  13  14
ATOM     14  C   UNL     1      20.016   1.905 -15.993  1.00  0.00     0.004 C 
BRANCH  14  15
ATOM     15  C   UNL     1      21.317   1.507 -16.713  1.00  0.00     0.000 C 
BRANCH  15  16
ATOM     16  C   UNL     1      22.577   1.973 -15.971  1.00  0.00     0.000 C 
BRANCH  16  17
ATOM     17  C   UNL     1      23.832   1.289 -16.533  1.00  0.00    -0.000 C 
BRANCH  17  18
ATOM     18  C   UNL     1      24.083  -0.092 -15.909  1.00  0.00    -0.000 C 
BRANCH  18  19
ATOM     19  C   UNL     1      24.797  -1.055 -16.869  1.00  0.00    -0.003 C 
ATOM     20  C   UNL     1      24.095  -1.101 -18.223  1.00  0.00     0.004 C 
ENDBRANCH  18  19
ENDBRANCH  17  18
ENDBRANCH  16  17
ENDBRANCH  15  16
ENDBRANCH  14  15
ENDBRANCH  13  14
ENDBRANCH   2  13
TORSDOF 15
ENDMDL
MODEL 8
REMARK VINA RESULT:    -5.806     10.446     13.495
REMARK INTER + INTRA:         -11.675
REMARK INTER:                 -10.748
REMARK INTRA:                  -0.927
REMARK UNBOUND:                -0.777
REMARK SMILES CCCCCCCCC=CCCCCCCCC(=O)[O-]
REMARK SMILES IDX 10 1 9 2 11 3 12 4 13 5 14 6 15 7 16 8 17 9 18 10 19 11
REMARK SMILES IDX 20 12 8 13 7 14 6 15 5 16 4 17 3 18 2 19 1 20
REMARK H PARENT
REMARK Flexibility Score: inf
ROOT
ATOM      1  C   UNL     1      24.363  -0.690 -27.043  1.00  0.00    -0.031 C 
ATOM      2  C   UNL     1      23.940  -1.948 -26.813  1.00  0.00    -0.031 C 
ENDROOT
BRANCH   1   3
ATOM      3  C   UNL     1      23.789   0.540 -26.386  1.00  0.00     0.027 C 
BRANCH   3   4
ATOM      4  C   UNL     1      24.054   1.783 -27.249  1.00  0.00     0.004 C 
BRANCH   4   5
ATOM      5  C   UNL     1      25.388   2.466 -26.910  1.00  0.00     0.000 C 
BRANCH   5   6
ATOM      6  C   UNL     1      25.235   3.553 -25.831  1.00  0.00     0.000 C 
BRANCH   6   7
ATOM      7  C   UNL     1      25.783   3.110 -24.465  1.00  0.00     0.000 C 
BRANCH   7   8
ATOM      8  C   UNL     1      24.973   3.673 -23.287  1.00  0.00     0.006 C 
BRANCH   8   9
ATOM      9  C   UNL     1      25.855   3.842 -22.047  1.00  0.00     0.053 C 
BRANCH   9  10
ATOM     10  C   UNL     1      26.676   5.088 -22.152  1.00  0.00     0.041 C 
ATOM     11  O   UNL     1      27.916   5.012 -22.361  1.00  0.00    -0.550 OA
ATOM     12  O   UNL     1      26.067   6.332 -22.068  1.00  0.00    -0.550 OA
ENDBRANCH   9  10
ENDBRANCH   8   9
ENDBRANCH   7   8
ENDBRANCH   6   7
ENDBRANCH   5   6
ENDBRANCH   4   5
ENDBRANCH   3   4
ENDBRANCH   1   3
BRANCH   2  13
ATOM     13  C   UNL     1      22.887  -2.325 -25.800  1.00  0.00     0.027 C 
BRANCH  13  14
ATOM     14  C   UNL     1      21.922  -3.405 -26.329  1.00  0.00     0.004 C 
BRANCH  14  15
ATOM     15  C   UNL     1      21.381  -3.116 -27.741  1.00  0.00     0.000 C 
BRANCH  15  16
ATOM     16  C   UNL     1      19.946  -3.621 -27.945  1.00  0.00     0.000 C 
BRANCH  16  17
ATOM     17  C   UNL     1      19.224  -3.788 -26.600  1.00  0.00    -0.000 C 
BRANCH  17  18
ATOM     18  C   UNL     1      17.695  -3.817 -26.749  1.00  0.00    -0.000 C 
BRANCH  18  19
ATOM     19  C   UNL     1      17.072  -5.117 -26.218  1.00  0.00    -0.003 C 
ATOM     20  C   UNL     1      16.948  -6.159 -27.326  1.00  0.00     0.004 C 
ENDBRANCH  18  19
ENDBRANCH  17  18
ENDBRANCH  16  17
ENDBRANCH  15  16
ENDBRANCH  14  15
ENDBRANCH  13  14
ENDBRANCH   2  13
TORSDOF 15
ENDMDL
MODEL 9
REMARK VINA RESULT:    -5.763      5.089     10.852
REMARK INTER + INTRA:         -11.595
REMARK INTER:                 -10.519
REMARK INTRA:                  -1.076
REMARK UNBOUND:                -0.777
REMARK SMILES CCCCCCCCC=CCCCCCCCC(=O)[O-]
REMARK SMILES IDX 10 1 9 2 11 3 12 4 13 5 14 6 15 7 16 8 17 9 18 10 19 11
REMARK SMILES IDX 20 12 8 13 7 14 6 15 5 16 4 17 3 18 2 19 1 20
REMARK H PARENT
REMARK Flexibility Score: inf
ROOT
ATOM      1  C   UNL     1      24.225   0.341 -17.426  1.00  0.00    -0.031 C 
ATOM      2  C   UNL     1      23.586   1.423 -17.909  1.00  0.00    -0.031 C 
ENDROOT
BRANCH   1   3
ATOM      3  C   UNL     1      24.520   0.100 -15.966  1.00  0.00     0.027 C 
BRANCH   3   4
ATOM      4  C   UNL     1      25.468  -1.097 -15.799  1.00  0.00     0.004 C 
BRANCH   4   5
ATOM      5  C   UNL     1      26.294  -1.379 -17.065  1.00  0.00     0.000 C 
BRANCH   5   6
ATOM      6  C   UNL     1      27.750  -0.898 -16.936  1.00  0.00     0.000 C 
BRANCH   6   7
ATOM      7  C   UNL     1      28.182  -0.710 -15.473  1.00  0.00     0.000 C 
BRANCH   7   8
ATOM      8  C   UNL     1      29.708  -0.735 -15.296  1.00  0.00     0.006 C 
BRANCH   8   9
ATOM      9  C   UNL     1      30.361   0.459 -15.998  1.00  0.00     0.053 C 
BRANCH   9  10
ATOM     10  C   UNL     1      31.364  -0.008 -17.005  1.00  0.00     0.041 C 
ATOM     11  O   UNL     1      32.581  -0.091 -16.694  1.00  0.00    -0.550 OA
ATOM     12  O   UNL     1      30.948  -0.398 -18.272  1.00  0.00    -0.550 OA
ENDBRANCH   9  10
ENDBRANCH   8   9
ENDBRANCH   7   8
ENDBRANCH   6   7
ENDBRANCH   5   6
ENDBRANCH   4   5
ENDBRANCH   3   4
ENDBRANCH   1   3
BRANCH   2  13
ATOM     13  C   UNL     1      22.993   2.519 -17.057  1.00  0.00     0.027 C 
BRANCH  13  14
ATOM     14  C   UNL     1      21.650   2.108 -16.422  1.00  0.00     0.004 C 
BRANCH  14  15
ATOM     15  C   UNL     1      20.495   1.994 -17.433  1.00  0.00     0.000 C 
BRANCH  15  16
ATOM     16  C   UNL     1      19.145   1.700 -16.766  1.00  0.00     0.000 C 
BRANCH  16  17
ATOM     17  C   UNL     1      19.314   1.472 -15.256  1.00  0.00    -0.000 C 
BRANCH  17  18
ATOM     18  C   UNL     1      18.209   0.583 -14.665  1.00  0.00    -0.000 C 
BRANCH  18  19
ATOM     19  C   UNL     1      17.468  -0.233 -15.735  1.00  0.00    -0.003 C 
ATOM     20  C   UNL     1      15.990   0.140 -15.784  1.00  0.00     0.004 C 
ENDBRANCH  18  19
ENDBRANCH  17  18
ENDBRANCH  16  17
ENDBRANCH  15  16
ENDBRANCH  14  15
ENDBRANCH  13  14
ENDBRANCH   2  13
TORSDOF 15
ENDMDL
