MODEL 1
REMARK VINA RESULT:    -3.055      0.000      0.000
REMARK INTER + INTRA:          -7.173
REMARK INTER:                  -5.197
REMARK INTRA:                  -1.975
REMARK UNBOUND:                -1.975
REMARK SMILES CCCCCCCCCCCCCC(=O)[O-]
REMARK SMILES IDX 8 1 9 2 10 3 11 4 12 5 13 6 14 7 15 8 16 9 7 10 6 11 5 12
REMARK SMILES IDX 4 13 3 14 2 15 1 16
REMARK H PARENT
REMARK Flexibility Score: inf
ROOT
ATOM      1  C   UNL     1      57.482  27.531  52.007  1.00  0.00     0.000 C 
ENDROOT
BRANCH   1   2
ATOM      2  C   UNL     1      57.733  28.908  51.374  1.00  0.00     0.000 C 
BRANCH   2   3
ATOM      3  C   UNL     1      57.602  28.844  49.847  1.00  0.00     0.000 C 
BRANCH   3   4
ATOM      4  C   UNL     1      58.813  29.494  49.163  1.00  0.00     0.000 C 
BRANCH   4   5
ATOM      5  C   UNL     1      60.143  29.169  49.869  1.00  0.00     0.006 C 
BRANCH   5   6
ATOM      6  C   UNL     1      60.878  27.943  49.303  1.00  0.00     0.053 C 
BRANCH   6   7
ATOM      7  C   UNL     1      60.556  26.694  50.063  1.00  0.00     0.041 C 
ATOM      8  O   UNL     1      59.836  25.802  49.540  1.00  0.00    -0.550 OA
ATOM      9  O   UNL     1      61.023  26.529  51.361  1.00  0.00    -0.550 OA
ENDBRANCH   6   7
ENDBRANCH   5   6
ENDBRANCH   4   5
ENDBRANCH   3   4
ENDBRANCH   2   3
ENDBRANCH   1   2
BRANCH   1  10
ATOM     10  C   UNL     1      56.771  26.561  51.050  1.00  0.00     0.000 C 
BRANCH  10  11
ATOM     11  C   UNL     1      55.491  25.963  51.659  1.00  0.00    -0.000 C 
BRANCH  11  12
ATOM     12  C   UNL     1      54.305  25.987  50.680  1.00  0.00    -0.000 C 
BRANCH  12  13
ATOM     13  C   UNL     1      54.431  27.104  49.630  1.00  0.00    -0.000 C 
BRANCH  13  14
ATOM     14  C   UNL     1      53.408  28.230  49.840  1.00  0.00    -0.000 C 
BRANCH  14  15
ATOM     15  C   UNL     1      54.052  29.523  50.362  1.00  0.00    -0.003 C 
ATOM     16  C   UNL     1      54.071  29.550  51.888  1.00  0.00     0.004 C 
ENDBRANCH  14  15
ENDBRANCH  13  14
ENDBRANCH  12  13
ENDBRANCH  11  12
ENDBRANCH  10  11
ENDBRANCH   1  10
TORSDOF 12
ENDMDL
MODEL 2
REMARK VINA RESULT:    -2.953     12.315     14.062
REMARK INTER + INTRA:          -7.000
REMARK INTER:                  -5.684
REMARK INTRA:                  -1.316
REMARK UNBOUND:                -1.975
REMARK SMILES CCCCCCCCCCCCCC(=O)[O-]
REMARK SMILES IDX 8 1 9 2 10 3 11 4 12 5 13 6 14 7 15 8 16 9 7 10 6 11 5 12
REMARK SMILES IDX 4 13 3 14 2 15 1 16
REMARK H PARENT
REMARK Flexibility Score: inf
ROOT
ATOM      1  C   UNL     1      61.535  30.700  61.732  1.00  0.00     0.000 C 
ENDROOT
BRANCH   1   2
ATOM      2  C   UNL     1      60.653  31.729  61.008  1.00  0.00     0.000 C 
BRANCH   2   3
ATOM      3  C   UNL     1      61.408  33.046  60.795  1.00  0.00     0.000 C 
BRANCH   3   4
ATOM      4  C   UNL     1      62.344  32.954  59.580  1.00  0.00     0.000 C 
BRANCH   4   5
ATOM      5  C   UNL     1      63.653  33.742  59.775  1.00  0.00     0.006 C 
BRANCH   5   6
ATOM      6  C   UNL     1      63.962  34.106  61.236  1.00  0.00     0.053 C 
BRANCH   6   7
ATOM      7  C   UNL     1      64.101  35.584  61.430  1.00  0.00     0.041 C 
ATOM      8  O   UNL     1      63.091  36.285  61.705  1.00  0.00    -0.550 OA
ATOM      9  O   UNL     1      65.339  36.194  61.274  1.00  0.00    -0.550 OA
ENDBRANCH   6   7
ENDBRANCH   5   6
ENDBRANCH   4   5
ENDBRANCH   3   4
ENDBRANCH   2   3
ENDBRANCH   1   2
BRANCH   1  10
ATOM     10  C   UNL     1      61.732  29.412  60.917  1.00  0.00     0.000 C 
BRANCH  10  11
ATOM     11  C   UNL     1      63.216  29.091  60.669  1.00  0.00    -0.000 C 
BRANCH  11  12
ATOM     12  C   UNL     1      64.145  30.244  61.085  1.00  0.00    -0.000 C 
BRANCH  12  13
ATOM     13  C   UNL     1      65.633  29.891  60.920  1.00  0.00    -0.000 C 
BRANCH  13  14
ATOM     14  C   UNL     1      65.872  28.378  60.806  1.00  0.00    -0.000 C 
BRANCH  14  15
ATOM     15  C   UNL     1      67.351  28.000  60.979  1.00  0.00    -0.003 C 
ATOM     16  C   UNL     1      68.091  29.043  61.812  1.00  0.00     0.004 C 
ENDBRANCH  14  15
ENDBRANCH  13  14
ENDBRANCH  12  13
ENDBRANCH  11  12
ENDBRANCH  10  11
ENDBRANCH   1  10
TORSDOF 12
ENDMDL
MODEL 3
REMARK VINA RESULT:    -2.947      1.822      3.318
REMARK INTER + INTRA:          -6.990
REMARK INTER:                  -5.593
REMARK INTRA:                  -1.398
REMARK UNBOUND:                -1.975
REMARK SMILES CCCCCCCCCCCCCC(=O)[O-]
REMARK SMILES IDX 8 1 9 2 10 3 11 4 12 5 13 6 14 7 15 8 16 9 7 10 6 11 5 12
REMARK SMILES IDX 4 13 3 14 2 15 1 16
REMARK H PARENT
REMARK Flexibility Score: inf
ROOT
ATOM      1  C   UNL     1      58.368  29.283  49.383  1.00  0.00     0.000 C 
ENDROOT
BRANCH   1   2
ATOM      2  C   UNL     1      59.650  28.464  49.172  1.00  0.00     0.000 C 
BRANCH   2   3
ATOM      3  C   UNL     1      59.382  26.965  49.360  1.00  0.00     0.000 C 
BRANCH   3   4
ATOM      4  C   UNL     1      60.612  26.256  49.946  1.00  0.00     0.000 C 
BRANCH   4   5
ATOM      5  C   UNL     1      60.296  25.493  51.247  1.00  0.00     0.006 C 
BRANCH   5   6
ATOM      6  C   UNL     1      59.207  26.145  52.114  1.00  0.00     0.053 C 
BRANCH   6   7
ATOM      7  C   UNL     1      58.014  25.255  52.280  1.00  0.00     0.041 C 
ATOM      8  O   UNL     1      58.134  24.006  52.167  1.00  0.00    -0.550 OA
ATOM      9  O   UNL     1      56.763  25.807  52.525  1.00  0.00    -0.550 OA
ENDBRANCH   6   7
ENDBRANCH   5   6
ENDBRANCH   4   5
ENDBRANCH   3   4
ENDBRANCH   2   3
ENDBRANCH   1   2
BRANCH   1  10
ATOM     10  C   UNL     1      57.271  28.488  50.108  1.00  0.00     0.000 C 
BRANCH  10  11
ATOM     11  C   UNL     1      56.751  29.209  51.364  1.00  0.00    -0.000 C 
BRANCH  11  12
ATOM     12  C   UNL     1      55.261  28.934  51.627  1.00  0.00    -0.000 C 
BRANCH  12  13
ATOM     13  C   UNL     1      54.353  29.494  50.519  1.00  0.00    -0.000 C 
BRANCH  13  14
ATOM     14  C   UNL     1      53.569  28.394  49.787  1.00  0.00    -0.000 C 
BRANCH  14  15
ATOM     15  C   UNL     1      53.847  26.994  50.354  1.00  0.00    -0.003 C 
ATOM     16  C   UNL     1      54.413  26.069  49.280  1.00  0.00     0.004 C 
ENDBRANCH  14  15
ENDBRANCH  13  14
ENDBRANCH  12  13
ENDBRANCH  11  12
ENDBRANCH  10  11
ENDBRANCH   1  10
TORSDOF 12
ENDMDL
MODEL 4
REMARK VINA RESULT:    -2.924     10.888     12.776
REMARK INTER + INTRA:          -6.950
REMARK INTER:                  -5.094
REMARK INTRA:                  -1.856
REMARK UNBOUND:                -1.975
REMARK SMILES CCCCCCCCCCCCCC(=O)[O-]
REMARK SMILES IDX 8 1 9 2 10 3 11 4 12 5 13 6 14 7 15 8 16 9 7 10 6 11 5 12
REMARK SMILES IDX 4 13 3 14 2 15 1 16
REMARK H PARENT
REMARK Flexibility Score: inf
ROOT
ATOM      1  C   UNL     1      64.008  29.797  60.640  1.00  0.00     0.000 C 
ENDROOT
BRANCH   1   2
ATOM      2  C   UNL     1      62.698  29.373  61.322  1.00  0.00     0.000 C 
BRANCH   2   3
ATOM      3  C   UNL     1      62.042  30.560  62.037  1.00  0.00     0.000 C 
BRANCH   3   4
ATOM      4  C   UNL     1      60.710  30.936  61.370  1.00  0.00     0.000 C 
BRANCH   4   5
ATOM      5  C   UNL     1      60.698  32.380  60.836  1.00  0.00     0.006 C 
BRANCH   5   6
ATOM      6  C   UNL     1      60.472  32.492  59.319  1.00  0.00     0.053 C 
BRANCH   6   7
ATOM      7  C   UNL     1      60.486  31.153  58.649  1.00  0.00     0.041 C 
ATOM      8  O   UNL     1      61.553  30.703  58.154  1.00  0.00    -0.550 OA
ATOM      9  O   UNL     1      59.313  30.416  58.541  1.00  0.00    -0.550 OA
ENDBRANCH   6   7
ENDBRANCH   5   6
ENDBRANCH   4   5
ENDBRANCH   3   4
ENDBRANCH   2   3
ENDBRANCH   1   2
BRANCH   1  10
ATOM     10  C   UNL     1      64.343  31.279  60.873  1.00  0.00     0.000 C 
BRANCH  10  11
ATOM     11  C   UNL     1      64.522  32.057  59.557  1.00  0.00    -0.000 C 
BRANCH  11  12
ATOM     12  C   UNL     1      64.119  33.535  59.689  1.00  0.00    -0.000 C 
BRANCH  12  13
ATOM     13  C   UNL     1      64.131  34.022  61.148  1.00  0.00    -0.000 C 
BRANCH  13  14
ATOM     14  C   UNL     1      63.279  35.284  61.357  1.00  0.00    -0.000 C 
BRANCH  14  15
ATOM     15  C   UNL     1      62.348  35.570  60.169  1.00  0.00    -0.003 C 
ATOM     16  C   UNL     1      61.245  36.549  60.560  1.00  0.00     0.004 C 
ENDBRANCH  14  15
ENDBRANCH  13  14
ENDBRANCH  12  13
ENDBRANCH  11  12
ENDBRANCH  10  11
ENDBRANCH   1  10
TORSDOF 12
ENDMDL
MODEL 5
REMARK VINA RESULT:    -2.896     11.253     13.048
REMARK INTER + INTRA:          -6.903
REMARK INTER:                  -5.535
REMARK INTRA:                  -1.367
REMARK UNBOUND:                -1.975
REMARK SMILES CCCCCCCCCCCCCC(=O)[O-]
REMARK SMILES IDX 8 1 9 2 10 3 11 4 12 5 13 6 14 7 15 8 16 9 7 10 6 11 5 12
REMARK SMILES IDX 4 13 3 14 2 15 1 16
REMARK H PARENT
REMARK Flexibility Score: inf
ROOT
ATOM      1  C   UNL     1      60.464  31.247  58.557  1.00  0.00     0.000 C 
ENDROOT
BRANCH   1   2
ATOM      2  C   UNL     1      61.065  30.213  59.521  1.00  0.00     0.000 C 
BRANCH   2   3
ATOM      3  C   UNL     1      60.438  30.332  60.916  1.00  0.00     0.000 C 
BRANCH   3   4
ATOM      4  C   UNL     1      61.512  30.603  61.980  1.00  0.00     0.000 C 
BRANCH   4   5
ATOM      5  C   UNL     1      62.892  30.043  61.591  1.00  0.00     0.006 C 
BRANCH   5   6
ATOM      6  C   UNL     1      63.990  31.110  61.444  1.00  0.00     0.053 C 
BRANCH   6   7
ATOM      7  C   UNL     1      64.923  30.804  60.313  1.00  0.00     0.041 C 
ATOM      8  O   UNL     1      64.633  31.156  59.140  1.00  0.00    -0.550 OA
ATOM      9  O   UNL     1      66.097  30.100  60.551  1.00  0.00    -0.550 OA
ENDBRANCH   6   7
ENDBRANCH   5   6
ENDBRANCH   4   5
ENDBRANCH   3   4
ENDBRANCH   2   3
ENDBRANCH   1   2
BRANCH   1  10
ATOM     10  C   UNL     1      60.409  32.658  59.163  1.00  0.00     0.000 C 
BRANCH  10  11
ATOM     11  C   UNL     1      61.797  33.317  59.251  1.00  0.00    -0.000 C 
BRANCH  11  12
ATOM     12  C   UNL     1      62.023  34.035  60.592  1.00  0.00    -0.000 C 
BRANCH  12  13
ATOM     13  C   UNL     1      61.849  35.559  60.482  1.00  0.00    -0.000 C 
BRANCH  13  14
ATOM     14  C   UNL     1      62.792  36.330  61.418  1.00  0.00    -0.000 C 
BRANCH  14  15
ATOM     15  C   UNL     1      64.110  35.584  61.673  1.00  0.00    -0.003 C 
ATOM     16  C   UNL     1      65.312  36.483  61.400  1.00  0.00     0.004 C 
ENDBRANCH  14  15
ENDBRANCH  13  14
ENDBRANCH  12  13
ENDBRANCH  11  12
ENDBRANCH  10  11
ENDBRANCH   1  10
TORSDOF 12
ENDMDL
MODEL 6
REMARK VINA RESULT:    -2.884     11.567     13.337
REMARK INTER + INTRA:          -6.882
REMARK INTER:                  -5.136
REMARK INTRA:                  -1.746
REMARK UNBOUND:                -1.975
REMARK SMILES CCCCCCCCCCCCCC(=O)[O-]
REMARK SMILES IDX 8 1 9 2 10 3 11 4 12 5 13 6 14 7 15 8 16 9 7 10 6 11 5 12
REMARK SMILES IDX 4 13 3 14 2 15 1 16
REMARK H PARENT
REMARK Flexibility Score: inf
ROOT
ATOM      1  C   UNL     1      61.213  29.754  61.006  1.00  0.00     0.000 C 
ENDROOT
BRANCH   1   2
ATOM      2  C   UNL     1      60.647  31.166  61.224  1.00  0.00     0.000 C 
BRANCH   2   3
ATOM      3  C   UNL     1      61.754  32.223  61.128  1.00  0.00     0.000 C 
BRANCH   3   4
ATOM      4  C   UNL     1      61.256  33.476  60.393  1.00  0.00     0.000 C 
BRANCH   4   5
ATOM      5  C   UNL     1      62.143  34.709  60.648  1.00  0.00     0.006 C 
BRANCH   5   6
ATOM      6  C   UNL     1      63.578  34.376  61.088  1.00  0.00     0.053 C 
BRANCH   6   7
ATOM      7  C   UNL     1      64.448  35.594  61.135  1.00  0.00     0.041 C 
ATOM      8  O   UNL     1      64.998  36.020  60.085  1.00  0.00    -0.550 OA
ATOM      9  O   UNL     1      64.680  36.238  62.344  1.00  0.00    -0.550 OA
ENDBRANCH   6   7
ENDBRANCH   5   6
ENDBRANCH   4   5
ENDBRANCH   3   4
ENDBRANCH   2   3
ENDBRANCH   1   2
BRANCH   1  10
ATOM     10  C   UNL     1      62.553  29.537  61.726  1.00  0.00     0.000 C 
BRANCH  10  11
ATOM     11  C   UNL     1      63.413  28.450  61.057  1.00  0.00    -0.000 C 
BRANCH  11  12
ATOM     12  C   UNL     1      64.759  28.993  60.552  1.00  0.00    -0.000 C 
BRANCH  12  13
ATOM     13  C   UNL     1      64.936  30.493  60.842  1.00  0.00    -0.000 C 
BRANCH  13  14
ATOM     14  C   UNL     1      64.963  31.342  59.562  1.00  0.00    -0.000 C 
BRANCH  14  15
ATOM     15  C   UNL     1      64.377  30.602  58.350  1.00  0.00    -0.003 C 
ATOM     16  C   UNL     1      63.002  31.153  57.983  1.00  0.00     0.004 C 
ENDBRANCH  14  15
ENDBRANCH  13  14
ENDBRANCH  12  13
ENDBRANCH  11  12
ENDBRANCH  10  11
ENDBRANCH   1  10
TORSDOF 12
ENDMDL
MODEL 7
REMARK VINA RESULT:    -2.881      1.636      2.157
REMARK INTER + INTRA:          -6.876
REMARK INTER:                  -5.350
REMARK INTRA:                  -1.527
REMARK UNBOUND:                -1.975
REMARK SMILES CCCCCCCCCCCCCC(=O)[O-]
REMARK SMILES IDX 8 1 9 2 10 3 11 4 12 5 13 6 14 7 15 8 16 9 7 10 6 11 5 12
REMARK SMILES IDX 4 13 3 14 2 15 1 16
REMARK H PARENT
REMARK Flexibility Score: inf
ROOT
ATOM      1  C   UNL     1      57.213  28.523  51.490  1.00  0.00     0.000 C 
ENDROOT
BRANCH   1   2
ATOM      2  C   UNL     1      57.397  29.032  50.052  1.00  0.00     0.000 C 
BRANCH   2   3
ATOM      3  C   UNL     1      58.863  29.390  49.779  1.00  0.00     0.000 C 
BRANCH   3   4
ATOM      4  C   UNL     1      59.550  28.298  48.946  1.00  0.00     0.000 C 
BRANCH   4   5
ATOM      5  C   UNL     1      60.538  27.452  49.771  1.00  0.00     0.006 C 
BRANCH   5   6
ATOM      6  C   UNL     1      62.017  27.703  49.438  1.00  0.00     0.053 C 
BRANCH   6   7
ATOM      7  C   UNL     1      62.577  28.863  50.202  1.00  0.00     0.041 C 
ATOM      8  O   UNL     1      63.102  28.683  51.333  1.00  0.00    -0.550 OA
ATOM      9  O   UNL     1      62.489  30.147  49.680  1.00  0.00    -0.550 OA
ENDBRANCH   6   7
ENDBRANCH   5   6
ENDBRANCH   4   5
ENDBRANCH   3   4
ENDBRANCH   2   3
ENDBRANCH   1   2
BRANCH   1  10
ATOM     10  C   UNL     1      56.659  27.091  51.544  1.00  0.00     0.000 C 
BRANCH  10  11
ATOM     11  C   UNL     1      56.532  26.454  50.149  1.00  0.00    -0.000 C 
BRANCH  11  12
ATOM     12  C   UNL     1      55.068  26.288  49.709  1.00  0.00    -0.000 C 
BRANCH  12  13
ATOM     13  C   UNL     1      54.089  26.317  50.896  1.00  0.00    -0.000 C 
BRANCH  13  14
ATOM     14  C   UNL     1      52.974  27.359  50.716  1.00  0.00    -0.000 C 
BRANCH  14  15
ATOM     15  C   UNL     1      53.370  28.485  49.749  1.00  0.00    -0.003 C 
ATOM     16  C   UNL     1      53.782  29.742  50.509  1.00  0.00     0.004 C 
ENDBRANCH  14  15
ENDBRANCH  13  14
ENDBRANCH  12  13
ENDBRANCH  11  12
ENDBRANCH  10  11
ENDBRANCH   1  10
TORSDOF 12
ENDMDL
MODEL 8
REMARK VINA RESULT:    -2.862     11.274     13.038
REMARK INTER + INTRA:          -6.844
REMARK INTER:                  -5.112
REMARK INTRA:                  -1.733
REMARK UNBOUND:                -1.975
REMARK SMILES CCCCCCCCCCCCCC(=O)[O-]
REMARK SMILES IDX 8 1 9 2 10 3 11 4 12 5 13 6 14 7 15 8 16 9 7 10 6 11 5 12
REMARK SMILES IDX 4 13 3 14 2 15 1 16
REMARK H PARENT
REMARK Flexibility Score: inf
ROOT
ATOM      1  C   UNL     1      63.789  33.725  61.038  1.00  0.00     0.000 C 
ENDROOT
BRANCH   1   2
ATOM      2  C   UNL     1      63.213  33.489  59.633  1.00  0.00     0.000 C 
BRANCH   2   3
ATOM      3  C   UNL     1      62.099  32.435  59.666  1.00  0.00     0.000 C 
BRANCH   3   4
ATOM      4  C   UNL     1      61.115  32.710  60.813  1.00  0.00     0.000 C 
BRANCH   4   5
ATOM      5  C   UNL     1      60.831  31.461  61.667  1.00  0.00     0.006 C 
BRANCH   5   6
ATOM      6  C   UNL     1      62.020  30.494  61.789  1.00  0.00     0.053 C 
BRANCH   6   7
ATOM      7  C   UNL     1      61.760  29.194  61.093  1.00  0.00     0.041 C 
ATOM      8  O   UNL     1      60.597  28.712  61.063  1.00  0.00    -0.550 OA
ATOM      9  O   UNL     1      62.809  28.497  60.505  1.00  0.00    -0.550 OA
ENDBRANCH   6   7
ENDBRANCH   5   6
ENDBRANCH   4   5
ENDBRANCH   3   4
ENDBRANCH   2   3
ENDBRANCH   1   2
BRANCH   1  10
ATOM     10  C   UNL     1      63.855  35.215  61.407  1.00  0.00     0.000 C 
BRANCH  10  11
ATOM     11  C   UNL     1      63.762  36.134  60.176  1.00  0.00    -0.000 C 
BRANCH  11  12
ATOM     12  C   UNL     1      62.589  37.124  60.267  1.00  0.00    -0.000 C 
BRANCH  12  13
ATOM     13  C   UNL     1      61.329  36.490  60.881  1.00  0.00    -0.000 C 
BRANCH  13  14
ATOM     14  C   UNL     1      60.117  36.554  59.939  1.00  0.00    -0.000 C 
BRANCH  14  15
ATOM     15  C   UNL     1      60.458  36.113  58.507  1.00  0.00    -0.003 C 
ATOM     16  C   UNL     1      59.697  34.846  58.127  1.00  0.00     0.004 C 
ENDBRANCH  14  15
ENDBRANCH  13  14
ENDBRANCH  12  13
ENDBRANCH  11  12
ENDBRANCH  10  11
ENDBRANCH   1  10
TORSDOF 12
ENDMDL
MODEL 9
REMARK VINA RESULT:    -2.844      1.586      3.038
REMARK INTER + INTRA:          -6.814
REMARK INTER:                  -4.782
REMARK INTRA:                  -2.032
REMARK UNBOUND:                -1.975
REMARK SMILES CCCCCCCCCCCCCC(=O)[O-]
REMARK SMILES IDX 8 1 9 2 10 3 11 4 12 5 13 6 14 7 15 8 16 9 7 10 6 11 5 12
REMARK SMILES IDX 4 13 3 14 2 15 1 16
REMARK H PARENT
REMARK Flexibility Score: inf
ROOT
ATOM      1  C   UNL     1      58.382  29.388  51.087  1.00  0.00     0.000 C 
ENDROOT
BRANCH   1   2
ATOM      2  C   UNL     1      58.596  29.425  49.566  1.00  0.00     0.000 C 
BRANCH   2   3
ATOM      3  C   UNL     1      59.335  28.170  49.085  1.00  0.00     0.000 C 
BRANCH   3   4
ATOM      4  C   UNL     1      60.782  28.152  49.600  1.00  0.00     0.000 C 
BRANCH   4   5
ATOM      5  C   UNL     1      61.108  26.887  50.416  1.00  0.00     0.006 C 
BRANCH   5   6
ATOM      6  C   UNL     1      60.532  25.589  49.829  1.00  0.00     0.053 C 
BRANCH   6   7
ATOM      7  C   UNL     1      60.565  24.463  50.816  1.00  0.00     0.041 C 
ATOM      8  O   UNL     1      59.811  23.465  50.664  1.00  0.00    -0.550 OA
ATOM      9  O   UNL     1      61.403  24.530  51.922  1.00  0.00    -0.550 OA
ENDBRANCH   6   7
ENDBRANCH   5   6
ENDBRANCH   4   5
ENDBRANCH   3   4
ENDBRANCH   2   3
ENDBRANCH   1   2
BRANCH   1  10
ATOM     10  C   UNL     1      56.898  29.481  51.477  1.00  0.00     0.000 C 
BRANCH  10  11
ATOM     11  C   UNL     1      55.962  28.984  50.361  1.00  0.00    -0.000 C 
BRANCH  11  12
ATOM     12  C   UNL     1      55.190  27.716  50.762  1.00  0.00    -0.000 C 
BRANCH  12  13
ATOM     13  C   UNL     1      55.658  26.471  49.989  1.00  0.00    -0.000 C 
BRANCH  13  14
ATOM     14  C   UNL     1      56.984  25.909  50.522  1.00  0.00    -0.000 C 
BRANCH  14  15
ATOM     15  C   UNL     1      56.904  25.515  52.004  1.00  0.00    -0.003 C 
ATOM     16  C   UNL     1      58.040  26.149  52.803  1.00  0.00     0.004 C 
ENDBRANCH  14  15
ENDBRANCH  13  14
ENDBRANCH  12  13
ENDBRANCH  11  12
ENDBRANCH  10  11
ENDBRANCH   1  10
TORSDOF 12
ENDMDL
