MODEL 1
REMARK VINA RESULT:    -1.333      0.000      0.000
REMARK INTER + INTRA:          -7.257
REMARK INTER:                  -2.892
REMARK INTRA:                  -4.364
REMARK UNBOUND:                -4.364
REMARK SMILES CCCCCCCCCCCCCCCCCCCCCC(=O)[O-]
REMARK SMILES IDX 12 1 11 2 10 3 9 4 8 5 7 6 6 7 5 8 4 9 3 10 2 11 1 12 13 13
REMARK SMILES IDX 14 14 15 15 16 16 17 17 18 18 19 19 20 20 21 21 22 22 23 23
REMARK SMILES IDX 24 24
REMARK H PARENT
REMARK Flexibility Score: inf
ROOT
ATOM      1  C   UNL     1      10.380  14.141  25.005  1.00  0.00     0.000 C 
ENDROOT
BRANCH   1   2
ATOM      2  C   UNL     1       9.638  13.673  26.267  1.00  0.00     0.000 C 
BRANCH   2   3
ATOM      3  C   UNL     1      10.334  14.113  27.564  1.00  0.00     0.000 C 
BRANCH   3   4
ATOM      4  C   UNL     1       9.306  14.381  28.674  1.00  0.00    -0.000 C 
BRANCH   4   5
ATOM      5  C   UNL     1       9.232  15.873  29.066  1.00  0.00    -0.000 C 
BRANCH   5   6
ATOM      6  C   UNL     1       8.040  16.621  28.435  1.00  0.00    -0.000 C 
BRANCH   6   7
ATOM      7  C   UNL     1       6.972  15.714  27.797  1.00  0.00    -0.000 C 
BRANCH   7   8
ATOM      8  C   UNL     1       6.625  16.042  26.330  1.00  0.00    -0.000 C 
BRANCH   8   9
ATOM      9  C   UNL     1       7.706  16.825  25.562  1.00  0.00    -0.000 C 
BRANCH   9  10
ATOM     10  C   UNL     1       7.692  16.539  24.051  1.00  0.00    -0.000 C 
BRANCH  10  11
ATOM     11  C   UNL     1       6.307  16.760  23.424  1.00  0.00    -0.003 C 
ATOM     12  C   UNL     1       5.986  18.239  23.204  1.00  0.00     0.004 C 
ENDBRANCH  10  11
ENDBRANCH   9  10
ENDBRANCH   8   9
ENDBRANCH   7   8
ENDBRANCH   6   7
ENDBRANCH   5   6
ENDBRANCH   4   5
ENDBRANCH   3   4
ENDBRANCH   2   3
ENDBRANCH   1   2
BRANCH   1  13
ATOM     13  C   UNL     1       9.807  13.520  23.719  1.00  0.00     0.000 C 
BRANCH  13  14
ATOM     14  C   UNL     1       8.660  12.536  24.004  1.00  0.00     0.000 C 
BRANCH  14  15
ATOM     15  C   UNL     1       7.347  12.943  23.318  1.00  0.00     0.000 C 
BRANCH  15  16
ATOM     16  C   UNL     1       6.195  13.000  24.334  1.00  0.00     0.000 C 
BRANCH  16  17
ATOM     17  C   UNL     1       6.271  11.864  25.369  1.00  0.00     0.000 C 
BRANCH  17  18
ATOM     18  C   UNL     1       5.986  12.328  26.816  1.00  0.00     0.000 C 
BRANCH  18  19
ATOM     19  C   UNL     1       6.936  11.712  27.862  1.00  0.00     0.000 C 
BRANCH  19  20
ATOM     20  C   UNL     1       7.847  10.596  27.319  1.00  0.00     0.006 C 
BRANCH  20  21
ATOM     21  C   UNL     1       9.124  10.415  28.155  1.00  0.00     0.053 C 
BRANCH  21  22
ATOM     22  C   UNL     1      10.328  10.245  27.281  1.00  0.00     0.041 C 
ATOM     23  O   UNL     1      11.482  10.470  27.735  1.00  0.00    -0.550 OA
ATOM     24  O   UNL     1      10.175   9.880  25.948  1.00  0.00    -0.550 OA
ENDBRANCH  21  22
ENDBRANCH  20  21
ENDBRANCH  19  20
ENDBRANCH  18  19
ENDBRANCH  17  18
ENDBRANCH  16  17
ENDBRANCH  15  16
ENDBRANCH  14  15
ENDBRANCH  13  14
ENDBRANCH   1  13
TORSDOF 20
ENDMDL
MODEL 2
REMARK VINA RESULT:    -1.233      1.998      3.862
REMARK INTER + INTRA:          -7.040
REMARK INTER:                  -2.475
REMARK INTRA:                  -4.564
REMARK UNBOUND:                -4.364
REMARK SMILES CCCCCCCCCCCCCCCCCCCCCC(=O)[O-]
REMARK SMILES IDX 12 1 11 2 10 3 9 4 8 5 7 6 6 7 5 8 4 9 3 10 2 11 1 12 13 13
REMARK SMILES IDX 14 14 15 15 16 16 17 17 18 18 19 19 20 20 21 21 22 22 23 23
REMARK SMILES IDX 24 24
REMARK H PARENT
REMARK Flexibility Score: inf
ROOT
ATOM      1  C   UNL     1       6.396  14.097  25.079  1.00  0.00     0.000 C 
ENDROOT
BRANCH   1   2
ATOM      2  C   UNL     1       6.128  14.086  26.593  1.00  0.00     0.000 C 
BRANCH   2   3
ATOM      3  C   UNL     1       6.911  15.173  27.344  1.00  0.00     0.000 C 
BRANCH   3   4
ATOM      4  C   UNL     1       8.206  14.601  27.942  1.00  0.00    -0.000 C 
BRANCH   4   5
ATOM      5  C   UNL     1       9.426  14.802  27.016  1.00  0.00    -0.000 C 
BRANCH   5   6
ATOM      6  C   UNL     1       9.558  16.237  26.468  1.00  0.00    -0.000 C 
BRANCH   6   7
ATOM      7  C   UNL     1       9.402  16.363  24.941  1.00  0.00    -0.000 C 
BRANCH   7   8
ATOM      8  C   UNL     1       9.827  15.118  24.135  1.00  0.00    -0.000 C 
BRANCH   8   9
ATOM      9  C   UNL     1       9.198  15.000  22.734  1.00  0.00    -0.000 C 
BRANCH   9  10
ATOM     10  C   UNL     1       9.439  13.627  22.084  1.00  0.00    -0.000 C 
BRANCH  10  11
ATOM     11  C   UNL     1      10.661  12.905  22.672  1.00  0.00    -0.003 C 
ATOM     12  C   UNL     1      10.575  11.384  22.530  1.00  0.00     0.004 C 
ENDBRANCH  10  11
ENDBRANCH   9  10
ENDBRANCH   8   9
ENDBRANCH   7   8
ENDBRANCH   6   7
ENDBRANCH   5   6
ENDBRANCH   4   5
ENDBRANCH   3   4
ENDBRANCH   2   3
ENDBRANCH   1   2
BRANCH   1  13
ATOM     13  C   UNL     1       6.672  12.691  24.518  1.00  0.00     0.000 C 
BRANCH  13  14
ATOM     14  C   UNL     1       7.935  12.057  25.123  1.00  0.00     0.000 C 
BRANCH  14  15
ATOM     15  C   UNL     1       7.756  10.562  25.430  1.00  0.00     0.000 C 
BRANCH  15  16
ATOM     16  C   UNL     1       6.925  10.362  26.708  1.00  0.00     0.000 C 
BRANCH  16  17
ATOM     17  C   UNL     1       7.588  10.999  27.942  1.00  0.00     0.000 C 
BRANCH  17  18
ATOM     18  C   UNL     1       8.960  10.378  28.295  1.00  0.00     0.000 C 
BRANCH  18  19
ATOM     19  C   UNL     1      10.130  11.379  28.217  1.00  0.00     0.000 C 
BRANCH  19  20
ATOM     20  C   UNL     1      11.276  10.951  27.282  1.00  0.00     0.006 C 
BRANCH  20  21
ATOM     21  C   UNL     1      11.492  11.935  26.122  1.00  0.00     0.053 C 
BRANCH  21  22
ATOM     22  C   UNL     1      12.694  12.798  26.356  1.00  0.00     0.041 C 
ATOM     23  O   UNL     1      13.632  12.398  27.095  1.00  0.00    -0.550 OA
ATOM     24  O   UNL     1      12.759  14.068  25.792  1.00  0.00    -0.550 OA
ENDBRANCH  21  22
ENDBRANCH  20  21
ENDBRANCH  19  20
ENDBRANCH  18  19
ENDBRANCH  17  18
ENDBRANCH  16  17
ENDBRANCH  15  16
ENDBRANCH  14  15
ENDBRANCH  13  14
ENDBRANCH   1  13
TORSDOF 20
ENDMDL
MODEL 3
REMARK VINA RESULT:    -1.200     20.937     23.118
REMARK INTER + INTRA:          -6.968
REMARK INTER:                  -2.715
REMARK INTRA:                  -4.253
REMARK UNBOUND:                -4.364
REMARK SMILES CCCCCCCCCCCCCCCCCCCCCC(=O)[O-]
REMARK SMILES IDX 12 1 11 2 10 3 9 4 8 5 7 6 6 7 5 8 4 9 3 10 2 11 1 12 13 13
REMARK SMILES IDX 14 14 15 15 16 16 17 17 18 18 19 19 20 20 21 21 22 22 23 23
REMARK SMILES IDX 24 24
REMARK H PARENT
REMARK Flexibility Score: inf
ROOT
ATOM      1  C   UNL     1      21.255  26.208  16.047  1.00  0.00     0.000 C 
ENDROOT
BRANCH   1   2
ATOM      2  C   UNL     1      21.429  27.713  16.305  1.00  0.00     0.000 C 
BRANCH   2   3
ATOM      3  C   UNL     1      20.763  28.173  17.611  1.00  0.00     0.000 C 
BRANCH   3   4
ATOM      4  C   UNL     1      21.693  29.109  18.400  1.00  0.00    -0.000 C 
BRANCH   4   5
ATOM      5  C   UNL     1      22.978  29.462  17.620  1.00  0.00    -0.000 C 
BRANCH   5   6
ATOM      6  C   UNL     1      24.067  30.123  18.487  1.00  0.00    -0.000 C 
BRANCH   6   7
ATOM      7  C   UNL     1      25.488  29.571  18.271  1.00  0.00    -0.000 C 
BRANCH   7   8
ATOM      8  C   UNL     1      26.065  28.766  19.455  1.00  0.00    -0.000 C 
BRANCH   8   9
ATOM      9  C   UNL     1      25.726  27.264  19.452  1.00  0.00    -0.000 C 
BRANCH   9  10
ATOM     10  C   UNL     1      24.731  26.873  20.557  1.00  0.00    -0.000 C 
BRANCH  10  11
ATOM     11  C   UNL     1      23.352  26.492  19.999  1.00  0.00    -0.003 C 
ATOM     12  C   UNL     1      23.426  25.398  18.933  1.00  0.00     0.004 C 
ENDBRANCH  10  11
ENDBRANCH   9  10
ENDBRANCH   8   9
ENDBRANCH   7   8
ENDBRANCH   6   7
ENDBRANCH   5   6
ENDBRANCH   4   5
ENDBRANCH   3   4
ENDBRANCH   2   3
ENDBRANCH   1   2
BRANCH   1  13
ATOM     13  C   UNL     1      21.335  25.853  14.552  1.00  0.00     0.000 C 
BRANCH  13  14
ATOM     14  C   UNL     1      21.337  27.100  13.653  1.00  0.00     0.000 C 
BRANCH  14  15
ATOM     15  C   UNL     1      22.189  26.915  12.387  1.00  0.00     0.000 C 
BRANCH  15  16
ATOM     16  C   UNL     1      23.579  27.545  12.567  1.00  0.00     0.000 C 
BRANCH  16  17
ATOM     17  C   UNL     1      23.512  28.929  13.237  1.00  0.00     0.000 C 
BRANCH  17  18
ATOM     18  C   UNL     1      24.480  29.083  14.433  1.00  0.00     0.000 C 
BRANCH  18  19
ATOM     19  C   UNL     1      25.376  27.851  14.666  1.00  0.00     0.000 C 
BRANCH  19  20
ATOM     20  C   UNL     1      24.923  26.941  15.822  1.00  0.00     0.006 C 
BRANCH  20  21
ATOM     21  C   UNL     1      25.780  25.671  15.946  1.00  0.00     0.053 C 
BRANCH  21  22
ATOM     22  C   UNL     1      25.015  24.454  15.524  1.00  0.00     0.041 C 
ATOM     23  O   UNL     1      24.390  24.442  14.431  1.00  0.00    -0.550 OA
ATOM     24  O   UNL     1      24.955  23.345  16.361  1.00  0.00    -0.550 OA
ENDBRANCH  21  22
ENDBRANCH  20  21
ENDBRANCH  19  20
ENDBRANCH  18  19
ENDBRANCH  17  18
ENDBRANCH  16  17
ENDBRANCH  15  16
ENDBRANCH  14  15
ENDBRANCH  13  14
ENDBRANCH   1  13
TORSDOF 20
ENDMDL
MODEL 4
REMARK VINA RESULT:    -1.178     20.657     23.181
REMARK INTER + INTRA:          -6.920
REMARK INTER:                  -2.811
REMARK INTRA:                  -4.108
REMARK UNBOUND:                -4.364
REMARK SMILES CCCCCCCCCCCCCCCCCCCCCC(=O)[O-]
REMARK SMILES IDX 12 1 11 2 10 3 9 4 8 5 7 6 6 7 5 8 4 9 3 10 2 11 1 12 13 13
REMARK SMILES IDX 14 14 15 15 16 16 17 17 18 18 19 19 20 20 21 21 22 22 23 23
REMARK SMILES IDX 24 24
REMARK H PARENT
REMARK Flexibility Score: inf
ROOT
ATOM      1  C   UNL     1      21.459  26.763  15.674  1.00  0.00     0.000 C 
ENDROOT
BRANCH   1   2
ATOM      2  C   UNL     1      20.325  26.043  16.420  1.00  0.00     0.000 C 
BRANCH   2   3
ATOM      3  C   UNL     1      19.249  25.489  15.473  1.00  0.00     0.000 C 
BRANCH   3   4
ATOM      4  C   UNL     1      19.725  24.190  14.803  1.00  0.00    -0.000 C 
BRANCH   4   5
ATOM      5  C   UNL     1      19.902  24.342  13.276  1.00  0.00    -0.000 C 
BRANCH   5   6
ATOM      6  C   UNL     1      21.360  24.188  12.802  1.00  0.00    -0.000 C 
BRANCH   6   7
ATOM      7  C   UNL     1      22.354  23.758  13.897  1.00  0.00    -0.000 C 
BRANCH   7   8
ATOM      8  C   UNL     1      23.843  23.858  13.506  1.00  0.00    -0.000 C 
BRANCH   8   9
ATOM      9  C   UNL     1      24.822  23.988  14.687  1.00  0.00    -0.000 C 
BRANCH   9  10
ATOM     10  C   UNL     1      24.110  24.141  16.041  1.00  0.00    -0.000 C 
BRANCH  10  11
ATOM     11  C   UNL     1      25.094  24.224  17.218  1.00  0.00    -0.003 C 
ATOM     12  C   UNL     1      25.110  22.952  18.067  1.00  0.00     0.004 C 
ENDBRANCH  10  11
ENDBRANCH   9  10
ENDBRANCH   8   9
ENDBRANCH   7   8
ENDBRANCH   6   7
ENDBRANCH   5   6
ENDBRANCH   4   5
ENDBRANCH   3   4
ENDBRANCH   2   3
ENDBRANCH   1   2
BRANCH   1  13
ATOM     13  C   UNL     1      21.299  28.294  15.693  1.00  0.00     0.000 C 
BRANCH  13  14
ATOM     14  C   UNL     1      21.305  28.901  14.280  1.00  0.00     0.000 C 
BRANCH  14  15
ATOM     15  C   UNL     1      20.968  27.869  13.192  1.00  0.00     0.000 C 
BRANCH  15  16
ATOM     16  C   UNL     1      21.912  28.017  11.988  1.00  0.00     0.000 C 
BRANCH  16  17
ATOM     17  C   UNL     1      23.306  27.424  12.260  1.00  0.00     0.000 C 
BRANCH  17  18
ATOM     18  C   UNL     1      24.442  28.472  12.214  1.00  0.00     0.000 C 
BRANCH  18  19
ATOM     19  C   UNL     1      25.214  28.606  13.540  1.00  0.00     0.000 C 
BRANCH  19  20
ATOM     20  C   UNL     1      24.826  27.573  14.614  1.00  0.00     0.006 C 
BRANCH  20  21
ATOM     21  C   UNL     1      25.648  27.722  15.904  1.00  0.00     0.053 C 
BRANCH  21  22
ATOM     22  C   UNL     1      24.849  28.381  16.986  1.00  0.00     0.041 C 
ATOM     23  O   UNL     1      24.452  27.717  17.979  1.00  0.00    -0.550 OA
ATOM     24  O   UNL     1      24.505  29.724  16.876  1.00  0.00    -0.550 OA
ENDBRANCH  21  22
ENDBRANCH  20  21
ENDBRANCH  19  20
ENDBRANCH  18  19
ENDBRANCH  17  18
ENDBRANCH  16  17
ENDBRANCH  15  16
ENDBRANCH  14  15
ENDBRANCH  13  14
ENDBRANCH   1  13
TORSDOF 20
ENDMDL
MODEL 5
REMARK VINA RESULT:    -1.174     20.762     22.818
REMARK INTER + INTRA:          -6.910
REMARK INTER:                  -3.203
REMARK INTRA:                  -3.707
REMARK UNBOUND:                -4.364
REMARK SMILES CCCCCCCCCCCCCCCCCCCCCC(=O)[O-]
REMARK SMILES IDX 12 1 11 2 10 3 9 4 8 5 7 6 6 7 5 8 4 9 3 10 2 11 1 12 13 13
REMARK SMILES IDX 14 14 15 15 16 16 17 17 18 18 19 19 20 20 21 21 22 22 23 23
REMARK SMILES IDX 24 24
REMARK H PARENT
REMARK Flexibility Score: inf
ROOT
ATOM      1  C   UNL     1      25.798  24.980  16.777  1.00  0.00     0.000 C 
ENDROOT
BRANCH   1   2
ATOM      2  C   UNL     1      25.487  25.973  15.646  1.00  0.00     0.000 C 
BRANCH   2   3
ATOM      3  C   UNL     1      25.964  27.399  15.959  1.00  0.00     0.000 C 
BRANCH   3   4
ATOM      4  C   UNL     1      25.734  27.741  17.440  1.00  0.00    -0.000 C 
BRANCH   4   5
ATOM      5  C   UNL     1      25.096  29.134  17.633  1.00  0.00    -0.000 C 
BRANCH   5   6
ATOM      6  C   UNL     1      24.216  29.583  16.450  1.00  0.00    -0.000 C 
BRANCH   6   7
ATOM      7  C   UNL     1      22.736  29.168  16.550  1.00  0.00    -0.000 C 
BRANCH   7   8
ATOM      8  C   UNL     1      22.288  28.090  15.541  1.00  0.00    -0.000 C 
BRANCH   8   9
ATOM      9  C   UNL     1      22.389  28.498  14.060  1.00  0.00    -0.000 C 
BRANCH   9  10
ATOM     10  C   UNL     1      23.096  27.441  13.195  1.00  0.00    -0.000 C 
BRANCH  10  11
ATOM     11  C   UNL     1      24.273  28.024  12.398  1.00  0.00    -0.003 C 
ATOM     12  C   UNL     1      24.564  29.483  12.755  1.00  0.00     0.004 C 
ENDBRANCH  10  11
ENDBRANCH   9  10
ENDBRANCH   8   9
ENDBRANCH   7   8
ENDBRANCH   6   7
ENDBRANCH   5   6
ENDBRANCH   4   5
ENDBRANCH   3   4
ENDBRANCH   2   3
ENDBRANCH   1   2
BRANCH   1  13
ATOM     13  C   UNL     1      25.997  23.543  16.263  1.00  0.00     0.000 C 
BRANCH  13  14
ATOM     14  C   UNL     1      26.125  23.482  14.731  1.00  0.00     0.000 C 
BRANCH  14  15
ATOM     15  C   UNL     1      25.035  22.614  14.082  1.00  0.00     0.000 C 
BRANCH  15  16
ATOM     16  C   UNL     1      23.952  23.492  13.435  1.00  0.00     0.000 C 
BRANCH  16  17
ATOM     17  C   UNL     1      22.563  23.262  14.057  1.00  0.00     0.000 C 
BRANCH  17  18
ATOM     18  C   UNL     1      22.197  24.296  15.147  1.00  0.00     0.000 C 
BRANCH  18  19
ATOM     19  C   UNL     1      20.749  24.813  15.047  1.00  0.00     0.000 C 
BRANCH  19  20
ATOM     20  C   UNL     1      20.247  25.036  13.609  1.00  0.00     0.006 C 
BRANCH  20  21
ATOM     21  C   UNL     1      19.391  26.305  13.471  1.00  0.00     0.053 C 
BRANCH  21  22
ATOM     22  C   UNL     1      17.934  25.971  13.373  1.00  0.00     0.041 C 
ATOM     23  O   UNL     1      17.301  26.188  12.305  1.00  0.00    -0.550 OA
ATOM     24  O   UNL     1      17.261  25.461  14.478  1.00  0.00    -0.550 OA
ENDBRANCH  21  22
ENDBRANCH  20  21
ENDBRANCH  19  20
ENDBRANCH  18  19
ENDBRANCH  17  18
ENDBRANCH  16  17
ENDBRANCH  15  16
ENDBRANCH  14  15
ENDBRANCH  13  14
ENDBRANCH   1  13
TORSDOF 20
ENDMDL
MODEL 6
REMARK VINA RESULT:    -1.153     20.071     22.195
REMARK INTER + INTRA:          -6.866
REMARK INTER:                  -2.975
REMARK INTRA:                  -3.891
REMARK UNBOUND:                -4.364
REMARK SMILES CCCCCCCCCCCCCCCCCCCCCC(=O)[O-]
REMARK SMILES IDX 12 1 11 2 10 3 9 4 8 5 7 6 6 7 5 8 4 9 3 10 2 11 1 12 13 13
REMARK SMILES IDX 14 14 15 15 16 16 17 17 18 18 19 19 20 20 21 21 22 22 23 23
REMARK SMILES IDX 24 24
REMARK H PARENT
REMARK Flexibility Score: inf
ROOT
ATOM      1  C   UNL     1      22.952  24.784  15.064  1.00  0.00     0.000 C 
ENDROOT
BRANCH   1   2
ATOM      2  C   UNL     1      23.005  25.272  16.520  1.00  0.00     0.000 C 
BRANCH   2   3
ATOM      3  C   UNL     1      24.218  26.171  16.803  1.00  0.00     0.000 C 
BRANCH   3   4
ATOM      4  C   UNL     1      25.230  26.105  15.647  1.00  0.00    -0.000 C 
BRANCH   4   5
ATOM      5  C   UNL     1      25.815  27.490  15.292  1.00  0.00    -0.000 C 
BRANCH   5   6
ATOM      6  C   UNL     1      25.021  28.237  14.203  1.00  0.00    -0.000 C 
BRANCH   6   7
ATOM      7  C   UNL     1      24.008  29.268  14.733  1.00  0.00    -0.000 C 
BRANCH   7   8
ATOM      8  C   UNL     1      22.534  28.980  14.377  1.00  0.00    -0.000 C 
BRANCH   8   9
ATOM      9  C   UNL     1      22.322  28.033  13.183  1.00  0.00    -0.000 C 
BRANCH   9  10
ATOM     10  C   UNL     1      21.037  27.196  13.303  1.00  0.00    -0.000 C 
BRANCH  10  11
ATOM     11  C   UNL     1      20.143  27.657  14.464  1.00  0.00    -0.003 C 
ATOM     12  C   UNL     1      19.674  26.497  15.345  1.00  0.00     0.004 C 
ENDBRANCH  10  11
ENDBRANCH   9  10
ENDBRANCH   8   9
ENDBRANCH   7   8
ENDBRANCH   6   7
ENDBRANCH   5   6
ENDBRANCH   4   5
ENDBRANCH   3   4
ENDBRANCH   2   3
ENDBRANCH   1   2
BRANCH   1  13
ATOM     13  C   UNL     1      22.007  23.584  14.878  1.00  0.00     0.000 C 
BRANCH  13  14
ATOM     14  C   UNL     1      21.819  22.779  16.175  1.00  0.00     0.000 C 
BRANCH  14  15
ATOM     15  C   UNL     1      22.714  21.532  16.230  1.00  0.00     0.000 C 
BRANCH  15  16
ATOM     16  C   UNL     1      24.015  21.826  16.996  1.00  0.00     0.000 C 
BRANCH  16  17
ATOM     17  C   UNL     1      25.264  21.357  16.229  1.00  0.00     0.000 C 
BRANCH  17  18
ATOM     18  C   UNL     1      26.092  22.518  15.630  1.00  0.00     0.000 C 
BRANCH  18  19
ATOM     19  C   UNL     1      25.831  22.754  14.130  1.00  0.00     0.000 C 
BRANCH  19  20
ATOM     20  C   UNL     1      26.125  21.539  13.231  1.00  0.00     0.006 C 
BRANCH  20  21
ATOM     21  C   UNL     1      25.016  21.284  12.198  1.00  0.00     0.053 C 
BRANCH  21  22
ATOM     22  C   UNL     1      23.872  20.529  12.802  1.00  0.00     0.041 C 
ATOM     23  O   UNL     1      22.698  20.978  12.721  1.00  0.00    -0.550 OA
ATOM     24  O   UNL     1      24.108  19.347  13.496  1.00  0.00    -0.550 OA
ENDBRANCH  21  22
ENDBRANCH  20  21
ENDBRANCH  19  20
ENDBRANCH  18  19
ENDBRANCH  17  18
ENDBRANCH  16  17
ENDBRANCH  15  16
ENDBRANCH  14  15
ENDBRANCH  13  14
ENDBRANCH   1  13
TORSDOF 20
ENDMDL
MODEL 7
REMARK VINA RESULT:    -1.142     20.237     22.360
REMARK INTER + INTRA:          -6.842
REMARK INTER:                  -2.713
REMARK INTRA:                  -4.129
REMARK UNBOUND:                -4.364
REMARK SMILES CCCCCCCCCCCCCCCCCCCCCC(=O)[O-]
REMARK SMILES IDX 12 1 11 2 10 3 9 4 8 5 7 6 6 7 5 8 4 9 3 10 2 11 1 12 13 13
REMARK SMILES IDX 14 14 15 15 16 16 17 17 18 18 19 19 20 20 21 21 22 22 23 23
REMARK SMILES IDX 24 24
REMARK H PARENT
REMARK Flexibility Score: inf
ROOT
ATOM      1  C   UNL     1      22.545  25.410  18.767  1.00  0.00     0.000 C 
ENDROOT
BRANCH   1   2
ATOM      2  C   UNL     1      21.651  26.050  17.694  1.00  0.00     0.000 C 
BRANCH   2   3
ATOM      3  C   UNL     1      21.943  27.545  17.492  1.00  0.00     0.000 C 
BRANCH   3   4
ATOM      4  C   UNL     1      21.899  27.916  16.001  1.00  0.00    -0.000 C 
BRANCH   4   5
ATOM      5  C   UNL     1      21.819  29.441  15.772  1.00  0.00    -0.000 C 
BRANCH   5   6
ATOM      6  C   UNL     1      22.924  29.987  14.846  1.00  0.00    -0.000 C 
BRANCH   6   7
ATOM      7  C   UNL     1      24.280  29.269  14.964  1.00  0.00    -0.000 C 
BRANCH   7   8
ATOM      8  C   UNL     1      24.878  28.774  13.630  1.00  0.00    -0.000 C 
BRANCH   8   9
ATOM      9  C   UNL     1      23.875  28.659  12.467  1.00  0.00    -0.000 C 
BRANCH   9  10
ATOM     10  C   UNL     1      23.576  27.202  12.077  1.00  0.00    -0.000 C 
BRANCH  10  11
ATOM     11  C   UNL     1      22.183  26.744  12.537  1.00  0.00    -0.003 C 
ATOM     12  C   UNL     1      21.109  27.812  12.322  1.00  0.00     0.004 C 
ENDBRANCH  10  11
ENDBRANCH   9  10
ENDBRANCH   8   9
ENDBRANCH   7   8
ENDBRANCH   6   7
ENDBRANCH   5   6
ENDBRANCH   4   5
ENDBRANCH   3   4
ENDBRANCH   2   3
ENDBRANCH   1   2
BRANCH   1  13
ATOM     13  C   UNL     1      23.849  26.194  18.994  1.00  0.00     0.000 C 
BRANCH  13  14
ATOM     14  C   UNL     1      25.034  25.598  18.216  1.00  0.00     0.000 C 
BRANCH  14  15
ATOM     15  C   UNL     1      25.627  26.584  17.197  1.00  0.00     0.000 C 
BRANCH  15  16
ATOM     16  C   UNL     1      25.743  25.932  15.810  1.00  0.00     0.000 C 
BRANCH  16  17
ATOM     17  C   UNL     1      24.390  25.410  15.294  1.00  0.00     0.000 C 
BRANCH  17  18
ATOM     18  C   UNL     1      24.512  24.136  14.426  1.00  0.00     0.000 C 
BRANCH  18  19
ATOM     19  C   UNL     1      25.286  22.993  15.111  1.00  0.00     0.000 C 
BRANCH  19  20
ATOM     20  C   UNL     1      24.396  21.902  15.735  1.00  0.00     0.006 C 
BRANCH  20  21
ATOM     21  C   UNL     1      23.984  22.229  17.179  1.00  0.00     0.053 C 
BRANCH  21  22
ATOM     22  C   UNL     1      22.559  21.849  17.438  1.00  0.00     0.041 C 
ATOM     23  O   UNL     1      22.286  20.870  18.182  1.00  0.00    -0.550 OA
ATOM     24  O   UNL     1      21.528  22.550  16.822  1.00  0.00    -0.550 OA
ENDBRANCH  21  22
ENDBRANCH  20  21
ENDBRANCH  19  20
ENDBRANCH  18  19
ENDBRANCH  17  18
ENDBRANCH  16  17
ENDBRANCH  15  16
ENDBRANCH  14  15
ENDBRANCH  13  14
ENDBRANCH   1  13
TORSDOF 20
ENDMDL
MODEL 8
REMARK VINA RESULT:    -1.138      1.861      3.967
REMARK INTER + INTRA:          -6.833
REMARK INTER:                  -2.622
REMARK INTRA:                  -4.211
REMARK UNBOUND:                -4.364
REMARK SMILES CCCCCCCCCCCCCCCCCCCCCC(=O)[O-]
REMARK SMILES IDX 12 1 11 2 10 3 9 4 8 5 7 6 6 7 5 8 4 9 3 10 2 11 1 12 13 13
REMARK SMILES IDX 14 14 15 15 16 16 17 17 18 18 19 19 20 20 21 21 22 22 23 23
REMARK SMILES IDX 24 24
REMARK H PARENT
REMARK Flexibility Score: inf
ROOT
ATOM      1  C   UNL     1      10.692  14.992  29.382  1.00  0.00     0.000 C 
ENDROOT
BRANCH   1   2
ATOM      2  C   UNL     1       9.185  15.144  29.119  1.00  0.00     0.000 C 
BRANCH   2   3
ATOM      3  C   UNL     1       8.572  16.344  29.856  1.00  0.00     0.000 C 
BRANCH   3   4
ATOM      4  C   UNL     1       7.340  16.876  29.107  1.00  0.00    -0.000 C 
BRANCH   4   5
ATOM      5  C   UNL     1       7.026  16.064  27.832  1.00  0.00    -0.000 C 
BRANCH   5   6
ATOM      6  C   UNL     1       6.216  16.848  26.781  1.00  0.00    -0.000 C 
BRANCH   6   7
ATOM      7  C   UNL     1       6.972  18.016  26.122  1.00  0.00    -0.000 C 
BRANCH   7   8
ATOM      8  C   UNL     1       8.391  17.677  25.617  1.00  0.00    -0.000 C 
BRANCH   8   9
ATOM      9  C   UNL     1       9.494  18.655  26.059  1.00  0.00    -0.000 C 
BRANCH   9  10
ATOM     10  C   UNL     1      10.436  18.057  27.117  1.00  0.00    -0.000 C 
BRANCH  10  11
ATOM     11  C   UNL     1      10.625  18.983  28.328  1.00  0.00    -0.003 C 
ATOM     12  C   UNL     1       9.431  19.913  28.553  1.00  0.00     0.004 C 
ENDBRANCH  10  11
ENDBRANCH   9  10
ENDBRANCH   8   9
ENDBRANCH   7   8
ENDBRANCH   6   7
ENDBRANCH   5   6
ENDBRANCH   4   5
ENDBRANCH   3   4
ENDBRANCH   2   3
ENDBRANCH   1   2
BRANCH   1  13
ATOM     13  C   UNL     1      11.475  14.598  28.117  1.00  0.00     0.000 C 
BRANCH  13  14
ATOM     14  C   UNL     1      10.550  14.166  26.966  1.00  0.00     0.000 C 
BRANCH  14  15
ATOM     15  C   UNL     1      10.923  14.827  25.630  1.00  0.00     0.000 C 
BRANCH  15  16
ATOM     16  C   UNL     1       9.890  14.483  24.544  1.00  0.00     0.000 C 
BRANCH  16  17
ATOM     17  C   UNL     1       8.556  13.997  25.139  1.00  0.00     0.000 C 
BRANCH  17  18
ATOM     18  C   UNL     1       7.349  14.198  24.194  1.00  0.00     0.000 C 
BRANCH  18  19
ATOM     19  C   UNL     1       5.997  13.813  24.826  1.00  0.00     0.000 C 
BRANCH  19  20
ATOM     20  C   UNL     1       5.876  12.329  25.220  1.00  0.00     0.006 C 
BRANCH  20  21
ATOM     21  C   UNL     1       6.015  12.105  26.733  1.00  0.00     0.053 C 
BRANCH  21  22
ATOM     22  C   UNL     1       7.149  11.176  27.044  1.00  0.00     0.041 C 
ATOM     23  O   UNL     1       7.813  10.648  26.114  1.00  0.00    -0.550 OA
ATOM     24  O   UNL     1       7.445  10.858  28.365  1.00  0.00    -0.550 OA
ENDBRANCH  21  22
ENDBRANCH  20  21
ENDBRANCH  19  20
ENDBRANCH  18  19
ENDBRANCH  17  18
ENDBRANCH  16  17
ENDBRANCH  15  16
ENDBRANCH  14  15
ENDBRANCH  13  14
ENDBRANCH   1  13
TORSDOF 20
ENDMDL
MODEL 9
REMARK VINA RESULT:    -1.135     20.418     22.489
REMARK INTER + INTRA:          -6.825
REMARK INTER:                  -2.556
REMARK INTRA:                  -4.270
REMARK UNBOUND:                -4.364
REMARK SMILES CCCCCCCCCCCCCCCCCCCCCC(=O)[O-]
REMARK SMILES IDX 12 1 11 2 10 3 9 4 8 5 7 6 6 7 5 8 4 9 3 10 2 11 1 12 13 13
REMARK SMILES IDX 14 14 15 15 16 16 17 17 18 18 19 19 20 20 21 21 22 22 23 23
REMARK SMILES IDX 24 24
REMARK H PARENT
REMARK Flexibility Score: inf
ROOT
ATOM      1  C   UNL     1      23.442  24.617  16.386  1.00  0.00     0.000 C 
ENDROOT
BRANCH   1   2
ATOM      2  C   UNL     1      23.943  26.058  16.197  1.00  0.00     0.000 C 
BRANCH   2   3
ATOM      3  C   UNL     1      25.337  26.124  15.555  1.00  0.00     0.000 C 
BRANCH   3   4
ATOM      4  C   UNL     1      25.740  27.579  15.267  1.00  0.00    -0.000 C 
BRANCH   4   5
ATOM      5  C   UNL     1      24.558  28.561  15.418  1.00  0.00    -0.000 C 
BRANCH   5   6
ATOM      6  C   UNL     1      24.250  29.361  14.137  1.00  0.00    -0.000 C 
BRANCH   6   7
ATOM      7  C   UNL     1      25.010  28.892  12.883  1.00  0.00    -0.000 C 
BRANCH   7   8
ATOM      8  C   UNL     1      24.171  28.079  11.875  1.00  0.00    -0.000 C 
BRANCH   8   9
ATOM      9  C   UNL     1      23.406  26.884  12.474  1.00  0.00    -0.000 C 
BRANCH   9  10
ATOM     10  C   UNL     1      21.879  27.043  12.377  1.00  0.00    -0.000 C 
BRANCH  10  11
ATOM     11  C   UNL     1      21.211  27.160  13.756  1.00  0.00    -0.003 C 
ATOM     12  C   UNL     1      20.707  28.574  14.050  1.00  0.00     0.004 C 
ENDBRANCH  10  11
ENDBRANCH   9  10
ENDBRANCH   8   9
ENDBRANCH   7   8
ENDBRANCH   6   7
ENDBRANCH   5   6
ENDBRANCH   4   5
ENDBRANCH   3   4
ENDBRANCH   2   3
ENDBRANCH   1   2
BRANCH   1  13
ATOM     13  C   UNL     1      22.574  24.136  15.210  1.00  0.00     0.000 C 
BRANCH  13  14
ATOM     14  C   UNL     1      21.258  23.493  15.679  1.00  0.00     0.000 C 
BRANCH  14  15
ATOM     15  C   UNL     1      20.610  24.256  16.845  1.00  0.00     0.000 C 
BRANCH  15  16
ATOM     16  C   UNL     1      19.445  25.127  16.347  1.00  0.00     0.000 C 
BRANCH  16  17
ATOM     17  C   UNL     1      19.463  26.536  16.966  1.00  0.00     0.000 C 
BRANCH  17  18
ATOM     18  C   UNL     1      20.693  26.800  17.865  1.00  0.00     0.000 C 
BRANCH  18  19
ATOM     19  C   UNL     1      21.249  28.233  17.748  1.00  0.00     0.000 C 
BRANCH  19  20
ATOM     20  C   UNL     1      22.510  28.500  18.590  1.00  0.00     0.006 C 
BRANCH  20  21
ATOM     21  C   UNL     1      23.025  27.240  19.302  1.00  0.00     0.053 C 
BRANCH  21  22
ATOM     22  C   UNL     1      24.437  27.418  19.771  1.00  0.00     0.041 C 
ATOM     23  O   UNL     1      25.272  28.036  19.058  1.00  0.00    -0.550 OA
ATOM     24  O   UNL     1      24.844  26.862  20.979  1.00  0.00    -0.550 OA
ENDBRANCH  21  22
ENDBRANCH  20  21
ENDBRANCH  19  20
ENDBRANCH  18  19
ENDBRANCH  17  18
ENDBRANCH  16  17
ENDBRANCH  15  16
ENDBRANCH  14  15
ENDBRANCH  13  14
ENDBRANCH   1  13
TORSDOF 20
ENDMDL
