MODEL 1
REMARK VINA RESULT:    -4.810      0.000      0.000
REMARK INTER + INTRA:          -9.733
REMARK INTER:                  -8.185
REMARK INTRA:                  -1.548
REMARK UNBOUND:                -1.548
REMARK SMILES CCCCCCCCCCCCCC(=O)[O-]
REMARK SMILES IDX 8 1 9 2 10 3 11 4 12 5 13 6 14 7 15 8 16 9 7 10 6 11 5 12
REMARK SMILES IDX 4 13 3 14 2 15 1 16
REMARK H PARENT
REMARK Flexibility Score: inf
ROOT
ATOM      1  C   UNL     1      20.308  52.869  16.159  1.00  0.00     0.000 C 
ENDROOT
BRANCH   1   2
ATOM      2  C   UNL     1      21.403  53.899  15.844  1.00  0.00     0.000 C 
BRANCH   2   3
ATOM      3  C   UNL     1      21.390  55.092  16.812  1.00  0.00     0.000 C 
BRANCH   3   4
ATOM      4  C   UNL     1      22.355  56.211  16.384  1.00  0.00     0.000 C 
BRANCH   4   5
ATOM      5  C   UNL     1      23.767  56.034  16.970  1.00  0.00     0.006 C 
BRANCH   5   6
ATOM      6  C   UNL     1      24.903  56.336  15.981  1.00  0.00     0.053 C 
BRANCH   6   7
ATOM      7  C   UNL     1      26.130  55.529  16.273  1.00  0.00     0.041 C 
ATOM      8  O   UNL     1      26.049  54.281  16.419  1.00  0.00    -0.550 OA
ATOM      9  O   UNL     1      27.369  56.151  16.349  1.00  0.00    -0.550 OA
ENDBRANCH   6   7
ENDBRANCH   5   6
ENDBRANCH   4   5
ENDBRANCH   3   4
ENDBRANCH   2   3
ENDBRANCH   1   2
BRANCH   1  10
ATOM     10  C   UNL     1      19.152  52.972  15.157  1.00  0.00     0.000 C 
BRANCH  10  11
ATOM     11  C   UNL     1      19.558  53.792  13.928  1.00  0.00    -0.000 C 
BRANCH  11  12
ATOM     12  C   UNL     1      18.424  54.725  13.488  1.00  0.00    -0.000 C 
BRANCH  12  13
ATOM     13  C   UNL     1      17.703  55.327  14.704  1.00  0.00    -0.000 C 
BRANCH  13  14
ATOM     14  C   UNL     1      18.435  56.547  15.284  1.00  0.00    -0.000 C 
BRANCH  14  15
ATOM     15  C   UNL     1      18.083  56.804  16.756  1.00  0.00    -0.003 C 
ATOM     16  C   UNL     1      17.721  55.506  17.470  1.00  0.00     0.004 C 
ENDBRANCH  14  15
ENDBRANCH  13  14
ENDBRANCH  12  13
ENDBRANCH  11  12
ENDBRANCH  10  11
ENDBRANCH   1  10
TORSDOF 12
ENDMDL
MODEL 2
REMARK VINA RESULT:    -4.787      4.722      6.088
REMARK INTER + INTRA:          -9.693
REMARK INTER:                  -7.417
REMARK INTRA:                  -2.275
REMARK UNBOUND:                -1.548
REMARK SMILES CCCCCCCCCCCCCC(=O)[O-]
REMARK SMILES IDX 8 1 9 2 10 3 11 4 12 5 13 6 14 7 15 8 16 9 7 10 6 11 5 12
REMARK SMILES IDX 4 13 3 14 2 15 1 16
REMARK H PARENT
REMARK Flexibility Score: inf
ROOT
ATOM      1  C   UNL     1      20.869  53.182  15.782  1.00  0.00     0.000 C 
ENDROOT
BRANCH   1   2
ATOM      2  C   UNL     1      21.025  53.640  17.239  1.00  0.00     0.000 C 
BRANCH   2   3
ATOM      3  C   UNL     1      19.803  53.289  18.103  1.00  0.00     0.000 C 
BRANCH   3   4
ATOM      4  C   UNL     1      18.756  52.461  17.336  1.00  0.00     0.000 C 
BRANCH   4   5
ATOM      5  C   UNL     1      17.365  53.122  17.330  1.00  0.00     0.006 C 
BRANCH   5   6
ATOM      6  C   UNL     1      16.811  53.438  18.727  1.00  0.00     0.053 C 
BRANCH   6   7
ATOM      7  C   UNL     1      15.542  54.230  18.660  1.00  0.00     0.041 C 
ATOM      8  O   UNL     1      14.505  53.726  18.154  1.00  0.00    -0.550 OA
ATOM      9  O   UNL     1      15.495  55.514  19.189  1.00  0.00    -0.550 OA
ENDBRANCH   6   7
ENDBRANCH   5   6
ENDBRANCH   4   5
ENDBRANCH   3   4
ENDBRANCH   2   3
ENDBRANCH   1   2
BRANCH   1  10
ATOM     10  C   UNL     1      20.619  54.376  14.853  1.00  0.00     0.000 C 
BRANCH  10  11
ATOM     11  C   UNL     1      19.352  54.169  14.017  1.00  0.00    -0.000 C 
BRANCH  11  12
ATOM     12  C   UNL     1      18.308  55.250  14.319  1.00  0.00    -0.000 C 
BRANCH  12  13
ATOM     13  C   UNL     1      18.874  56.309  15.277  1.00  0.00    -0.000 C 
BRANCH  13  14
ATOM     14  C   UNL     1      17.868  56.723  16.363  1.00  0.00    -0.000 C 
BRANCH  14  15
ATOM     15  C   UNL     1      18.467  56.665  17.776  1.00  0.00    -0.003 C 
ATOM     16  C   UNL     1      19.910  57.159  17.783  1.00  0.00     0.004 C 
ENDBRANCH  14  15
ENDBRANCH  13  14
ENDBRANCH  12  13
ENDBRANCH  11  12
ENDBRANCH  10  11
ENDBRANCH   1  10
TORSDOF 12
ENDMDL
MODEL 3
REMARK VINA RESULT:    -4.765      4.346      6.579
REMARK INTER + INTRA:          -9.655
REMARK INTER:                  -7.788
REMARK INTRA:                  -1.868
REMARK UNBOUND:                -1.548
REMARK SMILES CCCCCCCCCCCCCC(=O)[O-]
REMARK SMILES IDX 8 1 9 2 10 3 11 4 12 5 13 6 14 7 15 8 16 9 7 10 6 11 5 12
REMARK SMILES IDX 4 13 3 14 2 15 1 16
REMARK H PARENT
REMARK Flexibility Score: inf
ROOT
ATOM      1  C   UNL     1      20.747  56.769  16.477  1.00  0.00     0.000 C 
ENDROOT
BRANCH   1   2
ATOM      2  C   UNL     1      19.931  57.140  17.724  1.00  0.00     0.000 C 
BRANCH   2   3
ATOM      3  C   UNL     1      18.489  56.612  17.666  1.00  0.00     0.000 C 
BRANCH   3   4
ATOM      4  C   UNL     1      17.721  57.127  16.436  1.00  0.00     0.000 C 
BRANCH   4   5
ATOM      5  C   UNL     1      16.407  56.362  16.194  1.00  0.00     0.006 C 
BRANCH   5   6
ATOM      6  C   UNL     1      16.020  55.398  17.326  1.00  0.00     0.053 C 
BRANCH   6   7
ATOM      7  C   UNL     1      15.505  54.094  16.800  1.00  0.00     0.041 C 
ATOM      8  O   UNL     1      15.625  53.043  17.483  1.00  0.00    -0.550 OA
ATOM      9  O   UNL     1      14.861  54.045  15.571  1.00  0.00    -0.550 OA
ENDBRANCH   6   7
ENDBRANCH   5   6
ENDBRANCH   4   5
ENDBRANCH   3   4
ENDBRANCH   2   3
ENDBRANCH   1   2
BRANCH   1  10
ATOM     10  C   UNL     1      21.991  55.955  16.856  1.00  0.00     0.000 C 
BRANCH  10  11
ATOM     11  C   UNL     1      21.973  54.577  16.186  1.00  0.00    -0.000 C 
BRANCH  11  12
ATOM     12  C   UNL     1      20.835  53.711  16.736  1.00  0.00    -0.000 C 
BRANCH  12  13
ATOM     13  C   UNL     1      20.108  52.971  15.602  1.00  0.00    -0.000 C 
BRANCH  13  14
ATOM     14  C   UNL     1      18.848  53.709  15.126  1.00  0.00    -0.000 C 
BRANCH  14  15
ATOM     15  C   UNL     1      19.110  54.598  13.901  1.00  0.00    -0.003 C 
ATOM     16  C   UNL     1      17.823  54.858  13.125  1.00  0.00     0.004 C 
ENDBRANCH  14  15
ENDBRANCH  13  14
ENDBRANCH  12  13
ENDBRANCH  11  12
ENDBRANCH  10  11
ENDBRANCH   1  10
TORSDOF 12
ENDMDL
MODEL 4
REMARK VINA RESULT:    -4.748      3.990      5.808
REMARK INTER + INTRA:          -9.627
REMARK INTER:                  -7.591
REMARK INTRA:                  -2.037
REMARK UNBOUND:                -1.548
REMARK SMILES CCCCCCCCCCCCCC(=O)[O-]
REMARK SMILES IDX 8 1 9 2 10 3 11 4 12 5 13 6 14 7 15 8 16 9 7 10 6 11 5 12
REMARK SMILES IDX 4 13 3 14 2 15 1 16
REMARK H PARENT
REMARK Flexibility Score: inf
ROOT
ATOM      1  C   UNL     1      19.637  54.055  13.955  1.00  0.00     0.000 C 
ENDROOT
BRANCH   1   2
ATOM      2  C   UNL     1      19.501  53.008  15.070  1.00  0.00     0.000 C 
BRANCH   2   3
ATOM      3  C   UNL     1      20.713  52.990  16.015  1.00  0.00     0.000 C 
BRANCH   3   4
ATOM      4  C   UNL     1      20.306  53.013  17.498  1.00  0.00     0.000 C 
BRANCH   4   5
ATOM      5  C   UNL     1      18.779  53.013  17.695  1.00  0.00     0.006 C 
BRANCH   5   6
ATOM      6  C   UNL     1      18.276  54.038  18.724  1.00  0.00     0.053 C 
BRANCH   6   7
ATOM      7  C   UNL     1      16.810  54.305  18.578  1.00  0.00     0.041 C 
ATOM      8  O   UNL     1      16.174  54.877  19.502  1.00  0.00    -0.550 OA
ATOM      9  O   UNL     1      16.152  53.953  17.406  1.00  0.00    -0.550 OA
ENDBRANCH   6   7
ENDBRANCH   5   6
ENDBRANCH   4   5
ENDBRANCH   3   4
ENDBRANCH   2   3
ENDBRANCH   1   2
BRANCH   1  10
ATOM     10  C   UNL     1      18.315  54.803  13.738  1.00  0.00     0.000 C 
BRANCH  10  11
ATOM     11  C   UNL     1      17.936  55.624  14.975  1.00  0.00    -0.000 C 
BRANCH  11  12
ATOM     12  C   UNL     1      19.037  56.631  15.327  1.00  0.00    -0.000 C 
BRANCH  12  13
ATOM     13  C   UNL     1      19.318  56.634  16.837  1.00  0.00    -0.000 C 
BRANCH  13  14
ATOM     14  C   UNL     1      20.795  56.907  17.164  1.00  0.00    -0.000 C 
BRANCH  14  15
ATOM     15  C   UNL     1      21.750  56.340  16.103  1.00  0.00    -0.003 C 
ATOM     16  C   UNL     1      23.119  56.035  16.703  1.00  0.00     0.004 C 
ENDBRANCH  14  15
ENDBRANCH  13  14
ENDBRANCH  12  13
ENDBRANCH  11  12
ENDBRANCH  10  11
ENDBRANCH   1  10
TORSDOF 12
ENDMDL
MODEL 5
REMARK VINA RESULT:    -4.736      3.923      6.272
REMARK INTER + INTRA:          -9.607
REMARK INTER:                  -7.824
REMARK INTRA:                  -1.783
REMARK UNBOUND:                -1.548
REMARK SMILES CCCCCCCCCCCCCC(=O)[O-]
REMARK SMILES IDX 8 1 9 2 10 3 11 4 12 5 13 6 14 7 15 8 16 9 7 10 6 11 5 12
REMARK SMILES IDX 4 13 3 14 2 15 1 16
REMARK H PARENT
REMARK Flexibility Score: inf
ROOT
ATOM      1  C   UNL     1      20.157  53.265  15.054  1.00  0.00     0.000 C 
ENDROOT
BRANCH   1   2
ATOM      2  C   UNL     1      19.521  53.789  13.758  1.00  0.00     0.000 C 
BRANCH   2   3
ATOM      3  C   UNL     1      18.725  55.086  13.973  1.00  0.00     0.000 C 
BRANCH   3   4
ATOM      4  C   UNL     1      17.347  55.054  13.289  1.00  0.00     0.000 C 
BRANCH   4   5
ATOM      5  C   UNL     1      16.193  54.852  14.288  1.00  0.00     0.006 C 
BRANCH   5   6
ATOM      6  C   UNL     1      16.545  55.211  15.739  1.00  0.00     0.053 C 
BRANCH   6   7
ATOM      7  C   UNL     1      16.181  56.626  16.069  1.00  0.00     0.041 C 
ATOM      8  O   UNL     1      14.981  56.939  16.286  1.00  0.00    -0.550 OA
ATOM      9  O   UNL     1      17.173  57.593  16.172  1.00  0.00    -0.550 OA
ENDBRANCH   6   7
ENDBRANCH   5   6
ENDBRANCH   4   5
ENDBRANCH   3   4
ENDBRANCH   2   3
ENDBRANCH   1   2
BRANCH   1  10
ATOM     10  C   UNL     1      19.116  52.562  15.933  1.00  0.00     0.000 C 
BRANCH  10  11
ATOM     11  C   UNL     1      19.163  53.088  17.372  1.00  0.00    -0.000 C 
BRANCH  11  12
ATOM     12  C   UNL     1      20.246  54.161  17.532  1.00  0.00    -0.000 C 
BRANCH  12  13
ATOM     13  C   UNL     1      19.620  55.551  17.726  1.00  0.00    -0.000 C 
BRANCH  13  14
ATOM     14  C   UNL     1      20.586  56.691  17.369  1.00  0.00    -0.000 C 
BRANCH  14  15
ATOM     15  C   UNL     1      21.475  56.357  16.162  1.00  0.00    -0.003 C 
ATOM     16  C   UNL     1      22.942  56.264  16.568  1.00  0.00     0.004 C 
ENDBRANCH  14  15
ENDBRANCH  13  14
ENDBRANCH  12  13
ENDBRANCH  11  12
ENDBRANCH  10  11
ENDBRANCH   1  10
TORSDOF 12
ENDMDL
MODEL 6
REMARK VINA RESULT:    -4.722      4.681      6.782
REMARK INTER + INTRA:          -9.582
REMARK INTER:                  -7.600
REMARK INTRA:                  -1.982
REMARK UNBOUND:                -1.548
REMARK SMILES CCCCCCCCCCCCCC(=O)[O-]
REMARK SMILES IDX 8 1 9 2 10 3 11 4 12 5 13 6 14 7 15 8 16 9 7 10 6 11 5 12
REMARK SMILES IDX 4 13 3 14 2 15 1 16
REMARK H PARENT
REMARK Flexibility Score: inf
ROOT
ATOM      1  C   UNL     1      17.277  54.895  14.468  1.00  0.00     0.000 C 
ENDROOT
BRANCH   1   2
ATOM      2  C   UNL     1      16.857  55.941  15.510  1.00  0.00     0.000 C 
BRANCH   2   3
ATOM      3  C   UNL     1      18.058  56.580  16.225  1.00  0.00     0.000 C 
BRANCH   3   4
ATOM      4  C   UNL     1      18.036  56.342  17.745  1.00  0.00     0.000 C 
BRANCH   4   5
ATOM      5  C   UNL     1      17.349  55.019  18.130  1.00  0.00     0.006 C 
BRANCH   5   6
ATOM      6  C   UNL     1      16.269  55.161  19.212  1.00  0.00     0.053 C 
BRANCH   6   7
ATOM      7  C   UNL     1      14.928  55.483  18.626  1.00  0.00     0.041 C 
ATOM      8  O   UNL     1      14.338  56.550  18.941  1.00  0.00    -0.550 OA
ATOM      9  O   UNL     1      14.347  54.621  17.705  1.00  0.00    -0.550 OA
ENDBRANCH   6   7
ENDBRANCH   5   6
ENDBRANCH   4   5
ENDBRANCH   3   4
ENDBRANCH   2   3
ENDBRANCH   1   2
BRANCH   1  10
ATOM     10  C   UNL     1      18.692  55.175  13.946  1.00  0.00     0.000 C 
BRANCH  10  11
ATOM     11  C   UNL     1      19.554  53.909  13.981  1.00  0.00    -0.000 C 
BRANCH  11  12
ATOM     12  C   UNL     1      19.159  53.004  15.153  1.00  0.00    -0.000 C 
BRANCH  12  13
ATOM     13  C   UNL     1      20.297  52.905  16.180  1.00  0.00    -0.000 C 
BRANCH  13  14
ATOM     14  C   UNL     1      21.440  53.890  15.895  1.00  0.00    -0.000 C 
BRANCH  14  15
ATOM     15  C   UNL     1      21.451  55.081  16.865  1.00  0.00    -0.003 C 
ATOM     16  C   UNL     1      21.758  56.383  16.134  1.00  0.00     0.004 C 
ENDBRANCH  14  15
ENDBRANCH  13  14
ENDBRANCH  12  13
ENDBRANCH  11  12
ENDBRANCH  10  11
ENDBRANCH   1  10
TORSDOF 12
ENDMDL
MODEL 7
REMARK VINA RESULT:    -4.718      1.973      3.966
REMARK INTER + INTRA:          -9.575
REMARK INTER:                  -7.663
REMARK INTRA:                  -1.912
REMARK UNBOUND:                -1.548
REMARK SMILES CCCCCCCCCCCCCC(=O)[O-]
REMARK SMILES IDX 8 1 9 2 10 3 11 4 12 5 13 6 14 7 15 8 16 9 7 10 6 11 5 12
REMARK SMILES IDX 4 13 3 14 2 15 1 16
REMARK H PARENT
REMARK Flexibility Score: inf
ROOT
ATOM      1  C   UNL     1      16.743  55.691  17.775  1.00  0.00     0.000 C 
ENDROOT
BRANCH   1   2
ATOM      2  C   UNL     1      17.059  56.253  16.381  1.00  0.00     0.000 C 
BRANCH   2   3
ATOM      3  C   UNL     1      18.267  57.202  16.387  1.00  0.00     0.000 C 
BRANCH   3   4
ATOM      4  C   UNL     1      19.060  57.142  17.704  1.00  0.00     0.000 C 
BRANCH   4   5
ATOM      5  C   UNL     1      20.278  56.203  17.622  1.00  0.00     0.006 C 
BRANCH   5   6
ATOM      6  C   UNL     1      21.290  56.578  16.529  1.00  0.00     0.053 C 
BRANCH   6   7
ATOM      7  C   UNL     1      22.533  55.746  16.608  1.00  0.00     0.041 C 
ATOM      8  O   UNL     1      23.662  56.298  16.697  1.00  0.00    -0.550 OA
ATOM      9  O   UNL     1      22.443  54.360  16.619  1.00  0.00    -0.550 OA
ENDBRANCH   6   7
ENDBRANCH   5   6
ENDBRANCH   4   5
ENDBRANCH   3   4
ENDBRANCH   2   3
ENDBRANCH   1   2
BRANCH   1  10
ATOM     10  C   UNL     1      16.944  54.171  17.814  1.00  0.00     0.000 C 
BRANCH  10  11
ATOM     11  C   UNL     1      17.395  53.639  16.449  1.00  0.00    -0.000 C 
BRANCH  11  12
ATOM     12  C   UNL     1      18.699  52.843  16.571  1.00  0.00    -0.000 C 
BRANCH  12  13
ATOM     13  C   UNL     1      19.424  52.765  15.219  1.00  0.00    -0.000 C 
BRANCH  13  14
ATOM     14  C   UNL     1      19.507  54.126  14.511  1.00  0.00    -0.000 C 
BRANCH  14  15
ATOM     15  C   UNL     1      19.061  54.059  13.044  1.00  0.00    -0.003 C 
ATOM     16  C   UNL     1      17.780  54.857  12.821  1.00  0.00     0.004 C 
ENDBRANCH  14  15
ENDBRANCH  13  14
ENDBRANCH  12  13
ENDBRANCH  11  12
ENDBRANCH  10  11
ENDBRANCH   1  10
TORSDOF 12
ENDMDL
MODEL 8
REMARK VINA RESULT:    -4.715      3.200      5.543
REMARK INTER + INTRA:          -9.571
REMARK INTER:                  -7.806
REMARK INTRA:                  -1.765
REMARK UNBOUND:                -1.548
REMARK SMILES CCCCCCCCCCCCCC(=O)[O-]
REMARK SMILES IDX 8 1 9 2 10 3 11 4 12 5 13 6 14 7 15 8 16 9 7 10 6 11 5 12
REMARK SMILES IDX 4 13 3 14 2 15 1 16
REMARK H PARENT
REMARK Flexibility Score: inf
ROOT
ATOM      1  C   UNL     1      19.575  57.057  17.731  1.00  0.00     0.000 C 
ENDROOT
BRANCH   1   2
ATOM      2  C   UNL     1      18.628  56.900  16.532  1.00  0.00     0.000 C 
BRANCH   2   3
ATOM      3  C   UNL     1      17.448  55.962  16.829  1.00  0.00     0.000 C 
BRANCH   3   4
ATOM      4  C   UNL     1      17.507  55.369  18.248  1.00  0.00     0.000 C 
BRANCH   4   5
ATOM      5  C   UNL     1      17.771  53.852  18.248  1.00  0.00     0.006 C 
BRANCH   5   6
ATOM      6  C   UNL     1      18.058  53.263  19.637  1.00  0.00     0.053 C 
BRANCH   6   7
ATOM      7  C   UNL     1      19.514  52.971  19.831  1.00  0.00     0.041 C 
ATOM      8  O   UNL     1      20.314  53.056  18.862  1.00  0.00    -0.550 OA
ATOM      9  O   UNL     1      19.995  52.638  21.091  1.00  0.00    -0.550 OA
ENDBRANCH   6   7
ENDBRANCH   5   6
ENDBRANCH   4   5
ENDBRANCH   3   4
ENDBRANCH   2   3
ENDBRANCH   1   2
BRANCH   1  10
ATOM     10  C   UNL     1      21.012  56.678  17.351  1.00  0.00     0.000 C 
BRANCH  10  11
ATOM     11  C   UNL     1      21.065  56.049  15.955  1.00  0.00    -0.000 C 
BRANCH  11  12
ATOM     12  C   UNL     1      21.511  54.584  16.026  1.00  0.00    -0.000 C 
BRANCH  12  13
ATOM     13  C   UNL     1      20.475  53.661  15.366  1.00  0.00    -0.000 C 
BRANCH  13  14
ATOM     14  C   UNL     1      19.908  54.243  14.062  1.00  0.00    -0.000 C 
BRANCH  14  15
ATOM     15  C   UNL     1      18.377  54.155  13.992  1.00  0.00    -0.003 C 
ATOM     16  C   UNL     1      17.826  55.038  12.877  1.00  0.00     0.004 C 
ENDBRANCH  14  15
ENDBRANCH  13  14
ENDBRANCH  12  13
ENDBRANCH  11  12
ENDBRANCH  10  11
ENDBRANCH   1  10
TORSDOF 12
ENDMDL
MODEL 9
REMARK VINA RESULT:    -4.665      2.029      4.029
REMARK INTER + INTRA:          -9.485
REMARK INTER:                  -7.397
REMARK INTRA:                  -2.088
REMARK UNBOUND:                -1.548
REMARK SMILES CCCCCCCCCCCCCC(=O)[O-]
REMARK SMILES IDX 8 1 9 2 10 3 11 4 12 5 13 6 14 7 15 8 16 9 7 10 6 11 5 12
REMARK SMILES IDX 4 13 3 14 2 15 1 16
REMARK H PARENT
REMARK Flexibility Score: inf
ROOT
ATOM      1  C   UNL     1      18.375  55.989  14.364  1.00  0.00     0.000 C 
ENDROOT
BRANCH   1   2
ATOM      2  C   UNL     1      18.397  54.507  13.965  1.00  0.00     0.000 C 
BRANCH   2   3
ATOM      3  C   UNL     1      19.788  53.873  14.123  1.00  0.00     0.000 C 
BRANCH   3   4
ATOM      4  C   UNL     1      19.893  52.984  15.375  1.00  0.00     0.000 C 
BRANCH   4   5
ATOM      5  C   UNL     1      20.567  53.701  16.558  1.00  0.00     0.006 C 
BRANCH   5   6
ATOM      6  C   UNL     1      22.043  54.058  16.322  1.00  0.00     0.053 C 
BRANCH   6   7
ATOM      7  C   UNL     1      22.284  55.533  16.414  1.00  0.00     0.041 C 
ATOM      8  O   UNL     1      21.353  56.345  16.170  1.00  0.00    -0.550 OA
ATOM      9  O   UNL     1      23.529  56.011  16.804  1.00  0.00    -0.550 OA
ENDBRANCH   6   7
ENDBRANCH   5   6
ENDBRANCH   4   5
ENDBRANCH   3   4
ENDBRANCH   2   3
ENDBRANCH   1   2
BRANCH   1  10
ATOM     10  C   UNL     1      17.330  56.250  15.456  1.00  0.00     0.000 C 
BRANCH  10  11
ATOM     11  C   UNL     1      17.930  57.053  16.615  1.00  0.00    -0.000 C 
BRANCH  11  12
ATOM     12  C   UNL     1      18.182  56.158  17.834  1.00  0.00    -0.000 C 
BRANCH  12  13
ATOM     13  C   UNL     1      17.072  55.106  17.983  1.00  0.00    -0.000 C 
BRANCH  13  14
ATOM     14  C   UNL     1      17.583  53.789  18.586  1.00  0.00    -0.000 C 
BRANCH  14  15
ATOM     15  C   UNL     1      17.037  52.553  17.856  1.00  0.00    -0.003 C 
ATOM     16  C   UNL     1      16.281  52.951  16.592  1.00  0.00     0.004 C 
ENDBRANCH  14  15
ENDBRANCH  13  14
ENDBRANCH  12  13
ENDBRANCH  11  12
ENDBRANCH  10  11
ENDBRANCH   1  10
TORSDOF 12
ENDMDL
