MODEL 1
REMARK VINA RESULT:    -6.327      0.000      0.000
REMARK INTER + INTRA:          -7.697
REMARK INTER:                  -7.436
REMARK INTRA:                  -0.260
REMARK UNBOUND:                -0.260
REMARK SMILES O=c1cc(-c2ccc(O)c(O)c2)oc2cc(O)cc(O)c12
REMARK SMILES IDX 4 1 3 2 2 3 1 4 21 5 19 6 18 7 16 8 15 9 14 10 13 11 5 12
REMARK SMILES IDX 6 13 7 14 8 15 12 16 10 17 9 18 11 20 20 22 17 24
REMARK H PARENT 9 19 11 21 20 23 17 25
REMARK Flexibility Score: inf
ROOT
ATOM      1  C   UNL     1      57.089   8.868   3.532  1.00  0.00     0.138 A 
ATOM      2  C   UNL     1      58.465   8.969   3.263  1.00  0.00     0.100 A 
ATOM      3  C   UNL     1      58.891   9.263   1.966  1.00  0.00     0.197 A 
ATOM      4  O   UNL     1      60.127   9.350   1.735  1.00  0.00    -0.289 OA
ATOM      5  C   UNL     1      57.938   9.451   0.946  1.00  0.00     0.107 A 
ATOM      6  C   UNL     1      58.284   9.753  -0.392  1.00  0.00     0.134 A 
ATOM      7  C   UNL     1      57.274   9.921  -1.350  1.00  0.00     0.093 A 
ATOM      8  C   UNL     1      55.926   9.791  -0.995  1.00  0.00     0.123 A 
ATOM      9  C   UNL     1      55.579   9.493   0.324  1.00  0.00     0.094 A 
ATOM     10  C   UNL     1      56.571   9.324   1.294  1.00  0.00     0.146 A 
ATOM     11  O   UNL     1      56.215   9.042   2.543  1.00  0.00    -0.456 OA
ENDROOT
BRANCH   1  12
ATOM     12  C   UNL     1      56.578   8.556   4.890  1.00  0.00     0.021 A 
ATOM     13  C   UNL     1      56.096   7.277   5.222  1.00  0.00     0.016 A 
ATOM     14  C   UNL     1      55.631   7.010   6.511  1.00  0.00     0.051 A 
ATOM     15  C   UNL     1      55.642   8.002   7.496  1.00  0.00     0.157 A 
ATOM     16  C   UNL     1      56.602   9.548   5.884  1.00  0.00     0.062 A 
ATOM     17  C   UNL     1      56.136   9.289   7.180  1.00  0.00     0.158 A 
BRANCH  15  18
ATOM     18  O   UNL     1      55.160   7.669   8.763  1.00  0.00    -0.504 OA
ATOM     19  H   UNL     1      55.471   6.866   9.292  1.00  0.00     0.293 HD
ENDBRANCH  15  18
BRANCH  17  20
ATOM     20  O   UNL     1      56.184  10.329   8.110  1.00  0.00    -0.504 OA
ATOM     21  H   UNL     1      56.271  10.191   9.107  1.00  0.00     0.293 HD
ENDBRANCH  17  20
ENDBRANCH   1  12
BRANCH   6  22
ATOM     22  O   UNL     1      59.620   9.888  -0.774  1.00  0.00    -0.507 OA
ATOM     23  H   UNL     1      59.983   9.440  -1.607  1.00  0.00     0.293 HD
ENDBRANCH   6  22
BRANCH   8  24
ATOM     24  O   UNL     1      54.922   9.957  -1.948  1.00  0.00    -0.508 OA
ATOM     25  H   UNL     1      54.526  10.868  -2.148  1.00  0.00     0.293 HD
ENDBRANCH   8  24
TORSDOF 5
ENDMDL
MODEL 2
REMARK VINA RESULT:    -6.217     16.116     17.000
REMARK INTER + INTRA:          -7.567
REMARK INTER:                  -7.272
REMARK INTRA:                  -0.295
REMARK UNBOUND:                -0.260
REMARK SMILES O=c1cc(-c2ccc(O)c(O)c2)oc2cc(O)cc(O)c12
REMARK SMILES IDX 4 1 3 2 2 3 1 4 21 5 19 6 18 7 16 8 15 9 14 10 13 11 5 12
REMARK SMILES IDX 6 13 7 14 8 15 12 16 10 17 9 18 11 20 20 22 17 24
REMARK H PARENT 9 19 11 21 20 23 17 25
REMARK Flexibility Score: inf
ROOT
ATOM      1  C   UNL     1      72.864  12.402   0.237  1.00  0.00     0.138 A 
ATOM      2  C   UNL     1      72.127  13.534   0.622  1.00  0.00     0.100 A 
ATOM      3  C   UNL     1      71.886  14.547  -0.309  1.00  0.00     0.197 A 
ATOM      4  O   UNL     1      71.224  15.559   0.047  1.00  0.00    -0.289 OA
ATOM      5  C   UNL     1      72.389  14.421  -1.618  1.00  0.00     0.107 A 
ATOM      6  C   UNL     1      72.190  15.398  -2.622  1.00  0.00     0.134 A 
ATOM      7  C   UNL     1      72.728  15.201  -3.902  1.00  0.00     0.093 A 
ATOM      8  C   UNL     1      73.462  14.045  -4.196  1.00  0.00     0.123 A 
ATOM      9  C   UNL     1      73.661  13.078  -3.209  1.00  0.00     0.094 A 
ATOM     10  C   UNL     1      73.131  13.256  -1.928  1.00  0.00     0.146 A 
ATOM     11  O   UNL     1      73.334  12.319  -1.006  1.00  0.00    -0.456 OA
ENDROOT
BRANCH   1  12
ATOM     12  C   UNL     1      73.152  11.296   1.184  1.00  0.00     0.021 A 
ATOM     13  C   UNL     1      73.859  10.148   0.785  1.00  0.00     0.016 A 
ATOM     14  C   UNL     1      74.125   9.128   1.701  1.00  0.00     0.051 A 
ATOM     15  C   UNL     1      73.701   9.230   3.029  1.00  0.00     0.157 A 
ATOM     16  C   UNL     1      72.739  11.405   2.523  1.00  0.00     0.062 A 
ATOM     17  C   UNL     1      73.000  10.385   3.447  1.00  0.00     0.158 A 
BRANCH  15  18
ATOM     18  O   UNL     1      73.996   8.173   3.892  1.00  0.00    -0.504 OA
ATOM     19  H   UNL     1      73.312   7.510   4.228  1.00  0.00     0.293 HD
ENDBRANCH  15  18
BRANCH  17  20
ATOM     20  O   UNL     1      72.550  10.562   4.757  1.00  0.00    -0.504 OA
ATOM     21  H   UNL     1      72.556   9.836   5.459  1.00  0.00     0.293 HD
ENDBRANCH  17  20
ENDBRANCH   1  12
BRANCH   6  22
ATOM     22  O   UNL     1      71.463  16.561  -2.358  1.00  0.00    -0.507 OA
ATOM     23  H   UNL     1      71.499  17.018  -1.455  1.00  0.00     0.293 HD
ENDBRANCH   6  22
BRANCH   8  24
ATOM     24  O   UNL     1      73.998  13.848  -5.467  1.00  0.00    -0.508 OA
ATOM     25  H   UNL     1      73.438  13.970  -6.303  1.00  0.00     0.293 HD
ENDBRANCH   8  24
TORSDOF 5
ENDMDL
MODEL 3
REMARK VINA RESULT:    -6.199      1.144      2.692
REMARK INTER + INTRA:          -7.546
REMARK INTER:                  -7.281
REMARK INTRA:                  -0.266
REMARK UNBOUND:                -0.260
REMARK SMILES O=c1cc(-c2ccc(O)c(O)c2)oc2cc(O)cc(O)c12
REMARK SMILES IDX 4 1 3 2 2 3 1 4 21 5 19 6 18 7 16 8 15 9 14 10 13 11 5 12
REMARK SMILES IDX 6 13 7 14 8 15 12 16 10 17 9 18 11 20 20 22 17 24
REMARK H PARENT 9 19 11 21 20 23 17 25
REMARK Flexibility Score: inf
ROOT
ATOM      1  C   UNL     1      56.119   9.117   3.071  1.00  0.00     0.138 A 
ATOM      2  C   UNL     1      54.919   9.128   2.341  1.00  0.00     0.100 A 
ATOM      3  C   UNL     1      54.959   9.304   0.956  1.00  0.00     0.197 A 
ATOM      4  O   UNL     1      53.876   9.313   0.311  1.00  0.00    -0.289 OA
ATOM      5  C   UNL     1      56.200   9.470   0.312  1.00  0.00     0.107 A 
ATOM      6  C   UNL     1      56.329   9.652  -1.085  1.00  0.00     0.134 A 
ATOM      7  C   UNL     1      57.602   9.816  -1.650  1.00  0.00     0.093 A 
ATOM      8  C   UNL     1      58.747   9.803  -0.844  1.00  0.00     0.123 A 
ATOM      9  C   UNL     1      58.624   9.623   0.535  1.00  0.00     0.094 A 
ATOM     10  C   UNL     1      57.365   9.457   1.117  1.00  0.00     0.146 A 
ATOM     11  O   UNL     1      57.275   9.287   2.432  1.00  0.00    -0.456 OA
ENDROOT
BRANCH   1  12
ATOM     12  C   UNL     1      56.138   8.936   4.544  1.00  0.00     0.021 A 
ATOM     13  C   UNL     1      56.112   7.658   5.132  1.00  0.00     0.016 A 
ATOM     14  C   UNL     1      56.142   7.519   6.521  1.00  0.00     0.051 A 
ATOM     15  C   UNL     1      56.204   8.642   7.352  1.00  0.00     0.157 A 
ATOM     16  C   UNL     1      56.215  10.063   5.379  1.00  0.00     0.062 A 
ATOM     17  C   UNL     1      56.244   9.931   6.774  1.00  0.00     0.158 A 
BRANCH  15  18
ATOM     18  O   UNL     1      56.228   8.431   8.732  1.00  0.00    -0.504 OA
ATOM     19  H   UNL     1      56.430   9.153   9.409  1.00  0.00     0.293 HD
ENDBRANCH  15  18
BRANCH  17  20
ATOM     20  O   UNL     1      56.312  11.099   7.537  1.00  0.00    -0.504 OA
ATOM     21  H   UNL     1      57.094  11.738   7.523  1.00  0.00     0.293 HD
ENDBRANCH  17  20
ENDBRANCH   1  12
BRANCH   6  22
ATOM     22  O   UNL     1      55.206   9.670  -1.914  1.00  0.00    -0.507 OA
ATOM     23  H   UNL     1      54.303   9.988  -1.581  1.00  0.00     0.293 HD
ENDBRANCH   6  22
BRANCH   8  24
ATOM     24  O   UNL     1      60.012   9.967  -1.405  1.00  0.00    -0.508 OA
ATOM     25  H   UNL     1      60.266   9.521  -2.279  1.00  0.00     0.293 HD
ENDBRANCH   8  24
TORSDOF 5
ENDMDL
MODEL 4
REMARK VINA RESULT:    -6.104     14.280     16.161
REMARK INTER + INTRA:          -7.435
REMARK INTER:                  -7.116
REMARK INTRA:                  -0.318
REMARK UNBOUND:                -0.260
REMARK SMILES O=c1cc(-c2ccc(O)c(O)c2)oc2cc(O)cc(O)c12
REMARK SMILES IDX 4 1 3 2 2 3 1 4 21 5 19 6 18 7 16 8 15 9 14 10 13 11 5 12
REMARK SMILES IDX 6 13 7 14 8 15 12 16 10 17 9 18 11 20 20 22 17 24
REMARK H PARENT 9 19 11 21 20 23 17 25
REMARK Flexibility Score: inf
ROOT
ATOM      1  C   UNL     1      71.932  13.477  -1.543  1.00  0.00     0.138 A 
ATOM      2  C   UNL     1      73.101  13.581  -2.315  1.00  0.00     0.100 A 
ATOM      3  C   UNL     1      73.065  14.277  -3.524  1.00  0.00     0.197 A 
ATOM      4  O   UNL     1      74.120  14.365  -4.210  1.00  0.00    -0.289 OA
ATOM      5  C   UNL     1      71.858  14.861  -3.956  1.00  0.00     0.107 A 
ATOM      6  C   UNL     1      71.736  15.584  -5.166  1.00  0.00     0.134 A 
ATOM      7  C   UNL     1      70.496  16.131  -5.527  1.00  0.00     0.093 A 
ATOM      8  C   UNL     1      69.377  15.968  -4.700  1.00  0.00     0.123 A 
ATOM      9  C   UNL     1      69.493  15.256  -3.505  1.00  0.00     0.094 A 
ATOM     10  C   UNL     1      70.720  14.704  -3.127  1.00  0.00     0.146 A 
ATOM     11  O   UNL     1      70.805  14.031  -1.984  1.00  0.00    -0.456 OA
ENDROOT
BRANCH   1  12
ATOM     12  C   UNL     1      71.910  12.748  -0.250  1.00  0.00     0.021 A 
ATOM     13  C   UNL     1      73.038  12.055   0.227  1.00  0.00     0.016 A 
ATOM     14  C   UNL     1      72.990  11.387   1.452  1.00  0.00     0.051 A 
ATOM     15  C   UNL     1      71.828  11.399   2.230  1.00  0.00     0.157 A 
ATOM     16  C   UNL     1      70.748  12.771   0.539  1.00  0.00     0.062 A 
ATOM     17  C   UNL     1      70.692  12.102   1.769  1.00  0.00     0.158 A 
BRANCH  15  18
ATOM     18  O   UNL     1      71.848  10.708   3.443  1.00  0.00    -0.504 OA
ATOM     19  H   UNL     1      72.684  10.546   3.987  1.00  0.00     0.293 HD
ENDBRANCH  15  18
BRANCH  17  20
ATOM     20  O   UNL     1      69.498  12.164   2.491  1.00  0.00    -0.504 OA
ATOM     21  H   UNL     1      68.601  12.382   2.081  1.00  0.00     0.293 HD
ENDBRANCH  17  20
ENDBRANCH   1  12
BRANCH   6  22
ATOM     22  O   UNL     1      72.834  15.762  -6.009  1.00  0.00    -0.507 OA
ATOM     23  H   UNL     1      73.347  14.976  -6.390  1.00  0.00     0.293 HD
ENDBRANCH   6  22
BRANCH   8  24
ATOM     24  O   UNL     1      68.145  16.510  -5.059  1.00  0.00    -0.508 OA
ATOM     25  H   UNL     1      68.031  17.503  -5.227  1.00  0.00     0.293 HD
ENDBRANCH   8  24
TORSDOF 5
ENDMDL
MODEL 5
REMARK VINA RESULT:    -6.023     13.554     15.004
REMARK INTER + INTRA:          -7.340
REMARK INTER:                  -7.038
REMARK INTRA:                  -0.301
REMARK UNBOUND:                -0.260
REMARK SMILES O=c1cc(-c2ccc(O)c(O)c2)oc2cc(O)cc(O)c12
REMARK SMILES IDX 4 1 3 2 2 3 1 4 21 5 19 6 18 7 16 8 15 9 14 10 13 11 5 12
REMARK SMILES IDX 6 13 7 14 8 15 12 16 10 17 9 18 11 20 20 22 17 24
REMARK H PARENT 9 19 11 21 20 23 17 25
REMARK Flexibility Score: inf
ROOT
ATOM      1  C   UNL     1      71.310  12.798   0.508  1.00  0.00     0.138 A 
ATOM      2  C   UNL     1      71.973  14.037   0.507  1.00  0.00     0.100 A 
ATOM      3  C   UNL     1      71.704  14.959  -0.506  1.00  0.00     0.197 A 
ATOM      4  O   UNL     1      72.305  16.067  -0.498  1.00  0.00    -0.289 OA
ATOM      5  C   UNL     1      70.775  14.635  -1.514  1.00  0.00     0.107 A 
ATOM      6  C   UNL     1      70.444  15.511  -2.574  1.00  0.00     0.134 A 
ATOM      7  C   UNL     1      69.511  15.111  -3.541  1.00  0.00     0.093 A 
ATOM      8  C   UNL     1      68.904  13.851  -3.469  1.00  0.00     0.123 A 
ATOM      9  C   UNL     1      69.228  12.983  -2.425  1.00  0.00     0.094 A 
ATOM     10  C   UNL     1      70.154  13.364  -1.450  1.00  0.00     0.146 A 
ATOM     11  O   UNL     1      70.444  12.519  -0.465  1.00  0.00    -0.456 OA
ENDROOT
BRANCH   1  12
ATOM     12  C   UNL     1      71.557  11.778   1.557  1.00  0.00     0.021 A 
ATOM     13  C   UNL     1      72.830  11.598   2.127  1.00  0.00     0.016 A 
ATOM     14  C   UNL     1      73.030  10.637   3.120  1.00  0.00     0.051 A 
ATOM     15  C   UNL     1      71.972   9.843   3.571  1.00  0.00     0.157 A 
ATOM     16  C   UNL     1      70.491  10.990   2.022  1.00  0.00     0.062 A 
ATOM     17  C   UNL     1      70.684  10.023   3.017  1.00  0.00     0.158 A 
BRANCH  15  18
ATOM     18  O   UNL     1      72.241   8.900   4.565  1.00  0.00    -0.504 OA
ATOM     19  H   UNL     1      72.403   9.132   5.535  1.00  0.00     0.293 HD
ENDBRANCH  15  18
BRANCH  17  20
ATOM     20  O   UNL     1      69.577   9.272   3.420  1.00  0.00    -0.504 OA
ATOM     21  H   UNL     1      69.603   8.576   4.151  1.00  0.00     0.293 HD
ENDBRANCH  17  20
ENDBRANCH   1  12
BRANCH   6  22
ATOM     22  O   UNL     1      71.032  16.774  -2.672  1.00  0.00    -0.507 OA
ATOM     23  H   UNL     1      72.013  16.922  -2.466  1.00  0.00     0.293 HD
ENDBRANCH   6  22
BRANCH   8  24
ATOM     24  O   UNL     1      67.979  13.453  -4.431  1.00  0.00    -0.508 OA
ATOM     25  H   UNL     1      67.080  13.063  -4.172  1.00  0.00     0.293 HD
ENDBRANCH   8  24
TORSDOF 5
ENDMDL
MODEL 6
REMARK VINA RESULT:    -5.939     12.303     15.970
REMARK INTER + INTRA:          -7.242
REMARK INTER:                  -6.923
REMARK INTRA:                  -0.318
REMARK UNBOUND:                -0.260
REMARK SMILES O=c1cc(-c2ccc(O)c(O)c2)oc2cc(O)cc(O)c12
REMARK SMILES IDX 4 1 3 2 2 3 1 4 21 5 19 6 18 7 16 8 15 9 14 10 13 11 5 12
REMARK SMILES IDX 6 13 7 14 8 15 12 16 10 17 9 18 11 20 20 22 17 24
REMARK H PARENT 9 19 11 21 20 23 17 25
REMARK Flexibility Score: inf
ROOT
ATOM      1  C   UNL     1      70.339  14.129  -1.640  1.00  0.00     0.138 A 
ATOM      2  C   UNL     1      71.488  14.209  -0.837  1.00  0.00     0.100 A 
ATOM      3  C   UNL     1      71.636  13.333   0.240  1.00  0.00     0.197 A 
ATOM      4  O   UNL     1      72.671  13.413   0.955  1.00  0.00    -0.289 OA
ATOM      5  C   UNL     1      70.629  12.384   0.508  1.00  0.00     0.107 A 
ATOM      6  C   UNL     1      70.701  11.459   1.576  1.00  0.00     0.134 A 
ATOM      7  C   UNL     1      69.653  10.549   1.779  1.00  0.00     0.093 A 
ATOM      8  C   UNL     1      68.537  10.548   0.934  1.00  0.00     0.123 A 
ATOM      9  C   UNL     1      68.462  11.458  -0.121  1.00  0.00     0.094 A 
ATOM     10  C   UNL     1      69.496  12.372  -0.341  1.00  0.00     0.146 A 
ATOM     11  O   UNL     1      69.402  13.228  -1.354  1.00  0.00    -0.456 OA
ENDROOT
BRANCH   1  12
ATOM     12  C   UNL     1      70.127  15.036  -2.797  1.00  0.00     0.021 A 
ATOM     13  C   UNL     1      71.022  16.080  -3.090  1.00  0.00     0.016 A 
ATOM     14  C   UNL     1      70.802  16.911  -4.191  1.00  0.00     0.051 A 
ATOM     15  C   UNL     1      69.697  16.717  -5.024  1.00  0.00     0.157 A 
ATOM     16  C   UNL     1      69.025  14.832  -3.644  1.00  0.00     0.062 A 
ATOM     17  C   UNL     1      68.797  15.662  -4.749  1.00  0.00     0.158 A 
BRANCH  15  18
ATOM     18  O   UNL     1      69.536  17.585  -6.106  1.00  0.00    -0.504 OA
ATOM     19  H   UNL     1      70.276  17.829  -6.749  1.00  0.00     0.293 HD
ENDBRANCH  15  18
BRANCH  17  20
ATOM     20  O   UNL     1      67.675  15.402  -5.539  1.00  0.00    -0.504 OA
ATOM     21  H   UNL     1      66.894  16.035  -5.636  1.00  0.00     0.293 HD
ENDBRANCH  17  20
ENDBRANCH   1  12
BRANCH   6  22
ATOM     22  O   UNL     1      71.801  11.438   2.435  1.00  0.00    -0.507 OA
ATOM     23  H   UNL     1      71.692  11.399   3.441  1.00  0.00     0.293 HD
ENDBRANCH   6  22
BRANCH   8  24
ATOM     24  O   UNL     1      67.495   9.644   1.136  1.00  0.00    -0.508 OA
ATOM     25  H   UNL     1      66.794   9.475   0.424  1.00  0.00     0.293 HD
ENDBRANCH   8  24
TORSDOF 5
ENDMDL
MODEL 7
REMARK VINA RESULT:    -5.880     13.254     16.237
REMARK INTER + INTRA:          -7.172
REMARK INTER:                  -6.881
REMARK INTRA:                  -0.291
REMARK UNBOUND:                -0.260
REMARK SMILES O=c1cc(-c2ccc(O)c(O)c2)oc2cc(O)cc(O)c12
REMARK SMILES IDX 4 1 3 2 2 3 1 4 21 5 19 6 18 7 16 8 15 9 14 10 13 11 5 12
REMARK SMILES IDX 6 13 7 14 8 15 12 16 10 17 9 18 11 20 20 22 17 24
REMARK H PARENT 9 19 11 21 20 23 17 25
REMARK Flexibility Score: inf
ROOT
ATOM      1  C   UNL     1      70.893  12.305   0.899  1.00  0.00     0.138 A 
ATOM      2  C   UNL     1      69.809  11.412   0.869  1.00  0.00     0.100 A 
ATOM      3  C   UNL     1      69.783  10.333   1.754  1.00  0.00     0.197 A 
ATOM      4  O   UNL     1      68.805   9.537   1.718  1.00  0.00    -0.289 OA
ATOM      5  C   UNL     1      70.844  10.152   2.662  1.00  0.00     0.107 A 
ATOM      6  C   UNL     1      70.895   9.087   3.593  1.00  0.00     0.134 A 
ATOM      7  C   UNL     1      71.991   8.975   4.461  1.00  0.00     0.093 A 
ATOM      8  C   UNL     1      73.035   9.906   4.415  1.00  0.00     0.123 A 
ATOM      9  C   UNL     1      72.989  10.958   3.499  1.00  0.00     0.094 A 
ATOM     10  C   UNL     1      71.906  11.088   2.626  1.00  0.00     0.146 A 
ATOM     11  O   UNL     1      71.885  12.100   1.763  1.00  0.00    -0.456 OA
ENDROOT
BRANCH   1  12
ATOM     12  C   UNL     1      70.976  13.468  -0.019  1.00  0.00     0.021 A 
ATOM     13  C   UNL     1      71.825  14.558   0.245  1.00  0.00     0.016 A 
ATOM     14  C   UNL     1      71.889  15.634  -0.643  1.00  0.00     0.051 A 
ATOM     15  C   UNL     1      71.120  15.646  -1.810  1.00  0.00     0.157 A 
ATOM     16  C   UNL     1      70.214  13.474  -1.200  1.00  0.00     0.062 A 
ATOM     17  C   UNL     1      70.272  14.551  -2.094  1.00  0.00     0.158 A 
BRANCH  15  18
ATOM     18  O   UNL     1      71.230  16.754  -2.653  1.00  0.00    -0.504 OA
ATOM     19  H   UNL     1      71.497  16.699  -3.626  1.00  0.00     0.293 HD
ENDBRANCH  15  18
BRANCH  17  20
ATOM     20  O   UNL     1      69.479  14.488  -3.242  1.00  0.00    -0.504 OA
ATOM     21  H   UNL     1      69.717  13.952  -4.064  1.00  0.00     0.293 HD
ENDBRANCH  17  20
ENDBRANCH   1  12
BRANCH   6  22
ATOM     22  O   UNL     1      69.868   8.144   3.661  1.00  0.00    -0.507 OA
ATOM     23  H   UNL     1      68.983   8.285   3.190  1.00  0.00     0.293 HD
ENDBRANCH   6  22
BRANCH   8  24
ATOM     24  O   UNL     1      74.125   9.793   5.276  1.00  0.00    -0.508 OA
ATOM     25  H   UNL     1      74.639  10.608   5.590  1.00  0.00     0.293 HD
ENDBRANCH   8  24
TORSDOF 5
ENDMDL
MODEL 8
REMARK VINA RESULT:    -5.856     14.141     15.761
REMARK INTER + INTRA:          -7.144
REMARK INTER:                  -6.876
REMARK INTRA:                  -0.267
REMARK UNBOUND:                -0.260
REMARK SMILES O=c1cc(-c2ccc(O)c(O)c2)oc2cc(O)cc(O)c12
REMARK SMILES IDX 4 1 3 2 2 3 1 4 21 5 19 6 18 7 16 8 15 9 14 10 13 11 5 12
REMARK SMILES IDX 6 13 7 14 8 15 12 16 10 17 9 18 11 20 20 22 17 24
REMARK H PARENT 9 19 11 21 20 23 17 25
REMARK Flexibility Score: inf
ROOT
ATOM      1  C   UNL     1      70.352  13.928  -2.119  1.00  0.00     0.138 A 
ATOM      2  C   UNL     1      69.267  13.309  -2.761  1.00  0.00     0.100 A 
ATOM      3  C   UNL     1      68.669  13.935  -3.857  1.00  0.00     0.197 A 
ATOM      4  O   UNL     1      67.696  13.370  -4.426  1.00  0.00    -0.289 OA
ATOM      5  C   UNL     1      69.159  15.179  -4.300  1.00  0.00     0.107 A 
ATOM      6  C   UNL     1      68.613  15.879  -5.401  1.00  0.00     0.134 A 
ATOM      7  C   UNL     1      69.155  17.117  -5.777  1.00  0.00     0.093 A 
ATOM      8  C   UNL     1      70.232  17.667  -5.070  1.00  0.00     0.123 A 
ATOM      9  C   UNL     1      70.774  16.980  -3.983  1.00  0.00     0.094 A 
ATOM     10  C   UNL     1      70.249  15.744  -3.594  1.00  0.00     0.146 A 
ATOM     11  O   UNL     1      70.784  15.109  -2.556  1.00  0.00    -0.456 OA
ENDROOT
BRANCH   1  12
ATOM     12  C   UNL     1      71.026  13.311  -0.949  1.00  0.00     0.021 A 
ATOM     13  C   UNL     1      72.407  13.046  -0.947  1.00  0.00     0.016 A 
ATOM     14  C   UNL     1      73.015  12.474   0.173  1.00  0.00     0.051 A 
ATOM     15  C   UNL     1      72.267  12.161   1.312  1.00  0.00     0.157 A 
ATOM     16  C   UNL     1      70.278  13.009   0.202  1.00  0.00     0.062 A 
ATOM     17  C   UNL     1      70.880  12.434   1.328  1.00  0.00     0.158 A 
BRANCH  15  18
ATOM     18  O   UNL     1      72.937  11.589   2.395  1.00  0.00    -0.504 OA
ATOM     19  H   UNL     1      72.717  11.784   3.362  1.00  0.00     0.293 HD
ENDBRANCH  15  18
BRANCH  17  20
ATOM     20  O   UNL     1      70.069  12.155   2.430  1.00  0.00    -0.504 OA
ATOM     21  H   UNL     1      70.420  11.856   3.328  1.00  0.00     0.293 HD
ENDBRANCH  17  20
ENDBRANCH   1  12
BRANCH   6  22
ATOM     22  O   UNL     1      67.539  15.355  -6.123  1.00  0.00    -0.507 OA
ATOM     23  H   UNL     1      67.635  14.523  -6.693  1.00  0.00     0.293 HD
ENDBRANCH   6  22
BRANCH   8  24
ATOM     24  O   UNL     1      70.770  18.897  -5.442  1.00  0.00    -0.508 OA
ATOM     25  H   UNL     1      71.629  18.960  -5.977  1.00  0.00     0.293 HD
ENDBRANCH   8  24
TORSDOF 5
ENDMDL
MODEL 9
REMARK VINA RESULT:    -5.758     14.343     16.179
REMARK INTER + INTRA:          -7.029
REMARK INTER:                  -6.765
REMARK INTRA:                  -0.264
REMARK UNBOUND:                -0.260
REMARK SMILES O=c1cc(-c2ccc(O)c(O)c2)oc2cc(O)cc(O)c12
REMARK SMILES IDX 4 1 3 2 2 3 1 4 21 5 19 6 18 7 16 8 15 9 14 10 13 11 5 12
REMARK SMILES IDX 6 13 7 14 8 15 12 16 10 17 9 18 11 20 20 22 17 24
REMARK H PARENT 9 19 11 21 20 23 17 25
REMARK Flexibility Score: inf
ROOT
ATOM      1  C   UNL     1      72.392  11.682   0.613  1.00  0.00     0.138 A 
ATOM      2  C   UNL     1      73.160  11.101  -0.410  1.00  0.00     0.100 A 
ATOM      3  C   UNL     1      73.435  11.837  -1.564  1.00  0.00     0.197 A 
ATOM      4  O   UNL     1      74.125  11.306  -2.477  1.00  0.00    -0.289 OA
ATOM      5  C   UNL     1      72.935  13.148  -1.689  1.00  0.00     0.107 A 
ATOM      6  C   UNL     1      73.167  13.961  -2.824  1.00  0.00     0.134 A 
ATOM      7  C   UNL     1      72.630  15.255  -2.873  1.00  0.00     0.093 A 
ATOM      8  C   UNL     1      71.865  15.751  -1.811  1.00  0.00     0.123 A 
ATOM      9  C   UNL     1      71.633  14.952  -0.689  1.00  0.00     0.094 A 
ATOM     10  C   UNL     1      72.161  13.660  -0.620  1.00  0.00     0.146 A 
ATOM     11  O   UNL     1      71.927  12.920   0.459  1.00  0.00    -0.456 OA
ENDROOT
BRANCH   1  12
ATOM     12  C   UNL     1      72.067  10.948   1.862  1.00  0.00     0.021 A 
ATOM     13  C   UNL     1      70.838  10.285   2.030  1.00  0.00     0.016 A 
ATOM     14  C   UNL     1      70.565   9.593   3.212  1.00  0.00     0.051 A 
ATOM     15  C   UNL     1      71.506   9.540   4.244  1.00  0.00     0.157 A 
ATOM     16  C   UNL     1      73.018  10.882   2.894  1.00  0.00     0.062 A 
ATOM     17  C   UNL     1      72.751  10.191   4.083  1.00  0.00     0.158 A 
BRANCH  15  18
ATOM     18  O   UNL     1      71.168   8.834   5.400  1.00  0.00    -0.504 OA
ATOM     19  H   UNL     1      70.740   7.918   5.397  1.00  0.00     0.293 HD
ENDBRANCH  15  18
BRANCH  17  20
ATOM     20  O   UNL     1      73.743  10.178   5.066  1.00  0.00    -0.504 OA
ATOM     21  H   UNL     1      74.474   9.484   5.121  1.00  0.00     0.293 HD
ENDBRANCH  17  20
ENDBRANCH   1  12
BRANCH   6  22
ATOM     22  O   UNL     1      73.926  13.494  -3.898  1.00  0.00    -0.507 OA
ATOM     23  H   UNL     1      73.706  12.624  -4.369  1.00  0.00     0.293 HD
ENDBRANCH   6  22
BRANCH   8  24
ATOM     24  O   UNL     1      71.330  17.036  -1.860  1.00  0.00    -0.508 OA
ATOM     25  H   UNL     1      70.867  17.386  -2.691  1.00  0.00     0.293 HD
ENDBRANCH   8  24
TORSDOF 5
ENDMDL
