MODEL 1
REMARK VINA RESULT:    -5.177      0.000      0.000
REMARK INTER + INTRA:          -5.655
REMARK INTER:                  -6.236
REMARK INTRA:                   0.582
REMARK UNBOUND:                 0.582
REMARK SMILES O=c1c(O)c(-c2ccc(O)cc2O)oc2cc(O)cc(O)c12
REMARK SMILES IDX 5 1 3 2 2 3 1 4 22 5 20 6 19 7 17 8 16 9 15 10 14 11 6 12
REMARK SMILES IDX 8 13 7 14 9 15 11 16 12 17 10 18 13 20 4 22 21 24 18 26
REMARK H PARENT 10 19 13 21 4 23 21 25 18 27
REMARK Flexibility Score: inf
ROOT
ATOM      1  C   UNL     1      -5.531 -17.769  -7.238  1.00  0.00     0.184 A 
ATOM      2  C   UNL     1      -4.329 -18.246  -6.688  1.00  0.00     0.208 A 
ATOM      3  C   UNL     1      -3.899 -17.735  -5.453  1.00  0.00     0.238 A 
ATOM      4  O   UNL     1      -2.817 -18.148  -4.954  1.00  0.00    -0.285 OA
ATOM      5  C   UNL     1      -4.687 -16.775  -4.785  1.00  0.00     0.111 A 
ATOM      6  C   UNL     1      -4.327 -16.212  -3.537  1.00  0.00     0.134 A 
ATOM      7  C   UNL     1      -5.168 -15.267  -2.932  1.00  0.00     0.093 A 
ATOM      8  C   UNL     1      -6.361 -14.876  -3.550  1.00  0.00     0.123 A 
ATOM      9  C   UNL     1      -6.719 -15.427  -4.782  1.00  0.00     0.094 A 
ATOM     10  C   UNL     1      -5.894 -16.369  -5.402  1.00  0.00     0.146 A 
ATOM     11  O   UNL     1      -6.257 -16.874  -6.576  1.00  0.00    -0.451 OA
ENDROOT
BRANCH   1  12
ATOM     12  C   UNL     1      -6.035 -18.255  -8.540  1.00  0.00     0.063 A 
ATOM     13  C   UNL     1      -5.676 -19.594 -10.537  1.00  0.00     0.047 A 
ATOM     14  C   UNL     1      -5.228 -19.111  -9.305  1.00  0.00     0.020 A 
ATOM     15  C   UNL     1      -6.940 -19.239 -11.014  1.00  0.00     0.119 A 
ATOM     16  C   UNL     1      -7.762 -18.403 -10.248  1.00  0.00     0.093 A 
ATOM     17  C   UNL     1      -7.323 -17.920  -9.007  1.00  0.00     0.130 A 
BRANCH  15  18
ATOM     18  O   UNL     1      -7.371 -19.725 -12.247  1.00  0.00    -0.508 OA
ATOM     19  H   UNL     1      -7.243 -19.193 -13.100  1.00  0.00     0.293 HD
ENDBRANCH  15  18
BRANCH  17  20
ATOM     20  O   UNL     1      -8.170 -17.128  -8.231  1.00  0.00    -0.507 OA
ATOM     21  H   UNL     1      -9.070 -17.467  -7.912  1.00  0.00     0.293 HD
ENDBRANCH  17  20
ENDBRANCH   1  12
BRANCH   2  22
ATOM     22  O   UNL     1      -3.595 -19.231  -7.353  1.00  0.00    -0.502 OA
ATOM     23  H   UNL     1      -2.909 -19.009  -8.064  1.00  0.00     0.293 HD
ENDBRANCH   2  22
BRANCH   6  24
ATOM     24  O   UNL     1      -3.145 -16.583  -2.895  1.00  0.00    -0.507 OA
ATOM     25  H   UNL     1      -2.316 -16.846  -3.415  1.00  0.00     0.293 HD
ENDBRANCH   6  24
BRANCH   8  26
ATOM     26  O   UNL     1      -7.199 -13.937  -2.950  1.00  0.00    -0.508 OA
ATOM     27  H   UNL     1      -8.173 -14.142  -2.763  1.00  0.00     0.293 HD
ENDBRANCH   8  26
TORSDOF 6
ENDMDL
MODEL 2
REMARK VINA RESULT:    -5.085      1.932      2.251
REMARK INTER + INTRA:          -5.544
REMARK INTER:                  -5.241
REMARK INTRA:                  -0.303
REMARK UNBOUND:                 0.582
REMARK SMILES O=c1c(O)c(-c2ccc(O)cc2O)oc2cc(O)cc(O)c12
REMARK SMILES IDX 5 1 3 2 2 3 1 4 22 5 20 6 19 7 17 8 16 9 15 10 14 11 6 12
REMARK SMILES IDX 8 13 7 14 9 15 11 16 12 17 10 18 13 20 4 22 21 24 18 26
REMARK H PARENT 10 19 13 21 4 23 21 25 18 27
REMARK Flexibility Score: inf
ROOT
ATOM      1  C   UNL     1      -4.933 -17.754  -6.437  1.00  0.00     0.184 A 
ATOM      2  C   UNL     1      -4.181 -18.859  -6.003  1.00  0.00     0.208 A 
ATOM      3  C   UNL     1      -3.217 -18.671  -4.999  1.00  0.00     0.238 A 
ATOM      4  O   UNL     1      -2.528 -19.653  -4.609  1.00  0.00    -0.285 OA
ATOM      5  C   UNL     1      -3.040 -17.390  -4.437  1.00  0.00     0.111 A 
ATOM      6  C   UNL     1      -2.093 -17.116  -3.419  1.00  0.00     0.134 A 
ATOM      7  C   UNL     1      -1.982 -15.817  -2.905  1.00  0.00     0.093 A 
ATOM      8  C   UNL     1      -2.798 -14.787  -3.387  1.00  0.00     0.123 A 
ATOM      9  C   UNL     1      -3.732 -15.052  -4.390  1.00  0.00     0.094 A 
ATOM     10  C   UNL     1      -3.858 -16.340  -4.918  1.00  0.00     0.146 A 
ATOM     11  O   UNL     1      -4.751 -16.563  -5.875  1.00  0.00    -0.451 OA
ENDROOT
BRANCH   1  12
ATOM     12  C   UNL     1      -5.955 -17.880  -7.498  1.00  0.00     0.063 A 
ATOM     13  C   UNL     1      -6.516 -18.518  -9.775  1.00  0.00     0.047 A 
ATOM     14  C   UNL     1      -5.575 -18.381  -8.752  1.00  0.00     0.020 A 
ATOM     15  C   UNL     1      -7.850 -18.170  -9.554  1.00  0.00     0.119 A 
ATOM     16  C   UNL     1      -8.245 -17.690  -8.299  1.00  0.00     0.093 A 
ATOM     17  C   UNL     1      -7.307 -17.556  -7.264  1.00  0.00     0.130 A 
BRANCH  15  18
ATOM     18  O   UNL     1      -8.777 -18.308 -10.586  1.00  0.00    -0.508 OA
ATOM     19  H   UNL     1      -8.880 -19.180 -11.092  1.00  0.00     0.293 HD
ENDBRANCH  15  18
BRANCH  17  20
ATOM     20  O   UNL     1      -7.721 -17.124  -6.003  1.00  0.00    -0.507 OA
ATOM     21  H   UNL     1      -8.585 -16.609  -5.876  1.00  0.00     0.293 HD
ENDBRANCH  17  20
ENDBRANCH   1  12
BRANCH   2  22
ATOM     22  O   UNL     1      -4.412 -20.124  -6.548  1.00  0.00    -0.502 OA
ATOM     23  H   UNL     1      -3.978 -20.431  -7.410  1.00  0.00     0.293 HD
ENDBRANCH   2  22
BRANCH   6  24
ATOM     24  O   UNL     1      -1.266 -18.122  -2.918  1.00  0.00    -0.507 OA
ATOM     25  H   UNL     1      -1.511 -19.102  -2.996  1.00  0.00     0.293 HD
ENDBRANCH   6  24
BRANCH   8  26
ATOM     26  O   UNL     1      -2.689 -13.495  -2.876  1.00  0.00    -0.508 OA
ATOM     27  H   UNL     1      -3.391 -12.789  -3.068  1.00  0.00     0.293 HD
ENDBRANCH   8  26
TORSDOF 6
ENDMDL
MODEL 3
REMARK VINA RESULT:    -4.956      1.112      3.133
REMARK INTER + INTRA:          -5.388
REMARK INTER:                  -5.978
REMARK INTRA:                   0.590
REMARK UNBOUND:                 0.582
REMARK SMILES O=c1c(O)c(-c2ccc(O)cc2O)oc2cc(O)cc(O)c12
REMARK SMILES IDX 5 1 3 2 2 3 1 4 22 5 20 6 19 7 17 8 16 9 15 10 14 11 6 12
REMARK SMILES IDX 8 13 7 14 9 15 11 16 12 17 10 18 13 20 4 22 21 24 18 26
REMARK H PARENT 10 19 13 21 4 23 21 25 18 27
REMARK Flexibility Score: inf
ROOT
ATOM      1  C   UNL     1      -6.059 -17.272  -7.127  1.00  0.00     0.184 A 
ATOM      2  C   UNL     1      -7.163 -16.568  -6.615  1.00  0.00     0.208 A 
ATOM      3  C   UNL     1      -7.022 -15.875  -5.401  1.00  0.00     0.238 A 
ATOM      4  O   UNL     1      -8.007 -15.249  -4.926  1.00  0.00    -0.285 OA
ATOM      5  C   UNL     1      -5.778 -15.883  -4.737  1.00  0.00     0.111 A 
ATOM      6  C   UNL     1      -5.550 -15.208  -3.513  1.00  0.00     0.134 A 
ATOM      7  C   UNL     1      -4.281 -15.257  -2.918  1.00  0.00     0.093 A 
ATOM      8  C   UNL     1      -3.237 -15.965  -3.523  1.00  0.00     0.123 A 
ATOM      9  C   UNL     1      -3.457 -16.633  -4.729  1.00  0.00     0.094 A 
ATOM     10  C   UNL     1      -4.714 -16.598  -5.338  1.00  0.00     0.146 A 
ATOM     11  O   UNL     1      -4.897 -17.246  -6.483  1.00  0.00    -0.451 OA
ENDROOT
BRANCH   1  12
ATOM     12  C   UNL     1      -6.143 -18.031  -8.392  1.00  0.00     0.063 A 
ATOM     13  C   UNL     1      -7.421 -18.639 -10.369  1.00  0.00     0.047 A 
ATOM     14  C   UNL     1      -7.311 -17.938  -9.165  1.00  0.00     0.020 A 
ATOM     15  C   UNL     1      -6.363 -19.429 -10.822  1.00  0.00     0.119 A 
ATOM     16  C   UNL     1      -5.184 -19.511 -10.070  1.00  0.00     0.093 A 
ATOM     17  C   UNL     1      -5.063 -18.805  -8.863  1.00  0.00     0.130 A 
BRANCH  15  18
ATOM     18  O   UNL     1      -6.490 -20.125 -12.023  1.00  0.00    -0.508 OA
ATOM     19  H   UNL     1      -7.024 -20.984 -12.083  1.00  0.00     0.293 HD
ENDBRANCH  15  18
BRANCH  17  20
ATOM     20  O   UNL     1      -3.866 -18.856  -8.147  1.00  0.00    -0.507 OA
ATOM     21  H   UNL     1      -2.970 -18.724  -8.601  1.00  0.00     0.293 HD
ENDBRANCH  17  20
ENDBRANCH   1  12
BRANCH   2  22
ATOM     22  O   UNL     1      -8.368 -16.542  -7.320  1.00  0.00    -0.502 OA
ATOM     23  H   UNL     1      -9.179 -17.074  -7.027  1.00  0.00     0.293 HD
ENDBRANCH   2  22
BRANCH   6  24
ATOM     24  O   UNL     1      -6.571 -14.493  -2.887  1.00  0.00    -0.507 OA
ATOM     25  H   UNL     1      -6.854 -14.690  -1.934  1.00  0.00     0.293 HD
ENDBRANCH   6  24
BRANCH   8  26
ATOM     26  O   UNL     1      -1.975 -16.013  -2.933  1.00  0.00    -0.508 OA
ATOM     27  H   UNL     1      -1.863 -16.138  -1.933  1.00  0.00     0.293 HD
ENDBRANCH   8  26
TORSDOF 6
ENDMDL
MODEL 4
REMARK VINA RESULT:    -4.644      1.832      3.665
REMARK INTER + INTRA:          -5.012
REMARK INTER:                  -4.942
REMARK INTRA:                  -0.071
REMARK UNBOUND:                 0.582
REMARK SMILES O=c1c(O)c(-c2ccc(O)cc2O)oc2cc(O)cc(O)c12
REMARK SMILES IDX 5 1 3 2 2 3 1 4 22 5 20 6 19 7 17 8 16 9 15 10 14 11 6 12
REMARK SMILES IDX 8 13 7 14 9 15 11 16 12 17 10 18 13 20 4 22 21 24 18 26
REMARK H PARENT 10 19 13 21 4 23 21 25 18 27
REMARK Flexibility Score: inf
ROOT
ATOM      1  C   UNL     1      -4.521 -17.990  -7.068  1.00  0.00     0.184 A 
ATOM      2  C   UNL     1      -4.687 -16.674  -6.604  1.00  0.00     0.208 A 
ATOM      3  C   UNL     1      -4.039 -16.287  -5.420  1.00  0.00     0.238 A 
ATOM      4  O   UNL     1      -4.188 -15.112  -4.987  1.00  0.00    -0.285 OA
ATOM      5  C   UNL     1      -3.223 -17.214  -4.738  1.00  0.00     0.111 A 
ATOM      6  C   UNL     1      -2.532 -16.903  -3.542  1.00  0.00     0.134 A 
ATOM      7  C   UNL     1      -1.734 -17.878  -2.927  1.00  0.00     0.093 A 
ATOM      8  C   UNL     1      -1.612 -19.155  -3.485  1.00  0.00     0.123 A 
ATOM      9  C   UNL     1      -2.292 -19.467  -4.663  1.00  0.00     0.094 A 
ATOM     10  C   UNL     1      -3.094 -18.510  -5.292  1.00  0.00     0.146 A 
ATOM     11  O   UNL     1      -3.733 -18.835  -6.409  1.00  0.00    -0.451 OA
ENDROOT
BRANCH   1  12
ATOM     12  C   UNL     1      -5.185 -18.467  -8.300  1.00  0.00     0.063 A 
ATOM     13  C   UNL     1      -7.173 -18.528  -9.698  1.00  0.00     0.047 A 
ATOM     14  C   UNL     1      -6.517 -18.099  -8.541  1.00  0.00     0.020 A 
ATOM     15  C   UNL     1      -6.502 -19.317 -10.635  1.00  0.00     0.119 A 
ATOM     16  C   UNL     1      -5.165 -19.672 -10.415  1.00  0.00     0.093 A 
ATOM     17  C   UNL     1      -4.497 -19.240  -9.259  1.00  0.00     0.130 A 
BRANCH  15  18
ATOM     18  O   UNL     1      -7.171 -19.741 -11.782  1.00  0.00    -0.508 OA
ATOM     19  H   UNL     1      -7.062 -19.258 -12.666  1.00  0.00     0.293 HD
ENDBRANCH  15  18
BRANCH  17  20
ATOM     20  O   UNL     1      -3.151 -19.558  -9.075  1.00  0.00    -0.507 OA
ATOM     21  H   UNL     1      -2.590 -19.102  -8.365  1.00  0.00     0.293 HD
ENDBRANCH  17  20
ENDBRANCH   1  12
BRANCH   2  22
ATOM     22  O   UNL     1      -5.465 -15.767  -7.327  1.00  0.00    -0.502 OA
ATOM     23  H   UNL     1      -5.652 -14.828  -6.995  1.00  0.00     0.293 HD
ENDBRANCH   2  22
BRANCH   6  24
ATOM     24  O   UNL     1      -2.633 -15.638  -2.962  1.00  0.00    -0.507 OA
ATOM     25  H   UNL     1      -1.813 -15.095  -2.719  1.00  0.00     0.293 HD
ENDBRANCH   6  24
BRANCH   8  26
ATOM     26  O   UNL     1      -0.818 -20.124  -2.875  1.00  0.00    -0.508 OA
ATOM     27  H   UNL     1      -1.222 -20.860  -2.307  1.00  0.00     0.293 HD
ENDBRANCH   8  26
TORSDOF 6
ENDMDL
MODEL 5
REMARK VINA RESULT:    -4.464      1.523      3.206
REMARK INTER + INTRA:          -4.795
REMARK INTER:                  -4.390
REMARK INTRA:                  -0.405
REMARK UNBOUND:                 0.582
REMARK SMILES O=c1c(O)c(-c2ccc(O)cc2O)oc2cc(O)cc(O)c12
REMARK SMILES IDX 5 1 3 2 2 3 1 4 22 5 20 6 19 7 17 8 16 9 15 10 14 11 6 12
REMARK SMILES IDX 8 13 7 14 9 15 11 16 12 17 10 18 13 20 4 22 21 24 18 26
REMARK H PARENT 10 19 13 21 4 23 21 25 18 27
REMARK Flexibility Score: inf
ROOT
ATOM      1  C   UNL     1      -6.859 -17.706  -7.356  1.00  0.00     0.184 A 
ATOM      2  C   UNL     1      -7.570 -16.719  -6.652  1.00  0.00     0.208 A 
ATOM      3  C   UNL     1      -6.989 -16.152  -5.506  1.00  0.00     0.238 A 
ATOM      4  O   UNL     1      -7.621 -15.274  -4.861  1.00  0.00    -0.285 OA
ATOM      5  C   UNL     1      -5.704 -16.568  -5.101  1.00  0.00     0.111 A 
ATOM      6  C   UNL     1      -5.046 -16.046  -3.960  1.00  0.00     0.134 A 
ATOM      7  C   UNL     1      -3.764 -16.506  -3.626  1.00  0.00     0.093 A 
ATOM      8  C   UNL     1      -3.128 -17.475  -4.409  1.00  0.00     0.123 A 
ATOM      9  C   UNL     1      -3.773 -17.994  -5.533  1.00  0.00     0.094 A 
ATOM     10  C   UNL     1      -5.052 -17.551  -5.883  1.00  0.00     0.146 A 
ATOM     11  O   UNL     1      -5.644 -18.065  -6.955  1.00  0.00    -0.451 OA
ENDROOT
BRANCH   1  12
ATOM     12  C   UNL     1      -7.418 -18.352  -8.563  1.00  0.00     0.063 A 
ATOM     13  C   UNL     1      -7.529 -18.477 -10.988  1.00  0.00     0.047 A 
ATOM     14  C   UNL     1      -7.025 -17.886  -9.827  1.00  0.00     0.020 A 
ATOM     15  C   UNL     1      -8.421 -19.548 -10.901  1.00  0.00     0.119 A 
ATOM     16  C   UNL     1      -8.802 -20.036  -9.645  1.00  0.00     0.093 A 
ATOM     17  C   UNL     1      -8.295 -19.452  -8.474  1.00  0.00     0.130 A 
BRANCH  15  18
ATOM     18  O   UNL     1      -8.919 -20.125 -12.069  1.00  0.00    -0.508 OA
ATOM     19  H   UNL     1      -9.231 -21.088 -12.092  1.00  0.00     0.293 HD
ENDBRANCH  15  18
BRANCH  17  20
ATOM     20  O   UNL     1      -8.644 -19.978  -7.229  1.00  0.00    -0.507 OA
ATOM     21  H   UNL     1      -8.030 -19.894  -6.427  1.00  0.00     0.293 HD
ENDBRANCH  17  20
ENDBRANCH   1  12
BRANCH   2  22
ATOM     22  O   UNL     1      -8.822 -16.296  -7.107  1.00  0.00    -0.502 OA
ATOM     23  H   UNL     1      -9.396 -15.645  -6.585  1.00  0.00     0.293 HD
ENDBRANCH   2  22
BRANCH   6  24
ATOM     24  O   UNL     1      -5.655 -15.077  -3.161  1.00  0.00    -0.507 OA
ATOM     25  H   UNL     1      -5.266 -14.147  -3.061  1.00  0.00     0.293 HD
ENDBRANCH   6  24
BRANCH   8  26
ATOM     26  O   UNL     1      -1.854 -17.932  -4.078  1.00  0.00    -0.508 OA
ATOM     27  H   UNL     1      -1.230 -18.315  -4.779  1.00  0.00     0.293 HD
ENDBRANCH   8  26
TORSDOF 6
ENDMDL
MODEL 6
REMARK VINA RESULT:    -4.441      1.773      6.938
REMARK INTER + INTRA:          -4.768
REMARK INTER:                  -4.352
REMARK INTRA:                  -0.415
REMARK UNBOUND:                 0.582
REMARK SMILES O=c1c(O)c(-c2ccc(O)cc2O)oc2cc(O)cc(O)c12
REMARK SMILES IDX 5 1 3 2 2 3 1 4 22 5 20 6 19 7 17 8 16 9 15 10 14 11 6 12
REMARK SMILES IDX 8 13 7 14 9 15 11 16 12 17 10 18 13 20 4 22 21 24 18 26
REMARK H PARENT 10 19 13 21 4 23 21 25 18 27
REMARK Flexibility Score: inf
ROOT
ATOM      1  C   UNL     1      -5.396 -17.674  -6.469  1.00  0.00     0.184 A 
ATOM      2  C   UNL     1      -6.739 -17.925  -6.138  1.00  0.00     0.208 A 
ATOM      3  C   UNL     1      -7.557 -18.576  -7.075  1.00  0.00     0.238 A 
ATOM      4  O   UNL     1      -8.766 -18.797  -6.794  1.00  0.00    -0.285 OA
ATOM      5  C   UNL     1      -7.013 -18.980  -8.311  1.00  0.00     0.111 A 
ATOM      6  C   UNL     1      -7.767 -19.644  -9.309  1.00  0.00     0.134 A 
ATOM      7  C   UNL     1      -7.152 -20.022 -10.511  1.00  0.00     0.093 A 
ATOM      8  C   UNL     1      -5.798 -19.749 -10.734  1.00  0.00     0.123 A 
ATOM      9  C   UNL     1      -5.050 -19.094  -9.754  1.00  0.00     0.094 A 
ATOM     10  C   UNL     1      -5.644 -18.708  -8.550  1.00  0.00     0.146 A 
ATOM     11  O   UNL     1      -4.911 -18.082  -7.637  1.00  0.00    -0.451 OA
ENDROOT
BRANCH   1  12
ATOM     12  C   UNL     1      -4.483 -16.982  -5.534  1.00  0.00     0.063 A 
ATOM     13  C   UNL     1      -3.806 -14.922  -4.435  1.00  0.00     0.047 A 
ATOM     14  C   UNL     1      -4.648 -15.606  -5.316  1.00  0.00     0.020 A 
ATOM     15  C   UNL     1      -2.800 -15.607  -3.750  1.00  0.00     0.119 A 
ATOM     16  C   UNL     1      -2.641 -16.985  -3.943  1.00  0.00     0.093 A 
ATOM     17  C   UNL     1      -3.486 -17.680  -4.821  1.00  0.00     0.130 A 
BRANCH  15  18
ATOM     18  O   UNL     1      -1.965 -14.910  -2.878  1.00  0.00    -0.508 OA
ATOM     19  H   UNL     1      -0.957 -14.942  -2.971  1.00  0.00     0.293 HD
ENDBRANCH  15  18
BRANCH  17  20
ATOM     20  O   UNL     1      -3.351 -19.061  -4.967  1.00  0.00    -0.507 OA
ATOM     21  H   UNL     1      -2.440 -19.503  -5.014  1.00  0.00     0.293 HD
ENDBRANCH  17  20
ENDBRANCH   1  12
BRANCH   2  22
ATOM     22  O   UNL     1      -7.235 -17.552  -4.887  1.00  0.00    -0.502 OA
ATOM     23  H   UNL     1      -7.533 -16.606  -4.681  1.00  0.00     0.293 HD
ENDBRANCH   2  22
BRANCH   6  24
ATOM     24  O   UNL     1      -9.119 -19.931  -9.115  1.00  0.00    -0.507 OA
ATOM     25  H   UNL     1      -9.820 -19.200  -9.080  1.00  0.00     0.293 HD
ENDBRANCH   6  24
BRANCH   8  26
ATOM     26  O   UNL     1      -5.184 -20.125 -11.928  1.00  0.00    -0.508 OA
ATOM     27  H   UNL     1      -5.076 -19.472 -12.695  1.00  0.00     0.293 HD
ENDBRANCH   8  26
TORSDOF 6
ENDMDL
MODEL 7
REMARK VINA RESULT:    -4.389      1.836      2.217
REMARK INTER + INTRA:          -4.705
REMARK INTER:                  -4.293
REMARK INTRA:                  -0.412
REMARK UNBOUND:                 0.582
REMARK SMILES O=c1c(O)c(-c2ccc(O)cc2O)oc2cc(O)cc(O)c12
REMARK SMILES IDX 5 1 3 2 2 3 1 4 22 5 20 6 19 7 17 8 16 9 15 10 14 11 6 12
REMARK SMILES IDX 8 13 7 14 9 15 11 16 12 17 10 18 13 20 4 22 21 24 18 26
REMARK H PARENT 10 19 13 21 4 23 21 25 18 27
REMARK Flexibility Score: inf
ROOT
ATOM      1  C   UNL     1      -6.359 -18.249  -7.814  1.00  0.00     0.184 A 
ATOM      2  C   UNL     1      -6.728 -19.016  -6.695  1.00  0.00     0.208 A 
ATOM      3  C   UNL     1      -6.265 -18.631  -5.427  1.00  0.00     0.238 A 
ATOM      4  O   UNL     1      -6.580 -19.317  -4.417  1.00  0.00    -0.285 OA
ATOM      5  C   UNL     1      -5.461 -17.479  -5.300  1.00  0.00     0.111 A 
ATOM      6  C   UNL     1      -4.955 -17.021  -4.059  1.00  0.00     0.134 A 
ATOM      7  C   UNL     1      -4.169 -15.861  -4.014  1.00  0.00     0.093 A 
ATOM      8  C   UNL     1      -3.879 -15.151  -5.185  1.00  0.00     0.123 A 
ATOM      9  C   UNL     1      -4.374 -15.599  -6.410  1.00  0.00     0.094 A 
ATOM     10  C   UNL     1      -5.159 -16.754  -6.478  1.00  0.00     0.146 A 
ATOM     11  O   UNL     1      -5.612 -17.160  -7.657  1.00  0.00    -0.451 OA
ENDROOT
BRANCH   1  12
ATOM     12  C   UNL     1      -6.802 -18.605  -9.178  1.00  0.00     0.063 A 
ATOM     13  C   UNL     1      -6.411 -19.847 -11.231  1.00  0.00     0.047 A 
ATOM     14  C   UNL     1      -6.019 -19.486  -9.939  1.00  0.00     0.020 A 
ATOM     15  C   UNL     1      -7.597 -19.345 -11.772  1.00  0.00     0.119 A 
ATOM     16  C   UNL     1      -8.398 -18.484 -11.012  1.00  0.00     0.093 A 
ATOM     17  C   UNL     1      -8.015 -18.121  -9.712  1.00  0.00     0.130 A 
BRANCH  15  18
ATOM     18  O   UNL     1      -7.973 -19.712 -13.063  1.00  0.00    -0.508 OA
ATOM     19  H   UNL     1      -7.368 -20.274 -13.651  1.00  0.00     0.293 HD
ENDBRANCH  15  18
BRANCH  17  20
ATOM     20  O   UNL     1      -8.845 -17.301  -8.947  1.00  0.00    -0.507 OA
ATOM     21  H   UNL     1      -8.676 -16.306  -8.861  1.00  0.00     0.293 HD
ENDBRANCH  17  20
ENDBRANCH   1  12
BRANCH   2  22
ATOM     22  O   UNL     1      -7.563 -20.125  -6.848  1.00  0.00    -0.502 OA
ATOM     23  H   UNL     1      -7.779 -20.751  -6.082  1.00  0.00     0.293 HD
ENDBRANCH   2  22
BRANCH   6  24
ATOM     24  O   UNL     1      -5.229 -17.707  -2.875  1.00  0.00    -0.507 OA
ATOM     25  H   UNL     1      -6.001 -17.446  -2.274  1.00  0.00     0.293 HD
ENDBRANCH   6  24
BRANCH   8  26
ATOM     26  O   UNL     1      -3.098 -13.997  -5.141  1.00  0.00    -0.508 OA
ATOM     27  H   UNL     1      -3.104 -13.326  -5.900  1.00  0.00     0.293 HD
ENDBRANCH   8  26
TORSDOF 6
ENDMDL
MODEL 8
REMARK VINA RESULT:    -3.903      2.052      2.843
REMARK INTER + INTRA:          -4.120
REMARK INTER:                  -3.722
REMARK INTRA:                  -0.397
REMARK UNBOUND:                 0.582
REMARK SMILES O=c1c(O)c(-c2ccc(O)cc2O)oc2cc(O)cc(O)c12
REMARK SMILES IDX 5 1 3 2 2 3 1 4 22 5 20 6 19 7 17 8 16 9 15 10 14 11 6 12
REMARK SMILES IDX 8 13 7 14 9 15 11 16 12 17 10 18 13 20 4 22 21 24 18 26
REMARK H PARENT 10 19 13 21 4 23 21 25 18 27
REMARK Flexibility Score: inf
ROOT
ATOM      1  C   UNL     1      -5.448 -18.080  -8.186  1.00  0.00     0.184 A 
ATOM      2  C   UNL     1      -4.964 -16.762  -8.125  1.00  0.00     0.208 A 
ATOM      3  C   UNL     1      -4.287 -16.341  -6.970  1.00  0.00     0.238 A 
ATOM      4  O   UNL     1      -3.858 -15.157  -6.899  1.00  0.00    -0.285 OA
ATOM      5  C   UNL     1      -4.089 -17.249  -5.910  1.00  0.00     0.111 A 
ATOM      6  C   UNL     1      -3.414 -16.907  -4.712  1.00  0.00     0.134 A 
ATOM      7  C   UNL     1      -3.250 -17.869  -3.706  1.00  0.00     0.093 A 
ATOM      8  C   UNL     1      -3.747 -19.167  -3.874  1.00  0.00     0.123 A 
ATOM      9  C   UNL     1      -4.414 -19.509  -5.052  1.00  0.00     0.094 A 
ATOM     10  C   UNL     1      -4.589 -18.564  -6.067  1.00  0.00     0.146 A 
ATOM     11  O   UNL     1      -5.231 -18.916  -7.174  1.00  0.00    -0.451 OA
ENDROOT
BRANCH   1  12
ATOM     12  C   UNL     1      -6.180 -18.585  -9.367  1.00  0.00     0.063 A 
ATOM     13  C   UNL     1      -6.153 -19.853 -11.441  1.00  0.00     0.047 A 
ATOM     14  C   UNL     1      -5.491 -19.356 -10.315  1.00  0.00     0.020 A 
ATOM     15  C   UNL     1      -7.514 -19.597 -11.625  1.00  0.00     0.119 A 
ATOM     16  C   UNL     1      -8.217 -18.847 -10.673  1.00  0.00     0.093 A 
ATOM     17  C   UNL     1      -7.560 -18.351  -9.537  1.00  0.00     0.130 A 
BRANCH  15  18
ATOM     18  O   UNL     1      -8.160 -20.096 -12.755  1.00  0.00    -0.508 OA
ATOM     19  H   UNL     1      -7.752 -20.012 -13.678  1.00  0.00     0.293 HD
ENDBRANCH  15  18
BRANCH  17  20
ATOM     20  O   UNL     1      -8.281 -17.647  -8.571  1.00  0.00    -0.507 OA
ATOM     21  H   UNL     1      -8.597 -18.090  -7.717  1.00  0.00     0.293 HD
ENDBRANCH  17  20
ENDBRANCH   1  12
BRANCH   2  22
ATOM     22  O   UNL     1      -5.137 -15.900  -9.211  1.00  0.00    -0.502 OA
ATOM     23  H   UNL     1      -4.625 -15.030  -9.299  1.00  0.00     0.293 HD
ENDBRANCH   2  22
BRANCH   6  24
ATOM     24  O   UNL     1      -2.907 -15.621  -4.517  1.00  0.00    -0.507 OA
ATOM     25  H   UNL     1      -3.448 -14.794  -4.742  1.00  0.00     0.293 HD
ENDBRANCH   6  24
BRANCH   8  26
ATOM     26  O   UNL     1      -3.583 -20.125  -2.875  1.00  0.00    -0.508 OA
ATOM     27  H   UNL     1      -4.157 -20.959  -2.844  1.00  0.00     0.293 HD
ENDBRANCH   8  26
TORSDOF 6
ENDMDL
