MODEL 1
REMARK VINA RESULT:    -5.886      0.000      0.000
REMARK INTER + INTRA:          -7.343
REMARK INTER:                  -7.090
REMARK INTRA:                  -0.253
REMARK UNBOUND:                -0.253
REMARK SMILES O=c1c(O)c(-c2ccc(O)c(O)c2)oc2cc(O)cc(O)c12
REMARK SMILES IDX 5 1 3 2 2 3 1 4 22 5 20 6 19 7 17 8 16 9 15 10 14 11 6 12
REMARK SMILES IDX 7 13 8 14 9 15 13 16 11 17 10 18 12 20 4 22 21 24 18 26
REMARK H PARENT 10 19 12 21 4 23 21 25 18 27
REMARK Flexibility Score: inf
ROOT
ATOM      1  C   UNL     1      20.275  20.112  20.779  1.00  0.00     0.180 A 
ATOM      2  C   UNL     1      21.576  19.616  20.972  1.00  0.00     0.208 A 
ATOM      3  C   UNL     1      21.742  18.315  21.474  1.00  0.00     0.238 A 
ATOM      4  O   UNL     1      22.908  17.857  21.594  1.00  0.00    -0.285 OA
ATOM      5  C   UNL     1      20.605  17.532  21.791  1.00  0.00     0.111 A 
ATOM      6  C   UNL     1      20.655  16.217  22.343  1.00  0.00     0.134 A 
ATOM      7  C   UNL     1      19.469  15.486  22.495  1.00  0.00     0.093 A 
ATOM      8  C   UNL     1      18.231  16.048  22.175  1.00  0.00     0.123 A 
ATOM      9  C   UNL     1      18.167  17.352  21.693  1.00  0.00     0.094 A 
ATOM     10  C   UNL     1      19.335  18.094  21.496  1.00  0.00     0.146 A 
ATOM     11  O   UNL     1      19.230  19.330  21.023  1.00  0.00    -0.452 OA
ENDROOT
BRANCH   1  12
ATOM     12  C   UNL     1      20.020  21.482  20.277  1.00  0.00     0.025 A 
ATOM     13  C   UNL     1      19.469  21.658  18.999  1.00  0.00     0.016 A 
ATOM     14  C   UNL     1      19.201  22.941  18.515  1.00  0.00     0.051 A 
ATOM     15  C   UNL     1      19.466  24.066  19.307  1.00  0.00     0.157 A 
ATOM     16  C   UNL     1      20.266  22.612  21.078  1.00  0.00     0.062 A 
ATOM     17  C   UNL     1      19.996  23.898  20.596  1.00  0.00     0.158 A 
BRANCH  15  18
ATOM     18  O   UNL     1      19.200  25.344  18.820  1.00  0.00    -0.504 OA
ATOM     19  H   UNL     1      19.943  26.008  18.638  1.00  0.00     0.293 HD
ENDBRANCH  15  18
BRANCH  17  20
ATOM     20  O   UNL     1      20.257  24.996  21.416  1.00  0.00    -0.504 OA
ATOM     21  H   UNL     1      19.691  25.837  21.387  1.00  0.00     0.293 HD
ENDBRANCH  17  20
ENDBRANCH   1  12
BRANCH   2  22
ATOM     22  O   UNL     1      22.684  20.397  20.632  1.00  0.00    -0.502 OA
ATOM     23  H   UNL     1      23.101  20.377  19.709  1.00  0.00     0.293 HD
ENDBRANCH   2  22
BRANCH   6  24
ATOM     24  O   UNL     1      21.830  15.598  22.780  1.00  0.00    -0.507 OA
ATOM     25  H   UNL     1      22.647  15.447  22.207  1.00  0.00     0.293 HD
ENDBRANCH   6  24
BRANCH   8  26
ATOM     26  O   UNL     1      17.056  15.320  22.344  1.00  0.00    -0.508 OA
ATOM     27  H   UNL     1      16.394  15.199  21.586  1.00  0.00     0.293 HD
ENDBRANCH   8  26
TORSDOF 6
ENDMDL
MODEL 2
REMARK VINA RESULT:    -5.828      1.547      7.152
REMARK INTER + INTRA:          -7.274
REMARK INTER:                  -6.963
REMARK INTRA:                  -0.311
REMARK UNBOUND:                -0.253
REMARK SMILES O=c1c(O)c(-c2ccc(O)c(O)c2)oc2cc(O)cc(O)c12
REMARK SMILES IDX 5 1 3 2 2 3 1 4 22 5 20 6 19 7 17 8 16 9 15 10 14 11 6 12
REMARK SMILES IDX 7 13 8 14 9 15 13 16 11 17 10 18 12 20 4 22 21 24 18 26
REMARK H PARENT 10 19 12 21 4 23 21 25 18 27
REMARK Flexibility Score: inf
ROOT
ATOM      1  C   UNL     1      19.385  19.998  20.484  1.00  0.00     0.180 A 
ATOM      2  C   UNL     1      19.002  20.028  19.131  1.00  0.00     0.208 A 
ATOM      3  C   UNL     1      18.955  21.263  18.464  1.00  0.00     0.238 A 
ATOM      4  O   UNL     1      18.664  21.278  17.240  1.00  0.00    -0.285 OA
ATOM      5  C   UNL     1      19.275  22.453  19.162  1.00  0.00     0.111 A 
ATOM      6  C   UNL     1      19.221  23.763  18.597  1.00  0.00     0.134 A 
ATOM      7  C   UNL     1      19.685  24.855  19.341  1.00  0.00     0.093 A 
ATOM      8  C   UNL     1      20.139  24.693  20.652  1.00  0.00     0.123 A 
ATOM      9  C   UNL     1      20.138  23.427  21.233  1.00  0.00     0.094 A 
ATOM     10  C   UNL     1      19.717  22.313  20.504  1.00  0.00     0.146 A 
ATOM     11  O   UNL     1      19.742  21.122  21.091  1.00  0.00    -0.452 OA
ENDROOT
BRANCH   1  12
ATOM     12  C   UNL     1      19.434  18.738  21.261  1.00  0.00     0.025 A 
ATOM     13  C   UNL     1      18.254  18.222  21.818  1.00  0.00     0.016 A 
ATOM     14  C   UNL     1      18.275  17.025  22.536  1.00  0.00     0.051 A 
ATOM     15  C   UNL     1      19.473  16.316  22.695  1.00  0.00     0.157 A 
ATOM     16  C   UNL     1      20.631  18.014  21.405  1.00  0.00     0.062 A 
ATOM     17  C   UNL     1      20.655  16.812  22.122  1.00  0.00     0.158 A 
BRANCH  15  18
ATOM     18  O   UNL     1      19.491  15.122  23.415  1.00  0.00    -0.504 OA
ATOM     19  H   UNL     1      19.537  15.113  24.427  1.00  0.00     0.293 HD
ENDBRANCH  15  18
BRANCH  17  20
ATOM     20  O   UNL     1      21.861  16.123  22.250  1.00  0.00    -0.504 OA
ATOM     21  H   UNL     1      22.668  16.530  22.709  1.00  0.00     0.293 HD
ENDBRANCH  17  20
ENDBRANCH   1  12
BRANCH   2  22
ATOM     22  O   UNL     1      18.712  18.840  18.456  1.00  0.00    -0.502 OA
ATOM     23  H   UNL     1      19.013  18.667  17.504  1.00  0.00     0.293 HD
ENDBRANCH   2  22
BRANCH   6  24
ATOM     24  O   UNL     1      18.701  24.045  17.331  1.00  0.00    -0.507 OA
ATOM     25  H   UNL     1      17.723  24.001  17.089  1.00  0.00     0.293 HD
ENDBRANCH   6  24
BRANCH   8  26
ATOM     26  O   UNL     1      20.583  25.787  21.390  1.00  0.00    -0.508 OA
ATOM     27  H   UNL     1      20.560  26.727  21.012  1.00  0.00     0.293 HD
ENDBRANCH   8  26
TORSDOF 6
ENDMDL
MODEL 3
REMARK VINA RESULT:    -5.630      1.275      2.856
REMARK INTER + INTRA:          -7.035
REMARK INTER:                  -6.713
REMARK INTRA:                  -0.322
REMARK UNBOUND:                -0.253
REMARK SMILES O=c1c(O)c(-c2ccc(O)c(O)c2)oc2cc(O)cc(O)c12
REMARK SMILES IDX 5 1 3 2 2 3 1 4 22 5 20 6 19 7 17 8 16 9 15 10 14 11 6 12
REMARK SMILES IDX 7 13 8 14 9 15 13 16 11 17 10 18 12 20 4 22 21 24 18 26
REMARK H PARENT 10 19 12 21 4 23 21 25 18 27
REMARK Flexibility Score: inf
ROOT
ATOM      1  C   UNL     1      19.067  20.066  20.794  1.00  0.00     0.180 A 
ATOM      2  C   UNL     1      17.934  19.616  21.495  1.00  0.00     0.208 A 
ATOM      3  C   UNL     1      17.904  18.290  21.959  1.00  0.00     0.238 A 
ATOM      4  O   UNL     1      16.911  17.909  22.632  1.00  0.00    -0.285 OA
ATOM      5  C   UNL     1      18.998  17.429  21.704  1.00  0.00     0.111 A 
ATOM      6  C   UNL     1      19.057  16.057  22.093  1.00  0.00     0.134 A 
ATOM      7  C   UNL     1      20.243  15.336  21.903  1.00  0.00     0.093 A 
ATOM      8  C   UNL     1      21.349  15.919  21.280  1.00  0.00     0.123 A 
ATOM      9  C   UNL     1      21.280  17.239  20.843  1.00  0.00     0.094 A 
ATOM     10  C   UNL     1      20.124  17.996  21.050  1.00  0.00     0.146 A 
ATOM     11  O   UNL     1      20.104  19.255  20.628  1.00  0.00    -0.452 OA
ENDROOT
BRANCH   1  12
ATOM     12  C   UNL     1      19.162  21.441  20.252  1.00  0.00     0.025 A 
ATOM     13  C   UNL     1      18.697  21.706  18.955  1.00  0.00     0.016 A 
ATOM     14  C   UNL     1      18.758  23.000  18.432  1.00  0.00     0.051 A 
ATOM     15  C   UNL     1      19.271  24.051  19.203  1.00  0.00     0.157 A 
ATOM     16  C   UNL     1      19.658  22.502  21.030  1.00  0.00     0.062 A 
ATOM     17  C   UNL     1      19.719  23.800  20.510  1.00  0.00     0.158 A 
BRANCH  15  18
ATOM     18  O   UNL     1      19.333  25.341  18.677  1.00  0.00    -0.504 OA
ATOM     19  H   UNL     1      19.996  25.587  17.951  1.00  0.00     0.293 HD
ENDBRANCH  15  18
BRANCH  17  20
ATOM     20  O   UNL     1      20.221  24.827  21.309  1.00  0.00    -0.504 OA
ATOM     21  H   UNL     1      20.294  25.782  20.977  1.00  0.00     0.293 HD
ENDBRANCH  17  20
ENDBRANCH   1  12
BRANCH   2  22
ATOM     22  O   UNL     1      16.875  20.489  21.754  1.00  0.00    -0.502 OA
ATOM     23  H   UNL     1      16.003  20.455  21.239  1.00  0.00     0.293 HD
ENDBRANCH   2  22
BRANCH   6  24
ATOM     24  O   UNL     1      17.979  15.354  22.639  1.00  0.00    -0.507 OA
ATOM     25  H   UNL     1      17.331  15.730  23.314  1.00  0.00     0.293 HD
ENDBRANCH   6  24
BRANCH   8  26
ATOM     26  O   UNL     1      22.518  15.190  21.081  1.00  0.00    -0.508 OA
ATOM     27  H   UNL     1      23.365  15.629  20.740  1.00  0.00     0.293 HD
ENDBRANCH   8  26
TORSDOF 6
ENDMDL
MODEL 4
REMARK VINA RESULT:    -5.578      1.441      2.870
REMARK INTER + INTRA:          -6.972
REMARK INTER:                  -6.798
REMARK INTRA:                  -0.174
REMARK UNBOUND:                -0.253
REMARK SMILES O=c1c(O)c(-c2ccc(O)c(O)c2)oc2cc(O)cc(O)c12
REMARK SMILES IDX 5 1 3 2 2 3 1 4 22 5 20 6 19 7 17 8 16 9 15 10 14 11 6 12
REMARK SMILES IDX 7 13 8 14 9 15 13 16 11 17 10 18 12 20 4 22 21 24 18 26
REMARK H PARENT 10 19 12 21 4 23 21 25 18 27
REMARK Flexibility Score: inf
ROOT
ATOM      1  C   UNL     1      19.520  20.310  20.317  1.00  0.00     0.180 A 
ATOM      2  C   UNL     1      18.290  19.796  19.868  1.00  0.00     0.208 A 
ATOM      3  C   UNL     1      18.006  18.436  20.069  1.00  0.00     0.238 A 
ATOM      4  O   UNL     1      16.883  17.994  19.714  1.00  0.00    -0.285 OA
ATOM      5  C   UNL     1      18.961  17.603  20.702  1.00  0.00     0.111 A 
ATOM      6  C   UNL     1      18.795  16.202  20.921  1.00  0.00     0.134 A 
ATOM      7  C   UNL     1      19.748  15.504  21.674  1.00  0.00     0.093 A 
ATOM      8  C   UNL     1      20.892  16.142  22.159  1.00  0.00     0.123 A 
ATOM      9  C   UNL     1      21.092  17.496  21.898  1.00  0.00     0.094 A 
ATOM     10  C   UNL     1      20.142  18.228  21.182  1.00  0.00     0.146 A 
ATOM     11  O   UNL     1      20.366  19.519  20.965  1.00  0.00    -0.452 OA
ENDROOT
BRANCH   1  12
ATOM     12  C   UNL     1      19.901  21.727  20.118  1.00  0.00     0.025 A 
ATOM     13  C   UNL     1      20.094  22.215  18.817  1.00  0.00     0.016 A 
ATOM     14  C   UNL     1      20.433  23.554  18.607  1.00  0.00     0.051 A 
ATOM     15  C   UNL     1      20.570  24.428  19.693  1.00  0.00     0.157 A 
ATOM     16  C   UNL     1      20.020  22.612  21.205  1.00  0.00     0.062 A 
ATOM     17  C   UNL     1      20.357  23.954  20.997  1.00  0.00     0.158 A 
BRANCH  15  18
ATOM     18  O   UNL     1      20.911  25.762  19.480  1.00  0.00    -0.504 OA
ATOM     19  H   UNL     1      20.251  26.423  19.088  1.00  0.00     0.293 HD
ENDBRANCH  15  18
BRANCH  17  20
ATOM     20  O   UNL     1      20.471  24.802  22.099  1.00  0.00    -0.504 OA
ATOM     21  H   UNL     1      19.804  25.543  22.280  1.00  0.00     0.293 HD
ENDBRANCH  17  20
ENDBRANCH   1  12
BRANCH   2  22
ATOM     22  O   UNL     1      17.354  20.640  19.265  1.00  0.00    -0.502 OA
ATOM     23  H   UNL     1      17.600  21.284  18.523  1.00  0.00     0.293 HD
ENDBRANCH   2  22
BRANCH   6  24
ATOM     24  O   UNL     1      17.737  15.451  20.403  1.00  0.00    -0.507 OA
ATOM     25  H   UNL     1      17.702  14.443  20.385  1.00  0.00     0.293 HD
ENDBRANCH   6  24
BRANCH   8  26
ATOM     26  O   UNL     1      21.842  15.437  22.893  1.00  0.00    -0.508 OA
ATOM     27  H   UNL     1      22.483  14.790  22.448  1.00  0.00     0.293 HD
ENDBRANCH   8  26
TORSDOF 6
ENDMDL
MODEL 5
REMARK VINA RESULT:    -5.260      1.410      3.154
REMARK INTER + INTRA:          -6.589
REMARK INTER:                  -6.425
REMARK INTRA:                  -0.163
REMARK UNBOUND:                -0.253
REMARK SMILES O=c1c(O)c(-c2ccc(O)c(O)c2)oc2cc(O)cc(O)c12
REMARK SMILES IDX 5 1 3 2 2 3 1 4 22 5 20 6 19 7 17 8 16 9 15 10 14 11 6 12
REMARK SMILES IDX 7 13 8 14 9 15 13 16 11 17 10 18 12 20 4 22 21 24 18 26
REMARK H PARENT 10 19 12 21 4 23 21 25 18 27
REMARK Flexibility Score: inf
ROOT
ATOM      1  C   UNL     1      19.357  20.243  20.991  1.00  0.00     0.180 A 
ATOM      2  C   UNL     1      18.124  19.768  21.470  1.00  0.00     0.208 A 
ATOM      3  C   UNL     1      17.963  18.390  21.687  1.00  0.00     0.238 A 
ATOM      4  O   UNL     1      16.875  17.977  22.167  1.00  0.00    -0.285 OA
ATOM      5  C   UNL     1      19.031  17.503  21.408  1.00  0.00     0.111 A 
ATOM      6  C   UNL     1      18.965  16.085  21.553  1.00  0.00     0.134 A 
ATOM      7  C   UNL     1      20.123  15.318  21.373  1.00  0.00     0.093 A 
ATOM      8  C   UNL     1      21.328  15.912  20.990  1.00  0.00     0.123 A 
ATOM      9  C   UNL     1      21.387  17.288  20.788  1.00  0.00     0.094 A 
ATOM     10  C   UNL     1      20.258  18.085  20.995  1.00  0.00     0.146 A 
ATOM     11  O   UNL     1      20.360  19.394  20.801  1.00  0.00    -0.452 OA
ENDROOT
BRANCH   1  12
ATOM     12  C   UNL     1      19.595  21.678  20.713  1.00  0.00     0.025 A 
ATOM     13  C   UNL     1      20.625  22.351  21.389  1.00  0.00     0.016 A 
ATOM     14  C   UNL     1      20.880  23.699  21.127  1.00  0.00     0.051 A 
ATOM     15  C   UNL     1      20.120  24.391  20.175  1.00  0.00     0.157 A 
ATOM     16  C   UNL     1      18.848  22.370  19.744  1.00  0.00     0.062 A 
ATOM     17  C   UNL     1      19.103  23.720  19.478  1.00  0.00     0.158 A 
BRANCH  15  18
ATOM     18  O   UNL     1      20.376  25.737  19.918  1.00  0.00    -0.504 OA
ATOM     19  H   UNL     1      20.547  26.075  18.978  1.00  0.00     0.293 HD
ENDBRANCH  15  18
BRANCH  17  20
ATOM     20  O   UNL     1      18.338  24.376  18.513  1.00  0.00    -0.504 OA
ATOM     21  H   UNL     1      17.637  25.066  18.758  1.00  0.00     0.293 HD
ENDBRANCH  17  20
ENDBRANCH   1  12
BRANCH   2  22
ATOM     22  O   UNL     1      17.091  20.663  21.759  1.00  0.00    -0.502 OA
ATOM     23  H   UNL     1      16.114  20.426  21.634  1.00  0.00     0.293 HD
ENDBRANCH   2  22
BRANCH   6  24
ATOM     24  O   UNL     1      17.791  15.384  21.843  1.00  0.00    -0.507 OA
ATOM     25  H   UNL     1      16.864  15.781  21.818  1.00  0.00     0.293 HD
ENDBRANCH   6  24
BRANCH   8  26
ATOM     26  O   UNL     1      22.471  15.140  20.798  1.00  0.00    -0.508 OA
ATOM     27  H   UNL     1      23.065  15.265  19.987  1.00  0.00     0.293 HD
ENDBRANCH   8  26
TORSDOF 6
ENDMDL
MODEL 6
REMARK VINA RESULT:    -5.119      2.354      2.931
REMARK INTER + INTRA:          -6.420
REMARK INTER:                  -6.219
REMARK INTRA:                  -0.201
REMARK UNBOUND:                -0.253
REMARK SMILES O=c1c(O)c(-c2ccc(O)c(O)c2)oc2cc(O)cc(O)c12
REMARK SMILES IDX 5 1 3 2 2 3 1 4 22 5 20 6 19 7 17 8 16 9 15 10 14 11 6 12
REMARK SMILES IDX 7 13 8 14 9 15 13 16 11 17 10 18 12 20 4 22 21 24 18 26
REMARK H PARENT 10 19 12 21 4 23 21 25 18 27
REMARK Flexibility Score: inf
ROOT
ATOM      1  C   UNL     1      18.903  19.876  20.443  1.00  0.00     0.180 A 
ATOM      2  C   UNL     1      18.603  19.046  19.348  1.00  0.00     0.208 A 
ATOM      3  C   UNL     1      18.131  17.746  19.588  1.00  0.00     0.238 A 
ATOM      4  O   UNL     1      17.814  17.027  18.605  1.00  0.00    -0.285 OA
ATOM      5  C   UNL     1      17.979  17.286  20.919  1.00  0.00     0.111 A 
ATOM      6  C   UNL     1      17.548  15.973  21.278  1.00  0.00     0.134 A 
ATOM      7  C   UNL     1      17.308  15.670  22.624  1.00  0.00     0.093 A 
ATOM      8  C   UNL     1      17.548  16.611  23.629  1.00  0.00     0.123 A 
ATOM      9  C   UNL     1      18.027  17.874  23.292  1.00  0.00     0.094 A 
ATOM     10  C   UNL     1      18.241  18.220  21.956  1.00  0.00     0.146 A 
ATOM     11  O   UNL     1      18.688  19.439  21.677  1.00  0.00    -0.452 OA
ENDROOT
BRANCH   1  12
ATOM     12  C   UNL     1      19.428  21.250  20.270  1.00  0.00     0.025 A 
ATOM     13  C   UNL     1      20.766  21.524  20.594  1.00  0.00     0.016 A 
ATOM     14  C   UNL     1      21.287  22.807  20.419  1.00  0.00     0.051 A 
ATOM     15  C   UNL     1      20.484  23.833  19.903  1.00  0.00     0.157 A 
ATOM     16  C   UNL     1      18.630  22.276  19.734  1.00  0.00     0.062 A 
ATOM     17  C   UNL     1      19.151  23.563  19.555  1.00  0.00     0.158 A 
BRANCH  15  18
ATOM     18  O   UNL     1      21.007  25.114  19.731  1.00  0.00    -0.504 OA
ATOM     19  H   UNL     1      21.163  25.505  18.810  1.00  0.00     0.293 HD
ENDBRANCH  15  18
BRANCH  17  20
ATOM     20  O   UNL     1      18.329  24.558  19.025  1.00  0.00    -0.504 OA
ATOM     21  H   UNL     1      18.511  25.544  19.176  1.00  0.00     0.293 HD
ENDBRANCH  17  20
ENDBRANCH   1  12
BRANCH   2  22
ATOM     22  O   UNL     1      18.740  19.528  18.044  1.00  0.00    -0.502 OA
ATOM     23  H   UNL     1      19.627  19.841  17.669  1.00  0.00     0.293 HD
ENDBRANCH   2  22
BRANCH   6  24
ATOM     24  O   UNL     1      17.367  14.934  20.362  1.00  0.00    -0.507 OA
ATOM     25  H   UNL     1      17.494  13.955  20.571  1.00  0.00     0.293 HD
ENDBRANCH   6  24
BRANCH   8  26
ATOM     26  O   UNL     1      17.323  16.296  24.966  1.00  0.00    -0.508 OA
ATOM     27  H   UNL     1      16.385  16.250  25.349  1.00  0.00     0.293 HD
ENDBRANCH   8  26
TORSDOF 6
ENDMDL
MODEL 7
REMARK VINA RESULT:    -5.035      2.839      6.064
REMARK INTER + INTRA:          -6.318
REMARK INTER:                  -6.061
REMARK INTRA:                  -0.257
REMARK UNBOUND:                -0.253
REMARK SMILES O=c1c(O)c(-c2ccc(O)c(O)c2)oc2cc(O)cc(O)c12
REMARK SMILES IDX 5 1 3 2 2 3 1 4 22 5 20 6 19 7 17 8 16 9 15 10 14 11 6 12
REMARK SMILES IDX 7 13 8 14 9 15 13 16 11 17 10 18 12 20 4 22 21 24 18 26
REMARK H PARENT 10 19 12 21 4 23 21 25 18 27
REMARK Flexibility Score: inf
ROOT
ATOM      1  C   UNL     1      21.592  17.234  21.173  1.00  0.00     0.180 A 
ATOM      2  C   UNL     1      21.027  16.170  21.898  1.00  0.00     0.208 A 
ATOM      3  C   UNL     1      19.695  16.272  22.331  1.00  0.00     0.238 A 
ATOM      4  O   UNL     1      19.178  15.295  22.933  1.00  0.00    -0.285 OA
ATOM      5  C   UNL     1      18.950  17.442  22.046  1.00  0.00     0.111 A 
ATOM      6  C   UNL     1      17.606  17.670  22.470  1.00  0.00     0.134 A 
ATOM      7  C   UNL     1      16.923  18.808  22.020  1.00  0.00     0.093 A 
ATOM      8  C   UNL     1      17.557  19.757  21.215  1.00  0.00     0.123 A 
ATOM      9  C   UNL     1      18.887  19.573  20.846  1.00  0.00     0.094 A 
ATOM     10  C   UNL     1      19.584  18.430  21.248  1.00  0.00     0.146 A 
ATOM     11  O   UNL     1      20.847  18.288  20.865  1.00  0.00    -0.452 OA
ENDROOT
BRANCH   1  12
ATOM     12  C   UNL     1      22.997  17.210  20.705  1.00  0.00     0.025 A 
ATOM     13  C   UNL     1      23.966  17.955  21.392  1.00  0.00     0.016 A 
ATOM     14  C   UNL     1      25.301  17.931  20.980  1.00  0.00     0.051 A 
ATOM     15  C   UNL     1      25.689  17.148  19.885  1.00  0.00     0.157 A 
ATOM     16  C   UNL     1      23.393  16.410  19.618  1.00  0.00     0.062 A 
ATOM     17  C   UNL     1      24.730  16.381  19.205  1.00  0.00     0.158 A 
BRANCH  15  18
ATOM     18  O   UNL     1      27.021  17.127  19.475  1.00  0.00    -0.504 OA
ATOM     19  H   UNL     1      27.768  17.446  20.081  1.00  0.00     0.293 HD
ENDBRANCH  15  18
BRANCH  17  20
ATOM     20  O   UNL     1      25.086  15.580  18.119  1.00  0.00    -0.504 OA
ATOM     21  H   UNL     1      24.964  15.886  17.161  1.00  0.00     0.293 HD
ENDBRANCH  17  20
ENDBRANCH   1  12
BRANCH   2  22
ATOM     22  O   UNL     1      21.773  15.016  22.149  1.00  0.00    -0.502 OA
ATOM     23  H   UNL     1      21.379  14.200  22.602  1.00  0.00     0.293 HD
ENDBRANCH   2  22
BRANCH   6  24
ATOM     24  O   UNL     1      16.912  16.832  23.347  1.00  0.00    -0.507 OA
ATOM     25  H   UNL     1      17.342  16.139  23.941  1.00  0.00     0.293 HD
ENDBRANCH   6  24
BRANCH   8  26
ATOM     26  O   UNL     1      16.876  20.892  20.785  1.00  0.00    -0.508 OA
ATOM     27  H   UNL     1      15.870  20.894  20.667  1.00  0.00     0.293 HD
ENDBRANCH   8  26
TORSDOF 6
ENDMDL
MODEL 8
REMARK VINA RESULT:    -4.795      1.850      7.150
REMARK INTER + INTRA:          -6.029
REMARK INTER:                  -5.942
REMARK INTRA:                  -0.086
REMARK UNBOUND:                -0.253
REMARK SMILES O=c1c(O)c(-c2ccc(O)c(O)c2)oc2cc(O)cc(O)c12
REMARK SMILES IDX 5 1 3 2 2 3 1 4 22 5 20 6 19 7 17 8 16 9 15 10 14 11 6 12
REMARK SMILES IDX 7 13 8 14 9 15 13 16 11 17 10 18 12 20 4 22 21 24 18 26
REMARK H PARENT 10 19 12 21 4 23 21 25 18 27
REMARK Flexibility Score: inf
ROOT
ATOM      1  C   UNL     1      19.097  20.453  20.652  1.00  0.00     0.180 A 
ATOM      2  C   UNL     1      18.685  21.368  21.636  1.00  0.00     0.208 A 
ATOM      3  C   UNL     1      19.055  22.717  21.509  1.00  0.00     0.238 A 
ATOM      4  O   UNL     1      18.638  23.541  22.364  1.00  0.00    -0.285 OA
ATOM      5  C   UNL     1      19.844  23.130  20.408  1.00  0.00     0.111 A 
ATOM      6  C   UNL     1      20.310  24.464  20.201  1.00  0.00     0.134 A 
ATOM      7  C   UNL     1      20.974  24.786  19.010  1.00  0.00     0.093 A 
ATOM      8  C   UNL     1      21.245  23.808  18.050  1.00  0.00     0.123 A 
ATOM      9  C   UNL     1      20.847  22.492  18.271  1.00  0.00     0.094 A 
ATOM     10  C   UNL     1      20.151  22.147  19.432  1.00  0.00     0.146 A 
ATOM     11  O   UNL     1      19.780  20.883  19.598  1.00  0.00    -0.452 OA
ENDROOT
BRANCH   1  12
ATOM     12  C   UNL     1      18.768  19.011  20.729  1.00  0.00     0.025 A 
ATOM     13  C   UNL     1      17.424  18.608  20.736  1.00  0.00     0.016 A 
ATOM     14  C   UNL     1      17.091  17.253  20.788  1.00  0.00     0.051 A 
ATOM     15  C   UNL     1      18.097  16.278  20.817  1.00  0.00     0.157 A 
ATOM     16  C   UNL     1      19.776  18.030  20.739  1.00  0.00     0.062 A 
ATOM     17  C   UNL     1      19.445  16.670  20.788  1.00  0.00     0.158 A 
BRANCH  15  18
ATOM     18  O   UNL     1      17.762  14.927  20.871  1.00  0.00    -0.504 OA
ATOM     19  H   UNL     1      18.435  14.203  20.645  1.00  0.00     0.293 HD
ENDBRANCH  15  18
BRANCH  17  20
ATOM     20  O   UNL     1      20.471  15.725  20.802  1.00  0.00    -0.504 OA
ATOM     21  H   UNL     1      20.293  14.739  20.956  1.00  0.00     0.293 HD
ENDBRANCH  17  20
ENDBRANCH   1  12
BRANCH   2  22
ATOM     22  O   UNL     1      17.888  20.943  22.702  1.00  0.00    -0.502 OA
ATOM     23  H   UNL     1      16.877  20.916  22.648  1.00  0.00     0.293 HD
ENDBRANCH   2  22
BRANCH   6  24
ATOM     24  O   UNL     1      20.172  25.493  21.137  1.00  0.00    -0.507 OA
ATOM     25  H   UNL     1      20.838  25.699  21.866  1.00  0.00     0.293 HD
ENDBRANCH   6  24
BRANCH   8  26
ATOM     26  O   UNL     1      21.919  24.134  16.876  1.00  0.00    -0.508 OA
ATOM     27  H   UNL     1      22.893  24.414  16.884  1.00  0.00     0.293 HD
ENDBRANCH   8  26
TORSDOF 6
ENDMDL
