MODEL 1
REMARK VINA RESULT:    -7.299      0.000      0.000
REMARK INTER + INTRA:          -8.845
REMARK INTER:                  -8.579
REMARK INTRA:                  -0.266
REMARK UNBOUND:                -0.266
REMARK SMILES O=c1cc(-c2ccc(O)c(O)c2)oc2cc(O)cc(O)c12
REMARK SMILES IDX 4 1 3 2 2 3 1 4 21 5 19 6 18 7 16 8 15 9 14 10 13 11 5 12
REMARK SMILES IDX 6 13 7 14 8 15 12 16 10 17 9 18 11 20 20 22 17 24
REMARK H PARENT 9 19 11 21 20 23 17 25
REMARK Flexibility Score: inf
ROOT
ATOM      1  C   UNL     1      31.403  -8.726  12.866  1.00  0.00     0.138 A 
ATOM      2  C   UNL     1      32.753  -8.679  13.251  1.00  0.00     0.100 A 
ATOM      3  C   UNL     1      33.680  -8.036  12.430  1.00  0.00     0.197 A 
ATOM      4  O   UNL     1      34.890  -8.001  12.783  1.00  0.00    -0.289 OA
ATOM      5  C   UNL     1      33.250  -7.446  11.224  1.00  0.00     0.107 A 
ATOM      6  C   UNL     1      34.124  -6.776  10.335  1.00  0.00     0.134 A 
ATOM      7  C   UNL     1      33.618  -6.220   9.151  1.00  0.00     0.093 A 
ATOM      8  C   UNL     1      32.260  -6.323   8.839  1.00  0.00     0.123 A 
ATOM      9  C   UNL     1      31.391  -6.984   9.714  1.00  0.00     0.094 A 
ATOM     10  C   UNL     1      31.877  -7.544  10.899  1.00  0.00     0.146 A 
ATOM     11  O   UNL     1      31.031  -8.168  11.716  1.00  0.00    -0.456 OA
ENDROOT
BRANCH   1  12
ATOM     12  C   UNL     1      30.373  -9.396  13.698  1.00  0.00     0.021 A 
ATOM     13  C   UNL     1      29.760  -8.687  14.745  1.00  0.00     0.016 A 
ATOM     14  C   UNL     1      28.794  -9.297  15.547  1.00  0.00     0.051 A 
ATOM     15  C   UNL     1      28.429 -10.631  15.324  1.00  0.00     0.157 A 
ATOM     16  C   UNL     1      30.011 -10.742  13.487  1.00  0.00     0.062 A 
ATOM     17  C   UNL     1      29.044 -11.356  14.291  1.00  0.00     0.158 A 
BRANCH  15  18
ATOM     18  O   UNL     1      27.462 -11.236  16.125  1.00  0.00    -0.504 OA
ATOM     19  H   UNL     1      27.634 -12.121  16.588  1.00  0.00     0.293 HD
ENDBRANCH  15  18
BRANCH  17  20
ATOM     20  O   UNL     1      28.711 -12.689  14.050  1.00  0.00    -0.504 OA
ATOM     21  H   UNL     1      27.880 -13.115  14.442  1.00  0.00     0.293 HD
ENDBRANCH  17  20
ENDBRANCH   1  12
BRANCH   6  22
ATOM     22  O   UNL     1      35.486  -6.658  10.619  1.00  0.00    -0.507 OA
ATOM     23  H   UNL     1      35.815  -6.306  11.510  1.00  0.00     0.293 HD
ENDBRANCH   6  22
BRANCH   8  24
ATOM     24  O   UNL     1      31.782  -5.762   7.656  1.00  0.00    -0.508 OA
ATOM     25  H   UNL     1      31.691  -6.309   6.809  1.00  0.00     0.293 HD
ENDBRANCH   8  24
TORSDOF 5
ENDMDL
MODEL 2
REMARK VINA RESULT:    -7.287      1.619      3.120
REMARK INTER + INTRA:          -8.831
REMARK INTER:                  -8.567
REMARK INTRA:                  -0.264
REMARK UNBOUND:                -0.266
REMARK SMILES O=c1cc(-c2ccc(O)c(O)c2)oc2cc(O)cc(O)c12
REMARK SMILES IDX 4 1 3 2 2 3 1 4 21 5 19 6 18 7 16 8 15 9 14 10 13 11 5 12
REMARK SMILES IDX 6 13 7 14 8 15 12 16 10 17 9 18 11 20 20 22 17 24
REMARK H PARENT 9 19 11 21 20 23 17 25
REMARK Flexibility Score: inf
ROOT
ATOM      1  C   UNL     1      31.137  -8.426  13.265  1.00  0.00     0.138 A 
ATOM      2  C   UNL     1      30.627  -7.381  12.478  1.00  0.00     0.100 A 
ATOM      3  C   UNL     1      31.503  -6.588  11.737  1.00  0.00     0.197 A 
ATOM      4  O   UNL     1      31.036  -5.651  11.036  1.00  0.00    -0.289 OA
ATOM      5  C   UNL     1      32.888  -6.845  11.790  1.00  0.00     0.107 A 
ATOM      6  C   UNL     1      33.844  -6.091  11.070  1.00  0.00     0.134 A 
ATOM      7  C   UNL     1      35.206  -6.407  11.181  1.00  0.00     0.093 A 
ATOM      8  C   UNL     1      35.629  -7.459  11.997  1.00  0.00     0.123 A 
ATOM      9  C   UNL     1      34.689  -8.209  12.712  1.00  0.00     0.094 A 
ATOM     10  C   UNL     1      33.326  -7.909  12.613  1.00  0.00     0.146 A 
ATOM     11  O   UNL     1      32.451  -8.637  13.302  1.00  0.00    -0.456 OA
ENDROOT
BRANCH   1  12
ATOM     12  C   UNL     1      30.253  -9.301  14.076  1.00  0.00     0.021 A 
ATOM     13  C   UNL     1      29.818 -10.528  13.546  1.00  0.00     0.016 A 
ATOM     14  C   UNL     1      28.980 -11.365  14.285  1.00  0.00     0.051 A 
ATOM     15  C   UNL     1      28.554 -10.988  15.565  1.00  0.00     0.157 A 
ATOM     16  C   UNL     1      29.811  -8.922  15.359  1.00  0.00     0.062 A 
ATOM     17  C   UNL     1      28.969  -9.759  16.102  1.00  0.00     0.158 A 
BRANCH  15  18
ATOM     18  O   UNL     1      27.719 -11.827  16.301  1.00  0.00    -0.504 OA
ATOM     19  H   UNL     1      27.424 -11.591  17.241  1.00  0.00     0.293 HD
ENDBRANCH  15  18
BRANCH  17  20
ATOM     20  O   UNL     1      28.554  -9.349  17.368  1.00  0.00    -0.504 OA
ATOM     21  H   UNL     1      27.626  -8.981  17.538  1.00  0.00     0.293 HD
ENDBRANCH  17  20
ENDBRANCH   1  12
BRANCH   6  22
ATOM     22  O   UNL     1      33.452  -5.033  10.247  1.00  0.00    -0.507 OA
ATOM     23  H   UNL     1      33.949  -4.150  10.242  1.00  0.00     0.293 HD
ENDBRANCH   6  22
BRANCH   8  24
ATOM     24  O   UNL     1      36.988  -7.753  12.090  1.00  0.00    -0.508 OA
ATOM     25  H   UNL     1      37.670  -7.039  12.317  1.00  0.00     0.293 HD
ENDBRANCH   8  24
TORSDOF 5
ENDMDL
MODEL 3
REMARK VINA RESULT:    -7.280      1.525      2.767
REMARK INTER + INTRA:          -8.822
REMARK INTER:                  -8.554
REMARK INTRA:                  -0.268
REMARK UNBOUND:                -0.266
REMARK SMILES O=c1cc(-c2ccc(O)c(O)c2)oc2cc(O)cc(O)c12
REMARK SMILES IDX 4 1 3 2 2 3 1 4 21 5 19 6 18 7 16 8 15 9 14 10 13 11 5 12
REMARK SMILES IDX 6 13 7 14 8 15 12 16 10 17 9 18 11 20 20 22 17 24
REMARK H PARENT 9 19 11 21 20 23 17 25
REMARK Flexibility Score: inf
ROOT
ATOM      1  C   UNL     1      31.073  -8.372  13.233  1.00  0.00     0.138 A 
ATOM      2  C   UNL     1      30.598  -7.304  12.454  1.00  0.00     0.100 A 
ATOM      3  C   UNL     1      31.503  -6.518  11.742  1.00  0.00     0.197 A 
ATOM      4  O   UNL     1      31.068  -5.561  11.047  1.00  0.00    -0.289 OA
ATOM      5  C   UNL     1      32.882  -6.804  11.815  1.00  0.00     0.107 A 
ATOM      6  C   UNL     1      33.866  -6.058  11.125  1.00  0.00     0.134 A 
ATOM      7  C   UNL     1      35.219  -6.403  11.255  1.00  0.00     0.093 A 
ATOM      8  C   UNL     1      35.606  -7.477  12.062  1.00  0.00     0.123 A 
ATOM      9  C   UNL     1      34.638  -8.218  12.748  1.00  0.00     0.094 A 
ATOM     10  C   UNL     1      33.284  -7.889  12.629  1.00  0.00     0.146 A 
ATOM     11  O   UNL     1      32.382  -8.610  13.290  1.00  0.00    -0.456 OA
ENDROOT
BRANCH   1  12
ATOM     12  C   UNL     1      30.157  -9.242  14.013  1.00  0.00     0.021 A 
ATOM     13  C   UNL     1      29.559  -8.744  15.184  1.00  0.00     0.016 A 
ATOM     14  C   UNL     1      28.700  -9.544  15.940  1.00  0.00     0.051 A 
ATOM     15  C   UNL     1      28.429 -10.860  15.545  1.00  0.00     0.157 A 
ATOM     16  C   UNL     1      29.890 -10.571  13.629  1.00  0.00     0.062 A 
ATOM     17  C   UNL     1      29.030 -11.376  14.386  1.00  0.00     0.158 A 
BRANCH  15  18
ATOM     18  O   UNL     1      27.569 -11.655  16.300  1.00  0.00    -0.504 OA
ATOM     19  H   UNL     1      26.763 -12.107  15.886  1.00  0.00     0.293 HD
ENDBRANCH  15  18
BRANCH  17  20
ATOM     20  O   UNL     1      28.789 -12.685  13.971  1.00  0.00    -0.504 OA
ATOM     21  H   UNL     1      29.055 -13.485  14.533  1.00  0.00     0.293 HD
ENDBRANCH  17  20
ENDBRANCH   1  12
BRANCH   6  22
ATOM     22  O   UNL     1      33.511  -4.980  10.312  1.00  0.00    -0.507 OA
ATOM     23  H   UNL     1      33.889  -4.052  10.462  1.00  0.00     0.293 HD
ENDBRANCH   6  22
BRANCH   8  24
ATOM     24  O   UNL     1      36.957  -7.799  12.175  1.00  0.00    -0.508 OA
ATOM     25  H   UNL     1      37.267  -8.759  12.264  1.00  0.00     0.293 HD
ENDBRANCH   8  24
TORSDOF 5
ENDMDL
MODEL 4
REMARK VINA RESULT:    -6.999      2.246      7.087
REMARK INTER + INTRA:          -8.493
REMARK INTER:                  -8.197
REMARK INTRA:                  -0.296
REMARK UNBOUND:                -0.266
REMARK SMILES O=c1cc(-c2ccc(O)c(O)c2)oc2cc(O)cc(O)c12
REMARK SMILES IDX 4 1 3 2 2 3 1 4 21 5 19 6 18 7 16 8 15 9 14 10 13 11 5 12
REMARK SMILES IDX 6 13 7 14 8 15 12 16 10 17 9 18 11 20 20 22 17 24
REMARK H PARENT 9 19 11 21 20 23 17 25
REMARK Flexibility Score: inf
ROOT
ATOM      1  C   UNL     1      31.607  -9.360  13.803  1.00  0.00     0.138 A 
ATOM      2  C   UNL     1      32.523  -9.884  14.730  1.00  0.00     0.100 A 
ATOM      3  C   UNL     1      32.136 -10.936  15.559  1.00  0.00     0.197 A 
ATOM      4  O   UNL     1      32.964 -11.399  16.389  1.00  0.00    -0.289 OA
ATOM      5  C   UNL     1      30.830 -11.457  15.458  1.00  0.00     0.107 A 
ATOM      6  C   UNL     1      30.357 -12.523  16.260  1.00  0.00     0.134 A 
ATOM      7  C   UNL     1      29.040 -12.980  16.101  1.00  0.00     0.093 A 
ATOM      8  C   UNL     1      28.190 -12.393  15.161  1.00  0.00     0.123 A 
ATOM      9  C   UNL     1      28.652 -11.339  14.365  1.00  0.00     0.094 A 
ATOM     10  C   UNL     1      29.962 -10.870  14.508  1.00  0.00     0.146 A 
ATOM     11  O   UNL     1      30.378  -9.867  13.739  1.00  0.00    -0.456 OA
ENDROOT
BRANCH   1  12
ATOM     12  C   UNL     1      31.963  -8.240  12.896  1.00  0.00     0.021 A 
ATOM     13  C   UNL     1      30.955  -7.605  12.151  1.00  0.00     0.016 A 
ATOM     14  C   UNL     1      31.264  -6.554  11.285  1.00  0.00     0.051 A 
ATOM     15  C   UNL     1      32.590  -6.124  11.141  1.00  0.00     0.157 A 
ATOM     16  C   UNL     1      33.296  -7.811  12.736  1.00  0.00     0.062 A 
ATOM     17  C   UNL     1      33.610  -6.759  11.868  1.00  0.00     0.158 A 
BRANCH  15  18
ATOM     18  O   UNL     1      32.895  -5.073  10.278  1.00  0.00    -0.504 OA
ATOM     19  H   UNL     1      33.848  -4.880   9.992  1.00  0.00     0.293 HD
ENDBRANCH  15  18
BRANCH  17  20
ATOM     20  O   UNL     1      34.940  -6.361  11.739  1.00  0.00    -0.504 OA
ATOM     21  H   UNL     1      35.560  -6.771  11.051  1.00  0.00     0.293 HD
ENDBRANCH  17  20
ENDBRANCH   1  12
BRANCH   6  22
ATOM     22  O   UNL     1      31.182 -13.129  17.209  1.00  0.00    -0.507 OA
ATOM     23  H   UNL     1      32.174 -13.257  17.048  1.00  0.00     0.293 HD
ENDBRANCH   6  22
BRANCH   8  24
ATOM     24  O   UNL     1      26.887 -12.866  15.024  1.00  0.00    -0.508 OA
ATOM     25  H   UNL     1      26.135 -12.264  14.709  1.00  0.00     0.293 HD
ENDBRANCH   8  24
TORSDOF 5
ENDMDL
MODEL 5
REMARK VINA RESULT:    -6.805     17.657     19.743
REMARK INTER + INTRA:          -8.265
REMARK INTER:                  -7.997
REMARK INTRA:                  -0.268
REMARK UNBOUND:                -0.266
REMARK SMILES O=c1cc(-c2ccc(O)c(O)c2)oc2cc(O)cc(O)c12
REMARK SMILES IDX 4 1 3 2 2 3 1 4 21 5 19 6 18 7 16 8 15 9 14 10 13 11 5 12
REMARK SMILES IDX 6 13 7 14 8 15 12 16 10 17 9 18 11 20 20 22 17 24
REMARK H PARENT 9 19 11 21 20 23 17 25
REMARK Flexibility Score: inf
ROOT
ATOM      1  C   UNL     1      41.069 -21.482  21.176  1.00  0.00     0.138 A 
ATOM      2  C   UNL     1      42.307 -22.020  20.788  1.00  0.00     0.100 A 
ATOM      3  C   UNL     1      42.986 -22.876  21.655  1.00  0.00     0.197 A 
ATOM      4  O   UNL     1      44.097 -23.353  21.300  1.00  0.00    -0.289 OA
ATOM      5  C   UNL     1      42.422 -23.186  22.910  1.00  0.00     0.107 A 
ATOM      6  C   UNL     1      43.044 -24.044  23.847  1.00  0.00     0.134 A 
ATOM      7  C   UNL     1      42.419 -24.297  25.078  1.00  0.00     0.093 A 
ATOM      8  C   UNL     1      41.190 -23.710  25.388  1.00  0.00     0.123 A 
ATOM      9  C   UNL     1      40.571 -22.860  24.465  1.00  0.00     0.094 A 
ATOM     10  C   UNL     1      41.177 -22.596  23.233  1.00  0.00     0.146 A 
ATOM     11  O   UNL     1      40.569 -21.786  22.371  1.00  0.00    -0.456 OA
ENDROOT
BRANCH   1  12
ATOM     12  C   UNL     1      40.302 -20.565  20.295  1.00  0.00     0.021 A 
ATOM     13  C   UNL     1      40.733 -19.237  20.135  1.00  0.00     0.016 A 
ATOM     14  C   UNL     1      40.025 -18.353  19.319  1.00  0.00     0.051 A 
ATOM     15  C   UNL     1      38.868 -18.777  18.653  1.00  0.00     0.157 A 
ATOM     16  C   UNL     1      39.130 -20.982  19.633  1.00  0.00     0.062 A 
ATOM     17  C   UNL     1      38.417 -20.097  18.815  1.00  0.00     0.158 A 
BRANCH  15  18
ATOM     18  O   UNL     1      38.165 -17.893  17.837  1.00  0.00    -0.504 OA
ATOM     19  H   UNL     1      37.671 -18.210  17.012  1.00  0.00     0.293 HD
ENDBRANCH  15  18
BRANCH  17  20
ATOM     20  O   UNL     1      37.263 -20.547  18.175  1.00  0.00    -0.504 OA
ATOM     21  H   UNL     1      36.345 -20.185  18.403  1.00  0.00     0.293 HD
ENDBRANCH  17  20
ENDBRANCH   1  12
BRANCH   6  22
ATOM     22  O   UNL     1      44.272 -24.645  23.567  1.00  0.00    -0.507 OA
ATOM     23  H   UNL     1      44.988 -24.169  23.030  1.00  0.00     0.293 HD
ENDBRANCH   6  22
BRANCH   8  24
ATOM     24  O   UNL     1      40.591 -23.978  26.617  1.00  0.00    -0.508 OA
ATOM     25  H   UNL     1      39.768 -24.564  26.689  1.00  0.00     0.293 HD
ENDBRANCH   8  24
TORSDOF 5
ENDMDL
MODEL 6
REMARK VINA RESULT:    -6.745     16.869     19.041
REMARK INTER + INTRA:          -8.193
REMARK INTER:                  -7.925
REMARK INTRA:                  -0.268
REMARK UNBOUND:                -0.266
REMARK SMILES O=c1cc(-c2ccc(O)c(O)c2)oc2cc(O)cc(O)c12
REMARK SMILES IDX 4 1 3 2 2 3 1 4 21 5 19 6 18 7 16 8 15 9 14 10 13 11 5 12
REMARK SMILES IDX 6 13 7 14 8 15 12 16 10 17 9 18 11 20 20 22 17 24
REMARK H PARENT 9 19 11 21 20 23 17 25
REMARK Flexibility Score: inf
ROOT
ATOM      1  C   UNL     1      40.183 -20.758  21.202  1.00  0.00     0.138 A 
ATOM      2  C   UNL     1      39.445 -21.037  22.363  1.00  0.00     0.100 A 
ATOM      3  C   UNL     1      39.952 -21.936  23.301  1.00  0.00     0.197 A 
ATOM      4  O   UNL     1      39.281 -22.182  24.339  1.00  0.00    -0.289 OA
ATOM      5  C   UNL     1      41.197 -22.556  23.068  1.00  0.00     0.107 A 
ATOM      6  C   UNL     1      41.783 -23.478  23.966  1.00  0.00     0.134 A 
ATOM      7  C   UNL     1      43.024 -24.055  23.659  1.00  0.00     0.093 A 
ATOM      8  C   UNL     1      43.687 -23.729  22.473  1.00  0.00     0.123 A 
ATOM      9  C   UNL     1      43.112 -22.818  21.580  1.00  0.00     0.094 A 
ATOM     10  C   UNL     1      41.876 -22.232  21.870  1.00  0.00     0.146 A 
ATOM     11  O   UNL     1      41.351 -21.367  21.007  1.00  0.00    -0.456 OA
ENDROOT
BRANCH   1  12
ATOM     12  C   UNL     1      39.693 -19.811  20.169  1.00  0.00     0.021 A 
ATOM     13  C   UNL     1      38.715 -20.232  19.252  1.00  0.00     0.016 A 
ATOM     14  C   UNL     1      38.243 -19.363  18.266  1.00  0.00     0.051 A 
ATOM     15  C   UNL     1      38.746 -18.059  18.173  1.00  0.00     0.157 A 
ATOM     16  C   UNL     1      40.204 -18.502  20.062  1.00  0.00     0.062 A 
ATOM     17  C   UNL     1      39.734 -17.629  19.074  1.00  0.00     0.158 A 
BRANCH  15  18
ATOM     18  O   UNL     1      38.271 -17.193  17.190  1.00  0.00    -0.504 OA
ATOM     19  H   UNL     1      37.300 -17.200  16.900  1.00  0.00     0.293 HD
ENDBRANCH  15  18
BRANCH  17  20
ATOM     20  O   UNL     1      40.263 -16.341  19.001  1.00  0.00    -0.504 OA
ATOM     21  H   UNL     1      40.672 -15.974  18.150  1.00  0.00     0.293 HD
ENDBRANCH  17  20
ENDBRANCH   1  12
BRANCH   6  22
ATOM     22  O   UNL     1      41.145 -23.824  25.159  1.00  0.00    -0.507 OA
ATOM     23  H   UNL     1      41.160 -24.773  25.515  1.00  0.00     0.293 HD
ENDBRANCH   6  22
BRANCH   8  24
ATOM     24  O   UNL     1      44.919 -24.317  22.191  1.00  0.00    -0.508 OA
ATOM     25  H   UNL     1      45.245 -24.432  21.239  1.00  0.00     0.293 HD
ENDBRANCH   8  24
TORSDOF 5
ENDMDL
MODEL 7
REMARK VINA RESULT:    -6.700     16.422     18.026
REMARK INTER + INTRA:          -8.140
REMARK INTER:                  -7.877
REMARK INTRA:                  -0.264
REMARK UNBOUND:                -0.266
REMARK SMILES O=c1cc(-c2ccc(O)c(O)c2)oc2cc(O)cc(O)c12
REMARK SMILES IDX 4 1 3 2 2 3 1 4 21 5 19 6 18 7 16 8 15 9 14 10 13 11 5 12
REMARK SMILES IDX 6 13 7 14 8 15 12 16 10 17 9 18 11 20 20 22 17 24
REMARK H PARENT 9 19 11 21 20 23 17 25
REMARK Flexibility Score: inf
ROOT
ATOM      1  C   UNL     1      41.056 -20.970  20.782  1.00  0.00     0.138 A 
ATOM      2  C   UNL     1      39.940 -21.323  20.006  1.00  0.00     0.100 A 
ATOM      3  C   UNL     1      39.178 -20.323  19.402  1.00  0.00     0.197 A 
ATOM      4  O   UNL     1      38.177 -20.651  18.709  1.00  0.00    -0.289 OA
ATOM      5  C   UNL     1      39.536 -18.972  19.581  1.00  0.00     0.107 A 
ATOM      6  C   UNL     1      38.819 -17.898  19.004  1.00  0.00     0.134 A 
ATOM      7  C   UNL     1      39.238 -16.579  19.235  1.00  0.00     0.093 A 
ATOM      8  C   UNL     1      40.355 -16.315  20.031  1.00  0.00     0.123 A 
ATOM      9  C   UNL     1      41.068 -17.373  20.604  1.00  0.00     0.094 A 
ATOM     10  C   UNL     1      40.667 -18.694  20.385  1.00  0.00     0.146 A 
ATOM     11  O   UNL     1      41.361 -19.684  20.940  1.00  0.00    -0.456 OA
ENDROOT
BRANCH   1  12
ATOM     12  C   UNL     1      41.902 -21.990  21.450  1.00  0.00     0.021 A 
ATOM     13  C   UNL     1      43.069 -22.447  20.813  1.00  0.00     0.016 A 
ATOM     14  C   UNL     1      43.878 -23.412  21.416  1.00  0.00     0.051 A 
ATOM     15  C   UNL     1      43.531 -23.945  22.664  1.00  0.00     0.157 A 
ATOM     16  C   UNL     1      41.552 -22.541  22.699  1.00  0.00     0.062 A 
ATOM     17  C   UNL     1      42.360 -23.510  23.306  1.00  0.00     0.158 A 
BRANCH  15  18
ATOM     18  O   UNL     1      44.342 -24.907  23.265  1.00  0.00    -0.504 OA
ATOM     19  H   UNL     1      45.015 -24.661  23.981  1.00  0.00     0.293 HD
ENDBRANCH  15  18
BRANCH  17  20
ATOM     20  O   UNL     1      41.981 -24.029  24.543  1.00  0.00    -0.504 OA
ATOM     21  H   UNL     1      42.558 -24.690  25.048  1.00  0.00     0.293 HD
ENDBRANCH  17  20
ENDBRANCH   1  12
BRANCH   6  22
ATOM     22  O   UNL     1      37.698 -18.129  18.204  1.00  0.00    -0.507 OA
ATOM     23  H   UNL     1      37.701 -18.832  17.475  1.00  0.00     0.293 HD
ENDBRANCH   6  22
BRANCH   8  24
ATOM     24  O   UNL     1      40.750 -14.996  20.245  1.00  0.00    -0.508 OA
ATOM     25  H   UNL     1      41.385 -14.748  20.994  1.00  0.00     0.293 HD
ENDBRANCH   8  24
TORSDOF 5
ENDMDL
MODEL 8
REMARK VINA RESULT:    -6.592      2.192      6.916
REMARK INTER + INTRA:          -8.014
REMARK INTER:                  -7.749
REMARK INTRA:                  -0.264
REMARK UNBOUND:                -0.266
REMARK SMILES O=c1cc(-c2ccc(O)c(O)c2)oc2cc(O)cc(O)c12
REMARK SMILES IDX 4 1 3 2 2 3 1 4 21 5 19 6 18 7 16 8 15 9 14 10 13 11 5 12
REMARK SMILES IDX 6 13 7 14 8 15 12 16 10 17 9 18 11 20 20 22 17 24
REMARK H PARENT 9 19 11 21 20 23 17 25
REMARK Flexibility Score: inf
ROOT
ATOM      1  C   UNL     1      31.259  -9.607  13.050  1.00  0.00     0.138 A 
ATOM      2  C   UNL     1      32.399 -10.069  13.729  1.00  0.00     0.100 A 
ATOM      3  C   UNL     1      32.250 -10.935  14.812  1.00  0.00     0.197 A 
ATOM      4  O   UNL     1      33.278 -11.343  15.416  1.00  0.00    -0.289 OA
ATOM      5  C   UNL     1      30.958 -11.333  15.212  1.00  0.00     0.107 A 
ATOM      6  C   UNL     1      30.719 -12.207  16.298  1.00  0.00     0.134 A 
ATOM      7  C   UNL     1      29.401 -12.550  16.636  1.00  0.00     0.093 A 
ATOM      8  C   UNL     1      28.322 -12.035  15.913  1.00  0.00     0.123 A 
ATOM      9  C   UNL     1      28.553 -11.169  14.839  1.00  0.00     0.094 A 
ATOM     10  C   UNL     1      29.859 -10.817  14.486  1.00  0.00     0.146 A 
ATOM     11  O   UNL     1      30.053  -9.992  13.460  1.00  0.00    -0.456 OA
ENDROOT
BRANCH   1  12
ATOM     12  C   UNL     1      31.357  -8.683  11.893  1.00  0.00     0.021 A 
ATOM     13  C   UNL     1      31.017  -7.329  12.057  1.00  0.00     0.016 A 
ATOM     14  C   UNL     1      31.092  -6.441  10.982  1.00  0.00     0.051 A 
ATOM     15  C   UNL     1      31.501  -6.892   9.720  1.00  0.00     0.157 A 
ATOM     16  C   UNL     1      31.755  -9.132  10.617  1.00  0.00     0.062 A 
ATOM     17  C   UNL     1      31.830  -8.244   9.537  1.00  0.00     0.158 A 
BRANCH  15  18
ATOM     18  O   UNL     1      31.578  -6.002   8.649  1.00  0.00    -0.504 OA
ATOM     19  H   UNL     1      31.708  -5.008   8.793  1.00  0.00     0.293 HD
ENDBRANCH  15  18
BRANCH  17  20
ATOM     20  O   UNL     1      32.230  -8.726   8.292  1.00  0.00    -0.504 OA
ATOM     21  H   UNL     1      31.609  -8.732   7.492  1.00  0.00     0.293 HD
ENDBRANCH  17  20
ENDBRANCH   1  12
BRANCH   6  22
ATOM     22  O   UNL     1      31.775 -12.738  17.040  1.00  0.00    -0.507 OA
ATOM     23  H   UNL     1      32.593 -13.136  16.593  1.00  0.00     0.293 HD
ENDBRANCH   6  22
BRANCH   8  24
ATOM     24  O   UNL     1      27.023 -12.391  16.270  1.00  0.00    -0.508 OA
ATOM     25  H   UNL     1      26.656 -13.316  16.081  1.00  0.00     0.293 HD
ENDBRANCH   8  24
TORSDOF 5
ENDMDL
MODEL 9
REMARK VINA RESULT:    -6.359      2.449      7.441
REMARK INTER + INTRA:          -7.740
REMARK INTER:                  -7.425
REMARK INTRA:                  -0.316
REMARK UNBOUND:                -0.266
REMARK SMILES O=c1cc(-c2ccc(O)c(O)c2)oc2cc(O)cc(O)c12
REMARK SMILES IDX 4 1 3 2 2 3 1 4 21 5 19 6 18 7 16 8 15 9 14 10 13 11 5 12
REMARK SMILES IDX 6 13 7 14 8 15 12 16 10 17 9 18 11 20 20 22 17 24
REMARK H PARENT 9 19 11 21 20 23 17 25
REMARK Flexibility Score: inf
ROOT
ATOM      1  C   UNL     1      31.174  -9.039  13.547  1.00  0.00     0.138 A 
ATOM      2  C   UNL     1      29.851  -9.487  13.400  1.00  0.00     0.100 A 
ATOM      3  C   UNL     1      29.377 -10.511  14.220  1.00  0.00     0.197 A 
ATOM      4  O   UNL     1      28.189 -10.907  14.079  1.00  0.00    -0.289 OA
ATOM      5  C   UNL     1      30.233 -11.084  15.182  1.00  0.00     0.107 A 
ATOM      6  C   UNL     1      29.832 -12.125  16.053  1.00  0.00     0.134 A 
ATOM      7  C   UNL     1      30.747 -12.646  16.980  1.00  0.00     0.093 A 
ATOM      8  C   UNL     1      32.051 -12.148  17.052  1.00  0.00     0.123 A 
ATOM      9  C   UNL     1      32.452 -11.119  16.194  1.00  0.00     0.094 A 
ATOM     10  C   UNL     1      31.555 -10.587  15.263  1.00  0.00     0.146 A 
ATOM     11  O   UNL     1      31.960  -9.608  14.458  1.00  0.00    -0.456 OA
ENDROOT
BRANCH   1  12
ATOM     12  C   UNL     1      31.733  -7.954  12.702  1.00  0.00     0.021 A 
ATOM     13  C   UNL     1      30.867  -7.165  11.925  1.00  0.00     0.016 A 
ATOM     14  C   UNL     1      31.369  -6.144  11.116  1.00  0.00     0.051 A 
ATOM     15  C   UNL     1      32.747  -5.897  11.061  1.00  0.00     0.157 A 
ATOM     16  C   UNL     1      33.119  -7.709  12.632  1.00  0.00     0.062 A 
ATOM     17  C   UNL     1      33.625  -6.686  11.821  1.00  0.00     0.158 A 
BRANCH  15  18
ATOM     18  O   UNL     1      33.244  -4.875  10.255  1.00  0.00    -0.504 OA
ATOM     19  H   UNL     1      33.603  -4.014  10.649  1.00  0.00     0.293 HD
ENDBRANCH  15  18
BRANCH  17  20
ATOM     20  O   UNL     1      35.002  -6.473  11.780  1.00  0.00    -0.504 OA
ATOM     21  H   UNL     1      35.635  -7.125  11.332  1.00  0.00     0.293 HD
ENDBRANCH  17  20
ENDBRANCH   1  12
BRANCH   6  22
ATOM     22  O   UNL     1      28.537 -12.643  16.005  1.00  0.00    -0.507 OA
ATOM     23  H   UNL     1      28.356 -13.634  16.111  1.00  0.00     0.293 HD
ENDBRANCH   6  22
BRANCH   8  24
ATOM     24  O   UNL     1      32.940 -12.683  17.982  1.00  0.00    -0.508 OA
ATOM     25  H   UNL     1      32.998 -13.681  18.146  1.00  0.00     0.293 HD
ENDBRANCH   8  24
TORSDOF 5
ENDMDL
