MODEL 1
REMARK VINA RESULT:    -3.021      0.000      0.000
REMARK INTER + INTRA:          -5.468
REMARK INTER:                  -5.139
REMARK INTRA:                  -0.329
REMARK UNBOUND:                -0.329
REMARK SMILES CCCCCCCCCCCCCC(=O)[O-]
REMARK SMILES IDX 8 1 9 2 10 3 11 4 12 5 13 6 14 7 15 8 16 9 7 10 6 11 5 12
REMARK SMILES IDX 4 13 3 14 2 15 1 16
REMARK H PARENT
REMARK Flexibility Score: inf
ROOT
ATOM      1  C   UNL     1      33.680  36.493   1.960  1.00  0.00     0.000 C 
ENDROOT
BRANCH   1   2
ATOM      2  C   UNL     1      34.715  36.623   3.097  1.00  0.00     0.000 C 
BRANCH   2   3
ATOM      3  C   UNL     1      34.423  37.820   4.015  1.00  0.00     0.000 C 
BRANCH   3   4
ATOM      4  C   UNL     1      35.121  37.653   5.372  1.00  0.00     0.000 C 
BRANCH   4   5
ATOM      5  C   UNL     1      34.933  38.870   6.296  1.00  0.00     0.006 C 
BRANCH   5   6
ATOM      6  C   UNL     1      35.011  38.547   7.797  1.00  0.00     0.053 C 
BRANCH   6   7
ATOM      7  C   UNL     1      33.693  38.734   8.484  1.00  0.00     0.041 C 
ATOM      8  O   UNL     1      32.624  38.726   7.818  1.00  0.00    -0.550 OA
ATOM      9  O   UNL     1      33.641  38.878   9.865  1.00  0.00    -0.550 OA
ENDBRANCH   6   7
ENDBRANCH   5   6
ENDBRANCH   4   5
ENDBRANCH   3   4
ENDBRANCH   2   3
ENDBRANCH   1   2
BRANCH   1  10
ATOM     10  C   UNL     1      34.178  37.046   0.613  1.00  0.00     0.000 C 
BRANCH  10  11
ATOM     11  C   UNL     1      34.241  38.582   0.586  1.00  0.00    -0.000 C 
BRANCH  11  12
ATOM     12  C   UNL     1      35.117  39.125  -0.558  1.00  0.00    -0.000 C 
BRANCH  12  13
ATOM     13  C   UNL     1      34.445  39.118  -1.944  1.00  0.00    -0.000 C 
BRANCH  13  14
ATOM     14  C   UNL     1      33.022  38.539  -1.918  1.00  0.00    -0.000 C 
BRANCH  14  15
ATOM     15  C   UNL     1      32.843  37.476  -3.008  1.00  0.00    -0.003 C 
ATOM     16  C   UNL     1      32.412  36.140  -2.407  1.00  0.00     0.004 C 
ENDBRANCH  14  15
ENDBRANCH  13  14
ENDBRANCH  12  13
ENDBRANCH  11  12
ENDBRANCH  10  11
ENDBRANCH   1  10
TORSDOF 12
ENDMDL
MODEL 2
REMARK VINA RESULT:    -2.827      1.507      2.249
REMARK INTER + INTRA:          -5.139
REMARK INTER:                  -5.502
REMARK INTRA:                   0.362
REMARK UNBOUND:                -0.329
REMARK SMILES CCCCCCCCCCCCCC(=O)[O-]
REMARK SMILES IDX 8 1 9 2 10 3 11 4 12 5 13 6 14 7 15 8 16 9 7 10 6 11 5 12
REMARK SMILES IDX 4 13 3 14 2 15 1 16
REMARK H PARENT
REMARK Flexibility Score: inf
ROOT
ATOM      1  C   UNL     1      32.916  35.588   1.208  1.00  0.00     0.000 C 
ENDROOT
BRANCH   1   2
ATOM      2  C   UNL     1      34.037  36.243   2.042  1.00  0.00     0.000 C 
BRANCH   2   3
ATOM      3  C   UNL     1      33.828  37.755   2.213  1.00  0.00     0.000 C 
BRANCH   3   4
ATOM      4  C   UNL     1      33.624  38.117   3.691  1.00  0.00     0.000 C 
BRANCH   4   5
ATOM      5  C   UNL     1      34.805  37.691   4.582  1.00  0.00     0.006 C 
BRANCH   5   6
ATOM      6  C   UNL     1      35.107  38.653   5.742  1.00  0.00     0.053 C 
BRANCH   6   7
ATOM      7  C   UNL     1      34.240  38.390   6.935  1.00  0.00     0.041 C 
ATOM      8  O   UNL     1      34.758  38.223   8.070  1.00  0.00    -0.550 OA
ATOM      9  O   UNL     1      32.858  38.367   6.799  1.00  0.00    -0.550 OA
ENDBRANCH   6   7
ENDBRANCH   5   6
ENDBRANCH   4   5
ENDBRANCH   3   4
ENDBRANCH   2   3
ENDBRANCH   1   2
BRANCH   1  10
ATOM     10  C   UNL     1      32.830  36.129  -0.230  1.00  0.00     0.000 C 
BRANCH  10  11
ATOM     11  C   UNL     1      33.999  37.059  -0.590  1.00  0.00    -0.000 C 
BRANCH  11  12
ATOM     12  C   UNL     1      33.541  38.478  -0.969  1.00  0.00    -0.000 C 
BRANCH  12  13
ATOM     13  C   UNL     1      33.975  38.943  -2.372  1.00  0.00    -0.000 C 
BRANCH  13  14
ATOM     14  C   UNL     1      33.253  38.195  -3.503  1.00  0.00    -0.000 C 
BRANCH  14  15
ATOM     15  C   UNL     1      33.466  38.897  -4.849  1.00  0.00    -0.003 C 
ATOM     16  C   UNL     1      34.951  39.118  -5.125  1.00  0.00     0.004 C 
ENDBRANCH  14  15
ENDBRANCH  13  14
ENDBRANCH  12  13
ENDBRANCH  11  12
ENDBRANCH  10  11
ENDBRANCH   1  10
TORSDOF 12
ENDMDL
MODEL 3
REMARK VINA RESULT:    -2.697      1.487      2.622
REMARK INTER + INTRA:          -4.917
REMARK INTER:                  -4.252
REMARK INTRA:                  -0.665
REMARK UNBOUND:                -0.329
REMARK SMILES CCCCCCCCCCCCCC(=O)[O-]
REMARK SMILES IDX 8 1 9 2 10 3 11 4 12 5 13 6 14 7 15 8 16 9 7 10 6 11 5 12
REMARK SMILES IDX 4 13 3 14 2 15 1 16
REMARK H PARENT
REMARK Flexibility Score: inf
ROOT
ATOM      1  C   UNL     1      35.010  38.796   1.775  1.00  0.00     0.000 C 
ENDROOT
BRANCH   1   2
ATOM      2  C   UNL     1      33.595  38.735   2.390  1.00  0.00     0.000 C 
BRANCH   2   3
ATOM      3  C   UNL     1      33.596  39.085   3.885  1.00  0.00     0.000 C 
BRANCH   3   4
ATOM      4  C   UNL     1      34.951  38.754   4.526  1.00  0.00     0.000 C 
BRANCH   4   5
ATOM      5  C   UNL     1      34.816  37.946   5.830  1.00  0.00     0.006 C 
BRANCH   5   6
ATOM      6  C   UNL     1      35.125  38.743   7.107  1.00  0.00     0.053 C 
BRANCH   6   7
ATOM      7  C   UNL     1      34.030  38.629   8.123  1.00  0.00     0.041 C 
ATOM      8  O   UNL     1      32.827  38.763   7.776  1.00  0.00    -0.550 OA
ATOM      9  O   UNL     1      34.335  38.339   9.447  1.00  0.00    -0.550 OA
ENDBRANCH   6   7
ENDBRANCH   5   6
ENDBRANCH   4   5
ENDBRANCH   3   4
ENDBRANCH   2   3
ENDBRANCH   1   2
BRANCH   1  10
ATOM     10  C   UNL     1      35.035  38.491   0.267  1.00  0.00     0.000 C 
BRANCH  10  11
ATOM     11  C   UNL     1      33.628  38.378  -0.343  1.00  0.00    -0.000 C 
BRANCH  11  12
ATOM     12  C   UNL     1      33.525  37.275  -1.411  1.00  0.00    -0.000 C 
BRANCH  12  13
ATOM     13  C   UNL     1      32.946  35.940  -0.905  1.00  0.00    -0.000 C 
BRANCH  13  14
ATOM     14  C   UNL     1      32.911  35.843   0.627  1.00  0.00    -0.000 C 
BRANCH  14  15
ATOM     15  C   UNL     1      32.339  34.495   1.079  1.00  0.00    -0.003 C 
ATOM     16  C   UNL     1      33.339  33.736   1.949  1.00  0.00     0.004 C 
ENDBRANCH  14  15
ENDBRANCH  13  14
ENDBRANCH  12  13
ENDBRANCH  11  12
ENDBRANCH  10  11
ENDBRANCH   1  10
TORSDOF 12
ENDMDL
