MODEL 1
REMARK VINA RESULT:    -7.823      0.000      0.000
REMARK INTER + INTRA:          -9.369
REMARK INTER:                  -9.195
REMARK INTRA:                  -0.174
REMARK UNBOUND:                -0.174
REMARK SMILES O=c1c(O)c(-c2ccc(O)cc2)oc2cc(O)cc(O)c12
REMARK SMILES IDX 5 1 3 2 2 3 1 4 21 5 19 6 18 7 16 8 15 9 14 10 13 11 6 12
REMARK SMILES IDX 7 13 8 14 9 15 12 16 11 17 10 18 4 20 20 22 17 24
REMARK H PARENT 10 19 4 21 20 23 17 25
REMARK Flexibility Score: inf
ROOT
ATOM      1  C   UNL     1      18.929  10.127 152.295  1.00  0.00     0.180 A 
ATOM      2  C   UNL     1      20.035  10.562 153.044  1.00  0.00     0.208 A 
ATOM      3  C   UNL     1      21.282  10.682 152.410  1.00  0.00     0.238 A 
ATOM      4  O   UNL     1      22.257  11.125 153.073  1.00  0.00    -0.285 OA
ATOM      5  C   UNL     1      21.412  10.349 151.040  1.00  0.00     0.111 A 
ATOM      6  C   UNL     1      22.635  10.395 150.307  1.00  0.00     0.134 A 
ATOM      7  C   UNL     1      22.620  10.170 148.925  1.00  0.00     0.093 A 
ATOM      8  C   UNL     1      21.440   9.838 148.261  1.00  0.00     0.123 A 
ATOM      9  C   UNL     1      20.248   9.732 148.979  1.00  0.00     0.094 A 
ATOM     10  C   UNL     1      20.225   9.986 150.353  1.00  0.00     0.146 A 
ATOM     11  O   UNL     1      19.068   9.885 150.997  1.00  0.00    -0.452 OA
ENDROOT
BRANCH   1  12
ATOM     12  C   UNL     1      17.589   9.951 152.899  1.00  0.00     0.021 A 
ATOM     13  C   UNL     1      17.087   8.655 153.104  1.00  0.00     0.016 A 
ATOM     14  C   UNL     1      15.833   8.465 153.694  1.00  0.00     0.047 A 
ATOM     15  C   UNL     1      15.072   9.566 154.098  1.00  0.00     0.115 A 
ATOM     16  C   UNL     1      16.826  11.054 153.327  1.00  0.00     0.016 A 
ATOM     17  C   UNL     1      15.573  10.861 153.917  1.00  0.00     0.047 A 
BRANCH  15  18
ATOM     18  O   UNL     1      13.825   9.362 154.684  1.00  0.00    -0.508 OA
ATOM     19  H   UNL     1      13.610   9.719 155.608  1.00  0.00     0.293 HD
ENDBRANCH  15  18
ENDBRANCH   1  12
BRANCH   2  20
ATOM     20  O   UNL     1      19.882  10.906 154.390  1.00  0.00    -0.502 OA
ATOM     21  H   UNL     1      19.174  11.558 154.708  1.00  0.00     0.293 HD
ENDBRANCH   2  20
BRANCH   6  22
ATOM     22  O   UNL     1      23.885  10.628 150.888  1.00  0.00    -0.507 OA
ATOM     23  H   UNL     1      24.762  10.617 150.389  1.00  0.00     0.293 HD
ENDBRANCH   6  22
BRANCH   8  24
ATOM     24  O   UNL     1      21.465   9.606 146.888  1.00  0.00    -0.508 OA
ATOM     25  H   UNL     1      22.334   9.442 146.394  1.00  0.00     0.293 HD
ENDBRANCH   8  24
TORSDOF 5
ENDMDL
MODEL 2
REMARK VINA RESULT:    -7.759      1.489      6.473
REMARK INTER + INTRA:          -9.293
REMARK INTER:                  -9.042
REMARK INTRA:                  -0.251
REMARK UNBOUND:                -0.174
REMARK SMILES O=c1c(O)c(-c2ccc(O)cc2)oc2cc(O)cc(O)c12
REMARK SMILES IDX 5 1 3 2 2 3 1 4 21 5 19 6 18 7 16 8 15 9 14 10 13 11 6 12
REMARK SMILES IDX 7 13 8 14 9 15 12 16 11 17 10 18 4 20 20 22 17 24
REMARK H PARENT 10 19 4 21 20 23 17 25
REMARK Flexibility Score: inf
ROOT
ATOM      1  C   UNL     1      20.816   9.538 150.904  1.00  0.00     0.180 A 
ATOM      2  C   UNL     1      21.470  10.202 151.956  1.00  0.00     0.208 A 
ATOM      3  C   UNL     1      20.763  10.465 153.140  1.00  0.00     0.238 A 
ATOM      4  O   UNL     1      21.371  11.011 154.099  1.00  0.00    -0.285 OA
ATOM      5  C   UNL     1      19.405  10.078 153.251  1.00  0.00     0.111 A 
ATOM      6  C   UNL     1      18.581  10.330 154.389  1.00  0.00     0.134 A 
ATOM      7  C   UNL     1      17.292   9.786 154.441  1.00  0.00     0.093 A 
ATOM      8  C   UNL     1      16.774   9.055 153.372  1.00  0.00     0.123 A 
ATOM      9  C   UNL     1      17.550   8.854 152.231  1.00  0.00     0.094 A 
ATOM     10  C   UNL     1      18.853   9.353 152.164  1.00  0.00     0.146 A 
ATOM     11  O   UNL     1      19.562   9.130 151.064  1.00  0.00    -0.452 OA
ENDROOT
BRANCH   1  12
ATOM     12  C   UNL     1      21.487   9.248 149.617  1.00  0.00     0.021 A 
ATOM     13  C   UNL     1      22.349   8.143 149.521  1.00  0.00     0.016 A 
ATOM     14  C   UNL     1      22.976   7.837 148.309  1.00  0.00     0.047 A 
ATOM     15  C   UNL     1      22.740   8.622 147.176  1.00  0.00     0.115 A 
ATOM     16  C   UNL     1      21.237  10.022 148.468  1.00  0.00     0.016 A 
ATOM     17  C   UNL     1      21.866   9.713 147.258  1.00  0.00     0.047 A 
BRANCH  15  18
ATOM     18  O   UNL     1      23.371   8.305 145.976  1.00  0.00    -0.508 OA
ATOM     19  H   UNL     1      24.375   8.393 145.867  1.00  0.00     0.293 HD
ENDBRANCH  15  18
ENDBRANCH   1  12
BRANCH   2  20
ATOM     20  O   UNL     1      22.817  10.556 151.834  1.00  0.00    -0.502 OA
ATOM     21  H   UNL     1      23.534  10.189 152.448  1.00  0.00     0.293 HD
ENDBRANCH   2  20
BRANCH   6  22
ATOM     22  O   UNL     1      18.968  11.125 155.472  1.00  0.00    -0.507 OA
ATOM     23  H   UNL     1      18.485  11.163 156.357  1.00  0.00     0.293 HD
ENDBRANCH   6  22
BRANCH   8  24
ATOM     24  O   UNL     1      15.482   8.543 153.452  1.00  0.00    -0.508 OA
ATOM     25  H   UNL     1      15.221   7.685 152.980  1.00  0.00     0.293 HD
ENDBRANCH   8  24
TORSDOF 5
ENDMDL
MODEL 3
REMARK VINA RESULT:    -6.534     10.911     12.296
REMARK INTER + INTRA:          -7.853
REMARK INTER:                  -7.832
REMARK INTRA:                  -0.021
REMARK UNBOUND:                -0.174
REMARK SMILES O=c1c(O)c(-c2ccc(O)cc2)oc2cc(O)cc(O)c12
REMARK SMILES IDX 5 1 3 2 2 3 1 4 21 5 19 6 18 7 16 8 15 9 14 10 13 11 6 12
REMARK SMILES IDX 7 13 8 14 9 15 12 16 11 17 10 18 4 20 20 22 17 24
REMARK H PARENT 10 19 4 21 20 23 17 25
REMARK Flexibility Score: inf
ROOT
ATOM      1  C   UNL     1      17.520   4.862 141.118  1.00  0.00     0.180 A 
ATOM      2  C   UNL     1      17.821   3.615 140.542  1.00  0.00     0.208 A 
ATOM      3  C   UNL     1      19.166   3.253 140.366  1.00  0.00     0.238 A 
ATOM      4  O   UNL     1      19.429   2.113 139.901  1.00  0.00    -0.285 OA
ATOM      5  C   UNL     1      20.194   4.149 140.751  1.00  0.00     0.111 A 
ATOM      6  C   UNL     1      21.589   3.903 140.581  1.00  0.00     0.134 A 
ATOM      7  C   UNL     1      22.519   4.802 141.117  1.00  0.00     0.093 A 
ATOM      8  C   UNL     1      22.105   5.968 141.759  1.00  0.00     0.123 A 
ATOM      9  C   UNL     1      20.744   6.248 141.878  1.00  0.00     0.094 A 
ATOM     10  C   UNL     1      19.792   5.353 141.385  1.00  0.00     0.146 A 
ATOM     11  O   UNL     1      18.506   5.651 141.528  1.00  0.00    -0.452 OA
ENDROOT
BRANCH   1  12
ATOM     12  C   UNL     1      16.127   5.324 141.312  1.00  0.00     0.021 A 
ATOM     13  C   UNL     1      15.246   4.553 142.089  1.00  0.00     0.016 A 
ATOM     14  C   UNL     1      13.932   4.981 142.305  1.00  0.00     0.047 A 
ATOM     15  C   UNL     1      13.488   6.191 141.760  1.00  0.00     0.115 A 
ATOM     16  C   UNL     1      15.680   6.549 140.785  1.00  0.00     0.016 A 
ATOM     17  C   UNL     1      14.366   6.975 141.003  1.00  0.00     0.047 A 
BRANCH  15  18
ATOM     18  O   UNL     1      12.177   6.605 141.984  1.00  0.00    -0.508 OA
ATOM     19  H   UNL     1      11.850   7.514 141.678  1.00  0.00     0.293 HD
ENDBRANCH  15  18
ENDBRANCH   1  12
BRANCH   2  20
ATOM     20  O   UNL     1      16.793   2.737 140.190  1.00  0.00    -0.502 OA
ATOM     21  H   UNL     1      16.584   1.901 140.723  1.00  0.00     0.293 HD
ENDBRANCH   2  20
BRANCH   6  22
ATOM     22  O   UNL     1      22.109   2.813 139.875  1.00  0.00    -0.507 OA
ATOM     23  H   UNL     1      22.762   2.144 140.253  1.00  0.00     0.293 HD
ENDBRANCH   6  22
BRANCH   8  24
ATOM     24  O   UNL     1      23.058   6.848 142.267  1.00  0.00    -0.508 OA
ATOM     25  H   UNL     1      24.018   6.561 142.416  1.00  0.00     0.293 HD
ENDBRANCH   8  24
TORSDOF 5
ENDMDL
MODEL 4
REMARK VINA RESULT:    -6.339     12.301     13.077
REMARK INTER + INTRA:          -7.625
REMARK INTER:                  -7.724
REMARK INTRA:                   0.099
REMARK UNBOUND:                -0.174
REMARK SMILES O=c1c(O)c(-c2ccc(O)cc2)oc2cc(O)cc(O)c12
REMARK SMILES IDX 5 1 3 2 2 3 1 4 21 5 19 6 18 7 16 8 15 9 14 10 13 11 6 12
REMARK SMILES IDX 7 13 8 14 9 15 12 16 11 17 10 18 4 20 20 22 17 24
REMARK H PARENT 10 19 4 21 20 23 17 25
REMARK Flexibility Score: inf
ROOT
ATOM      1  C   UNL     1      13.610   4.662 141.465  1.00  0.00     0.180 A 
ATOM      2  C   UNL     1      14.208   3.480 141.932  1.00  0.00     0.208 A 
ATOM      3  C   UNL     1      15.604   3.345 141.852  1.00  0.00     0.238 A 
ATOM      4  O   UNL     1      16.138   2.306 142.323  1.00  0.00    -0.285 OA
ATOM      5  C   UNL     1      16.382   4.386 141.291  1.00  0.00     0.111 A 
ATOM      6  C   UNL     1      17.798   4.340 141.124  1.00  0.00     0.134 A 
ATOM      7  C   UNL     1      18.478   5.479 140.678  1.00  0.00     0.093 A 
ATOM      8  C   UNL     1      17.789   6.641 140.332  1.00  0.00     0.123 A 
ATOM      9  C   UNL     1      16.398   6.677 140.435  1.00  0.00     0.094 A 
ATOM     10  C   UNL     1      15.694   5.568 140.911  1.00  0.00     0.146 A 
ATOM     11  O   UNL     1      14.373   5.647 141.004  1.00  0.00    -0.452 OA
ENDROOT
BRANCH   1  12
ATOM     12  C   UNL     1      12.144   4.867 141.492  1.00  0.00     0.021 A 
ATOM     13  C   UNL     1      11.629   6.123 141.854  1.00  0.00     0.016 A 
ATOM     14  C   UNL     1      10.248   6.346 141.865  1.00  0.00     0.047 A 
ATOM     15  C   UNL     1       9.367   5.323 141.500  1.00  0.00     0.115 A 
ATOM     16  C   UNL     1      11.253   3.849 141.106  1.00  0.00     0.016 A 
ATOM     17  C   UNL     1       9.873   4.075 141.117  1.00  0.00     0.047 A 
BRANCH  15  18
ATOM     18  O   UNL     1       7.994   5.559 141.516  1.00  0.00    -0.508 OA
ATOM     19  H   UNL     1       7.616   6.464 141.772  1.00  0.00     0.293 HD
ENDBRANCH  15  18
ENDBRANCH   1  12
BRANCH   2  20
ATOM     20  O   UNL     1      13.424   2.473 142.503  1.00  0.00    -0.502 OA
ATOM     21  H   UNL     1      12.444   2.352 142.277  1.00  0.00     0.293 HD
ENDBRANCH   2  20
BRANCH   6  22
ATOM     22  O   UNL     1      18.574   3.199 141.354  1.00  0.00    -0.507 OA
ATOM     23  H   UNL     1      18.266   2.389 141.869  1.00  0.00     0.293 HD
ENDBRANCH   6  22
BRANCH   8  24
ATOM     24  O   UNL     1      18.496   7.750 139.876  1.00  0.00    -0.508 OA
ATOM     25  H   UNL     1      18.764   8.501 140.501  1.00  0.00     0.293 HD
ENDBRANCH   8  24
TORSDOF 5
ENDMDL
MODEL 5
REMARK VINA RESULT:    -6.338     12.175     14.999
REMARK INTER + INTRA:          -7.623
REMARK INTER:                  -7.335
REMARK INTRA:                  -0.288
REMARK UNBOUND:                -0.174
REMARK SMILES O=c1c(O)c(-c2ccc(O)cc2)oc2cc(O)cc(O)c12
REMARK SMILES IDX 5 1 3 2 2 3 1 4 21 5 19 6 18 7 16 8 15 9 14 10 13 11 6 12
REMARK SMILES IDX 7 13 8 14 9 15 12 16 11 17 10 18 4 20 20 22 17 24
REMARK H PARENT 10 19 4 21 20 23 17 25
REMARK Flexibility Score: inf
ROOT
ATOM      1  C   UNL     1      13.484   4.839 141.219  1.00  0.00     0.180 A 
ATOM      2  C   UNL     1      13.475   3.436 141.132  1.00  0.00     0.208 A 
ATOM      3  C   UNL     1      12.251   2.756 141.232  1.00  0.00     0.238 A 
ATOM      4  O   UNL     1      12.242   1.504 141.099  1.00  0.00    -0.285 OA
ATOM      5  C   UNL     1      11.054   3.484 141.436  1.00  0.00     0.111 A 
ATOM      6  C   UNL     1       9.763   2.896 141.592  1.00  0.00     0.134 A 
ATOM      7  C   UNL     1       8.632   3.719 141.657  1.00  0.00     0.093 A 
ATOM      8  C   UNL     1       8.750   5.108 141.637  1.00  0.00     0.123 A 
ATOM      9  C   UNL     1      10.013   5.695 141.544  1.00  0.00     0.094 A 
ATOM     10  C   UNL     1      11.156   4.899 141.441  1.00  0.00     0.146 A 
ATOM     11  O   UNL     1      12.338   5.497 141.344  1.00  0.00    -0.452 OA
ENDROOT
BRANCH   1  12
ATOM     12  C   UNL     1      14.737   5.624 141.147  1.00  0.00     0.021 A 
ATOM     13  C   UNL     1      15.472   5.861 142.321  1.00  0.00     0.016 A 
ATOM     14  C   UNL     1      16.670   6.581 142.273  1.00  0.00     0.047 A 
ATOM     15  C   UNL     1      17.156   7.060 141.052  1.00  0.00     0.115 A 
ATOM     16  C   UNL     1      15.242   6.091 139.919  1.00  0.00     0.016 A 
ATOM     17  C   UNL     1      16.440   6.810 139.875  1.00  0.00     0.047 A 
BRANCH  15  18
ATOM     18  O   UNL     1      18.350   7.775 141.020  1.00  0.00    -0.508 OA
ATOM     19  H   UNL     1      18.465   8.586 140.423  1.00  0.00     0.293 HD
ENDBRANCH  15  18
ENDBRANCH   1  12
BRANCH   2  20
ATOM     20  O   UNL     1      14.664   2.738 140.909  1.00  0.00    -0.502 OA
ATOM     21  H   UNL     1      15.575   3.178 140.972  1.00  0.00     0.293 HD
ENDBRANCH   2  20
BRANCH   6  22
ATOM     22  O   UNL     1       9.542   1.520 141.716  1.00  0.00    -0.507 OA
ATOM     23  H   UNL     1       8.641   1.095 141.871  1.00  0.00     0.293 HD
ENDBRANCH   6  22
BRANCH   8  24
ATOM     24  O   UNL     1       7.605   5.896 141.719  1.00  0.00    -0.508 OA
ATOM     25  H   UNL     1       7.233   6.199 142.611  1.00  0.00     0.293 HD
ENDBRANCH   8  24
TORSDOF 5
ENDMDL
MODEL 6
REMARK VINA RESULT:    -6.323     11.890     12.454
REMARK INTER + INTRA:          -7.605
REMARK INTER:                  -7.676
REMARK INTRA:                   0.070
REMARK UNBOUND:                -0.174
REMARK SMILES O=c1c(O)c(-c2ccc(O)cc2)oc2cc(O)cc(O)c12
REMARK SMILES IDX 5 1 3 2 2 3 1 4 21 5 19 6 18 7 16 8 15 9 14 10 13 11 6 12
REMARK SMILES IDX 7 13 8 14 9 15 12 16 11 17 10 18 4 20 20 22 17 24
REMARK H PARENT 10 19 4 21 20 23 17 25
REMARK Flexibility Score: inf
ROOT
ATOM      1  C   UNL     1      16.170   5.082 141.096  1.00  0.00     0.180 A 
ATOM      2  C   UNL     1      16.853   6.225 140.647  1.00  0.00     0.208 A 
ATOM      3  C   UNL     1      18.255   6.199 140.580  1.00  0.00     0.238 A 
ATOM      4  O   UNL     1      18.857   7.207 140.125  1.00  0.00    -0.285 OA
ATOM      5  C   UNL     1      18.958   5.036 140.977  1.00  0.00     0.111 A 
ATOM      6  C   UNL     1      20.380   4.912 140.988  1.00  0.00     0.134 A 
ATOM      7  C   UNL     1      20.963   3.672 141.276  1.00  0.00     0.093 A 
ATOM      8  C   UNL     1      20.180   2.570 141.617  1.00  0.00     0.123 A 
ATOM      9  C   UNL     1      18.791   2.696 141.668  1.00  0.00     0.094 A 
ATOM     10  C   UNL     1      18.179   3.910 141.350  1.00  0.00     0.146 A 
ATOM     11  O   UNL     1      16.854   3.985 141.400  1.00  0.00    -0.452 OA
ENDROOT
BRANCH   1  12
ATOM     12  C   UNL     1      14.696   5.042 141.219  1.00  0.00     0.021 A 
ATOM     13  C   UNL     1      13.997   3.899 140.796  1.00  0.00     0.016 A 
ATOM     14  C   UNL     1      12.606   3.831 140.923  1.00  0.00     0.047 A 
ATOM     15  C   UNL     1      11.898   4.897 141.487  1.00  0.00     0.115 A 
ATOM     16  C   UNL     1      13.979   6.102 141.805  1.00  0.00     0.016 A 
ATOM     17  C   UNL     1      12.588   6.031 141.931  1.00  0.00     0.047 A 
BRANCH  15  18
ATOM     18  O   UNL     1      10.512   4.815 141.607  1.00  0.00    -0.508 OA
ATOM     19  H   UNL     1       9.925   4.584 140.814  1.00  0.00     0.293 HD
ENDBRANCH  15  18
ENDBRANCH   1  12
BRANCH   2  20
ATOM     20  O   UNL     1      16.139   7.355 140.238  1.00  0.00    -0.502 OA
ATOM     21  H   UNL     1      15.493   7.339 139.457  1.00  0.00     0.293 HD
ENDBRANCH   2  20
BRANCH   6  22
ATOM     22  O   UNL     1      21.258   5.975 140.752  1.00  0.00    -0.507 OA
ATOM     23  H   UNL     1      21.269   6.838 141.275  1.00  0.00     0.293 HD
ENDBRANCH   6  22
BRANCH   8  24
ATOM     24  O   UNL     1      20.794   1.356 141.913  1.00  0.00    -0.508 OA
ATOM     25  H   UNL     1      21.689   1.103 141.512  1.00  0.00     0.293 HD
ENDBRANCH   8  24
TORSDOF 5
ENDMDL
MODEL 7
REMARK VINA RESULT:    -6.268     11.436     14.441
REMARK INTER + INTRA:          -7.542
REMARK INTER:                  -7.471
REMARK INTRA:                  -0.071
REMARK UNBOUND:                -0.174
REMARK SMILES O=c1c(O)c(-c2ccc(O)cc2)oc2cc(O)cc(O)c12
REMARK SMILES IDX 5 1 3 2 2 3 1 4 21 5 19 6 18 7 16 8 15 9 14 10 13 11 6 12
REMARK SMILES IDX 7 13 8 14 9 15 12 16 11 17 10 18 4 20 20 22 17 24
REMARK H PARENT 10 19 4 21 20 23 17 25
REMARK Flexibility Score: inf
ROOT
ATOM      1  C   UNL     1      14.555   5.115 141.323  1.00  0.00     0.180 A 
ATOM      2  C   UNL     1      13.471   6.004 141.425  1.00  0.00     0.208 A 
ATOM      3  C   UNL     1      12.176   5.483 141.575  1.00  0.00     0.238 A 
ATOM      4  O   UNL     1      11.215   6.285 141.722  1.00  0.00    -0.285 OA
ATOM      5  C   UNL     1      11.978   4.081 141.604  1.00  0.00     0.111 A 
ATOM      6  C   UNL     1      10.706   3.444 141.711  1.00  0.00     0.134 A 
ATOM      7  C   UNL     1      10.640   2.054 141.862  1.00  0.00     0.093 A 
ATOM      8  C   UNL     1      11.795   1.272 141.844  1.00  0.00     0.123 A 
ATOM      9  C   UNL     1      13.040   1.880 141.679  1.00  0.00     0.094 A 
ATOM     10  C   UNL     1      13.140   3.268 141.563  1.00  0.00     0.146 A 
ATOM     11  O   UNL     1      14.344   3.808 141.419  1.00  0.00    -0.452 OA
ENDROOT
BRANCH   1  12
ATOM     12  C   UNL     1      15.946   5.588 141.137  1.00  0.00     0.021 A 
ATOM     13  C   UNL     1      16.543   6.383 142.129  1.00  0.00     0.016 A 
ATOM     14  C   UNL     1      17.864   6.822 141.986  1.00  0.00     0.047 A 
ATOM     15  C   UNL     1      18.607   6.460 140.858  1.00  0.00     0.115 A 
ATOM     16  C   UNL     1      16.706   5.209 140.015  1.00  0.00     0.016 A 
ATOM     17  C   UNL     1      18.026   5.649 139.875  1.00  0.00     0.047 A 
BRANCH  15  18
ATOM     18  O   UNL     1      19.921   6.904 140.728  1.00  0.00    -0.508 OA
ATOM     19  H   UNL     1      20.373   7.437 141.461  1.00  0.00     0.293 HD
ENDBRANCH  15  18
ENDBRANCH   1  12
BRANCH   2  20
ATOM     20  O   UNL     1      13.690   7.384 141.417  1.00  0.00    -0.502 OA
ATOM     21  H   UNL     1      14.391   7.828 141.999  1.00  0.00     0.293 HD
ENDBRANCH   2  20
BRANCH   6  22
ATOM     22  O   UNL     1       9.485   4.123 141.649  1.00  0.00    -0.507 OA
ATOM     23  H   UNL     1       9.376   5.121 141.754  1.00  0.00     0.293 HD
ENDBRANCH   6  22
BRANCH   8  24
ATOM     24  O   UNL     1      11.691  -0.110 141.980  1.00  0.00    -0.508 OA
ATOM     25  H   UNL     1      11.716  -0.725 141.175  1.00  0.00     0.293 HD
ENDBRANCH   8  24
TORSDOF 5
ENDMDL
MODEL 8
REMARK VINA RESULT:    -6.264     11.211     12.227
REMARK INTER + INTRA:          -7.537
REMARK INTER:                  -7.600
REMARK INTRA:                   0.063
REMARK UNBOUND:                -0.174
REMARK SMILES O=c1c(O)c(-c2ccc(O)cc2)oc2cc(O)cc(O)c12
REMARK SMILES IDX 5 1 3 2 2 3 1 4 21 5 19 6 18 7 16 8 15 9 14 10 13 11 6 12
REMARK SMILES IDX 7 13 8 14 9 15 12 16 11 17 10 18 4 20 20 22 17 24
REMARK H PARENT 10 19 4 21 20 23 17 25
REMARK Flexibility Score: inf
ROOT
ATOM      1  C   UNL     1      17.602   5.026 141.343  1.00  0.00     0.180 A 
ATOM      2  C   UNL     1      18.669   5.914 141.560  1.00  0.00     0.208 A 
ATOM      3  C   UNL     1      19.985   5.438 141.445  1.00  0.00     0.238 A 
ATOM      4  O   UNL     1      20.936   6.250 141.587  1.00  0.00    -0.285 OA
ATOM      5  C   UNL     1      20.217   4.077 141.131  1.00  0.00     0.111 A 
ATOM      6  C   UNL     1      21.508   3.477 141.029  1.00  0.00     0.134 A 
ATOM      7  C   UNL     1      21.622   2.155 140.584  1.00  0.00     0.093 A 
ATOM      8  C   UNL     1      20.491   1.390 140.300  1.00  0.00     0.123 A 
ATOM      9  C   UNL     1      19.221   1.948 140.454  1.00  0.00     0.094 A 
ATOM     10  C   UNL     1      19.077   3.276 140.861  1.00  0.00     0.146 A 
ATOM     11  O   UNL     1      17.852   3.772 140.985  1.00  0.00    -0.452 OA
ENDROOT
BRANCH   1  12
ATOM     12  C   UNL     1      16.188   5.448 141.471  1.00  0.00     0.021 A 
ATOM     13  C   UNL     1      15.317   4.706 142.286  1.00  0.00     0.016 A 
ATOM     14  C   UNL     1      13.983   5.099 142.439  1.00  0.00     0.047 A 
ATOM     15  C   UNL     1      13.508   6.244 141.792  1.00  0.00     0.115 A 
ATOM     16  C   UNL     1      15.709   6.611 140.840  1.00  0.00     0.016 A 
ATOM     17  C   UNL     1      14.375   7.001 140.996  1.00  0.00     0.047 A 
BRANCH  15  18
ATOM     18  O   UNL     1      12.178   6.624 141.955  1.00  0.00    -0.508 OA
ATOM     19  H   UNL     1      11.913   7.597 142.051  1.00  0.00     0.293 HD
ENDBRANCH  15  18
ENDBRANCH   1  12
BRANCH   2  20
ATOM     20  O   UNL     1      18.418   7.258 141.848  1.00  0.00    -0.502 OA
ATOM     21  H   UNL     1      18.453   7.630 142.790  1.00  0.00     0.293 HD
ENDBRANCH   2  20
BRANCH   6  22
ATOM     22  O   UNL     1      22.699   4.124 141.376  1.00  0.00    -0.507 OA
ATOM     23  H   UNL     1      23.430   4.369 140.726  1.00  0.00     0.293 HD
ENDBRANCH   6  22
BRANCH   8  24
ATOM     24  O   UNL     1      20.641   0.072 139.875  1.00  0.00    -0.508 OA
ATOM     25  H   UNL     1      21.447  -0.481 140.140  1.00  0.00     0.293 HD
ENDBRANCH   8  24
TORSDOF 5
ENDMDL
MODEL 9
REMARK VINA RESULT:    -6.174     12.342     13.893
REMARK INTER + INTRA:          -7.431
REMARK INTER:                  -7.145
REMARK INTRA:                  -0.285
REMARK UNBOUND:                -0.174
REMARK SMILES O=c1c(O)c(-c2ccc(O)cc2)oc2cc(O)cc(O)c12
REMARK SMILES IDX 5 1 3 2 2 3 1 4 21 5 19 6 18 7 16 8 15 9 14 10 13 11 6 12
REMARK SMILES IDX 7 13 8 14 9 15 12 16 11 17 10 18 4 20 20 22 17 24
REMARK H PARENT 10 19 4 21 20 23 17 25
REMARK Flexibility Score: inf
ROOT
ATOM      1  C   UNL     1      16.081   2.379 141.750  1.00  0.00     0.180 A 
ATOM      2  C   UNL     1      17.119   3.225 141.325  1.00  0.00     0.208 A 
ATOM      3  C   UNL     1      16.844   4.585 141.109  1.00  0.00     0.238 A 
ATOM      4  O   UNL     1      17.790   5.349 140.781  1.00  0.00    -0.285 OA
ATOM      5  C   UNL     1      15.531   5.079 141.306  1.00  0.00     0.111 A 
ATOM      6  C   UNL     1      15.130   6.429 141.079  1.00  0.00     0.134 A 
ATOM      7  C   UNL     1      13.837   6.834 141.432  1.00  0.00     0.093 A 
ATOM      8  C   UNL     1      12.911   5.925 141.942  1.00  0.00     0.123 A 
ATOM      9  C   UNL     1      13.274   4.588 142.111  1.00  0.00     0.094 A 
ATOM     10  C   UNL     1      14.568   4.162 141.803  1.00  0.00     0.146 A 
ATOM     11  O   UNL     1      14.877   2.884 141.989  1.00  0.00    -0.452 OA
ENDROOT
BRANCH   1  12
ATOM     12  C   UNL     1      16.288   0.930 141.974  1.00  0.00     0.021 A 
ATOM     13  C   UNL     1      16.073   0.030 140.916  1.00  0.00     0.016 A 
ATOM     14  C   UNL     1      16.284  -1.340 141.098  1.00  0.00     0.047 A 
ATOM     15  C   UNL     1      16.726  -1.827 142.333  1.00  0.00     0.115 A 
ATOM     16  C   UNL     1      16.753   0.436 143.207  1.00  0.00     0.016 A 
ATOM     17  C   UNL     1      16.963  -0.934 143.385  1.00  0.00     0.047 A 
BRANCH  15  18
ATOM     18  O   UNL     1      16.932  -3.194 142.499  1.00  0.00    -0.508 OA
ATOM     19  H   UNL     1      16.163  -3.825 142.696  1.00  0.00     0.293 HD
ENDBRANCH  15  18
ENDBRANCH   1  12
BRANCH   2  20
ATOM     20  O   UNL     1      18.412   2.723 141.158  1.00  0.00    -0.502 OA
ATOM     21  H   UNL     1      19.240   3.263 141.384  1.00  0.00     0.293 HD
ENDBRANCH   2  20
BRANCH   6  22
ATOM     22  O   UNL     1      15.949   7.398 140.489  1.00  0.00    -0.507 OA
ATOM     23  H   UNL     1      15.799   8.393 140.555  1.00  0.00     0.293 HD
ENDBRANCH   6  22
BRANCH   8  24
ATOM     24  O   UNL     1      11.629   6.359 142.266  1.00  0.00    -0.508 OA
ATOM     25  H   UNL     1      11.092   5.923 143.007  1.00  0.00     0.293 HD
ENDBRANCH   8  24
TORSDOF 5
ENDMDL
