MODEL 1
REMARK VINA RESULT:    -3.298      0.000      0.000
REMARK INTER + INTRA:          -4.424
REMARK INTER:                  -4.069
REMARK INTRA:                  -0.355
REMARK UNBOUND:                -0.355
REMARK SMILES Oc1cc(O)c2cc(O)c(-c3cc(O)c(O)c(O)c3)[o+]c2c1
REMARK SMILES IDX 10 1 20 2 21 3 22 4 2 5 3 6 4 7 6 8 7 9 8 10 11 11 12 12
REMARK SMILES IDX 13 13 19 14 15 15 17 16 14 17 16 19 18 21 9 23 1 25 5 27
REMARK H PARENT 14 18 16 20 18 22 9 24 1 26 5 28
REMARK Flexibility Score: inf
ROOT
ATOM      1  C   UNL     1     -21.932 -15.925 -13.810  1.00  0.00     0.402 A 
ATOM      2  O   UNL     1     -22.685 -16.930 -13.367  1.00  0.00    -0.202 OA
ATOM      3  C   UNL     1     -23.952 -17.105 -13.731  1.00  0.00     0.368 A 
ATOM      4  C   UNL     1     -24.678 -18.184 -13.217  1.00  0.00     0.162 A 
ATOM      5  C   UNL     1     -26.011 -18.377 -13.590  1.00  0.00     0.128 A 
ATOM      6  C   UNL     1     -26.625 -17.487 -14.482  1.00  0.00     0.093 A 
ATOM      7  C   UNL     1     -25.908 -16.401 -15.007  1.00  0.00     0.136 A 
ATOM      8  C   UNL     1     -24.565 -16.208 -14.632  1.00  0.00     0.125 A 
ATOM      9  C   UNL     1     -23.801 -15.146 -15.130  1.00  0.00     0.078 A 
ATOM     10  C   UNL     1     -22.470 -15.003 -14.730  1.00  0.00     0.223 A 
ENDROOT
BRANCH   1  11
ATOM     11  C   UNL     1     -20.536 -15.831 -13.325  1.00  0.00     0.091 A 
ATOM     12  C   UNL     1     -20.217 -14.909 -12.316  1.00  0.00     0.068 A 
ATOM     13  C   UNL     1     -18.900 -14.786 -11.853  1.00  0.00     0.162 A 
ATOM     14  C   UNL     1     -19.510 -16.605 -13.892  1.00  0.00     0.068 A 
ATOM     15  C   UNL     1     -17.885 -15.575 -12.408  1.00  0.00     0.200 A 
ATOM     16  C   UNL     1     -18.190 -16.485 -13.435  1.00  0.00     0.162 A 
BRANCH  13  17
ATOM     17  O   UNL     1     -18.592 -13.878 -10.841  1.00  0.00    -0.504 OA
ATOM     18  H   UNL     1     -17.838 -14.048 -10.186  1.00  0.00     0.293 HD
ENDBRANCH  13  17
BRANCH  15  19
ATOM     19  O   UNL     1     -16.580 -15.440 -11.933  1.00  0.00    -0.502 OA
ATOM     20  H   UNL     1     -15.802 -15.938 -12.348  1.00  0.00     0.293 HD
ENDBRANCH  15  19
BRANCH  16  21
ATOM     21  O   UNL     1     -17.180 -17.263 -13.999  1.00  0.00    -0.504 OA
ATOM     22  H   UNL     1     -16.332 -17.483 -13.491  1.00  0.00     0.293 HD
ENDBRANCH  16  21
ENDBRANCH   1  11
BRANCH  10  23
ATOM     23  O   UNL     1     -21.687 -13.976 -15.261  1.00  0.00    -0.500 OA
ATOM     24  H   UNL     1     -21.024 -13.464 -14.692  1.00  0.00     0.294 HD
ENDBRANCH  10  23
BRANCH   5  25
ATOM     25  O   UNL     1     -26.719 -19.457 -13.066  1.00  0.00    -0.507 OA
ATOM     26  H   UNL     1     -26.754 -19.633 -12.069  1.00  0.00     0.293 HD
ENDBRANCH   5  25
BRANCH   7  27
ATOM     27  O   UNL     1     -26.528 -15.522 -15.895  1.00  0.00    -0.507 OA
ATOM     28  H   UNL     1     -26.134 -14.612 -16.104  1.00  0.00     0.293 HD
ENDBRANCH   7  27
TORSDOF 7
ENDMDL
MODEL 2
REMARK VINA RESULT:    -3.279      0.072      1.790
REMARK INTER + INTRA:          -4.401
REMARK INTER:                  -4.021
REMARK INTRA:                  -0.381
REMARK UNBOUND:                -0.355
REMARK SMILES Oc1cc(O)c2cc(O)c(-c3cc(O)c(O)c(O)c3)[o+]c2c1
REMARK SMILES IDX 10 1 20 2 21 3 22 4 2 5 3 6 4 7 6 8 7 9 8 10 11 11 12 12
REMARK SMILES IDX 13 13 19 14 15 15 17 16 14 17 16 19 18 21 9 23 1 25 5 27
REMARK H PARENT 14 18 16 20 18 22 9 24 1 26 5 28
REMARK Flexibility Score: inf
ROOT
ATOM      1  C   UNL     1     -21.941 -15.875 -13.818  1.00  0.00     0.402 A 
ATOM      2  O   UNL     1     -22.689 -16.870 -13.345  1.00  0.00    -0.202 OA
ATOM      3  C   UNL     1     -23.947 -17.077 -13.721  1.00  0.00     0.368 A 
ATOM      4  C   UNL     1     -24.667 -18.143 -13.172  1.00  0.00     0.162 A 
ATOM      5  C   UNL     1     -25.992 -18.370 -13.557  1.00  0.00     0.128 A 
ATOM      6  C   UNL     1     -26.602 -17.527 -14.497  1.00  0.00     0.093 A 
ATOM      7  C   UNL     1     -25.891 -16.455 -15.056  1.00  0.00     0.136 A 
ATOM      8  C   UNL     1     -24.557 -16.227 -14.669  1.00  0.00     0.125 A 
ATOM      9  C   UNL     1     -23.799 -15.178 -15.200  1.00  0.00     0.078 A 
ATOM     10  C   UNL     1     -22.476 -14.999 -14.785  1.00  0.00     0.223 A 
ENDROOT
BRANCH   1  11
ATOM     11  C   UNL     1     -20.555 -15.740 -13.316  1.00  0.00     0.091 A 
ATOM     12  C   UNL     1     -19.544 -16.551 -13.855  1.00  0.00     0.068 A 
ATOM     13  C   UNL     1     -18.227 -16.457 -13.383  1.00  0.00     0.162 A 
ATOM     14  C   UNL     1     -20.238 -14.857 -12.270  1.00  0.00     0.068 A 
ATOM     15  C   UNL     1     -17.913 -15.560 -12.355  1.00  0.00     0.200 A 
ATOM     16  C   UNL     1     -18.923 -14.760 -11.792  1.00  0.00     0.162 A 
BRANCH  13  17
ATOM     17  O   UNL     1     -17.225 -17.255 -13.932  1.00  0.00    -0.504 OA
ATOM     18  H   UNL     1     -17.441 -18.106 -14.438  1.00  0.00     0.293 HD
ENDBRANCH  13  17
BRANCH  15  19
ATOM     19  O   UNL     1     -16.597 -15.479 -11.899  1.00  0.00    -0.502 OA
ATOM     20  H   UNL     1     -15.825 -15.891 -12.409  1.00  0.00     0.293 HD
ENDBRANCH  15  19
BRANCH  16  21
ATOM     21  O   UNL     1     -18.617 -13.876 -10.759  1.00  0.00    -0.504 OA
ATOM     22  H   UNL     1     -19.331 -13.527 -10.130  1.00  0.00     0.293 HD
ENDBRANCH  16  21
ENDBRANCH   1  11
BRANCH  10  23
ATOM     23  O   UNL     1     -21.698 -13.987 -15.348  1.00  0.00    -0.500 OA
ATOM     24  H   UNL     1     -22.100 -13.282 -15.954  1.00  0.00     0.294 HD
ENDBRANCH  10  23
BRANCH   5  25
ATOM     25  O   UNL     1     -26.694 -19.436 -12.999  1.00  0.00    -0.507 OA
ATOM     26  H   UNL     1     -26.627 -19.654 -12.011  1.00  0.00     0.293 HD
ENDBRANCH   5  25
BRANCH   7  27
ATOM     27  O   UNL     1     -26.508 -15.624 -15.992  1.00  0.00    -0.507 OA
ATOM     28  H   UNL     1     -27.397 -15.177 -15.800  1.00  0.00     0.293 HD
ENDBRANCH   7  27
TORSDOF 7
ENDMDL
MODEL 3
REMARK VINA RESULT:    -1.152      1.104      2.481
REMARK INTER + INTRA:          -1.777
REMARK INTER:                  -1.622
REMARK INTRA:                  -0.155
REMARK UNBOUND:                -0.355
REMARK SMILES Oc1cc(O)c2cc(O)c(-c3cc(O)c(O)c(O)c3)[o+]c2c1
REMARK SMILES IDX 10 1 20 2 21 3 22 4 2 5 3 6 4 7 6 8 7 9 8 10 11 11 12 12
REMARK SMILES IDX 13 13 19 14 15 15 17 16 14 17 16 19 18 21 9 23 1 25 5 27
REMARK H PARENT 14 18 16 20 18 22 9 24 1 26 5 28
REMARK Flexibility Score: inf
ROOT
ATOM      1  C   UNL     1     -21.674 -16.711 -13.534  1.00  0.00     0.402 A 
ATOM      2  O   UNL     1     -22.527 -15.757 -13.905  1.00  0.00    -0.202 OA
ATOM      3  C   UNL     1     -23.790 -16.000 -14.240  1.00  0.00     0.368 A 
ATOM      4  C   UNL     1     -24.620 -14.942 -14.622  1.00  0.00     0.162 A 
ATOM      5  C   UNL     1     -25.950 -15.184 -14.980  1.00  0.00     0.128 A 
ATOM      6  C   UNL     1     -26.454 -16.492 -14.955  1.00  0.00     0.093 A 
ATOM      7  C   UNL     1     -25.633 -17.563 -14.572  1.00  0.00     0.136 A 
ATOM      8  C   UNL     1     -24.294 -17.318 -14.211  1.00  0.00     0.125 A 
ATOM      9  C   UNL     1     -23.433 -18.347 -13.814  1.00  0.00     0.078 A 
ATOM     10  C   UNL     1     -22.114 -18.049 -13.460  1.00  0.00     0.223 A 
ENDROOT
BRANCH   1  11
ATOM     11  C   UNL     1     -20.288 -16.318 -13.192  1.00  0.00     0.091 A 
ATOM     12  C   UNL     1     -20.072 -15.291 -12.261  1.00  0.00     0.068 A 
ATOM     13  C   UNL     1     -18.770 -14.887 -11.935  1.00  0.00     0.162 A 
ATOM     14  C   UNL     1     -19.182 -16.914 -13.823  1.00  0.00     0.068 A 
ATOM     15  C   UNL     1     -17.671 -15.498 -12.551  1.00  0.00     0.200 A 
ATOM     16  C   UNL     1     -17.878 -16.512 -13.503  1.00  0.00     0.162 A 
BRANCH  13  17
ATOM     17  O   UNL     1     -18.561 -13.876 -10.998  1.00  0.00    -0.504 OA
ATOM     18  H   UNL     1     -18.072 -14.050 -10.128  1.00  0.00     0.293 HD
ENDBRANCH  13  17
BRANCH  15  19
ATOM     19  O   UNL     1     -16.382 -15.084 -12.213  1.00  0.00    -0.502 OA
ATOM     20  H   UNL     1     -16.087 -14.976 -11.250  1.00  0.00     0.293 HD
ENDBRANCH  15  19
BRANCH  16  21
ATOM     21  O   UNL     1     -16.787 -17.113 -14.129  1.00  0.00    -0.504 OA
ATOM     22  H   UNL     1     -16.628 -17.019 -15.125  1.00  0.00     0.293 HD
ENDBRANCH  16  21
ENDBRANCH   1  11
BRANCH  10  23
ATOM     23  O   UNL     1     -21.264 -19.062 -13.014  1.00  0.00    -0.500 OA
ATOM     24  H   UNL     1     -20.535 -18.884 -12.334  1.00  0.00     0.294 HD
ENDBRANCH  10  23
BRANCH   5  25
ATOM     25  O   UNL     1     -26.762 -14.118 -15.360  1.00  0.00    -0.507 OA
ATOM     26  H   UNL     1     -26.544 -13.550 -16.171  1.00  0.00     0.293 HD
ENDBRANCH   5  25
BRANCH   7  27
ATOM     27  O   UNL     1     -26.146 -18.860 -14.550  1.00  0.00    -0.507 OA
ATOM     28  H   UNL     1     -25.874 -19.550 -15.240  1.00  0.00     0.293 HD
ENDBRANCH   7  27
TORSDOF 7
ENDMDL
MODEL 4
REMARK VINA RESULT:    -0.593      1.149      7.116
REMARK INTER + INTRA:          -1.086
REMARK INTER:                  -0.728
REMARK INTRA:                  -0.359
REMARK UNBOUND:                -0.355
REMARK SMILES Oc1cc(O)c2cc(O)c(-c3cc(O)c(O)c(O)c3)[o+]c2c1
REMARK SMILES IDX 10 1 20 2 21 3 22 4 2 5 3 6 4 7 6 8 7 9 8 10 11 11 12 12
REMARK SMILES IDX 13 13 19 14 15 15 17 16 14 17 16 19 18 21 9 23 1 25 5 27
REMARK H PARENT 14 18 16 20 18 22 9 24 1 26 5 28
REMARK Flexibility Score: inf
ROOT
ATOM      1  C   UNL     1     -22.375 -15.995 -13.189  1.00  0.00     0.402 A 
ATOM      2  O   UNL     1     -21.333 -16.691 -13.642  1.00  0.00    -0.202 OA
ATOM      3  C   UNL     1     -20.072 -16.385 -13.350  1.00  0.00     0.368 A 
ATOM      4  C   UNL     1     -19.033 -17.164 -13.869  1.00  0.00     0.162 A 
ATOM      5  C   UNL     1     -17.703 -16.851 -13.573  1.00  0.00     0.128 A 
ATOM      6  C   UNL     1     -17.408 -15.753 -12.753  1.00  0.00     0.093 A 
ATOM      7  C   UNL     1     -18.441 -14.964 -12.224  1.00  0.00     0.136 A 
ATOM      8  C   UNL     1     -19.780 -15.280 -12.522  1.00  0.00     0.125 A 
ATOM      9  C   UNL     1     -20.849 -14.532 -12.016  1.00  0.00     0.078 A 
ATOM     10  C   UNL     1     -22.161 -14.892 -12.338  1.00  0.00     0.223 A 
ENDROOT
BRANCH   1  11
ATOM     11  C   UNL     1     -23.733 -16.428 -13.590  1.00  0.00     0.091 A 
ATOM     12  C   UNL     1     -24.300 -17.564 -12.992  1.00  0.00     0.068 A 
ATOM     13  C   UNL     1     -25.576 -18.006 -13.368  1.00  0.00     0.162 A 
ATOM     14  C   UNL     1     -24.446 -15.759 -14.599  1.00  0.00     0.068 A 
ATOM     15  C   UNL     1     -26.291 -17.322 -14.359  1.00  0.00     0.200 A 
ATOM     16  C   UNL     1     -25.722 -16.197 -14.981  1.00  0.00     0.162 A 
BRANCH  13  17
ATOM     17  O   UNL     1     -26.140 -19.126 -12.759  1.00  0.00    -0.504 OA
ATOM     18  H   UNL     1     -25.739 -20.050 -12.873  1.00  0.00     0.293 HD
ENDBRANCH  13  17
BRANCH  15  19
ATOM     19  O   UNL     1     -27.560 -17.775 -14.719  1.00  0.00    -0.502 OA
ATOM     20  H   UNL     1     -27.695 -18.543 -15.366  1.00  0.00     0.293 HD
ENDBRANCH  15  19
BRANCH  16  21
ATOM     21  O   UNL     1     -26.425 -15.523 -15.979  1.00  0.00    -0.504 OA
ATOM     22  H   UNL     1     -25.949 -14.975 -16.685  1.00  0.00     0.293 HD
ENDBRANCH  16  21
ENDBRANCH   1  11
BRANCH  10  23
ATOM     23  O   UNL     1     -23.233 -14.182 -11.796  1.00  0.00    -0.500 OA
ATOM     24  H   UNL     1     -23.991 -13.840 -12.375  1.00  0.00     0.294 HD
ENDBRANCH  10  23
BRANCH   5  25
ATOM     25  O   UNL     1     -16.681 -17.637 -14.101  1.00  0.00    -0.507 OA
ATOM     26  H   UNL     1     -16.844 -18.261 -14.883  1.00  0.00     0.293 HD
ENDBRANCH   5  25
BRANCH   7  27
ATOM     27  O   UNL     1     -18.136 -13.875 -11.407  1.00  0.00    -0.507 OA
ATOM     28  H   UNL     1     -17.210 -13.463 -11.396  1.00  0.00     0.293 HD
ENDBRANCH   7  27
TORSDOF 7
ENDMDL
MODEL 5
REMARK VINA RESULT:    -0.588      1.144      7.094
REMARK INTER + INTRA:          -1.081
REMARK INTER:                  -0.769
REMARK INTRA:                  -0.312
REMARK UNBOUND:                -0.355
REMARK SMILES Oc1cc(O)c2cc(O)c(-c3cc(O)c(O)c(O)c3)[o+]c2c1
REMARK SMILES IDX 10 1 20 2 21 3 22 4 2 5 3 6 4 7 6 8 7 9 8 10 11 11 12 12
REMARK SMILES IDX 13 13 19 14 15 15 17 16 14 17 16 19 18 21 9 23 1 25 5 27
REMARK H PARENT 14 18 16 20 18 22 9 24 1 26 5 28
REMARK Flexibility Score: inf
ROOT
ATOM      1  C   UNL     1     -22.457 -16.046 -13.177  1.00  0.00     0.402 A 
ATOM      2  O   UNL     1     -21.413 -16.752 -13.607  1.00  0.00    -0.202 OA
ATOM      3  C   UNL     1     -20.154 -16.438 -13.319  1.00  0.00     0.368 A 
ATOM      4  C   UNL     1     -19.112 -17.228 -13.813  1.00  0.00     0.162 A 
ATOM      5  C   UNL     1     -17.783 -16.907 -13.520  1.00  0.00     0.128 A 
ATOM      6  C   UNL     1     -17.493 -15.788 -12.726  1.00  0.00     0.093 A 
ATOM      7  C   UNL     1     -18.528 -14.987 -12.222  1.00  0.00     0.136 A 
ATOM      8  C   UNL     1     -19.866 -15.312 -12.518  1.00  0.00     0.125 A 
ATOM      9  C   UNL     1     -20.937 -14.552 -12.035  1.00  0.00     0.078 A 
ATOM     10  C   UNL     1     -22.248 -14.921 -12.353  1.00  0.00     0.223 A 
ENDROOT
BRANCH   1  11
ATOM     11  C   UNL     1     -23.813 -16.490 -13.572  1.00  0.00     0.091 A 
ATOM     12  C   UNL     1     -24.533 -15.749 -14.522  1.00  0.00     0.068 A 
ATOM     13  C   UNL     1     -25.826 -16.136 -14.899  1.00  0.00     0.162 A 
ATOM     14  C   UNL     1     -24.420 -17.608 -12.976  1.00  0.00     0.068 A 
ATOM     15  C   UNL     1     -26.417 -17.264 -14.316  1.00  0.00     0.200 A 
ATOM     16  C   UNL     1     -25.714 -17.999 -13.347  1.00  0.00     0.162 A 
BRANCH  13  17
ATOM     17  O   UNL     1     -26.529 -15.404 -15.854  1.00  0.00    -0.504 OA
ATOM     18  H   UNL     1     -26.093 -15.096 -16.715  1.00  0.00     0.293 HD
ENDBRANCH  13  17
BRANCH  15  19
ATOM     19  O   UNL     1     -27.704 -17.636 -14.705  1.00  0.00    -0.502 OA
ATOM     20  H   UNL     1     -27.883 -18.476 -15.242  1.00  0.00     0.293 HD
ENDBRANCH  15  19
BRANCH  16  21
ATOM     21  O   UNL     1     -26.306 -19.114 -12.753  1.00  0.00    -0.504 OA
ATOM     22  H   UNL     1     -26.158 -20.049 -13.114  1.00  0.00     0.293 HD
ENDBRANCH  16  21
ENDBRANCH   1  11
BRANCH  10  23
ATOM     23  O   UNL     1     -23.322 -14.198 -11.834  1.00  0.00    -0.500 OA
ATOM     24  H   UNL     1     -24.282 -14.451 -12.038  1.00  0.00     0.294 HD
ENDBRANCH  10  23
BRANCH   5  25
ATOM     25  O   UNL     1     -16.759 -17.706 -14.023  1.00  0.00    -0.507 OA
ATOM     26  H   UNL     1     -16.117 -17.361 -14.728  1.00  0.00     0.293 HD
ENDBRANCH   5  25
BRANCH   7  27
ATOM     27  O   UNL     1     -18.227 -13.877 -11.432  1.00  0.00    -0.507 OA
ATOM     28  H   UNL     1     -17.903 -13.008 -11.840  1.00  0.00     0.293 HD
ENDBRANCH   7  27
TORSDOF 7
ENDMDL
