MODEL 1
REMARK VINA RESULT:    -2.422      0.000      0.000
REMARK INTER + INTRA:          -2.322
REMARK INTER:                  -2.847
REMARK INTRA:                   0.524
REMARK UNBOUND:                 0.524
REMARK SMILES O=c1c(O)c(-c2ccc(O)cc2)oc2cc(O)cc(O)c12
REMARK SMILES IDX 5 1 3 2 2 3 1 4 21 5 19 6 18 7 16 8 15 9 14 10 13 11 6 12
REMARK SMILES IDX 7 13 8 14 9 15 12 16 11 17 10 18 4 20 20 22 17 24
REMARK H PARENT 10 19 4 21 20 23 17 25
REMARK Flexibility Score: inf
ROOT
ATOM      1  C   UNL     1       7.964   9.268   0.957  1.00  0.00     0.180 A 
ATOM      2  C   UNL     1       9.044   8.635   1.598  1.00  0.00     0.208 A 
ATOM      3  C   UNL     1       8.999   8.455   2.990  1.00  0.00     0.238 A 
ATOM      4  O   UNL     1       9.943   7.839   3.550  1.00  0.00    -0.285 OA
ATOM      5  C   UNL     1       7.883   8.923   3.724  1.00  0.00     0.111 A 
ATOM      6  C   UNL     1       7.749   8.830   5.143  1.00  0.00     0.134 A 
ATOM      7  C   UNL     1       6.546   9.207   5.750  1.00  0.00     0.093 A 
ATOM      8  C   UNL     1       5.495   9.737   4.997  1.00  0.00     0.123 A 
ATOM      9  C   UNL     1       5.638   9.887   3.620  1.00  0.00     0.094 A 
ATOM     10  C   UNL     1       6.813   9.485   2.981  1.00  0.00     0.146 A 
ATOM     11  O   UNL     1       6.904   9.636   1.665  1.00  0.00    -0.452 OA
ENDROOT
BRANCH   1  12
ATOM     12  C   UNL     1       7.950   9.515  -0.503  1.00  0.00     0.021 A 
ATOM     13  C   UNL     1       6.763   9.857  -1.178  1.00  0.00     0.016 A 
ATOM     14  C   UNL     1       6.770  10.062  -2.560  1.00  0.00     0.047 A 
ATOM     15  C   UNL     1       7.957   9.914  -3.288  1.00  0.00     0.115 A 
ATOM     16  C   UNL     1       9.132   9.348  -1.245  1.00  0.00     0.016 A 
ATOM     17  C   UNL     1       9.136   9.555  -2.627  1.00  0.00     0.047 A 
BRANCH  15  18
ATOM     18  O   UNL     1       7.976  10.117  -4.667  1.00  0.00    -0.508 OA
ATOM     19  H   UNL     1       7.844   9.350  -5.316  1.00  0.00     0.293 HD
ENDBRANCH  15  18
ENDBRANCH   1  12
BRANCH   2  20
ATOM     20  O   UNL     1      10.125   8.161   0.850  1.00  0.00    -0.502 OA
ATOM     21  H   UNL     1      11.016   7.925   1.271  1.00  0.00     0.293 HD
ENDBRANCH   2  20
BRANCH   6  22
ATOM     22  O   UNL     1       8.772   8.402   5.996  1.00  0.00    -0.507 OA
ATOM     23  H   UNL     1       8.675   8.274   6.991  1.00  0.00     0.293 HD
ENDBRANCH   6  22
BRANCH   8  24
ATOM     24  O   UNL     1       4.306  10.124   5.611  1.00  0.00    -0.508 OA
ATOM     25  H   UNL     1       3.412  10.024   5.145  1.00  0.00     0.293 HD
ENDBRANCH   8  24
TORSDOF 5
ENDMDL
MODEL 2
REMARK VINA RESULT:    -1.125     24.559     26.269
REMARK INTER + INTRA:          -0.798
REMARK INTER:                  -0.799
REMARK INTRA:                   0.001
REMARK UNBOUND:                 0.524
REMARK SMILES O=c1c(O)c(-c2ccc(O)cc2)oc2cc(O)cc(O)c12
REMARK SMILES IDX 5 1 3 2 2 3 1 4 21 5 19 6 18 7 16 8 15 9 14 10 13 11 6 12
REMARK SMILES IDX 7 13 8 14 9 15 12 16 11 17 10 18 4 20 20 22 17 24
REMARK H PARENT 10 19 4 21 20 23 17 25
REMARK Flexibility Score: inf
ROOT
ATOM      1  C   UNL     1      -9.131  -4.985 -11.969  1.00  0.00     0.180 A 
ATOM      2  C   UNL     1      -9.495  -5.923 -12.951  1.00  0.00     0.208 A 
ATOM      3  C   UNL     1      -9.251  -7.286 -12.715  1.00  0.00     0.238 A 
ATOM      4  O   UNL     1      -9.629  -8.124 -13.574  1.00  0.00    -0.285 OA
ATOM      5  C   UNL     1      -8.632  -7.692 -11.509  1.00  0.00     0.111 A 
ATOM      6  C   UNL     1      -8.300  -9.042 -11.182  1.00  0.00     0.134 A 
ATOM      7  C   UNL     1      -7.810  -9.343  -9.906  1.00  0.00     0.093 A 
ATOM      8  C   UNL     1      -7.576  -8.335  -8.968  1.00  0.00     0.123 A 
ATOM      9  C   UNL     1      -7.840  -7.008  -9.298  1.00  0.00     0.094 A 
ATOM     10  C   UNL     1      -8.365  -6.680 -10.551  1.00  0.00     0.146 A 
ATOM     11  O   UNL     1      -8.612  -5.404 -10.821  1.00  0.00    -0.452 OA
ENDROOT
BRANCH   1  12
ATOM     12  C   UNL     1      -9.334  -3.530 -12.155  1.00  0.00     0.021 A 
ATOM     13  C   UNL     1      -8.889  -2.871 -13.316  1.00  0.00     0.016 A 
ATOM     14  C   UNL     1      -9.070  -1.492 -13.459  1.00  0.00     0.047 A 
ATOM     15  C   UNL     1      -9.682  -0.753 -12.439  1.00  0.00     0.115 A 
ATOM     16  C   UNL     1      -9.928  -2.777 -11.129  1.00  0.00     0.016 A 
ATOM     17  C   UNL     1     -10.108  -1.399 -11.274  1.00  0.00     0.047 A 
BRANCH  15  18
ATOM     18  O   UNL     1      -9.869   0.622 -12.570  1.00  0.00    -0.508 OA
ATOM     19  H   UNL     1     -10.567   1.115 -12.026  1.00  0.00     0.293 HD
ENDBRANCH  15  18
ENDBRANCH   1  12
BRANCH   2  20
ATOM     20  O   UNL     1     -10.125  -5.502 -14.125  1.00  0.00    -0.502 OA
ATOM     21  H   UNL     1     -10.959  -5.950 -14.486  1.00  0.00     0.293 HD
ENDBRANCH   2  20
BRANCH   6  22
ATOM     22  O   UNL     1      -8.409 -10.109 -12.079  1.00  0.00    -0.507 OA
ATOM     23  H   UNL     1      -7.685 -10.400 -12.717  1.00  0.00     0.293 HD
ENDBRANCH   6  22
BRANCH   8  24
ATOM     24  O   UNL     1      -7.073  -8.642  -7.706  1.00  0.00    -0.508 OA
ATOM     25  H   UNL     1      -6.273  -9.252  -7.588  1.00  0.00     0.293 HD
ENDBRANCH   8  24
TORSDOF 5
ENDMDL
MODEL 3
REMARK VINA RESULT:    -0.924     24.410     26.214
REMARK INTER + INTRA:          -0.562
REMARK INTER:                  -0.694
REMARK INTRA:                   0.132
REMARK UNBOUND:                 0.524
REMARK SMILES O=c1c(O)c(-c2ccc(O)cc2)oc2cc(O)cc(O)c12
REMARK SMILES IDX 5 1 3 2 2 3 1 4 21 5 19 6 18 7 16 8 15 9 14 10 13 11 6 12
REMARK SMILES IDX 7 13 8 14 9 15 12 16 11 17 10 18 4 20 20 22 17 24
REMARK H PARENT 10 19 4 21 20 23 17 25
REMARK Flexibility Score: inf
ROOT
ATOM      1  C   UNL     1      -9.032  -4.266 -11.953  1.00  0.00     0.180 A 
ATOM      2  C   UNL     1      -8.586  -4.535 -10.647  1.00  0.00     0.208 A 
ATOM      3  C   UNL     1      -8.428  -5.870 -10.243  1.00  0.00     0.238 A 
ATOM      4  O   UNL     1      -7.977  -6.103  -9.091  1.00  0.00    -0.285 OA
ATOM      5  C   UNL     1      -8.732  -6.919 -11.143  1.00  0.00     0.111 A 
ATOM      6  C   UNL     1      -8.647  -8.309 -10.827  1.00  0.00     0.134 A 
ATOM      7  C   UNL     1      -8.846  -9.260 -11.834  1.00  0.00     0.093 A 
ATOM      8  C   UNL     1      -9.192  -8.873 -13.131  1.00  0.00     0.123 A 
ATOM      9  C   UNL     1      -9.336  -7.522 -13.435  1.00  0.00     0.094 A 
ATOM     10  C   UNL     1      -9.108  -6.548 -12.459  1.00  0.00     0.146 A 
ATOM     11  O   UNL     1      -9.246  -5.271 -12.794  1.00  0.00    -0.452 OA
ENDROOT
BRANCH   1  12
ATOM     12  C   UNL     1      -9.247  -2.885 -12.444  1.00  0.00     0.021 A 
ATOM     13  C   UNL     1      -8.751  -2.466 -13.693  1.00  0.00     0.016 A 
ATOM     14  C   UNL     1      -8.944  -1.151 -14.125  1.00  0.00     0.047 A 
ATOM     15  C   UNL     1      -9.621  -0.235 -13.310  1.00  0.00     0.115 A 
ATOM     16  C   UNL     1      -9.906  -1.954 -11.625  1.00  0.00     0.016 A 
ATOM     17  C   UNL     1     -10.099  -0.640 -12.060  1.00  0.00     0.047 A 
BRANCH  15  18
ATOM     18  O   UNL     1      -9.821   1.079 -13.730  1.00  0.00    -0.508 OA
ATOM     19  H   UNL     1      -9.309   1.467 -14.513  1.00  0.00     0.293 HD
ENDBRANCH  15  18
ENDBRANCH   1  12
BRANCH   2  20
ATOM     20  O   UNL     1      -8.271  -3.483  -9.783  1.00  0.00    -0.502 OA
ATOM     21  H   UNL     1      -8.923  -3.135  -9.090  1.00  0.00     0.293 HD
ENDBRANCH   2  20
BRANCH   6  22
ATOM     22  O   UNL     1      -8.398  -8.802  -9.542  1.00  0.00    -0.507 OA
ATOM     23  H   UNL     1      -7.657  -9.443  -9.305  1.00  0.00     0.293 HD
ENDBRANCH   6  22
BRANCH   8  24
ATOM     24  O   UNL     1      -9.403  -9.827 -14.125  1.00  0.00    -0.508 OA
ATOM     25  H   UNL     1      -8.993 -10.752 -14.067  1.00  0.00     0.293 HD
ENDBRANCH   8  24
TORSDOF 5
ENDMDL
MODEL 4
REMARK VINA RESULT:    -0.230     24.308     26.393
REMARK INTER + INTRA:           0.254
REMARK INTER:                   0.232
REMARK INTRA:                   0.022
REMARK UNBOUND:                 0.524
REMARK SMILES O=c1c(O)c(-c2ccc(O)cc2)oc2cc(O)cc(O)c12
REMARK SMILES IDX 5 1 3 2 2 3 1 4 21 5 19 6 18 7 16 8 15 9 14 10 13 11 6 12
REMARK SMILES IDX 7 13 8 14 9 15 12 16 11 17 10 18 4 20 20 22 17 24
REMARK H PARENT 10 19 4 21 20 23 17 25
REMARK Flexibility Score: inf
ROOT
ATOM      1  C   UNL     1      -7.491  -7.950  -9.835  1.00  0.00     0.180 A 
ATOM      2  C   UNL     1      -7.870  -8.762 -10.919  1.00  0.00     0.208 A 
ATOM      3  C   UNL     1      -8.525  -8.174 -12.014  1.00  0.00     0.238 A 
ATOM      4  O   UNL     1      -8.812  -8.896 -13.004  1.00  0.00    -0.285 OA
ATOM      5  C   UNL     1      -8.805  -6.787 -12.005  1.00  0.00     0.111 A 
ATOM      6  C   UNL     1      -9.499  -6.093 -13.042  1.00  0.00     0.134 A 
ATOM      7  C   UNL     1      -9.606  -4.699 -12.989  1.00  0.00     0.093 A 
ATOM      8  C   UNL     1      -9.103  -3.979 -11.903  1.00  0.00     0.123 A 
ATOM      9  C   UNL     1      -8.477  -4.652 -10.857  1.00  0.00     0.094 A 
ATOM     10  C   UNL     1      -8.323  -6.040 -10.899  1.00  0.00     0.146 A 
ATOM     11  O   UNL     1      -7.710  -6.642  -9.886  1.00  0.00    -0.452 OA
ENDROOT
BRANCH   1  12
ATOM     12  C   UNL     1      -6.820  -8.501  -8.635  1.00  0.00     0.021 A 
ATOM     13  C   UNL     1      -7.321  -9.636  -7.971  1.00  0.00     0.016 A 
ATOM     14  C   UNL     1      -6.684 -10.123  -6.826  1.00  0.00     0.047 A 
ATOM     15  C   UNL     1      -5.550  -9.474  -6.321  1.00  0.00     0.115 A 
ATOM     16  C   UNL     1      -5.695  -7.845  -8.110  1.00  0.00     0.016 A 
ATOM     17  C   UNL     1      -5.060  -8.334  -6.965  1.00  0.00     0.047 A 
BRANCH  15  18
ATOM     18  O   UNL     1      -4.907  -9.951  -5.181  1.00  0.00    -0.508 OA
ATOM     19  H   UNL     1      -4.514  -9.319  -4.493  1.00  0.00     0.293 HD
ENDBRANCH  15  18
ENDBRANCH   1  12
BRANCH   2  20
ATOM     20  O   UNL     1      -7.563 -10.125 -10.916  1.00  0.00    -0.502 OA
ATOM     21  H   UNL     1      -6.673 -10.481 -10.588  1.00  0.00     0.293 HD
ENDBRANCH   2  20
BRANCH   6  22
ATOM     22  O   UNL     1     -10.119  -6.727 -14.123  1.00  0.00    -0.507 OA
ATOM     23  H   UNL     1     -10.844  -7.424 -14.043  1.00  0.00     0.293 HD
ENDBRANCH   6  22
BRANCH   8  24
ATOM     24  O   UNL     1      -9.227  -2.592 -11.850  1.00  0.00    -0.508 OA
ATOM     25  H   UNL     1      -8.420  -1.985 -11.934  1.00  0.00     0.293 HD
ENDBRANCH   8  24
TORSDOF 5
ENDMDL
