MODEL 1
REMARK VINA RESULT:    -6.539      0.000      0.000
REMARK INTER + INTRA:         -10.891
REMARK INTER:                 -10.362
REMARK INTRA:                  -0.529
REMARK UNBOUND:                -0.529
REMARK SMILES CCCCCCCCCCCC(=O)[O-]
REMARK SMILES IDX 7 1 8 2 9 3 10 4 11 5 12 6 13 7 14 8 6 9 5 10 4 11 3 12 2 13
REMARK SMILES IDX 1 14
REMARK H PARENT
REMARK Flexibility Score: inf
ROOT
ATOM      1  C   UNL     1     -22.042 -23.464  30.212  1.00  0.00     0.000 C 
ENDROOT
BRANCH   1   2
ATOM      2  C   UNL     1     -23.038 -24.629  30.331  1.00  0.00     0.000 C 
BRANCH   2   3
ATOM      3  C   UNL     1     -23.504 -25.162  28.964  1.00  0.00     0.000 C 
BRANCH   3   4
ATOM      4  C   UNL     1     -23.854 -26.661  28.932  1.00  0.00     0.006 C 
BRANCH   4   5
ATOM      5  C   UNL     1     -25.361 -26.926  29.030  1.00  0.00     0.053 C 
BRANCH   5   6
ATOM      6  C   UNL     1     -25.695 -27.559  30.344  1.00  0.00     0.041 C 
ATOM      7  O   UNL     1     -26.273 -28.678  30.380  1.00  0.00    -0.550 OA
ATOM      8  O   UNL     1     -25.413 -26.893  31.529  1.00  0.00    -0.550 OA
ENDBRANCH   5   6
ENDBRANCH   4   5
ENDBRANCH   3   4
ENDBRANCH   2   3
ENDBRANCH   1   2
BRANCH   1   9
ATOM      9  C   UNL     1     -22.372 -22.306  31.169  1.00  0.00     0.000 C 
BRANCH   9  10
ATOM     10  C   UNL     1     -21.985 -20.933  30.597  1.00  0.00    -0.000 C 
BRANCH  10  11
ATOM     11  C   UNL     1     -22.083 -20.929  29.066  1.00  0.00    -0.000 C 
BRANCH  11  12
ATOM     12  C   UNL     1     -21.379 -19.700  28.473  1.00  0.00    -0.000 C 
BRANCH  12  13
ATOM     13  C   UNL     1     -20.755 -18.800  29.549  1.00  0.00    -0.003 C 
ATOM     14  C   UNL     1     -19.944 -17.647  28.960  1.00  0.00     0.004 C 
ENDBRANCH  12  13
ENDBRANCH  11  12
ENDBRANCH  10  11
ENDBRANCH   9  10
ENDBRANCH   1   9
TORSDOF 10
ENDMDL
MODEL 2
REMARK VINA RESULT:    -6.519      1.362      2.367
REMARK INTER + INTRA:         -10.858
REMARK INTER:                 -10.006
REMARK INTRA:                  -0.852
REMARK UNBOUND:                -0.529
REMARK SMILES CCCCCCCCCCCC(=O)[O-]
REMARK SMILES IDX 7 1 8 2 9 3 10 4 11 5 12 6 13 7 14 8 6 9 5 10 4 11 3 12 2 13
REMARK SMILES IDX 1 14
REMARK H PARENT
REMARK Flexibility Score: inf
ROOT
ATOM      1  C   UNL     1     -22.445 -21.042  29.619  1.00  0.00     0.000 C 
ENDROOT
BRANCH   1   2
ATOM      2  C   UNL     1     -22.160 -22.006  28.456  1.00  0.00     0.000 C 
BRANCH   2   3
ATOM      3  C   UNL     1     -21.857 -23.441  28.927  1.00  0.00     0.000 C 
BRANCH   3   4
ATOM      4  C   UNL     1     -23.031 -24.430  28.805  1.00  0.00     0.006 C 
BRANCH   4   5
ATOM      5  C   UNL     1     -23.497 -24.976  30.159  1.00  0.00     0.053 C 
BRANCH   5   6
ATOM      6  C   UNL     1     -24.637 -25.927  29.975  1.00  0.00     0.041 C 
ATOM      7  O   UNL     1     -25.564 -25.656  29.165  1.00  0.00    -0.550 OA
ATOM      8  O   UNL     1     -24.703 -27.090  30.731  1.00  0.00    -0.550 OA
ENDBRANCH   5   6
ENDBRANCH   4   5
ENDBRANCH   3   4
ENDBRANCH   2   3
ENDBRANCH   1   2
BRANCH   1   9
ATOM      9  C   UNL     1     -21.983 -21.600  30.976  1.00  0.00     0.000 C 
BRANCH   9  10
ATOM     10  C   UNL     1     -20.916 -20.721  31.647  1.00  0.00    -0.000 C 
BRANCH  10  11
ATOM     11  C   UNL     1     -20.931 -19.301  31.069  1.00  0.00    -0.000 C 
BRANCH  11  12
ATOM     12  C   UNL     1     -19.507 -18.738  30.952  1.00  0.00    -0.000 C 
BRANCH  12  13
ATOM     13  C   UNL     1     -19.233 -18.107  29.579  1.00  0.00    -0.003 C 
ATOM     14  C   UNL     1     -20.492 -17.986  28.721  1.00  0.00     0.004 C 
ENDBRANCH  12  13
ENDBRANCH  11  12
ENDBRANCH  10  11
ENDBRANCH   9  10
ENDBRANCH   1   9
TORSDOF 10
ENDMDL
MODEL 3
REMARK VINA RESULT:    -6.518      4.574      7.650
REMARK INTER + INTRA:         -10.857
REMARK INTER:                 -10.005
REMARK INTRA:                  -0.852
REMARK UNBOUND:                -0.529
REMARK SMILES CCCCCCCCCCCC(=O)[O-]
REMARK SMILES IDX 7 1 8 2 9 3 10 4 11 5 12 6 13 7 14 8 6 9 5 10 4 11 3 12 2 13
REMARK SMILES IDX 1 14
REMARK H PARENT
REMARK Flexibility Score: inf
ROOT
ATOM      1  C   UNL     1     -22.008 -23.256  29.534  1.00  0.00     0.000 C 
ENDROOT
BRANCH   1   2
ATOM      2  C   UNL     1     -22.118 -22.232  28.392  1.00  0.00     0.000 C 
BRANCH   2   3
ATOM      3  C   UNL     1     -22.426 -20.808  28.890  1.00  0.00     0.000 C 
BRANCH   3   4
ATOM      4  C   UNL     1     -21.249 -19.817  28.802  1.00  0.00     0.006 C 
BRANCH   4   5
ATOM      5  C   UNL     1     -20.845 -19.246  30.167  1.00  0.00     0.053 C 
BRANCH   5   6
ATOM      6  C   UNL     1     -19.682 -18.316  30.019  1.00  0.00     0.041 C 
ATOM      7  O   UNL     1     -18.755 -18.584  29.210  1.00  0.00    -0.550 OA
ATOM      8  O   UNL     1     -19.598 -17.177  30.809  1.00  0.00    -0.550 OA
ENDBRANCH   5   6
ENDBRANCH   4   5
ENDBRANCH   3   4
ENDBRANCH   2   3
ENDBRANCH   1   2
BRANCH   1   9
ATOM      9  C   UNL     1     -22.401 -22.663  30.898  1.00  0.00     0.000 C 
BRANCH   9  10
ATOM     10  C   UNL     1     -23.248 -23.628  31.742  1.00  0.00    -0.000 C 
BRANCH  10  11
ATOM     11  C   UNL     1     -23.337 -25.007  31.077  1.00  0.00    -0.000 C 
BRANCH  11  12
ATOM     12  C   UNL     1     -24.801 -25.407  30.835  1.00  0.00    -0.000 C 
BRANCH  12  13
ATOM     13  C   UNL     1     -25.046 -25.910  29.405  1.00  0.00    -0.003 C 
ATOM     14  C   UNL     1     -23.781 -26.457  28.745  1.00  0.00     0.004 C 
ENDBRANCH  12  13
ENDBRANCH  11  12
ENDBRANCH  10  11
ENDBRANCH   9  10
ENDBRANCH   1   9
TORSDOF 10
ENDMDL
MODEL 4
REMARK VINA RESULT:    -6.450      4.699      8.419
REMARK INTER + INTRA:         -10.749
REMARK INTER:                 -10.305
REMARK INTRA:                  -0.445
REMARK UNBOUND:                -0.529
REMARK SMILES CCCCCCCCCCCC(=O)[O-]
REMARK SMILES IDX 7 1 8 2 9 3 10 4 11 5 12 6 13 7 14 8 6 9 5 10 4 11 3 12 2 13
REMARK SMILES IDX 1 14
REMARK H PARENT
REMARK Flexibility Score: inf
ROOT
ATOM      1  C   UNL     1     -22.057 -21.012  30.752  1.00  0.00     0.000 C 
ENDROOT
BRANCH   1   2
ATOM      2  C   UNL     1     -22.008 -20.953  29.216  1.00  0.00     0.000 C 
BRANCH   2   3
ATOM      3  C   UNL     1     -21.208 -19.749  28.686  1.00  0.00     0.000 C 
BRANCH   3   4
ATOM      4  C   UNL     1     -20.797 -18.718  29.754  1.00  0.00     0.006 C 
BRANCH   4   5
ATOM      5  C   UNL     1     -19.944 -17.577  29.187  1.00  0.00     0.053 C 
BRANCH   5   6
ATOM      6  C   UNL     1     -19.005 -17.060  30.230  1.00  0.00     0.041 C 
ATOM      7  O   UNL     1     -19.021 -17.543  31.394  1.00  0.00    -0.550 OA
ATOM      8  O   UNL     1     -18.144 -16.011  29.934  1.00  0.00    -0.550 OA
ENDBRANCH   5   6
ENDBRANCH   4   5
ENDBRANCH   3   4
ENDBRANCH   2   3
ENDBRANCH   1   2
BRANCH   1   9
ATOM      9  C   UNL     1     -22.409 -22.414  31.277  1.00  0.00     0.000 C 
BRANCH   9  10
ATOM     10  C   UNL     1     -22.038 -23.530  30.289  1.00  0.00    -0.000 C 
BRANCH  10  11
ATOM     11  C   UNL     1     -23.093 -24.642  30.294  1.00  0.00    -0.000 C 
BRANCH  11  12
ATOM     12  C   UNL     1     -23.429 -25.090  28.864  1.00  0.00    -0.000 C 
BRANCH  12  13
ATOM     13  C   UNL     1     -23.868 -26.560  28.794  1.00  0.00    -0.003 C 
ATOM     14  C   UNL     1     -25.381 -26.733  28.919  1.00  0.00     0.004 C 
ENDBRANCH  12  13
ENDBRANCH  11  12
ENDBRANCH  10  11
ENDBRANCH   9  10
ENDBRANCH   1   9
TORSDOF 10
ENDMDL
MODEL 5
REMARK VINA RESULT:    -6.425      4.772      8.518
REMARK INTER + INTRA:         -10.709
REMARK INTER:                 -10.372
REMARK INTRA:                  -0.338
REMARK UNBOUND:                -0.529
REMARK SMILES CCCCCCCCCCCC(=O)[O-]
REMARK SMILES IDX 7 1 8 2 9 3 10 4 11 5 12 6 13 7 14 8 6 9 5 10 4 11 3 12 2 13
REMARK SMILES IDX 1 14
REMARK H PARENT
REMARK Flexibility Score: inf
ROOT
ATOM      1  C   UNL     1     -22.301 -21.050  30.256  1.00  0.00     0.000 C 
ENDROOT
BRANCH   1   2
ATOM      2  C   UNL     1     -21.402 -19.802  30.252  1.00  0.00     0.000 C 
BRANCH   2   3
ATOM      3  C   UNL     1     -21.116 -19.273  28.834  1.00  0.00     0.000 C 
BRANCH   3   4
ATOM      4  C   UNL     1     -20.361 -17.932  28.778  1.00  0.00     0.006 C 
BRANCH   4   5
ATOM      5  C   UNL     1     -18.923 -18.033  29.300  1.00  0.00     0.053 C 
BRANCH   5   6
ATOM      6  C   UNL     1     -18.739 -17.153  30.496  1.00  0.00     0.041 C 
ATOM      7  O   UNL     1     -19.113 -17.544  31.634  1.00  0.00    -0.550 OA
ATOM      8  O   UNL     1     -18.198 -15.882  30.349  1.00  0.00    -0.550 OA
ENDBRANCH   5   6
ENDBRANCH   4   5
ENDBRANCH   3   4
ENDBRANCH   2   3
ENDBRANCH   1   2
BRANCH   1   9
ATOM      9  C   UNL     1     -22.002 -21.988  31.437  1.00  0.00     0.000 C 
BRANCH   9  10
ATOM     10  C   UNL     1     -23.091 -23.053  31.639  1.00  0.00    -0.000 C 
BRANCH  10  11
ATOM     11  C   UNL     1     -22.789 -24.310  30.814  1.00  0.00    -0.000 C 
BRANCH  11  12
ATOM     12  C   UNL     1     -23.840 -25.401  31.069  1.00  0.00    -0.000 C 
BRANCH  12  13
ATOM     13  C   UNL     1     -24.662 -25.733  29.814  1.00  0.00    -0.003 C 
ATOM     14  C   UNL     1     -23.889 -26.586  28.809  1.00  0.00     0.004 C 
ENDBRANCH  12  13
ENDBRANCH  11  12
ENDBRANCH  10  11
ENDBRANCH   9  10
ENDBRANCH   1   9
TORSDOF 10
ENDMDL
MODEL 6
REMARK VINA RESULT:    -6.373      4.479      8.127
REMARK INTER + INTRA:         -10.628
REMARK INTER:                 -10.129
REMARK INTRA:                  -0.499
REMARK UNBOUND:                -0.529
REMARK SMILES CCCCCCCCCCCC(=O)[O-]
REMARK SMILES IDX 7 1 8 2 9 3 10 4 11 5 12 6 13 7 14 8 6 9 5 10 4 11 3 12 2 13
REMARK SMILES IDX 1 14
REMARK H PARENT
REMARK Flexibility Score: inf
ROOT
ATOM      1  C   UNL     1     -22.037 -23.406  30.633  1.00  0.00     0.000 C 
ENDROOT
BRANCH   1   2
ATOM      2  C   UNL     1     -22.244 -22.023  31.271  1.00  0.00     0.000 C 
BRANCH   2   3
ATOM      3  C   UNL     1     -22.200 -20.876  30.245  1.00  0.00     0.000 C 
BRANCH   3   4
ATOM      4  C   UNL     1     -21.239 -19.724  30.594  1.00  0.00     0.006 C 
BRANCH   4   5
ATOM      5  C   UNL     1     -20.638 -19.050  29.355  1.00  0.00     0.053 C 
BRANCH   5   6
ATOM      6  C   UNL     1     -19.325 -18.416  29.692  1.00  0.00     0.041 C 
ATOM      7  O   UNL     1     -18.849 -18.523  30.853  1.00  0.00    -0.550 OA
ATOM      8  O   UNL     1     -18.650 -17.666  28.738  1.00  0.00    -0.550 OA
ENDBRANCH   5   6
ENDBRANCH   4   5
ENDBRANCH   3   4
ENDBRANCH   2   3
ENDBRANCH   1   2
BRANCH   1   9
ATOM      9  C   UNL     1     -22.007 -23.349  29.096  1.00  0.00     0.000 C 
BRANCH   9  10
ATOM     10  C   UNL     1     -22.956 -24.367  28.445  1.00  0.00    -0.000 C 
BRANCH  10  11
ATOM     11  C   UNL     1     -23.530 -25.329  29.491  1.00  0.00    -0.000 C 
BRANCH  11  12
ATOM     12  C   UNL     1     -23.948 -26.659  28.846  1.00  0.00    -0.000 C 
BRANCH  12  13
ATOM     13  C   UNL     1     -25.400 -27.040  29.169  1.00  0.00    -0.003 C 
ATOM     14  C   UNL     1     -26.087 -27.781  28.022  1.00  0.00     0.004 C 
ENDBRANCH  12  13
ENDBRANCH  11  12
ENDBRANCH  10  11
ENDBRANCH   9  10
ENDBRANCH   1   9
TORSDOF 10
ENDMDL
MODEL 7
REMARK VINA RESULT:    -6.305      4.628      8.090
REMARK INTER + INTRA:         -10.519
REMARK INTER:                  -9.974
REMARK INTRA:                  -0.545
REMARK UNBOUND:                -0.529
REMARK SMILES CCCCCCCCCCCC(=O)[O-]
REMARK SMILES IDX 7 1 8 2 9 3 10 4 11 5 12 6 13 7 14 8 6 9 5 10 4 11 3 12 2 13
REMARK SMILES IDX 1 14
REMARK H PARENT
REMARK Flexibility Score: inf
ROOT
ATOM      1  C   UNL     1     -22.060 -23.398  30.617  1.00  0.00     0.000 C 
ENDROOT
BRANCH   1   2
ATOM      2  C   UNL     1     -21.925 -22.011  31.268  1.00  0.00     0.000 C 
BRANCH   2   3
ATOM      3  C   UNL     1     -22.191 -20.857  30.284  1.00  0.00     0.000 C 
BRANCH   3   4
ATOM      4  C   UNL     1     -21.258 -19.642  30.436  1.00  0.00     0.006 C 
BRANCH   4   5
ATOM      5  C   UNL     1     -20.751 -19.105  29.092  1.00  0.00     0.053 C 
BRANCH   5   6
ATOM      6  C   UNL     1     -20.007 -17.823  29.289  1.00  0.00     0.041 C 
ATOM      7  O   UNL     1     -19.797 -17.383  30.451  1.00  0.00    -0.550 OA
ATOM      8  O   UNL     1     -19.585 -17.086  28.190  1.00  0.00    -0.550 OA
ENDBRANCH   5   6
ENDBRANCH   4   5
ENDBRANCH   3   4
ENDBRANCH   2   3
ENDBRANCH   1   2
BRANCH   1   9
ATOM      9  C   UNL     1     -22.156 -23.323  29.084  1.00  0.00     0.000 C 
BRANCH   9  10
ATOM     10  C   UNL     1     -22.912 -24.515  28.477  1.00  0.00    -0.000 C 
BRANCH  10  11
ATOM     11  C   UNL     1     -23.558 -25.371  29.573  1.00  0.00    -0.000 C 
BRANCH  11  12
ATOM     12  C   UNL     1     -24.366 -26.527  28.964  1.00  0.00    -0.000 C 
BRANCH  12  13
ATOM     13  C   UNL     1     -25.289 -27.204  29.988  1.00  0.00    -0.003 C 
ATOM     14  C   UNL     1     -25.311 -26.481  31.334  1.00  0.00     0.004 C 
ENDBRANCH  12  13
ENDBRANCH  11  12
ENDBRANCH  10  11
ENDBRANCH   9  10
ENDBRANCH   1   9
TORSDOF 10
ENDMDL
MODEL 8
REMARK VINA RESULT:    -6.299      1.154      2.431
REMARK INTER + INTRA:         -10.510
REMARK INTER:                  -9.962
REMARK INTRA:                  -0.548
REMARK UNBOUND:                -0.529
REMARK SMILES CCCCCCCCCCCC(=O)[O-]
REMARK SMILES IDX 7 1 8 2 9 3 10 4 11 5 12 6 13 7 14 8 6 9 5 10 4 11 3 12 2 13
REMARK SMILES IDX 1 14
REMARK H PARENT
REMARK Flexibility Score: inf
ROOT
ATOM      1  C   UNL     1     -21.998 -20.949  30.721  1.00  0.00     0.000 C 
ENDROOT
BRANCH   1   2
ATOM      2  C   UNL     1     -22.106 -22.378  31.280  1.00  0.00     0.000 C 
BRANCH   2   3
ATOM      3  C   UNL     1     -22.112 -23.454  30.179  1.00  0.00     0.000 C 
BRANCH   3   4
ATOM      4  C   UNL     1     -23.095 -24.618  30.408  1.00  0.00     0.006 C 
BRANCH   4   5
ATOM      5  C   UNL     1     -23.470 -25.349  29.114  1.00  0.00     0.053 C 
BRANCH   5   6
ATOM      6  C   UNL     1     -24.543 -26.358  29.376  1.00  0.00     0.041 C 
ATOM      7  O   UNL     1     -24.918 -27.137  28.461  1.00  0.00    -0.550 OA
ATOM      8  O   UNL     1     -25.164 -26.406  30.618  1.00  0.00    -0.550 OA
ENDBRANCH   5   6
ENDBRANCH   4   5
ENDBRANCH   3   4
ENDBRANCH   2   3
ENDBRANCH   1   2
BRANCH   1   9
ATOM      9  C   UNL     1     -22.154 -20.901  29.192  1.00  0.00     0.000 C 
BRANCH   9  10
ATOM     10  C   UNL     1     -21.302 -19.799  28.543  1.00  0.00    -0.000 C 
BRANCH  10  11
ATOM     11  C   UNL     1     -20.877 -18.752  29.579  1.00  0.00    -0.000 C 
BRANCH  11  12
ATOM     12  C   UNL     1     -19.972 -17.685  28.944  1.00  0.00    -0.000 C 
BRANCH  12  13
ATOM     13  C   UNL     1     -18.979 -17.081  29.948  1.00  0.00    -0.003 C 
ATOM     14  C   UNL     1     -18.941 -17.841  31.273  1.00  0.00     0.004 C 
ENDBRANCH  12  13
ENDBRANCH  11  12
ENDBRANCH  10  11
ENDBRANCH   9  10
ENDBRANCH   1   9
TORSDOF 10
ENDMDL
MODEL 9
REMARK VINA RESULT:    -6.294      1.397      1.988
REMARK INTER + INTRA:         -10.503
REMARK INTER:                  -9.938
REMARK INTRA:                  -0.565
REMARK UNBOUND:                -0.529
REMARK SMILES CCCCCCCCCCCC(=O)[O-]
REMARK SMILES IDX 7 1 8 2 9 3 10 4 11 5 12 6 13 7 14 8 6 9 5 10 4 11 3 12 2 13
REMARK SMILES IDX 1 14
REMARK H PARENT
REMARK Flexibility Score: inf
ROOT
ATOM      1  C   UNL     1     -22.121 -23.408  29.104  1.00  0.00     0.000 C 
ENDROOT
BRANCH   1   2
ATOM      2  C   UNL     1     -23.114 -24.424  28.515  1.00  0.00     0.000 C 
BRANCH   2   3
ATOM      3  C   UNL     1     -23.750 -25.330  29.585  1.00  0.00     0.000 C 
BRANCH   3   4
ATOM      4  C   UNL     1     -25.069 -26.006  29.166  1.00  0.00     0.006 C 
BRANCH   4   5
ATOM      5  C   UNL     1     -24.856 -27.358  28.475  1.00  0.00     0.053 C 
BRANCH   5   6
ATOM      6  C   UNL     1     -26.166 -28.045  28.255  1.00  0.00     0.041 C 
ATOM      7  O   UNL     1     -26.717 -28.677  29.196  1.00  0.00    -0.550 OA
ATOM      8  O   UNL     1     -26.758 -28.029  26.999  1.00  0.00    -0.550 OA
ENDBRANCH   5   6
ENDBRANCH   4   5
ENDBRANCH   3   4
ENDBRANCH   2   3
ENDBRANCH   1   2
BRANCH   1   9
ATOM      9  C   UNL     1     -21.993 -23.525  30.632  1.00  0.00     0.000 C 
BRANCH   9  10
ATOM     10  C   UNL     1     -22.391 -22.233  31.362  1.00  0.00    -0.000 C 
BRANCH  10  11
ATOM     11  C   UNL     1     -22.154 -21.005  30.474  1.00  0.00    -0.000 C 
BRANCH  11  12
ATOM     12  C   UNL     1     -21.112 -20.066  31.099  1.00  0.00    -0.000 C 
BRANCH  12  13
ATOM     13  C   UNL     1     -20.709 -18.921  30.158  1.00  0.00    -0.003 C 
ATOM     14  C   UNL     1     -20.917 -19.266  28.684  1.00  0.00     0.004 C 
ENDBRANCH  12  13
ENDBRANCH  11  12
ENDBRANCH  10  11
ENDBRANCH   9  10
ENDBRANCH   1   9
TORSDOF 10
ENDMDL
