MODEL 1
REMARK VINA RESULT:    -4.551      0.000      0.000
REMARK INTER + INTRA:         -10.117
REMARK INTER:                  -8.276
REMARK INTRA:                  -1.841
REMARK UNBOUND:                -1.841
REMARK SMILES CCCCCCCCCCCCCCCC(=O)[O-]
REMARK SMILES IDX 9 1 10 2 11 3 12 4 13 5 14 6 15 7 16 8 17 9 18 10 8 11 7 12
REMARK SMILES IDX 6 13 5 14 4 15 3 16 2 17 1 18
REMARK H PARENT
REMARK Flexibility Score: inf
ROOT
ATOM      1  C   UNL     1     -10.281 -39.845  43.892  1.00  0.00     0.000 C 
ENDROOT
BRANCH   1   2
ATOM      2  C   UNL     1      -9.690 -38.490  44.334  1.00  0.00     0.000 C 
BRANCH   2   3
ATOM      3  C   UNL     1     -10.746 -37.382  44.495  1.00  0.00     0.000 C 
BRANCH   3   4
ATOM      4  C   UNL     1     -10.243 -36.193  45.330  1.00  0.00     0.000 C 
BRANCH   4   5
ATOM      5  C   UNL     1     -10.550 -34.838  44.657  1.00  0.00     0.000 C 
BRANCH   5   6
ATOM      6  C   UNL     1      -9.803 -34.627  43.330  1.00  0.00     0.006 C 
BRANCH   6   7
ATOM      7  C   UNL     1     -10.311 -33.411  42.547  1.00  0.00     0.053 C 
BRANCH   7   8
ATOM      8  C   UNL     1      -9.419 -33.132  41.379  1.00  0.00     0.041 C 
ATOM      9  O   UNL     1      -9.821 -33.353  40.207  1.00  0.00    -0.550 OA
ATOM     10  O   UNL     1      -8.124 -32.672  41.588  1.00  0.00    -0.550 OA
ENDBRANCH   7   8
ENDBRANCH   6   7
ENDBRANCH   5   6
ENDBRANCH   4   5
ENDBRANCH   3   4
ENDBRANCH   2   3
ENDBRANCH   1   2
BRANCH   1  11
ATOM     11  C   UNL     1     -11.812 -39.794  43.754  1.00  0.00     0.000 C 
BRANCH  11  12
ATOM     12  C   UNL     1     -12.524 -40.775  44.699  1.00  0.00    -0.000 C 
BRANCH  12  13
ATOM     13  C   UNL     1     -11.826 -40.888  46.067  1.00  0.00    -0.000 C 
BRANCH  13  14
ATOM     14  C   UNL     1     -12.215 -39.753  47.027  1.00  0.00    -0.000 C 
BRANCH  14  15
ATOM     15  C   UNL     1     -11.268 -39.655  48.237  1.00  0.00    -0.000 C 
BRANCH  15  16
ATOM     16  C   UNL     1     -10.452 -38.349  48.253  1.00  0.00    -0.000 C 
BRANCH  16  17
ATOM     17  C   UNL     1      -8.949 -38.518  47.966  1.00  0.00    -0.003 C 
ATOM     18  C   UNL     1      -8.539 -39.975  47.754  1.00  0.00     0.004 C 
ENDBRANCH  16  17
ENDBRANCH  15  16
ENDBRANCH  14  15
ENDBRANCH  13  14
ENDBRANCH  12  13
ENDBRANCH  11  12
ENDBRANCH   1  11
TORSDOF 14
ENDMDL
MODEL 2
REMARK VINA RESULT:    -4.512      1.493      2.626
REMARK INTER + INTRA:         -10.045
REMARK INTER:                  -8.712
REMARK INTRA:                  -1.333
REMARK UNBOUND:                -1.841
REMARK SMILES CCCCCCCCCCCCCCCC(=O)[O-]
REMARK SMILES IDX 9 1 10 2 11 3 12 4 13 5 14 6 15 7 16 8 17 9 18 10 8 11 7 12
REMARK SMILES IDX 6 13 5 14 4 15 3 16 2 17 1 18
REMARK H PARENT
REMARK Flexibility Score: inf
ROOT
ATOM      1  C   UNL     1     -10.626 -36.699  44.120  1.00  0.00     0.000 C 
ENDROOT
BRANCH   1   2
ATOM      2  C   UNL     1     -10.456 -35.491  45.066  1.00  0.00     0.000 C 
BRANCH   2   3
ATOM      3  C   UNL     1      -9.783 -34.279  44.399  1.00  0.00     0.000 C 
BRANCH   3   4
ATOM      4  C   UNL     1     -10.688 -33.583  43.369  1.00  0.00     0.000 C 
BRANCH   4   5
ATOM      5  C   UNL     1     -10.078 -33.603  41.951  1.00  0.00     0.000 C 
BRANCH   5   6
ATOM      6  C   UNL     1      -8.616 -34.077  41.917  1.00  0.00     0.006 C 
BRANCH   6   7
ATOM      7  C   UNL     1      -7.692 -33.107  41.171  1.00  0.00     0.053 C 
BRANCH   7   8
ATOM      8  C   UNL     1      -7.734 -31.753  41.804  1.00  0.00     0.041 C 
ATOM      9  O   UNL     1      -8.092 -30.749  41.134  1.00  0.00    -0.550 OA
ATOM     10  O   UNL     1      -7.330 -31.591  43.125  1.00  0.00    -0.550 OA
ENDBRANCH   7   8
ENDBRANCH   6   7
ENDBRANCH   5   6
ENDBRANCH   4   5
ENDBRANCH   3   4
ENDBRANCH   2   3
ENDBRANCH   1   2
BRANCH   1  11
ATOM     11  C   UNL     1     -10.843 -38.014  44.889  1.00  0.00     0.000 C 
BRANCH  11  12
ATOM     12  C   UNL     1     -11.961 -38.876  44.283  1.00  0.00    -0.000 C 
BRANCH  12  13
ATOM     13  C   UNL     1     -12.253 -40.137  45.116  1.00  0.00    -0.000 C 
BRANCH  13  14
ATOM     14  C   UNL     1     -12.503 -39.824  46.600  1.00  0.00    -0.000 C 
BRANCH  14  15
ATOM     15  C   UNL     1     -11.379 -40.349  47.510  1.00  0.00    -0.000 C 
BRANCH  15  16
ATOM     16  C   UNL     1     -10.794 -39.259  48.427  1.00  0.00    -0.000 C 
BRANCH  16  17
ATOM     17  C   UNL     1     -11.790 -38.170  48.863  1.00  0.00    -0.003 C 
ATOM     18  C   UNL     1     -11.399 -36.773  48.385  1.00  0.00     0.004 C 
ENDBRANCH  16  17
ENDBRANCH  15  16
ENDBRANCH  14  15
ENDBRANCH  13  14
ENDBRANCH  12  13
ENDBRANCH  11  12
ENDBRANCH   1  11
TORSDOF 14
ENDMDL
MODEL 3
REMARK VINA RESULT:    -4.482      1.743      2.887
REMARK INTER + INTRA:          -9.991
REMARK INTER:                  -8.811
REMARK INTRA:                  -1.180
REMARK UNBOUND:                -1.841
REMARK SMILES CCCCCCCCCCCCCCCC(=O)[O-]
REMARK SMILES IDX 9 1 10 2 11 3 12 4 13 5 14 6 15 7 16 8 17 9 18 10 8 11 7 12
REMARK SMILES IDX 6 13 5 14 4 15 3 16 2 17 1 18
REMARK H PARENT
REMARK Flexibility Score: inf
ROOT
ATOM      1  C   UNL     1     -11.014 -36.369  46.035  1.00  0.00     0.000 C 
ENDROOT
BRANCH   1   2
ATOM      2  C   UNL     1      -9.849 -35.409  45.714  1.00  0.00     0.000 C 
BRANCH   2   3
ATOM      3  C   UNL     1     -10.234 -34.280  44.742  1.00  0.00     0.000 C 
BRANCH   3   4
ATOM      4  C   UNL     1     -10.037 -34.667  43.267  1.00  0.00     0.000 C 
BRANCH   4   5
ATOM      5  C   UNL     1     -10.422 -33.521  42.308  1.00  0.00     0.000 C 
BRANCH   5   6
ATOM      6  C   UNL     1      -9.665 -33.555  40.971  1.00  0.00     0.006 C 
BRANCH   6   7
ATOM      7  C   UNL     1      -8.157 -33.329  41.134  1.00  0.00     0.053 C 
BRANCH   7   8
ATOM      8  C   UNL     1      -7.896 -32.035  41.835  1.00  0.00     0.041 C 
ATOM      9  O   UNL     1      -8.133 -30.941  41.257  1.00  0.00    -0.550 OA
ATOM     10  O   UNL     1      -7.345 -32.034  43.111  1.00  0.00    -0.550 OA
ENDBRANCH   7   8
ENDBRANCH   6   7
ENDBRANCH   5   6
ENDBRANCH   4   5
ENDBRANCH   3   4
ENDBRANCH   2   3
ENDBRANCH   1   2
BRANCH   1  11
ATOM     11  C   UNL     1     -11.415 -36.322  47.519  1.00  0.00     0.000 C 
BRANCH  11  12
ATOM     12  C   UNL     1     -11.878 -37.687  48.051  1.00  0.00    -0.000 C 
BRANCH  12  13
ATOM     13  C   UNL     1     -12.951 -38.336  47.158  1.00  0.00    -0.000 C 
BRANCH  13  14
ATOM     14  C   UNL     1     -12.574 -39.757  46.712  1.00  0.00    -0.000 C 
BRANCH  14  15
ATOM     15  C   UNL     1     -11.256 -40.242  47.342  1.00  0.00    -0.000 C 
BRANCH  15  16
ATOM     16  C   UNL     1     -10.057 -40.133  46.381  1.00  0.00    -0.000 C 
BRANCH  16  17
ATOM     17  C   UNL     1      -8.768 -39.577  47.010  1.00  0.00    -0.003 C 
ATOM     18  C   UNL     1      -8.499 -40.124  48.411  1.00  0.00     0.004 C 
ENDBRANCH  16  17
ENDBRANCH  15  16
ENDBRANCH  14  15
ENDBRANCH  13  14
ENDBRANCH  12  13
ENDBRANCH  11  12
ENDBRANCH   1  11
TORSDOF 14
ENDMDL
MODEL 4
REMARK VINA RESULT:    -4.472      3.116      7.025
REMARK INTER + INTRA:          -9.974
REMARK INTER:                  -8.696
REMARK INTRA:                  -1.278
REMARK UNBOUND:                -1.841
REMARK SMILES CCCCCCCCCCCCCCCC(=O)[O-]
REMARK SMILES IDX 9 1 10 2 11 3 12 4 13 5 14 6 15 7 16 8 17 9 18 10 8 11 7 12
REMARK SMILES IDX 6 13 5 14 4 15 3 16 2 17 1 18
REMARK H PARENT
REMARK Flexibility Score: inf
ROOT
ATOM      1  C   UNL     1      -9.551 -38.441  44.517  1.00  0.00     0.000 C 
ENDROOT
BRANCH   1   2
ATOM      2  C   UNL     1     -10.059 -39.887  44.335  1.00  0.00     0.000 C 
BRANCH   2   3
ATOM      3  C   UNL     1     -11.568 -39.977  44.050  1.00  0.00     0.000 C 
BRANCH   3   4
ATOM      4  C   UNL     1     -12.399 -40.272  45.310  1.00  0.00     0.000 C 
BRANCH   4   5
ATOM      5  C   UNL     1     -11.524 -40.766  46.481  1.00  0.00     0.000 C 
BRANCH   5   6
ATOM      6  C   UNL     1     -11.535 -39.826  47.697  1.00  0.00     0.006 C 
BRANCH   6   7
ATOM      7  C   UNL     1     -10.337 -40.044  48.630  1.00  0.00     0.053 C 
BRANCH   7   8
ATOM      8  C   UNL     1      -9.106 -39.422  48.053  1.00  0.00     0.041 C 
ATOM      9  O   UNL     1      -8.196 -40.147  47.570  1.00  0.00    -0.550 OA
ATOM     10  O   UNL     1      -8.939 -38.043  48.092  1.00  0.00    -0.550 OA
ENDBRANCH   7   8
ENDBRANCH   6   7
ENDBRANCH   5   6
ENDBRANCH   4   5
ENDBRANCH   3   4
ENDBRANCH   2   3
ENDBRANCH   1   2
BRANCH   1  11
ATOM     11  C   UNL     1     -10.671 -37.403  44.327  1.00  0.00     0.000 C 
BRANCH  11  12
ATOM     12  C   UNL     1     -10.624 -36.284  45.379  1.00  0.00    -0.000 C 
BRANCH  12  13
ATOM     13  C   UNL     1     -10.383 -34.897  44.757  1.00  0.00    -0.000 C 
BRANCH  13  14
ATOM     14  C   UNL     1     -10.294 -34.942  43.223  1.00  0.00    -0.000 C 
BRANCH  14  15
ATOM     15  C   UNL     1     -10.445 -33.551  42.583  1.00  0.00    -0.000 C 
BRANCH  15  16
ATOM     16  C   UNL     1      -9.677 -33.416  41.255  1.00  0.00    -0.000 C 
BRANCH  16  17
ATOM     17  C   UNL     1      -8.380 -32.592  41.335  1.00  0.00    -0.003 C 
ATOM     18  C   UNL     1      -7.127 -33.418  41.046  1.00  0.00     0.004 C 
ENDBRANCH  16  17
ENDBRANCH  15  16
ENDBRANCH  14  15
ENDBRANCH  13  14
ENDBRANCH  12  13
ENDBRANCH  11  12
ENDBRANCH   1  11
TORSDOF 14
ENDMDL
MODEL 5
REMARK VINA RESULT:    -4.436      1.360      3.454
REMARK INTER + INTRA:          -9.908
REMARK INTER:                  -7.698
REMARK INTRA:                  -2.209
REMARK UNBOUND:                -1.841
REMARK SMILES CCCCCCCCCCCCCCCC(=O)[O-]
REMARK SMILES IDX 9 1 10 2 11 3 12 4 13 5 14 6 15 7 16 8 17 9 18 10 8 11 7 12
REMARK SMILES IDX 6 13 5 14 4 15 3 16 2 17 1 18
REMARK H PARENT
REMARK Flexibility Score: inf
ROOT
ATOM      1  C   UNL     1      -9.409 -40.014  48.798  1.00  0.00     0.000 C 
ENDROOT
BRANCH   1   2
ATOM      2  C   UNL     1      -8.783 -39.619  47.444  1.00  0.00     0.000 C 
BRANCH   2   3
ATOM      3  C   UNL     1      -8.433 -38.124  47.341  1.00  0.00     0.000 C 
BRANCH   3   4
ATOM      4  C   UNL     1      -9.614 -37.265  46.858  1.00  0.00     0.000 C 
BRANCH   4   5
ATOM      5  C   UNL     1      -9.482 -36.882  45.368  1.00  0.00     0.000 C 
BRANCH   5   6
ATOM      6  C   UNL     1     -10.360 -35.687  44.960  1.00  0.00     0.006 C 
BRANCH   6   7
ATOM      7  C   UNL     1     -10.197 -35.305  43.484  1.00  0.00     0.053 C 
BRANCH   7   8
ATOM      8  C   UNL     1      -9.159 -34.240  43.332  1.00  0.00     0.041 C 
ATOM      9  O   UNL     1      -8.891 -33.472  44.294  1.00  0.00    -0.550 OA
ATOM     10  O   UNL     1      -8.518 -34.063  42.111  1.00  0.00    -0.550 OA
ENDBRANCH   7   8
ENDBRANCH   6   7
ENDBRANCH   5   6
ENDBRANCH   4   5
ENDBRANCH   3   4
ENDBRANCH   2   3
ENDBRANCH   1   2
BRANCH   1  11
ATOM     11  C   UNL     1     -10.947 -40.020  48.749  1.00  0.00     0.000 C 
BRANCH  11  12
ATOM     12  C   UNL     1     -11.493 -40.566  47.420  1.00  0.00    -0.000 C 
BRANCH  12  13
ATOM     13  C   UNL     1     -12.470 -39.591  46.738  1.00  0.00    -0.000 C 
BRANCH  13  14
ATOM     14  C   UNL     1     -12.774 -39.976  45.282  1.00  0.00    -0.000 C 
BRANCH  14  15
ATOM     15  C   UNL     1     -12.233 -38.946  44.274  1.00  0.00    -0.000 C 
BRANCH  15  16
ATOM     16  C   UNL     1     -11.165 -39.532  43.334  1.00  0.00    -0.000 C 
BRANCH  16  17
ATOM     17  C   UNL     1     -10.140 -40.460  44.010  1.00  0.00    -0.003 C 
ATOM     18  C   UNL     1      -8.693 -40.079  43.703  1.00  0.00     0.004 C 
ENDBRANCH  16  17
ENDBRANCH  15  16
ENDBRANCH  14  15
ENDBRANCH  13  14
ENDBRANCH  12  13
ENDBRANCH  11  12
ENDBRANCH   1  11
TORSDOF 14
ENDMDL
MODEL 6
REMARK VINA RESULT:    -4.428      1.321      3.149
REMARK INTER + INTRA:          -9.894
REMARK INTER:                  -8.331
REMARK INTRA:                  -1.563
REMARK UNBOUND:                -1.841
REMARK SMILES CCCCCCCCCCCCCCCC(=O)[O-]
REMARK SMILES IDX 9 1 10 2 11 3 12 4 13 5 14 6 15 7 16 8 17 9 18 10 8 11 7 12
REMARK SMILES IDX 6 13 5 14 4 15 3 16 2 17 1 18
REMARK H PARENT
REMARK Flexibility Score: inf
ROOT
ATOM      1  C   UNL     1      -9.928 -36.906  47.504  1.00  0.00     0.000 C 
ENDROOT
BRANCH   1   2
ATOM      2  C   UNL     1      -9.869 -35.806  46.423  1.00  0.00     0.000 C 
BRANCH   2   3
ATOM      3  C   UNL     1     -10.437 -36.249  45.064  1.00  0.00     0.000 C 
BRANCH   3   4
ATOM      4  C   UNL     1      -9.534 -35.859  43.882  1.00  0.00     0.000 C 
BRANCH   4   5
ATOM      5  C   UNL     1     -10.198 -34.811  42.964  1.00  0.00     0.000 C 
BRANCH   5   6
ATOM      6  C   UNL     1      -9.851 -33.360  43.335  1.00  0.00     0.006 C 
BRANCH   6   7
ATOM      7  C   UNL     1      -8.351 -33.058  43.222  1.00  0.00     0.053 C 
BRANCH   7   8
ATOM      8  C   UNL     1      -7.989 -32.732  41.808  1.00  0.00     0.041 C 
ATOM      9  O   UNL     1      -8.537 -31.763  41.220  1.00  0.00    -0.550 OA
ATOM     10  O   UNL     1      -7.080 -33.529  41.122  1.00  0.00    -0.550 OA
ENDBRANCH   7   8
ENDBRANCH   6   7
ENDBRANCH   5   6
ENDBRANCH   4   5
ENDBRANCH   3   4
ENDBRANCH   2   3
ENDBRANCH   1   2
BRANCH   1  11
ATOM     11  C   UNL     1      -8.605 -37.683  47.617  1.00  0.00     0.000 C 
BRANCH  11  12
ATOM     12  C   UNL     1      -8.773 -39.182  47.324  1.00  0.00    -0.000 C 
BRANCH  12  13
ATOM     13  C   UNL     1      -9.203 -39.982  48.566  1.00  0.00    -0.000 C 
BRANCH  13  14
ATOM     14  C   UNL     1     -10.729 -40.140  48.672  1.00  0.00    -0.000 C 
BRANCH  14  15
ATOM     15  C   UNL     1     -11.385 -40.446  47.314  1.00  0.00    -0.000 C 
BRANCH  15  16
ATOM     16  C   UNL     1     -12.486 -39.437  46.940  1.00  0.00    -0.000 C 
BRANCH  16  17
ATOM     17  C   UNL     1     -12.786 -39.329  45.434  1.00  0.00    -0.003 C 
ATOM     18  C   UNL     1     -11.575 -39.646  44.558  1.00  0.00     0.004 C 
ENDBRANCH  16  17
ENDBRANCH  15  16
ENDBRANCH  14  15
ENDBRANCH  13  14
ENDBRANCH  12  13
ENDBRANCH  11  12
ENDBRANCH   1  11
TORSDOF 14
ENDMDL
MODEL 7
REMARK VINA RESULT:    -4.428      1.474      3.405
REMARK INTER + INTRA:          -9.892
REMARK INTER:                  -8.288
REMARK INTRA:                  -1.604
REMARK UNBOUND:                -1.841
REMARK SMILES CCCCCCCCCCCCCCCC(=O)[O-]
REMARK SMILES IDX 9 1 10 2 11 3 12 4 13 5 14 6 15 7 16 8 17 9 18 10 8 11 7 12
REMARK SMILES IDX 6 13 5 14 4 15 3 16 2 17 1 18
REMARK H PARENT
REMARK Flexibility Score: inf
ROOT
ATOM      1  C   UNL     1      -9.369 -37.192  44.474  1.00  0.00     0.000 C 
ENDROOT
BRANCH   1   2
ATOM      2  C   UNL     1     -10.511 -36.393  45.137  1.00  0.00     0.000 C 
BRANCH   2   3
ATOM      3  C   UNL     1     -10.588 -34.929  44.670  1.00  0.00     0.000 C 
BRANCH   3   4
ATOM      4  C   UNL     1      -9.688 -34.640  43.457  1.00  0.00     0.000 C 
BRANCH   4   5
ATOM      5  C   UNL     1     -10.369 -33.704  42.437  1.00  0.00     0.000 C 
BRANCH   5   6
ATOM      6  C   UNL     1      -9.570 -33.525  41.136  1.00  0.00     0.006 C 
BRANCH   6   7
ATOM      7  C   UNL     1      -8.063 -33.375  41.378  1.00  0.00     0.053 C 
BRANCH   7   8
ATOM      8  C   UNL     1      -7.754 -32.019  41.926  1.00  0.00     0.041 C 
ATOM      9  O   UNL     1      -7.236 -31.898  43.067  1.00  0.00    -0.550 OA
ATOM     10  O   UNL     1      -8.083 -30.882  41.196  1.00  0.00    -0.550 OA
ENDBRANCH   7   8
ENDBRANCH   6   7
ENDBRANCH   5   6
ENDBRANCH   4   5
ENDBRANCH   3   4
ENDBRANCH   2   3
ENDBRANCH   1   2
BRANCH   1  11
ATOM     11  C   UNL     1      -9.192 -38.584  45.105  1.00  0.00     0.000 C 
BRANCH  11  12
ATOM     12  C   UNL     1     -10.036 -38.769  46.376  1.00  0.00    -0.000 C 
BRANCH  12  13
ATOM     13  C   UNL     1     -10.613 -40.191  46.500  1.00  0.00    -0.000 C 
BRANCH  13  14
ATOM     14  C   UNL     1     -12.150 -40.206  46.548  1.00  0.00    -0.000 C 
BRANCH  14  15
ATOM     15  C   UNL     1     -12.780 -40.494  45.174  1.00  0.00    -0.000 C 
BRANCH  15  16
ATOM     16  C   UNL     1     -11.763 -41.028  44.149  1.00  0.00    -0.000 C 
BRANCH  16  17
ATOM     17  C   UNL     1     -11.673 -40.222  42.841  1.00  0.00    -0.003 C 
ATOM     18  C   UNL     1     -12.302 -38.833  42.948  1.00  0.00     0.004 C 
ENDBRANCH  16  17
ENDBRANCH  15  16
ENDBRANCH  14  15
ENDBRANCH  13  14
ENDBRANCH  12  13
ENDBRANCH  11  12
ENDBRANCH   1  11
TORSDOF 14
ENDMDL
MODEL 8
REMARK VINA RESULT:    -4.424      1.220      3.448
REMARK INTER + INTRA:          -9.887
REMARK INTER:                  -7.645
REMARK INTRA:                  -2.242
REMARK UNBOUND:                -1.841
REMARK SMILES CCCCCCCCCCCCCCCC(=O)[O-]
REMARK SMILES IDX 9 1 10 2 11 3 12 4 13 5 14 6 15 7 16 8 17 9 18 10 8 11 7 12
REMARK SMILES IDX 6 13 5 14 4 15 3 16 2 17 1 18
REMARK H PARENT
REMARK Flexibility Score: inf
ROOT
ATOM      1  C   UNL     1     -11.753 -38.220  48.517  1.00  0.00     0.000 C 
ENDROOT
BRANCH   1   2
ATOM      2  C   UNL     1     -10.957 -36.975  48.073  1.00  0.00     0.000 C 
BRANCH   2   3
ATOM      3  C   UNL     1     -11.377 -36.435  46.695  1.00  0.00     0.000 C 
BRANCH   3   4
ATOM      4  C   UNL     1     -10.357 -35.449  46.102  1.00  0.00     0.000 C 
BRANCH   4   5
ATOM      5  C   UNL     1     -10.423 -35.401  44.561  1.00  0.00     0.000 C 
BRANCH   5   6
ATOM      6  C   UNL     1     -10.238 -33.990  43.980  1.00  0.00     0.006 C 
BRANCH   6   7
ATOM      7  C   UNL     1     -10.078 -33.989  42.455  1.00  0.00     0.053 C 
BRANCH   7   8
ATOM      8  C   UNL     1      -8.979 -33.060  42.047  1.00  0.00     0.041 C 
ATOM      9  O   UNL     1      -9.034 -32.459  40.942  1.00  0.00    -0.550 OA
ATOM     10  O   UNL     1      -7.868 -32.895  42.865  1.00  0.00    -0.550 OA
ENDBRANCH   7   8
ENDBRANCH   6   7
ENDBRANCH   5   6
ENDBRANCH   4   5
ENDBRANCH   3   4
ENDBRANCH   2   3
ENDBRANCH   1   2
BRANCH   1  11
ATOM     11  C   UNL     1     -10.884 -39.489  48.539  1.00  0.00     0.000 C 
BRANCH  11  12
ATOM     12  C   UNL     1      -9.398 -39.192  48.282  1.00  0.00    -0.000 C 
BRANCH  12  13
ATOM     13  C   UNL     1      -8.875 -39.865  47.001  1.00  0.00    -0.000 C 
BRANCH  13  14
ATOM     14  C   UNL     1      -8.367 -38.851  45.963  1.00  0.00    -0.000 C 
BRANCH  14  15
ATOM     15  C   UNL     1      -9.258 -38.796  44.709  1.00  0.00    -0.000 C 
BRANCH  15  16
ATOM     16  C   UNL     1     -10.479 -39.729  44.801  1.00  0.00    -0.000 C 
BRANCH  16  17
ATOM     17  C   UNL     1     -11.793 -39.137  44.262  1.00  0.00    -0.003 C 
ATOM     18  C   UNL     1     -12.997 -39.437  45.155  1.00  0.00     0.004 C 
ENDBRANCH  16  17
ENDBRANCH  15  16
ENDBRANCH  14  15
ENDBRANCH  13  14
ENDBRANCH  12  13
ENDBRANCH  11  12
ENDBRANCH   1  11
TORSDOF 14
ENDMDL
MODEL 9
REMARK VINA RESULT:    -4.397      3.343      6.750
REMARK INTER + INTRA:          -9.837
REMARK INTER:                  -8.154
REMARK INTRA:                  -1.682
REMARK UNBOUND:                -1.841
REMARK SMILES CCCCCCCCCCCCCCCC(=O)[O-]
REMARK SMILES IDX 9 1 10 2 11 3 12 4 13 5 14 6 15 7 16 8 17 9 18 10 8 11 7 12
REMARK SMILES IDX 6 13 5 14 4 15 3 16 2 17 1 18
REMARK H PARENT
REMARK Flexibility Score: inf
ROOT
ATOM      1  C   UNL     1     -11.446 -38.558  43.935  1.00  0.00     0.000 C 
ENDROOT
BRANCH   1   2
ATOM      2  C   UNL     1     -12.216 -39.832  44.344  1.00  0.00     0.000 C 
BRANCH   2   3
ATOM      3  C   UNL     1     -11.427 -40.748  45.295  1.00  0.00     0.000 C 
BRANCH   3   4
ATOM      4  C   UNL     1     -12.038 -40.815  46.705  1.00  0.00     0.000 C 
BRANCH   4   5
ATOM      5  C   UNL     1     -12.193 -39.416  47.339  1.00  0.00     0.000 C 
BRANCH   5   6
ATOM      6  C   UNL     1     -10.902 -38.887  47.984  1.00  0.00     0.006 C 
BRANCH   6   7
ATOM      7  C   UNL     1     -10.028 -40.002  48.571  1.00  0.00     0.053 C 
BRANCH   7   8
ATOM      8  C   UNL     1      -8.586 -39.752  48.263  1.00  0.00     0.041 C 
ATOM      9  O   UNL     1      -8.234 -38.684  47.695  1.00  0.00    -0.550 OA
ATOM     10  O   UNL     1      -7.634 -40.720  48.559  1.00  0.00    -0.550 OA
ENDBRANCH   7   8
ENDBRANCH   6   7
ENDBRANCH   5   6
ENDBRANCH   4   5
ENDBRANCH   3   4
ENDBRANCH   2   3
ENDBRANCH   1   2
BRANCH   1  11
ATOM     11  C   UNL     1      -9.973 -38.603  44.373  1.00  0.00     0.000 C 
BRANCH  11  12
ATOM     12  C   UNL     1      -9.364 -37.203  44.547  1.00  0.00    -0.000 C 
BRANCH  12  13
ATOM     13  C   UNL     1     -10.278 -36.257  45.346  1.00  0.00    -0.000 C 
BRANCH  13  14
ATOM     14  C   UNL     1     -10.630 -34.976  44.572  1.00  0.00    -0.000 C 
BRANCH  14  15
ATOM     15  C   UNL     1      -9.549 -33.890  44.710  1.00  0.00    -0.000 C 
BRANCH  15  16
ATOM     16  C   UNL     1      -8.904 -33.513  43.363  1.00  0.00    -0.000 C 
BRANCH  16  17
ATOM     17  C   UNL     1      -9.462 -34.265  42.141  1.00  0.00    -0.003 C 
ATOM     18  C   UNL     1      -9.731 -33.351  40.947  1.00  0.00     0.004 C 
ENDBRANCH  16  17
ENDBRANCH  15  16
ENDBRANCH  14  15
ENDBRANCH  13  14
ENDBRANCH  12  13
ENDBRANCH  11  12
ENDBRANCH   1  11
TORSDOF 14
ENDMDL
