MODEL 1
REMARK VINA RESULT:    25.455      0.000      0.000
REMARK INTER + INTRA:          31.037
REMARK INTER:                  31.408
REMARK INTRA:                  -0.371
REMARK UNBOUND:                -0.371
REMARK SMILES Oc1cc(O)c2cc(O)c(-c3cc(O)c(O)c(O)c3)[o+]c2c1
REMARK SMILES IDX 10 1 20 2 21 3 22 4 2 5 3 6 4 7 6 8 7 9 8 10 11 11 12 12
REMARK SMILES IDX 13 13 19 14 15 15 17 16 14 17 16 19 18 21 9 23 1 25 5 27
REMARK H PARENT 14 18 16 20 18 22 9 24 1 26 5 28
REMARK Flexibility Score: inf
ROOT
ATOM      1  C   UNL     1      29.104  33.368  48.530  1.00  0.00     0.402 A 
ATOM      2  O   UNL     1      29.348  32.358  49.360  1.00  0.00    -0.202 OA
ATOM      3  C   UNL     1      29.145  31.084  49.040  1.00  0.00     0.368 A 
ATOM      4  C   UNL     1      29.435  30.092  49.980  1.00  0.00     0.162 A 
ATOM      5  C   UNL     1      29.234  28.745  49.669  1.00  0.00     0.128 A 
ATOM      6  C   UNL     1      28.742  28.387  48.411  1.00  0.00     0.093 A 
ATOM      7  C   UNL     1      28.444  29.362  47.451  1.00  0.00     0.136 A 
ATOM      8  C   UNL     1      28.644  30.732  47.763  1.00  0.00     0.125 A 
ATOM      9  C   UNL     1      28.360  31.777  46.869  1.00  0.00     0.078 A 
ATOM     10  C   UNL     1      28.579  33.104  47.251  1.00  0.00     0.223 A 
ENDROOT
BRANCH   1  11
ATOM     11  C   UNL     1      29.381  34.745  49.000  1.00  0.00     0.091 A 
ATOM     12  C   UNL     1      30.663  35.288  48.826  1.00  0.00     0.068 A 
ATOM     13  C   UNL     1      30.948  36.592  49.242  1.00  0.00     0.162 A 
ATOM     14  C   UNL     1      28.372  35.541  49.567  1.00  0.00     0.068 A 
ATOM     15  C   UNL     1      29.942  37.378  49.829  1.00  0.00     0.200 A 
ATOM     16  C   UNL     1      28.648  36.850  49.986  1.00  0.00     0.162 A 
BRANCH  13  17
ATOM     17  O   UNL     1      32.239  37.090  49.065  1.00  0.00    -0.504 OA
ATOM     18  H   UNL     1      32.416  37.984  48.621  1.00  0.00     0.293 HD
ENDBRANCH  13  17
BRANCH  15  19
ATOM     19  O   UNL     1      30.234  38.678  50.244  1.00  0.00    -0.502 OA
ATOM     20  H   UNL     1      31.180  39.038  50.264  1.00  0.00     0.293 HD
ENDBRANCH  15  19
BRANCH  16  21
ATOM     21  O   UNL     1      27.640  37.629  50.553  1.00  0.00    -0.504 OA
ATOM     22  H   UNL     1      27.850  38.393  51.182  1.00  0.00     0.293 HD
ENDBRANCH  16  21
ENDBRANCH   1  11
BRANCH  10  23
ATOM     23  O   UNL     1      28.251  34.145  46.382  1.00  0.00    -0.500 OA
ATOM     24  H   UNL     1      27.506  34.800  46.591  1.00  0.00     0.294 HD
ENDBRANCH  10  23
BRANCH   5  25
ATOM     25  O   UNL     1      29.521  27.750  50.601  1.00  0.00    -0.507 OA
ATOM     26  H   UNL     1      29.044  26.856  50.585  1.00  0.00     0.293 HD
ENDBRANCH   5  25
BRANCH   7  27
ATOM     27  O   UNL     1      27.958  28.923  46.216  1.00  0.00    -0.507 OA
ATOM     28  H   UNL     1      28.018  29.451  45.358  1.00  0.00     0.293 HD
ENDBRANCH   7  27
TORSDOF 7
ENDMDL
MODEL 2
REMARK VINA RESULT:    26.601      1.110      2.571
REMARK INTER + INTRA:          32.450
REMARK INTER:                  32.773
REMARK INTRA:                  -0.324
REMARK UNBOUND:                -0.371
REMARK SMILES Oc1cc(O)c2cc(O)c(-c3cc(O)c(O)c(O)c3)[o+]c2c1
REMARK SMILES IDX 10 1 20 2 21 3 22 4 2 5 3 6 4 7 6 8 7 9 8 10 11 11 12 12
REMARK SMILES IDX 13 13 19 14 15 15 17 16 14 17 16 19 18 21 9 23 1 25 5 27
REMARK H PARENT 14 18 16 20 18 22 9 24 1 26 5 28
REMARK Flexibility Score: inf
ROOT
ATOM      1  C   UNL     1      29.361  33.615  49.272  1.00  0.00     0.402 A 
ATOM      2  O   UNL     1      28.696  33.175  48.208  1.00  0.00    -0.202 OA
ATOM      3  C   UNL     1      28.487  31.887  47.958  1.00  0.00     0.368 A 
ATOM      4  C   UNL     1      27.774  31.522  46.813  1.00  0.00     0.162 A 
ATOM      5  C   UNL     1      27.536  30.175  46.529  1.00  0.00     0.128 A 
ATOM      6  C   UNL     1      28.013  29.187  47.394  1.00  0.00     0.093 A 
ATOM      7  C   UNL     1      28.732  29.526  48.548  1.00  0.00     0.136 A 
ATOM      8  C   UNL     1      28.977  30.893  48.840  1.00  0.00     0.125 A 
ATOM      9  C   UNL     1      29.698  31.325  49.965  1.00  0.00     0.078 A 
ATOM     10  C   UNL     1      29.904  32.690  50.183  1.00  0.00     0.223 A 
ENDROOT
BRANCH   1  11
ATOM     11  C   UNL     1      29.520  35.077  49.444  1.00  0.00     0.091 A 
ATOM     12  C   UNL     1      30.745  35.681  49.123  1.00  0.00     0.068 A 
ATOM     13  C   UNL     1      30.917  37.062  49.256  1.00  0.00     0.162 A 
ATOM     14  C   UNL     1      28.452  35.884  49.871  1.00  0.00     0.068 A 
ATOM     15  C   UNL     1      29.853  37.863  49.704  1.00  0.00     0.200 A 
ATOM     16  C   UNL     1      28.614  37.270  50.006  1.00  0.00     0.162 A 
BRANCH  13  17
ATOM     17  O   UNL     1      32.156  37.621  48.941  1.00  0.00    -0.504 OA
ATOM     18  H   UNL     1      32.664  38.209  49.591  1.00  0.00     0.293 HD
ENDBRANCH  13  17
BRANCH  15  19
ATOM     19  O   UNL     1      30.034  39.240  49.838  1.00  0.00    -0.502 OA
ATOM     20  H   UNL     1      30.624  39.771  49.209  1.00  0.00     0.293 HD
ENDBRANCH  15  19
BRANCH  16  21
ATOM     21  O   UNL     1      27.549  38.059  50.435  1.00  0.00    -0.504 OA
ATOM     22  H   UNL     1      27.669  38.774  51.143  1.00  0.00     0.293 HD
ENDBRANCH  16  21
ENDBRANCH   1  11
BRANCH  10  23
ATOM     23  O   UNL     1      30.662  33.118  51.273  1.00  0.00    -0.500 OA
ATOM     24  H   UNL     1      30.230  33.385  52.151  1.00  0.00     0.294 HD
ENDBRANCH  10  23
BRANCH   5  25
ATOM     25  O   UNL     1      26.825  29.804  45.390  1.00  0.00    -0.507 OA
ATOM     26  H   UNL     1      27.183  29.109  44.745  1.00  0.00     0.293 HD
ENDBRANCH   5  25
BRANCH   7  27
ATOM     27  O   UNL     1      29.172  28.479  49.362  1.00  0.00    -0.507 OA
ATOM     28  H   UNL     1      28.770  28.244  50.258  1.00  0.00     0.293 HD
ENDBRANCH   7  27
TORSDOF 7
ENDMDL
MODEL 3
REMARK VINA RESULT:    26.874      1.603      7.270
REMARK INTER + INTRA:          32.787
REMARK INTER:                  33.153
REMARK INTRA:                  -0.367
REMARK UNBOUND:                -0.371
REMARK SMILES Oc1cc(O)c2cc(O)c(-c3cc(O)c(O)c(O)c3)[o+]c2c1
REMARK SMILES IDX 10 1 20 2 21 3 22 4 2 5 3 6 4 7 6 8 7 9 8 10 11 11 12 12
REMARK SMILES IDX 13 13 19 14 15 15 17 16 14 17 16 19 18 21 9 23 1 25 5 27
REMARK H PARENT 14 18 16 20 18 22 9 24 1 26 5 28
REMARK Flexibility Score: inf
ROOT
ATOM      1  C   UNL     1      29.037  34.135  49.212  1.00  0.00     0.402 A 
ATOM      2  O   UNL     1      27.902  34.751  49.530  1.00  0.00    -0.202 OA
ATOM      3  C   UNL     1      27.830  36.046  49.821  1.00  0.00     0.368 A 
ATOM      4  C   UNL     1      26.590  36.604  50.141  1.00  0.00     0.162 A 
ATOM      5  C   UNL     1      26.486  37.964  50.447  1.00  0.00     0.128 A 
ATOM      6  C   UNL     1      27.628  38.769  50.431  1.00  0.00     0.093 A 
ATOM      7  C   UNL     1      28.883  38.234  50.114  1.00  0.00     0.136 A 
ATOM      8  C   UNL     1      28.994  36.854  49.805  1.00  0.00     0.125 A 
ATOM      9  C   UNL     1      30.211  36.229  49.488  1.00  0.00     0.078 A 
ATOM     10  C   UNL     1      30.242  34.861  49.200  1.00  0.00     0.223 A 
ENDROOT
BRANCH   1  11
ATOM     11  C   UNL     1      28.985  32.688  48.899  1.00  0.00     0.091 A 
ATOM     12  C   UNL     1      29.239  31.753  49.914  1.00  0.00     0.068 A 
ATOM     13  C   UNL     1      29.177  30.381  49.652  1.00  0.00     0.162 A 
ATOM     14  C   UNL     1      28.633  32.229  47.619  1.00  0.00     0.068 A 
ATOM     15  C   UNL     1      28.845  29.926  48.365  1.00  0.00     0.200 A 
ATOM     16  C   UNL     1      28.567  30.855  47.347  1.00  0.00     0.162 A 
BRANCH  13  17
ATOM     17  O   UNL     1      29.450  29.484  50.685  1.00  0.00    -0.504 OA
ATOM     18  H   UNL     1      28.740  29.189  51.344  1.00  0.00     0.293 HD
ENDBRANCH  13  17
BRANCH  15  19
ATOM     19  O   UNL     1      28.789  28.555  48.111  1.00  0.00    -0.502 OA
ATOM     20  H   UNL     1      28.318  27.909  48.732  1.00  0.00     0.293 HD
ENDBRANCH  15  19
BRANCH  16  21
ATOM     21  O   UNL     1      28.221  30.411  46.072  1.00  0.00    -0.504 OA
ATOM     22  H   UNL     1      27.431  30.798  45.570  1.00  0.00     0.293 HD
ENDBRANCH  16  21
ENDBRANCH   1  11
BRANCH  10  23
ATOM     23  O   UNL     1      31.457  34.230  48.933  1.00  0.00    -0.500 OA
ATOM     24  H   UNL     1      32.088  34.569  48.216  1.00  0.00     0.294 HD
ENDBRANCH  10  23
BRANCH   5  25
ATOM     25  O   UNL     1      25.253  38.527  50.767  1.00  0.00    -0.507 OA
ATOM     26  H   UNL     1      24.588  38.787  50.048  1.00  0.00     0.293 HD
ENDBRANCH   5  25
BRANCH   7  27
ATOM     27  O   UNL     1      29.974  39.107  50.118  1.00  0.00    -0.507 OA
ATOM     28  H   UNL     1      30.058  39.919  49.524  1.00  0.00     0.293 HD
ENDBRANCH   7  27
TORSDOF 7
ENDMDL
MODEL 4
REMARK VINA RESULT:    27.384      2.047      3.335
REMARK INTER + INTRA:          33.417
REMARK INTER:                  33.270
REMARK INTRA:                   0.146
REMARK UNBOUND:                -0.371
REMARK SMILES Oc1cc(O)c2cc(O)c(-c3cc(O)c(O)c(O)c3)[o+]c2c1
REMARK SMILES IDX 10 1 20 2 21 3 22 4 2 5 3 6 4 7 6 8 7 9 8 10 11 11 12 12
REMARK SMILES IDX 13 13 19 14 15 15 17 16 14 17 16 19 18 21 9 23 1 25 5 27
REMARK H PARENT 14 18 16 20 18 22 9 24 1 26 5 28
REMARK Flexibility Score: inf
ROOT
ATOM      1  C   UNL     1      28.405  34.098  49.169  1.00  0.00     0.402 A 
ATOM      2  O   UNL     1      27.957  33.361  48.156  1.00  0.00    -0.202 OA
ATOM      3  C   UNL     1      28.380  32.125  47.909  1.00  0.00     0.368 A 
ATOM      4  C   UNL     1      27.847  31.428  46.821  1.00  0.00     0.162 A 
ATOM      5  C   UNL     1      28.272  30.127  46.541  1.00  0.00     0.128 A 
ATOM      6  C   UNL     1      29.232  29.518  47.352  1.00  0.00     0.093 A 
ATOM      7  C   UNL     1      29.783  30.195  48.448  1.00  0.00     0.136 A 
ATOM      8  C   UNL     1      29.356  31.518  48.736  1.00  0.00     0.125 A 
ATOM      9  C   UNL     1      29.861  32.277  49.804  1.00  0.00     0.078 A 
ATOM     10  C   UNL     1      29.396  33.577  50.021  1.00  0.00     0.223 A 
ENDROOT
BRANCH   1  11
ATOM     11  C   UNL     1      27.848  35.458  49.345  1.00  0.00     0.091 A 
ATOM     12  C   UNL     1      27.387  36.166  48.225  1.00  0.00     0.068 A 
ATOM     13  C   UNL     1      26.838  37.444  48.364  1.00  0.00     0.162 A 
ATOM     14  C   UNL     1      27.718  36.036  50.619  1.00  0.00     0.068 A 
ATOM     15  C   UNL     1      26.730  38.028  49.637  1.00  0.00     0.200 A 
ATOM     16  C   UNL     1      27.168  37.317  50.769  1.00  0.00     0.162 A 
BRANCH  13  17
ATOM     17  O   UNL     1      26.405  38.120  47.223  1.00  0.00    -0.504 OA
ATOM     18  H   UNL     1      26.168  39.105  47.237  1.00  0.00     0.293 HD
ENDBRANCH  13  17
BRANCH  15  19
ATOM     19  O   UNL     1      26.183  39.305  49.768  1.00  0.00    -0.502 OA
ATOM     20  H   UNL     1      26.608  40.017  50.349  1.00  0.00     0.293 HD
ENDBRANCH  15  19
BRANCH  16  21
ATOM     21  O   UNL     1      27.050  37.882  52.037  1.00  0.00    -0.504 OA
ATOM     22  H   UNL     1      26.812  37.324  52.848  1.00  0.00     0.293 HD
ENDBRANCH  16  21
ENDBRANCH   1  11
BRANCH  10  23
ATOM     23  O   UNL     1      29.933  34.349  51.052  1.00  0.00    -0.500 OA
ATOM     24  H   UNL     1      29.490  35.208  51.360  1.00  0.00     0.294 HD
ENDBRANCH  10  23
BRANCH   5  25
ATOM     25  O   UNL     1      27.744  29.426  45.458  1.00  0.00    -0.507 OA
ATOM     26  H   UNL     1      28.219  28.620  45.068  1.00  0.00     0.293 HD
ENDBRANCH   5  25
BRANCH   7  27
ATOM     27  O   UNL     1      30.736  29.516  49.212  1.00  0.00    -0.507 OA
ATOM     28  H   UNL     1      31.634  29.896  49.472  1.00  0.00     0.293 HD
ENDBRANCH   7  27
TORSDOF 7
ENDMDL
