MODEL 1
REMARK VINA RESULT:    -5.506      0.000      0.000
REMARK INTER + INTRA:          -5.667
REMARK INTER:                  -5.667
REMARK INTRA:                   0.000
REMARK UNBOUND:                 0.000
REMARK SMILES CC1(C)CC[C@@]2(C)CC[C@]3(C)C(=CC[C@H]4[C@]5(C)CC[C@@H](O)C(C)(C)[C@@H]5CC[C@]43C)[C@H]2C1
REMARK SMILES IDX 1 1 2 2 4 3 5 4 6 5 8 6 9 7 10 8 12 9 13 10 14 11 15 12
REMARK SMILES IDX 28 13 27 14 26 15 25 16 16 17 18 18 19 19 20 20 22 21 23 22
REMARK SMILES IDX 24 23 17 24 29 25 30 26 31 27 11 28 7 29 3 30 21 31
REMARK H PARENT 21 32
REMARK Flexibility Score: inf
ROOT
ATOM      1  C   UNL     1     137.223 124.128 136.254  1.00  0.00     0.011 C 
ATOM      2  C   UNL     1     137.103 125.517 135.589  1.00  0.00    -0.035 C 
ATOM      3  C   UNL     1     136.167 125.403 134.334  1.00  0.00     0.007 C 
ATOM      4  C   UNL     1     134.940 126.341 134.373  1.00  0.00     0.008 C 
ATOM      5  C   UNL     1     135.327 127.815 134.677  1.00  0.00    -0.026 C 
ATOM      6  C   UNL     1     134.011 128.651 134.760  1.00  0.00     0.008 C 
ATOM      7  C   UNL     1     134.197 130.102 135.307  1.00  0.00     0.012 C 
ATOM      8  C   UNL     1     135.122 130.246 136.587  1.00  0.00    -0.006 C 
ATOM      9  C   UNL     1     135.399 128.824 137.063  1.00  0.00    -0.064 C 
ATOM     10  C   UNL     1     134.589 128.296 137.985  1.00  0.00    -0.027 C 
ATOM     11  C   UNL     1     133.297 128.908 138.423  1.00  0.00     0.032 C 
ATOM     12  C   UNL     1     133.151 130.471 138.363  1.00  0.00     0.006 C 
ATOM     13  C   UNL     1     134.428 131.164 137.730  1.00  0.00    -0.020 C 
ATOM     14  C   UNL     1     135.430 131.506 138.909  1.00  0.00     0.008 C 
ATOM     15  C   UNL     1     135.219 130.721 140.222  1.00  0.00     0.005 C 
ATOM     16  C   UNL     1     133.790 130.832 140.867  1.00  0.00     0.003 C 
ATOM     17  C   UNL     1     132.667 131.062 139.780  1.00  0.00    -0.025 C 
ATOM     18  C   UNL     1     132.243 132.587 139.713  1.00  0.00     0.010 C 
ATOM     19  C   UNL     1     133.136 133.661 140.384  1.00  0.00     0.033 C 
ATOM     20  C   UNL     1     133.967 133.250 141.631  1.00  0.00     0.120 C 
ATOM     21  C   UNL     1     133.730 131.798 142.111  1.00  0.00    -0.006 C 
ATOM     22  C   UNL     1     134.830 131.384 143.145  1.00  0.00     0.014 C 
ATOM     23  C   UNL     1     132.369 131.702 142.860  1.00  0.00     0.014 C 
ATOM     24  C   UNL     1     131.361 130.275 140.170  1.00  0.00     0.012 C 
ATOM     25  C   UNL     1     133.989 132.507 137.017  1.00  0.00     0.012 C 
ATOM     26  C   UNL     1     136.136 127.905 136.045  1.00  0.00     0.022 C 
ATOM     27  C   UNL     1     136.516 126.506 136.628  1.00  0.00     0.015 C 
ATOM     28  C   UNL     1     136.503 130.879 136.176  1.00  0.00     0.017 C 
ATOM     29  C   UNL     1     136.145 128.339 133.456  1.00  0.00     0.012 C 
ATOM     30  C   UNL     1     138.534 125.951 135.182  1.00  0.00     0.011 C 
ENDROOT
BRANCH  20  31
ATOM     31  O   UNL     1     133.722 134.163 142.675  1.00  0.00    -0.393 OA
ATOM     32  H   UNL     1     134.598 134.485 143.021  1.00  0.00     0.210 HD
ENDBRANCH  20  31
TORSDOF 1
ENDMDL
