MODEL 1
REMARK VINA RESULT:    -3.623      0.000      0.000
REMARK INTER + INTRA:          -7.082
REMARK INTER:                  -5.741
REMARK INTRA:                  -1.342
REMARK UNBOUND:                -1.342
REMARK SMILES CCCCCCCCCCCC(=O)[O-]
REMARK SMILES IDX 7 1 8 2 9 3 10 4 11 5 12 6 13 7 14 8 6 9 5 10 4 11 3 12 2 13
REMARK SMILES IDX 1 14
REMARK H PARENT
REMARK Flexibility Score: inf
ROOT
ATOM      1  C   UNL     1       2.626   1.091  -5.224  1.00  0.00     0.000 C 
ENDROOT
BRANCH   1   2
ATOM      2  C   UNL     1       3.934   1.384  -5.978  1.00  0.00     0.000 C 
BRANCH   2   3
ATOM      3  C   UNL     1       3.790   1.222  -7.499  1.00  0.00     0.000 C 
BRANCH   3   4
ATOM      4  C   UNL     1       2.394   1.650  -7.966  1.00  0.00     0.006 C 
BRANCH   4   5
ATOM      5  C   UNL     1       1.835   0.670  -9.002  1.00  0.00     0.053 C 
BRANCH   5   6
ATOM      6  C   UNL     1       0.360   0.499  -8.821  1.00  0.00     0.041 C 
ATOM      7  O   UNL     1      -0.361   1.488  -8.527  1.00  0.00    -0.550 OA
ATOM      8  O   UNL     1      -0.212  -0.762  -8.929  1.00  0.00    -0.550 OA
ENDBRANCH   5   6
ENDBRANCH   4   5
ENDBRANCH   3   4
ENDBRANCH   2   3
ENDBRANCH   1   2
BRANCH   1   9
ATOM      9  C   UNL     1       2.840   0.179  -4.004  1.00  0.00     0.000 C 
BRANCH   9  10
ATOM     10  C   UNL     1       4.327  -0.105  -3.739  1.00  0.00    -0.000 C 
BRANCH  10  11
ATOM     11  C   UNL     1       4.689  -1.589  -3.932  1.00  0.00    -0.000 C 
BRANCH  11  12
ATOM     12  C   UNL     1       3.608  -2.353  -4.724  1.00  0.00    -0.000 C 
BRANCH  12  13
ATOM     13  C   UNL     1       3.905  -2.457  -6.230  1.00  0.00    -0.003 C 
ATOM     14  C   UNL     1       2.646  -2.407  -7.093  1.00  0.00     0.004 C 
ENDBRANCH  12  13
ENDBRANCH  11  12
ENDBRANCH  10  11
ENDBRANCH   9  10
ENDBRANCH   1   9
TORSDOF 10
ENDMDL
MODEL 2
REMARK VINA RESULT:    -3.583      0.915      2.968
REMARK INTER + INTRA:          -7.019
REMARK INTER:                  -5.552
REMARK INTRA:                  -1.467
REMARK UNBOUND:                -1.342
REMARK SMILES CCCCCCCCCCCC(=O)[O-]
REMARK SMILES IDX 7 1 8 2 9 3 10 4 11 5 12 6 13 7 14 8 6 9 5 10 4 11 3 12 2 13
REMARK SMILES IDX 1 14
REMARK H PARENT
REMARK Flexibility Score: inf
ROOT
ATOM      1  C   UNL     1       3.243  -2.034  -4.953  1.00  0.00     0.000 C 
ENDROOT
BRANCH   1   2
ATOM      2  C   UNL     1       3.826  -2.514  -6.292  1.00  0.00     0.000 C 
BRANCH   2   3
ATOM      3  C   UNL     1       3.682  -1.470  -7.409  1.00  0.00     0.000 C 
BRANCH   3   4
ATOM      4  C   UNL     1       2.276  -1.513  -8.020  1.00  0.00     0.006 C 
BRANCH   4   5
ATOM      5  C   UNL     1       1.944  -0.196  -8.730  1.00  0.00     0.053 C 
BRANCH   5   6
ATOM      6  C   UNL     1       0.466   0.033  -8.744  1.00  0.00     0.041 C 
ATOM      7  O   UNL     1      -0.000   1.176  -8.498  1.00  0.00    -0.550 OA
ATOM      8  O   UNL     1      -0.400  -1.026  -8.984  1.00  0.00    -0.550 OA
ENDBRANCH   5   6
ENDBRANCH   4   5
ENDBRANCH   3   4
ENDBRANCH   2   3
ENDBRANCH   1   2
BRANCH   1   9
ATOM      9  C   UNL     1       4.256  -1.224  -4.124  1.00  0.00     0.000 C 
BRANCH   9  10
ATOM     10  C   UNL     1       3.802   0.228  -3.903  1.00  0.00    -0.000 C 
BRANCH  10  11
ATOM     11  C   UNL     1       2.429   0.520  -4.535  1.00  0.00    -0.000 C 
BRANCH  11  12
ATOM     12  C   UNL     1       2.494   1.667  -5.564  1.00  0.00    -0.000 C 
BRANCH  12  13
ATOM     13  C   UNL     1       3.904   2.256  -5.741  1.00  0.00    -0.003 C 
ATOM     14  C   UNL     1       4.407   2.185  -7.181  1.00  0.00     0.004 C 
ENDBRANCH  12  13
ENDBRANCH  11  12
ENDBRANCH  10  11
ENDBRANCH   9  10
ENDBRANCH   1   9
TORSDOF 10
ENDMDL
MODEL 3
REMARK VINA RESULT:    -3.522      0.920      1.649
REMARK INTER + INTRA:          -6.922
REMARK INTER:                  -5.812
REMARK INTRA:                  -1.110
REMARK UNBOUND:                -1.342
REMARK SMILES CCCCCCCCCCCC(=O)[O-]
REMARK SMILES IDX 7 1 8 2 9 3 10 4 11 5 12 6 13 7 14 8 6 9 5 10 4 11 3 12 2 13
REMARK SMILES IDX 1 14
REMARK H PARENT
REMARK Flexibility Score: inf
ROOT
ATOM      1  C   UNL     1       2.899   0.093  -4.205  1.00  0.00     0.000 C 
ENDROOT
BRANCH   1   2
ATOM      2  C   UNL     1       3.278   1.296  -5.085  1.00  0.00     0.000 C 
BRANCH   2   3
ATOM      3  C   UNL     1       2.152   1.703  -6.048  1.00  0.00     0.000 C 
BRANCH   3   4
ATOM      4  C   UNL     1       2.351   1.058  -7.426  1.00  0.00     0.006 C 
BRANCH   4   5
ATOM      5  C   UNL     1       1.652   1.871  -8.520  1.00  0.00     0.053 C 
BRANCH   5   6
ATOM      6  C   UNL     1       0.201   1.516  -8.590  1.00  0.00     0.041 C 
ATOM      7  O   UNL     1      -0.677   2.384  -8.345  1.00  0.00    -0.550 OA
ATOM      8  O   UNL     1      -0.182   0.213  -8.882  1.00  0.00    -0.550 OA
ENDBRANCH   5   6
ENDBRANCH   4   5
ENDBRANCH   3   4
ENDBRANCH   2   3
ENDBRANCH   1   2
BRANCH   1   9
ATOM      9  C   UNL     1       4.073  -0.881  -3.999  1.00  0.00     0.000 C 
BRANCH   9  10
ATOM     10  C   UNL     1       3.815  -2.251  -4.646  1.00  0.00    -0.000 C 
BRANCH  10  11
ATOM     11  C   UNL     1       4.750  -2.527  -5.837  1.00  0.00    -0.000 C 
BRANCH  11  12
ATOM     12  C   UNL     1       4.002  -2.486  -7.186  1.00  0.00    -0.000 C 
BRANCH  12  13
ATOM     13  C   UNL     1       2.472  -2.557  -7.043  1.00  0.00    -0.003 C 
ATOM     14  C   UNL     1       1.749  -2.652  -8.385  1.00  0.00     0.004 C 
ENDBRANCH  12  13
ENDBRANCH  11  12
ENDBRANCH  10  11
ENDBRANCH   9  10
ENDBRANCH   1   9
TORSDOF 10
ENDMDL
MODEL 4
REMARK VINA RESULT:    -3.520      2.152      3.616
REMARK INTER + INTRA:          -6.919
REMARK INTER:                  -5.843
REMARK INTRA:                  -1.076
REMARK UNBOUND:                -1.342
REMARK SMILES CCCCCCCCCCCC(=O)[O-]
REMARK SMILES IDX 7 1 8 2 9 3 10 4 11 5 12 6 13 7 14 8 6 9 5 10 4 11 3 12 2 13
REMARK SMILES IDX 1 14
REMARK H PARENT
REMARK Flexibility Score: inf
ROOT
ATOM      1  C   UNL     1       4.787  -1.343  -3.574  1.00  0.00     0.000 C 
ENDROOT
BRANCH   1   2
ATOM      2  C   UNL     1       4.351   0.101  -3.870  1.00  0.00     0.000 C 
BRANCH   2   3
ATOM      3  C   UNL     1       2.844   0.220  -4.147  1.00  0.00     0.000 C 
BRANCH   3   4
ATOM      4  C   UNL     1       2.587   0.935  -5.479  1.00  0.00     0.006 C 
BRANCH   4   5
ATOM      5  C   UNL     1       3.444   2.200  -5.598  1.00  0.00     0.053 C 
BRANCH   5   6
ATOM      6  C   UNL     1       2.638   3.328  -6.158  1.00  0.00     0.041 C 
ATOM      7  O   UNL     1       2.253   3.298  -7.357  1.00  0.00    -0.550 OA
ATOM      8  O   UNL     1       2.351   4.436  -5.371  1.00  0.00    -0.550 OA
ENDBRANCH   5   6
ENDBRANCH   4   5
ENDBRANCH   3   4
ENDBRANCH   2   3
ENDBRANCH   1   2
BRANCH   1   9
ATOM      9  C   UNL     1       4.105  -2.368  -4.498  1.00  0.00     0.000 C 
BRANCH   9  10
ATOM     10  C   UNL     1       4.973  -2.726  -5.714  1.00  0.00    -0.000 C 
BRANCH  10  11
ATOM     11  C   UNL     1       4.296  -2.370  -7.050  1.00  0.00    -0.000 C 
BRANCH  11  12
ATOM     12  C   UNL     1       2.759  -2.492  -6.973  1.00  0.00    -0.000 C 
BRANCH  12  13
ATOM     13  C   UNL     1       2.025  -1.735  -8.093  1.00  0.00    -0.003 C 
ATOM     14  C   UNL     1       0.897  -2.547  -8.725  1.00  0.00     0.004 C 
ENDBRANCH  12  13
ENDBRANCH  11  12
ENDBRANCH  10  11
ENDBRANCH   9  10
ENDBRANCH   1   9
TORSDOF 10
ENDMDL
MODEL 5
REMARK VINA RESULT:    -3.518      2.475      3.257
REMARK INTER + INTRA:          -6.917
REMARK INTER:                  -5.845
REMARK INTRA:                  -1.071
REMARK UNBOUND:                -1.342
REMARK SMILES CCCCCCCCCCCC(=O)[O-]
REMARK SMILES IDX 7 1 8 2 9 3 10 4 11 5 12 6 13 7 14 8 6 9 5 10 4 11 3 12 2 13
REMARK SMILES IDX 1 14
REMARK H PARENT
REMARK Flexibility Score: inf
ROOT
ATOM      1  C   UNL     1       2.907   0.139  -3.889  1.00  0.00     0.000 C 
ENDROOT
BRANCH   1   2
ATOM      2  C   UNL     1       2.532   1.093  -5.035  1.00  0.00     0.000 C 
BRANCH   2   3
ATOM      3  C   UNL     1       3.750   1.829  -5.615  1.00  0.00     0.000 C 
BRANCH   3   4
ATOM      4  C   UNL     1       3.348   3.201  -6.169  1.00  0.00     0.006 C 
BRANCH   4   5
ATOM      5  C   UNL     1       1.824   3.341  -6.239  1.00  0.00     0.053 C 
BRANCH   5   6
ATOM      6  C   UNL     1       1.412   4.747  -5.935  1.00  0.00     0.041 C 
ATOM      7  O   UNL     1       1.958   5.376  -4.992  1.00  0.00    -0.550 OA
ATOM      8  O   UNL     1       0.392   5.345  -6.663  1.00  0.00    -0.550 OA
ENDBRANCH   5   6
ENDBRANCH   4   5
ENDBRANCH   3   4
ENDBRANCH   2   3
ENDBRANCH   1   2
BRANCH   1   9
ATOM      9  C   UNL     1       4.411  -0.183  -3.856  1.00  0.00     0.000 C 
BRANCH   9  10
ATOM     10  C   UNL     1       4.685  -1.695  -3.848  1.00  0.00    -0.000 C 
BRANCH  10  11
ATOM     11  C   UNL     1       3.645  -2.488  -4.660  1.00  0.00    -0.000 C 
BRANCH  11  12
ATOM     12  C   UNL     1       3.921  -2.425  -6.177  1.00  0.00    -0.000 C 
BRANCH  12  13
ATOM     13  C   UNL     1       2.645  -2.440  -7.036  1.00  0.00    -0.003 C 
ATOM     14  C   UNL     1       2.504  -1.203  -7.920  1.00  0.00     0.004 C 
ENDBRANCH  12  13
ENDBRANCH  11  12
ENDBRANCH  10  11
ENDBRANCH   9  10
ENDBRANCH   1   9
TORSDOF 10
ENDMDL
MODEL 6
REMARK VINA RESULT:    -3.417      2.424      2.854
REMARK INTER + INTRA:          -6.756
REMARK INTER:                  -5.551
REMARK INTRA:                  -1.205
REMARK UNBOUND:                -1.342
REMARK SMILES CCCCCCCCCCCC(=O)[O-]
REMARK SMILES IDX 7 1 8 2 9 3 10 4 11 5 12 6 13 7 14 8 6 9 5 10 4 11 3 12 2 13
REMARK SMILES IDX 1 14
REMARK H PARENT
REMARK Flexibility Score: inf
ROOT
ATOM      1  C   UNL     1       2.357   1.115  -5.152  1.00  0.00     0.000 C 
ENDROOT
BRANCH   1   2
ATOM      2  C   UNL     1       3.534   1.409  -6.095  1.00  0.00     0.000 C 
BRANCH   2   3
ATOM      3  C   UNL     1       3.099   2.132  -7.379  1.00  0.00     0.000 C 
BRANCH   3   4
ATOM      4  C   UNL     1       1.616   2.516  -7.315  1.00  0.00     0.006 C 
BRANCH   4   5
ATOM      5  C   UNL     1       1.431   4.028  -7.478  1.00  0.00     0.053 C 
BRANCH   5   6
ATOM      6  C   UNL     1       1.176   4.670  -6.151  1.00  0.00     0.041 C 
ATOM      7  O   UNL     1       2.092   4.733  -5.290  1.00  0.00    -0.550 OA
ATOM      8  O   UNL     1      -0.089   5.158  -5.847  1.00  0.00    -0.550 OA
ENDBRANCH   5   6
ENDBRANCH   4   5
ENDBRANCH   3   4
ENDBRANCH   2   3
ENDBRANCH   1   2
BRANCH   1   9
ATOM      9  C   UNL     1       2.758   0.218  -3.968  1.00  0.00     0.000 C 
BRANCH   9  10
ATOM     10  C   UNL     1       4.280   0.030  -3.867  1.00  0.00    -0.000 C 
BRANCH  10  11
ATOM     11  C   UNL     1       4.701  -1.447  -3.971  1.00  0.00    -0.000 C 
BRANCH  11  12
ATOM     12  C   UNL     1       3.648  -2.302  -4.707  1.00  0.00    -0.000 C 
BRANCH  12  13
ATOM     13  C   UNL     1       3.932  -2.468  -6.210  1.00  0.00    -0.003 C 
ATOM     14  C   UNL     1       2.713  -2.182  -7.084  1.00  0.00     0.004 C 
ENDBRANCH  12  13
ENDBRANCH  11  12
ENDBRANCH  10  11
ENDBRANCH   9  10
ENDBRANCH   1   9
TORSDOF 10
ENDMDL
MODEL 7
REMARK VINA RESULT:    -3.378      2.002      3.552
REMARK INTER + INTRA:          -6.694
REMARK INTER:                  -5.338
REMARK INTRA:                  -1.357
REMARK UNBOUND:                -1.342
REMARK SMILES CCCCCCCCCCCC(=O)[O-]
REMARK SMILES IDX 7 1 8 2 9 3 10 4 11 5 12 6 13 7 14 8 6 9 5 10 4 11 3 12 2 13
REMARK SMILES IDX 1 14
REMARK H PARENT
REMARK Flexibility Score: inf
ROOT
ATOM      1  C   UNL     1       2.259  -1.145  -7.958  1.00  0.00     0.000 C 
ENDROOT
BRANCH   1   2
ATOM      2  C   UNL     1       3.560  -0.353  -8.163  1.00  0.00     0.000 C 
BRANCH   2   3
ATOM      3  C   UNL     1       3.417   1.130  -7.785  1.00  0.00     0.000 C 
BRANCH   3   4
ATOM      4  C   UNL     1       2.022   1.417  -7.216  1.00  0.00     0.006 C 
BRANCH   4   5
ATOM      5  C   UNL     1       2.110   2.273  -5.949  1.00  0.00     0.053 C 
BRANCH   5   6
ATOM      6  C   UNL     1       1.740   3.692  -6.248  1.00  0.00     0.041 C 
ATOM      7  O   UNL     1       2.016   4.605  -5.427  1.00  0.00    -0.550 OA
ATOM      8  O   UNL     1       1.047   3.999  -7.412  1.00  0.00    -0.550 OA
ENDBRANCH   5   6
ENDBRANCH   4   5
ENDBRANCH   3   4
ENDBRANCH   2   3
ENDBRANCH   1   2
BRANCH   1   9
ATOM      9  C   UNL     1       2.494  -2.495  -7.256  1.00  0.00     0.000 C 
BRANCH   9  10
ATOM     10  C   UNL     1       3.708  -2.460  -6.315  1.00  0.00    -0.000 C 
BRANCH  10  11
ATOM     11  C   UNL     1       3.308  -2.286  -4.839  1.00  0.00    -0.000 C 
BRANCH  11  12
ATOM     12  C   UNL     1       3.255  -0.801  -4.422  1.00  0.00    -0.000 C 
BRANCH  12  13
ATOM     13  C   UNL     1       4.514  -0.325  -3.678  1.00  0.00    -0.003 C 
ATOM     14  C   UNL     1       5.125   0.937  -4.282  1.00  0.00     0.004 C 
ENDBRANCH  12  13
ENDBRANCH  11  12
ENDBRANCH  10  11
ENDBRANCH   9  10
ENDBRANCH   1   9
TORSDOF 10
ENDMDL
MODEL 8
REMARK VINA RESULT:    -3.320      1.176      2.827
REMARK INTER + INTRA:          -6.602
REMARK INTER:                  -5.421
REMARK INTRA:                  -1.181
REMARK UNBOUND:                -1.342
REMARK SMILES CCCCCCCCCCCC(=O)[O-]
REMARK SMILES IDX 7 1 8 2 9 3 10 4 11 5 12 6 13 7 14 8 6 9 5 10 4 11 3 12 2 13
REMARK SMILES IDX 1 14
REMARK H PARENT
REMARK Flexibility Score: inf
ROOT
ATOM      1  C   UNL     1       2.416  -1.287  -7.974  1.00  0.00     0.000 C 
ENDROOT
BRANCH   1   2
ATOM      2  C   UNL     1       3.617  -0.337  -7.845  1.00  0.00     0.000 C 
BRANCH   2   3
ATOM      3  C   UNL     1       3.200   1.139  -7.761  1.00  0.00     0.000 C 
BRANCH   3   4
ATOM      4  C   UNL     1       1.732   1.269  -7.335  1.00  0.00     0.006 C 
BRANCH   4   5
ATOM      5  C   UNL     1       1.134   2.594  -7.820  1.00  0.00     0.053 C 
BRANCH   5   6
ATOM      6  C   UNL     1      -0.223   2.371  -8.409  1.00  0.00     0.041 C 
ATOM      7  O   UNL     1      -0.460   1.334  -9.082  1.00  0.00    -0.550 OA
ATOM      8  O   UNL     1      -1.214   3.333  -8.254  1.00  0.00    -0.550 OA
ENDBRANCH   5   6
ENDBRANCH   4   5
ENDBRANCH   3   4
ENDBRANCH   2   3
ENDBRANCH   1   2
BRANCH   1   9
ATOM      9  C   UNL     1       2.526  -2.509  -7.044  1.00  0.00     0.000 C 
BRANCH   9  10
ATOM     10  C   UNL     1       3.823  -2.500  -6.219  1.00  0.00    -0.000 C 
BRANCH  10  11
ATOM     11  C   UNL     1       3.567  -2.272  -4.718  1.00  0.00    -0.000 C 
BRANCH  11  12
ATOM     12  C   UNL     1       4.680  -1.431  -4.059  1.00  0.00    -0.000 C 
BRANCH  12  13
ATOM     13  C   UNL     1       4.252   0.010  -3.733  1.00  0.00    -0.003 C 
ATOM     14  C   UNL     1       2.778   0.278  -4.030  1.00  0.00     0.004 C 
ENDBRANCH  12  13
ENDBRANCH  11  12
ENDBRANCH  10  11
ENDBRANCH   9  10
ENDBRANCH   1   9
TORSDOF 10
ENDMDL
MODEL 9
REMARK VINA RESULT:    -3.196     16.320     18.061
REMARK INTER + INTRA:          -6.406
REMARK INTER:                  -5.876
REMARK INTRA:                  -0.529
REMARK UNBOUND:                -1.342
REMARK SMILES CCCCCCCCCCCC(=O)[O-]
REMARK SMILES IDX 7 1 8 2 9 3 10 4 11 5 12 6 13 7 14 8 6 9 5 10 4 11 3 12 2 13
REMARK SMILES IDX 1 14
REMARK H PARENT
REMARK Flexibility Score: inf
ROOT
ATOM      1  C   UNL     1      -9.158 -12.850  -2.434  1.00  0.00     0.000 C 
ENDROOT
BRANCH   1   2
ATOM      2  C   UNL     1      -8.137 -13.355  -3.466  1.00  0.00     0.000 C 
BRANCH   2   3
ATOM      3  C   UNL     1      -6.832 -12.544  -3.454  1.00  0.00     0.000 C 
BRANCH   3   4
ATOM      4  C   UNL     1      -5.892 -13.004  -4.575  1.00  0.00     0.006 C 
BRANCH   4   5
ATOM      5  C   UNL     1      -5.715 -11.906  -5.630  1.00  0.00     0.053 C 
BRANCH   5   6
ATOM      6  C   UNL     1      -6.508 -12.227  -6.857  1.00  0.00     0.041 C 
ATOM      7  O   UNL     1      -5.939 -12.708  -7.871  1.00  0.00    -0.550 OA
ATOM      8  O   UNL     1      -7.869 -11.950  -6.897  1.00  0.00    -0.550 OA
ENDBRANCH   5   6
ENDBRANCH   4   5
ENDBRANCH   3   4
ENDBRANCH   2   3
ENDBRANCH   1   2
BRANCH   1   9
ATOM      9  C   UNL     1     -10.547 -13.488  -2.616  1.00  0.00     0.000 C 
BRANCH   9  10
ATOM     10  C   UNL     1     -11.294 -12.923  -3.834  1.00  0.00    -0.000 C 
BRANCH  10  11
ATOM     11  C   UNL     1     -12.823 -12.963  -3.661  1.00  0.00    -0.000 C 
BRANCH  11  12
ATOM     12  C   UNL     1     -13.486 -11.622  -4.038  1.00  0.00    -0.000 C 
BRANCH  12  13
ATOM     13  C   UNL     1     -14.049 -10.852  -2.831  1.00  0.00    -0.003 C 
ATOM     14  C   UNL     1     -13.843 -11.583  -1.506  1.00  0.00     0.004 C 
ENDBRANCH  12  13
ENDBRANCH  11  12
ENDBRANCH  10  11
ENDBRANCH   9  10
ENDBRANCH   1   9
TORSDOF 10
ENDMDL
