MODEL 1
REMARK VINA RESULT:    -4.377      0.000      0.000
REMARK INTER + INTRA:         -14.311
REMARK INTER:                 -10.006
REMARK INTRA:                  -4.305
REMARK UNBOUND:                -4.305
REMARK SMILES CCCCCCCCCCCCCCCCCCCCCCCC(=O)[O-]
REMARK SMILES IDX 13 1 14 2 15 3 16 4 17 5 18 6 19 7 20 8 21 9 22 10 23 11
REMARK SMILES IDX 24 12 25 13 26 14 12 15 11 16 10 17 9 18 8 19 7 20 6 21 5 22
REMARK SMILES IDX 4 23 3 24 2 25 1 26
REMARK H PARENT
REMARK Flexibility Score: inf
ROOT
ATOM      1  C   UNL     1     -18.898 -33.468  17.268  1.00  0.00     0.000 C 
ENDROOT
BRANCH   1   2
ATOM      2  C   UNL     1     -19.434 -32.854  15.964  1.00  0.00     0.000 C 
BRANCH   2   3
ATOM      3  C   UNL     1     -19.431 -33.856  14.798  1.00  0.00     0.000 C 
BRANCH   3   4
ATOM      4  C   UNL     1     -18.528 -33.405  13.639  1.00  0.00     0.000 C 
BRANCH   4   5
ATOM      5  C   UNL     1     -17.167 -34.125  13.637  1.00  0.00     0.000 C 
BRANCH   5   6
ATOM      6  C   UNL     1     -16.014 -33.196  14.048  1.00  0.00     0.000 C 
BRANCH   6   7
ATOM      7  C   UNL     1     -16.426 -31.713  14.046  1.00  0.00     0.000 C 
BRANCH   7   8
ATOM      8  C   UNL     1     -15.628 -30.876  15.059  1.00  0.00     0.000 C 
BRANCH   8   9
ATOM      9  C   UNL     1     -14.360 -31.558  15.607  1.00  0.00     0.000 C 
BRANCH   9  10
ATOM     10  C   UNL     1     -14.204 -31.444  17.139  1.00  0.00     0.006 C 
BRANCH  10  11
ATOM     11  C   UNL     1     -12.923 -32.118  17.648  1.00  0.00     0.053 C 
BRANCH  11  12
ATOM     12  C   UNL     1     -12.690 -31.782  19.086  1.00  0.00     0.041 C 
ATOM     13  O   UNL     1     -13.184 -32.501  19.994  1.00  0.00    -0.550 OA
ATOM     14  O   UNL     1     -11.883 -30.703  19.425  1.00  0.00    -0.550 OA
ENDBRANCH  11  12
ENDBRANCH  10  11
ENDBRANCH   9  10
ENDBRANCH   8   9
ENDBRANCH   7   8
ENDBRANCH   6   7
ENDBRANCH   5   6
ENDBRANCH   4   5
ENDBRANCH   3   4
ENDBRANCH   2   3
ENDBRANCH   1   2
BRANCH   1  15
ATOM     15  C   UNL     1     -17.397 -33.201  17.473  1.00  0.00     0.000 C 
BRANCH  15  16
ATOM     16  C   UNL     1     -17.051 -32.943  18.956  1.00  0.00     0.000 C 
BRANCH  16  17
ATOM     17  C   UNL     1     -17.932 -33.729  19.941  1.00  0.00     0.000 C 
BRANCH  17  18
ATOM     18  C   UNL     1     -18.431 -32.867  21.111  1.00  0.00    -0.000 C 
BRANCH  18  19
ATOM     19  C   UNL     1     -18.732 -31.413  20.704  1.00  0.00    -0.000 C 
BRANCH  19  20
ATOM     20  C   UNL     1     -20.064 -31.199  19.962  1.00  0.00    -0.000 C 
BRANCH  20  21
ATOM     21  C   UNL     1     -19.965 -30.165  18.832  1.00  0.00    -0.000 C 
BRANCH  21  22
ATOM     22  C   UNL     1     -18.694 -29.314  18.976  1.00  0.00    -0.000 C 
BRANCH  22  23
ATOM     23  C   UNL     1     -17.730 -29.472  17.786  1.00  0.00    -0.000 C 
BRANCH  23  24
ATOM     24  C   UNL     1     -16.661 -28.367  17.664  1.00  0.00    -0.000 C 
BRANCH  24  25
ATOM     25  C   UNL     1     -15.713 -28.246  18.869  1.00  0.00    -0.003 C 
ATOM     26  C   UNL     1     -14.250 -28.069  18.462  1.00  0.00     0.004 C 
ENDBRANCH  24  25
ENDBRANCH  23  24
ENDBRANCH  22  23
ENDBRANCH  21  22
ENDBRANCH  20  21
ENDBRANCH  19  20
ENDBRANCH  18  19
ENDBRANCH  17  18
ENDBRANCH  16  17
ENDBRANCH  15  16
ENDBRANCH   1  15
TORSDOF 22
ENDMDL
MODEL 2
REMARK VINA RESULT:    -4.274      1.629      2.368
REMARK INTER + INTRA:         -14.077
REMARK INTER:                 -10.086
REMARK INTRA:                  -3.991
REMARK UNBOUND:                -4.305
REMARK SMILES CCCCCCCCCCCCCCCCCCCCCCCC(=O)[O-]
REMARK SMILES IDX 13 1 14 2 15 3 16 4 17 5 18 6 19 7 20 8 21 9 22 10 23 11
REMARK SMILES IDX 24 12 25 13 26 14 12 15 11 16 10 17 9 18 8 19 7 20 6 21 5 22
REMARK SMILES IDX 4 23 3 24 2 25 1 26
REMARK H PARENT
REMARK Flexibility Score: inf
ROOT
ATOM      1  C   UNL     1     -19.001 -33.511  17.207  1.00  0.00     0.000 C 
ENDROOT
BRANCH   1   2
ATOM      2  C   UNL     1     -19.020 -33.113  15.722  1.00  0.00     0.000 C 
BRANCH   2   3
ATOM      3  C   UNL     1     -17.763 -33.581  14.970  1.00  0.00     0.000 C 
BRANCH   3   4
ATOM      4  C   UNL     1     -17.091 -32.445  14.184  1.00  0.00     0.000 C 
BRANCH   4   5
ATOM      5  C   UNL     1     -16.216 -31.547  15.078  1.00  0.00     0.000 C 
BRANCH   5   6
ATOM      6  C   UNL     1     -14.996 -32.294  15.640  1.00  0.00     0.000 C 
BRANCH   6   7
ATOM      7  C   UNL     1     -14.543 -31.735  17.001  1.00  0.00     0.000 C 
BRANCH   7   8
ATOM      8  C   UNL     1     -14.221 -30.233  16.947  1.00  0.00     0.000 C 
BRANCH   8   9
ATOM      9  C   UNL     1     -14.214 -29.523  18.314  1.00  0.00     0.000 C 
BRANCH   9  10
ATOM     10  C   UNL     1     -12.925 -28.720  18.592  1.00  0.00     0.006 C 
BRANCH  10  11
ATOM     11  C   UNL     1     -11.685 -29.619  18.682  1.00  0.00     0.053 C 
BRANCH  11  12
ATOM     12  C   UNL     1     -10.523 -28.979  17.991  1.00  0.00     0.041 C 
ATOM     13  O   UNL     1      -9.348 -29.200  18.388  1.00  0.00    -0.550 OA
ATOM     14  O   UNL     1     -10.733 -28.178  16.877  1.00  0.00    -0.550 OA
ENDBRANCH  11  12
ENDBRANCH  10  11
ENDBRANCH   9  10
ENDBRANCH   8   9
ENDBRANCH   7   8
ENDBRANCH   6   7
ENDBRANCH   5   6
ENDBRANCH   4   5
ENDBRANCH   3   4
ENDBRANCH   2   3
ENDBRANCH   1   2
BRANCH   1  15
ATOM     15  C   UNL     1     -17.617 -34.002  17.668  1.00  0.00     0.000 C 
BRANCH  15  16
ATOM     16  C   UNL     1     -17.328 -33.624  19.137  1.00  0.00     0.000 C 
BRANCH  16  17
ATOM     17  C   UNL     1     -18.577 -33.633  20.034  1.00  0.00     0.000 C 
BRANCH  17  18
ATOM     18  C   UNL     1     -18.497 -32.610  21.177  1.00  0.00    -0.000 C 
BRANCH  18  19
ATOM     19  C   UNL     1     -18.754 -31.164  20.711  1.00  0.00    -0.000 C 
BRANCH  19  20
ATOM     20  C   UNL     1     -19.970 -30.979  19.785  1.00  0.00    -0.000 C 
BRANCH  20  21
ATOM     21  C   UNL     1     -19.630 -30.230  18.489  1.00  0.00    -0.000 C 
BRANCH  21  22
ATOM     22  C   UNL     1     -18.116 -29.999  18.368  1.00  0.00    -0.000 C 
BRANCH  22  23
ATOM     23  C   UNL     1     -17.750 -28.995  17.261  1.00  0.00    -0.000 C 
BRANCH  23  24
ATOM     24  C   UNL     1     -17.415 -27.573  17.755  1.00  0.00    -0.000 C 
BRANCH  24  25
ATOM     25  C   UNL     1     -17.795 -27.289  19.218  1.00  0.00    -0.003 C 
ATOM     26  C   UNL     1     -16.586 -27.262  20.154  1.00  0.00     0.004 C 
ENDBRANCH  24  25
ENDBRANCH  23  24
ENDBRANCH  22  23
ENDBRANCH  21  22
ENDBRANCH  20  21
ENDBRANCH  19  20
ENDBRANCH  18  19
ENDBRANCH  17  18
ENDBRANCH  16  17
ENDBRANCH  15  16
ENDBRANCH   1  15
TORSDOF 22
ENDMDL
MODEL 3
REMARK VINA RESULT:    -4.263      1.301      2.267
REMARK INTER + INTRA:         -14.050
REMARK INTER:                  -9.911
REMARK INTRA:                  -4.139
REMARK UNBOUND:                -4.305
REMARK SMILES CCCCCCCCCCCCCCCCCCCCCCCC(=O)[O-]
REMARK SMILES IDX 13 1 14 2 15 3 16 4 17 5 18 6 19 7 20 8 21 9 22 10 23 11
REMARK SMILES IDX 24 12 25 13 26 14 12 15 11 16 10 17 9 18 8 19 7 20 6 21 5 22
REMARK SMILES IDX 4 23 3 24 2 25 1 26
REMARK H PARENT
REMARK Flexibility Score: inf
ROOT
ATOM      1  C   UNL     1     -16.769 -32.826  18.096  1.00  0.00     0.000 C 
ENDROOT
BRANCH   1   2
ATOM      2  C   UNL     1     -17.582 -34.072  17.709  1.00  0.00     0.000 C 
BRANCH   2   3
ATOM      3  C   UNL     1     -19.048 -33.740  17.383  1.00  0.00     0.000 C 
BRANCH   3   4
ATOM      4  C   UNL     1     -19.188 -32.866  16.127  1.00  0.00     0.000 C 
BRANCH   4   5
ATOM      5  C   UNL     1     -19.112 -33.685  14.827  1.00  0.00     0.000 C 
BRANCH   5   6
ATOM      6  C   UNL     1     -18.206 -33.028  13.774  1.00  0.00     0.000 C 
BRANCH   6   7
ATOM      7  C   UNL     1     -16.834 -33.716  13.668  1.00  0.00     0.000 C 
BRANCH   7   8
ATOM      8  C   UNL     1     -15.775 -33.069  14.577  1.00  0.00     0.000 C 
BRANCH   8   9
ATOM      9  C   UNL     1     -15.668 -31.537  14.457  1.00  0.00     0.000 C 
BRANCH   9  10
ATOM     10  C   UNL     1     -14.893 -30.874  15.615  1.00  0.00     0.006 C 
BRANCH  10  11
ATOM     11  C   UNL     1     -13.387 -30.786  15.336  1.00  0.00     0.053 C 
BRANCH  11  12
ATOM     12  C   UNL     1     -12.607 -31.309  16.499  1.00  0.00     0.041 C 
ATOM     13  O   UNL     1     -12.242 -30.531  17.420  1.00  0.00    -0.550 OA
ATOM     14  O   UNL     1     -12.325 -32.666  16.592  1.00  0.00    -0.550 OA
ENDBRANCH  11  12
ENDBRANCH  10  11
ENDBRANCH   9  10
ENDBRANCH   8   9
ENDBRANCH   7   8
ENDBRANCH   6   7
ENDBRANCH   5   6
ENDBRANCH   4   5
ENDBRANCH   3   4
ENDBRANCH   2   3
ENDBRANCH   1   2
BRANCH   1  15
ATOM     15  C   UNL     1     -15.313 -33.161  18.462  1.00  0.00     0.000 C 
BRANCH  15  16
ATOM     16  C   UNL     1     -14.980 -32.786  19.922  1.00  0.00     0.000 C 
BRANCH  16  17
ATOM     17  C   UNL     1     -15.793 -33.576  20.962  1.00  0.00     0.000 C 
BRANCH  17  18
ATOM     18  C   UNL     1     -16.598 -32.668  21.904  1.00  0.00    -0.000 C 
BRANCH  18  19
ATOM     19  C   UNL     1     -18.079 -32.543  21.500  1.00  0.00    -0.000 C 
BRANCH  19  20
ATOM     20  C   UNL     1     -18.466 -31.214  20.826  1.00  0.00    -0.000 C 
BRANCH  20  21
ATOM     21  C   UNL     1     -19.821 -31.276  20.107  1.00  0.00    -0.000 C 
BRANCH  21  22
ATOM     22  C   UNL     1     -19.806 -30.420  18.831  1.00  0.00    -0.000 C 
BRANCH  22  23
ATOM     23  C   UNL     1     -18.713 -29.336  18.851  1.00  0.00    -0.000 C 
BRANCH  23  24
ATOM     24  C   UNL     1     -17.721 -29.389  17.671  1.00  0.00    -0.000 C 
BRANCH  24  25
ATOM     25  C   UNL     1     -16.690 -28.249  17.639  1.00  0.00    -0.003 C 
ATOM     26  C   UNL     1     -16.328 -27.732  19.032  1.00  0.00     0.004 C 
ENDBRANCH  24  25
ENDBRANCH  23  24
ENDBRANCH  22  23
ENDBRANCH  21  22
ENDBRANCH  20  21
ENDBRANCH  19  20
ENDBRANCH  18  19
ENDBRANCH  17  18
ENDBRANCH  16  17
ENDBRANCH  15  16
ENDBRANCH   1  15
TORSDOF 22
ENDMDL
MODEL 4
REMARK VINA RESULT:    -4.123      2.643      4.512
REMARK INTER + INTRA:         -13.731
REMARK INTER:                  -9.948
REMARK INTRA:                  -3.783
REMARK UNBOUND:                -4.305
REMARK SMILES CCCCCCCCCCCCCCCCCCCCCCCC(=O)[O-]
REMARK SMILES IDX 13 1 14 2 15 3 16 4 17 5 18 6 19 7 20 8 21 9 22 10 23 11
REMARK SMILES IDX 24 12 25 13 26 14 12 15 11 16 10 17 9 18 8 19 7 20 6 21 5 22
REMARK SMILES IDX 4 23 3 24 2 25 1 26
REMARK H PARENT
REMARK Flexibility Score: inf
ROOT
ATOM      1  C   UNL     1     -17.461 -32.541  21.754  1.00  0.00     0.000 C 
ENDROOT
BRANCH   1   2
ATOM      2  C   UNL     1     -15.939 -32.752  21.786  1.00  0.00     0.000 C 
BRANCH   2   3
ATOM      3  C   UNL     1     -15.463 -33.762  20.728  1.00  0.00     0.000 C 
BRANCH   3   4
ATOM      4  C   UNL     1     -14.266 -33.243  19.916  1.00  0.00     0.000 C 
BRANCH   4   5
ATOM      5  C   UNL     1     -14.306 -33.702  18.448  1.00  0.00     0.000 C 
BRANCH   5   6
ATOM      6  C   UNL     1     -13.489 -32.784  17.525  1.00  0.00     0.000 C 
BRANCH   6   7
ATOM      7  C   UNL     1     -11.973 -32.998  17.679  1.00  0.00     0.000 C 
BRANCH   7   8
ATOM      8  C   UNL     1     -11.245 -31.739  18.177  1.00  0.00     0.000 C 
BRANCH   8   9
ATOM      9  C   UNL     1     -11.750 -30.416  17.570  1.00  0.00     0.000 C 
BRANCH   9  10
ATOM     10  C   UNL     1     -11.012 -29.167  18.097  1.00  0.00     0.006 C 
BRANCH  10  11
ATOM     11  C   UNL     1      -9.566 -29.473  18.509  1.00  0.00     0.053 C 
BRANCH  11  12
ATOM     12  C   UNL     1      -9.314 -29.021  19.912  1.00  0.00     0.041 C 
ATOM     13  O   UNL     1      -8.141 -28.778  20.300  1.00  0.00    -0.550 OA
ATOM     14  O   UNL     1     -10.381 -28.818  20.778  1.00  0.00    -0.550 OA
ENDBRANCH  11  12
ENDBRANCH  10  11
ENDBRANCH   9  10
ENDBRANCH   8   9
ENDBRANCH   7   8
ENDBRANCH   6   7
ENDBRANCH   5   6
ENDBRANCH   4   5
ENDBRANCH   3   4
ENDBRANCH   2   3
ENDBRANCH   1   2
BRANCH   1  15
ATOM     15  C   UNL     1     -18.189 -33.615  20.926  1.00  0.00     0.000 C 
BRANCH  15  16
ATOM     16  C   UNL     1     -19.265 -33.005  20.002  1.00  0.00     0.000 C 
BRANCH  16  17
ATOM     17  C   UNL     1     -19.469 -31.494  20.207  1.00  0.00     0.000 C 
BRANCH  17  18
ATOM     18  C   UNL     1     -19.004 -30.662  19.002  1.00  0.00    -0.000 C 
BRANCH  18  19
ATOM     19  C   UNL     1     -18.223 -31.488  17.963  1.00  0.00    -0.000 C 
BRANCH  19  20
ATOM     20  C   UNL     1     -16.812 -30.967  17.633  1.00  0.00    -0.000 C 
BRANCH  20  21
ATOM     21  C   UNL     1     -16.081 -30.396  18.856  1.00  0.00    -0.000 C 
BRANCH  21  22
ATOM     22  C   UNL     1     -15.055 -29.333  18.436  1.00  0.00    -0.000 C 
BRANCH  22  23
ATOM     23  C   UNL     1     -15.356 -27.944  19.029  1.00  0.00    -0.000 C 
BRANCH  23  24
ATOM     24  C   UNL     1     -16.630 -27.867  19.894  1.00  0.00    -0.000 C 
BRANCH  24  25
ATOM     25  C   UNL     1     -17.805 -27.111  19.252  1.00  0.00    -0.003 C 
ATOM     26  C   UNL     1     -17.879 -27.299  17.736  1.00  0.00     0.004 C 
ENDBRANCH  24  25
ENDBRANCH  23  24
ENDBRANCH  22  23
ENDBRANCH  21  22
ENDBRANCH  20  21
ENDBRANCH  19  20
ENDBRANCH  18  19
ENDBRANCH  17  18
ENDBRANCH  16  17
ENDBRANCH  15  16
ENDBRANCH   1  15
TORSDOF 22
ENDMDL
MODEL 5
REMARK VINA RESULT:    -4.026      2.794      4.856
REMARK INTER + INTRA:         -13.509
REMARK INTER:                  -9.341
REMARK INTRA:                  -4.169
REMARK UNBOUND:                -4.305
REMARK SMILES CCCCCCCCCCCCCCCCCCCCCCCC(=O)[O-]
REMARK SMILES IDX 13 1 14 2 15 3 16 4 17 5 18 6 19 7 20 8 21 9 22 10 23 11
REMARK SMILES IDX 24 12 25 13 26 14 12 15 11 16 10 17 9 18 8 19 7 20 6 21 5 22
REMARK SMILES IDX 4 23 3 24 2 25 1 26
REMARK H PARENT
REMARK Flexibility Score: inf
ROOT
ATOM      1  C   UNL     1     -14.532 -32.675  18.815  1.00  0.00     0.000 C 
ENDROOT
BRANCH   1   2
ATOM      2  C   UNL     1     -13.589 -33.739  18.231  1.00  0.00     0.000 C 
BRANCH   2   3
ATOM      3  C   UNL     1     -12.405 -34.051  19.161  1.00  0.00     0.000 C 
BRANCH   3   4
ATOM      4  C   UNL     1     -11.049 -33.933  18.446  1.00  0.00     0.000 C 
BRANCH   4   5
ATOM      5  C   UNL     1     -10.446 -32.521  18.557  1.00  0.00     0.000 C 
BRANCH   5   6
ATOM      6  C   UNL     1     -10.456 -31.993  20.001  1.00  0.00     0.000 C 
BRANCH   6   7
ATOM      7  C   UNL     1     -10.999 -30.556  20.096  1.00  0.00     0.000 C 
BRANCH   7   8
ATOM      8  C   UNL     1     -11.249 -29.925  18.716  1.00  0.00     0.000 C 
BRANCH   8   9
ATOM      9  C   UNL     1     -12.611 -29.222  18.563  1.00  0.00     0.000 C 
BRANCH   9  10
ATOM     10  C   UNL     1     -13.478 -29.786  17.417  1.00  0.00     0.006 C 
BRANCH  10  11
ATOM     11  C   UNL     1     -12.651 -30.571  16.391  1.00  0.00     0.053 C 
BRANCH  11  12
ATOM     12  C   UNL     1     -13.449 -30.814  15.150  1.00  0.00     0.041 C 
ATOM     13  O   UNL     1     -14.640 -31.219  15.231  1.00  0.00    -0.550 OA
ATOM     14  O   UNL     1     -12.897 -30.545  13.905  1.00  0.00    -0.550 OA
ENDBRANCH  11  12
ENDBRANCH  10  11
ENDBRANCH   9  10
ENDBRANCH   8   9
ENDBRANCH   7   8
ENDBRANCH   6   7
ENDBRANCH   5   6
ENDBRANCH   4   5
ENDBRANCH   3   4
ENDBRANCH   2   3
ENDBRANCH   1   2
BRANCH   1  15
ATOM     15  C   UNL     1     -14.542 -32.676  20.354  1.00  0.00     0.000 C 
BRANCH  15  16
ATOM     16  C   UNL     1     -15.847 -33.272  20.925  1.00  0.00     0.000 C 
BRANCH  16  17
ATOM     17  C   UNL     1     -16.556 -32.352  21.933  1.00  0.00     0.000 C 
BRANCH  17  18
ATOM     18  C   UNL     1     -18.082 -32.339  21.756  1.00  0.00    -0.000 C 
BRANCH  18  19
ATOM     19  C   UNL     1     -18.572 -33.317  20.671  1.00  0.00    -0.000 C 
BRANCH  19  20
ATOM     20  C   UNL     1     -19.638 -32.755  19.713  1.00  0.00    -0.000 C 
BRANCH  20  21
ATOM     21  C   UNL     1     -20.015 -31.298  20.019  1.00  0.00    -0.000 C 
BRANCH  21  22
ATOM     22  C   UNL     1     -19.821 -30.409  18.781  1.00  0.00    -0.000 C 
BRANCH  22  23
ATOM     23  C   UNL     1     -18.809 -30.992  17.778  1.00  0.00    -0.000 C 
BRANCH  23  24
ATOM     24  C   UNL     1     -17.374 -30.445  17.907  1.00  0.00    -0.000 C 
BRANCH  24  25
ATOM     25  C   UNL     1     -17.262 -29.077  18.603  1.00  0.00    -0.003 C 
ATOM     26  C   UNL     1     -16.644 -29.167  19.999  1.00  0.00     0.004 C 
ENDBRANCH  24  25
ENDBRANCH  23  24
ENDBRANCH  22  23
ENDBRANCH  21  22
ENDBRANCH  20  21
ENDBRANCH  19  20
ENDBRANCH  18  19
ENDBRANCH  17  18
ENDBRANCH  16  17
ENDBRANCH  15  16
ENDBRANCH   1  15
TORSDOF 22
ENDMDL
MODEL 6
REMARK VINA RESULT:    -4.022      2.727      4.806
REMARK INTER + INTRA:         -13.500
REMARK INTER:                  -9.387
REMARK INTRA:                  -4.113
REMARK UNBOUND:                -4.305
REMARK SMILES CCCCCCCCCCCCCCCCCCCCCCCC(=O)[O-]
REMARK SMILES IDX 13 1 14 2 15 3 16 4 17 5 18 6 19 7 20 8 21 9 22 10 23 11
REMARK SMILES IDX 24 12 25 13 26 14 12 15 11 16 10 17 9 18 8 19 7 20 6 21 5 22
REMARK SMILES IDX 4 23 3 24 2 25 1 26
REMARK H PARENT
REMARK Flexibility Score: inf
ROOT
ATOM      1  C   UNL     1     -15.084 -33.239  18.771  1.00  0.00     0.000 C 
ENDROOT
BRANCH   1   2
ATOM      2  C   UNL     1     -13.679 -33.774  18.450  1.00  0.00     0.000 C 
BRANCH   2   3
ATOM      3  C   UNL     1     -12.572 -33.003  19.189  1.00  0.00     0.000 C 
BRANCH   3   4
ATOM      4  C   UNL     1     -11.359 -32.713  18.292  1.00  0.00     0.000 C 
BRANCH   4   5
ATOM      5  C   UNL     1     -11.359 -31.273  17.748  1.00  0.00     0.000 C 
BRANCH   5   6
ATOM      6  C   UNL     1     -12.551 -30.453  18.267  1.00  0.00     0.000 C 
BRANCH   6   7
ATOM      7  C   UNL     1     -13.577 -30.146  17.162  1.00  0.00     0.000 C 
BRANCH   7   8
ATOM      8  C   UNL     1     -13.182 -30.749  15.804  1.00  0.00     0.000 C 
BRANCH   8   9
ATOM      9  C   UNL     1     -14.135 -31.841  15.279  1.00  0.00     0.000 C 
BRANCH   9  10
ATOM     10  C   UNL     1     -15.629 -31.465  15.382  1.00  0.00     0.006 C 
BRANCH  10  11
ATOM     11  C   UNL     1     -16.548 -32.690  15.295  1.00  0.00     0.053 C 
BRANCH  11  12
ATOM     12  C   UNL     1     -17.408 -32.616  14.074  1.00  0.00     0.041 C 
ATOM     13  O   UNL     1     -17.015 -31.980  13.060  1.00  0.00    -0.550 OA
ATOM     14  O   UNL     1     -18.621 -33.290  14.037  1.00  0.00    -0.550 OA
ENDBRANCH  11  12
ENDBRANCH  10  11
ENDBRANCH   9  10
ENDBRANCH   8   9
ENDBRANCH   7   8
ENDBRANCH   6   7
ENDBRANCH   5   6
ENDBRANCH   4   5
ENDBRANCH   3   4
ENDBRANCH   2   3
ENDBRANCH   1   2
BRANCH   1  15
ATOM     15  C   UNL     1     -15.117 -32.409  20.067  1.00  0.00     0.000 C 
BRANCH  15  16
ATOM     16  C   UNL     1     -15.729 -33.197  21.245  1.00  0.00     0.000 C 
BRANCH  16  17
ATOM     17  C   UNL     1     -16.649 -32.351  22.141  1.00  0.00     0.000 C 
BRANCH  17  18
ATOM     18  C   UNL     1     -18.138 -32.666  21.931  1.00  0.00    -0.000 C 
BRANCH  18  19
ATOM     19  C   UNL     1     -18.400 -33.546  20.695  1.00  0.00    -0.000 C 
BRANCH  19  20
ATOM     20  C   UNL     1     -19.090 -32.835  19.516  1.00  0.00    -0.000 C 
BRANCH  20  21
ATOM     21  C   UNL     1     -19.932 -31.627  19.951  1.00  0.00    -0.000 C 
BRANCH  21  22
ATOM     22  C   UNL     1     -19.506 -30.360  19.195  1.00  0.00    -0.000 C 
BRANCH  22  23
ATOM     23  C   UNL     1     -18.072 -29.914  19.533  1.00  0.00    -0.000 C 
BRANCH  23  24
ATOM     24  C   UNL     1     -17.089 -29.926  18.345  1.00  0.00    -0.000 C 
BRANCH  24  25
ATOM     25  C   UNL     1     -17.288 -28.789  17.329  1.00  0.00    -0.003 C 
ATOM     26  C   UNL     1     -17.189 -27.400  17.960  1.00  0.00     0.004 C 
ENDBRANCH  24  25
ENDBRANCH  23  24
ENDBRANCH  22  23
ENDBRANCH  21  22
ENDBRANCH  20  21
ENDBRANCH  19  20
ENDBRANCH  18  19
ENDBRANCH  17  18
ENDBRANCH  16  17
ENDBRANCH  15  16
ENDBRANCH   1  15
TORSDOF 22
ENDMDL
MODEL 7
REMARK VINA RESULT:    -4.013      2.197      3.420
REMARK INTER + INTRA:         -13.480
REMARK INTER:                  -9.296
REMARK INTRA:                  -4.184
REMARK UNBOUND:                -4.305
REMARK SMILES CCCCCCCCCCCCCCCCCCCCCCCC(=O)[O-]
REMARK SMILES IDX 13 1 14 2 15 3 16 4 17 5 18 6 19 7 20 8 21 9 22 10 23 11
REMARK SMILES IDX 24 12 25 13 26 14 12 15 11 16 10 17 9 18 8 19 7 20 6 21 5 22
REMARK SMILES IDX 4 23 3 24 2 25 1 26
REMARK H PARENT
REMARK Flexibility Score: inf
ROOT
ATOM      1  C   UNL     1     -14.773 -32.815  19.774  1.00  0.00     0.000 C 
ENDROOT
BRANCH   1   2
ATOM      2  C   UNL     1     -14.788 -33.896  18.682  1.00  0.00     0.000 C 
BRANCH   2   3
ATOM      3  C   UNL     1     -15.994 -33.761  17.737  1.00  0.00     0.000 C 
BRANCH   3   4
ATOM      4  C   UNL     1     -15.574 -33.623  16.265  1.00  0.00     0.000 C 
BRANCH   4   5
ATOM      5  C   UNL     1     -14.976 -32.240  15.950  1.00  0.00     0.000 C 
BRANCH   5   6
ATOM      6  C   UNL     1     -13.511 -32.327  15.494  1.00  0.00     0.000 C 
BRANCH   6   7
ATOM      7  C   UNL     1     -12.533 -31.806  16.561  1.00  0.00     0.000 C 
BRANCH   7   8
ATOM      8  C   UNL     1     -12.796 -30.339  16.940  1.00  0.00     0.000 C 
BRANCH   8   9
ATOM      9  C   UNL     1     -12.781 -30.048  18.453  1.00  0.00     0.000 C 
BRANCH   9  10
ATOM     10  C   UNL     1     -12.162 -28.682  18.819  1.00  0.00     0.006 C 
BRANCH  10  11
ATOM     11  C   UNL     1     -10.933 -28.821  19.727  1.00  0.00     0.053 C 
BRANCH  11  12
ATOM     12  C   UNL     1      -9.888 -29.663  19.068  1.00  0.00     0.041 C 
ATOM     13  O   UNL     1      -9.336 -29.273  18.005  1.00  0.00    -0.550 OA
ATOM     14  O   UNL     1      -9.484 -30.855  19.655  1.00  0.00    -0.550 OA
ENDBRANCH  11  12
ENDBRANCH  10  11
ENDBRANCH   9  10
ENDBRANCH   8   9
ENDBRANCH   7   8
ENDBRANCH   6   7
ENDBRANCH   5   6
ENDBRANCH   4   5
ENDBRANCH   3   4
ENDBRANCH   2   3
ENDBRANCH   1   2
BRANCH   1  15
ATOM     15  C   UNL     1     -15.173 -33.364  21.155  1.00  0.00     0.000 C 
BRANCH  15  16
ATOM     16  C   UNL     1     -16.584 -32.901  21.577  1.00  0.00     0.000 C 
BRANCH  16  17
ATOM     17  C   UNL     1     -17.708 -33.837  21.101  1.00  0.00     0.000 C 
BRANCH  17  18
ATOM     18  C   UNL     1     -18.841 -33.088  20.381  1.00  0.00    -0.000 C 
BRANCH  18  19
ATOM     19  C   UNL     1     -18.563 -31.582  20.223  1.00  0.00    -0.000 C 
BRANCH  19  20
ATOM     20  C   UNL     1     -19.154 -30.933  18.958  1.00  0.00    -0.000 C 
BRANCH  20  21
ATOM     21  C   UNL     1     -18.111 -30.707  17.855  1.00  0.00    -0.000 C 
BRANCH  21  22
ATOM     22  C   UNL     1     -16.792 -30.186  18.445  1.00  0.00    -0.000 C 
BRANCH  22  23
ATOM     23  C   UNL     1     -16.240 -28.962  17.690  1.00  0.00    -0.000 C 
BRANCH  23  24
ATOM     24  C   UNL     1     -15.870 -27.760  18.581  1.00  0.00    -0.000 C 
BRANCH  24  25
ATOM     25  C   UNL     1     -16.896 -27.424  19.677  1.00  0.00    -0.003 C 
ATOM     26  C   UNL     1     -18.276 -27.082  19.117  1.00  0.00     0.004 C 
ENDBRANCH  24  25
ENDBRANCH  23  24
ENDBRANCH  22  23
ENDBRANCH  21  22
ENDBRANCH  20  21
ENDBRANCH  19  20
ENDBRANCH  18  19
ENDBRANCH  17  18
ENDBRANCH  16  17
ENDBRANCH  15  16
ENDBRANCH   1  15
TORSDOF 22
ENDMDL
MODEL 8
REMARK VINA RESULT:    -4.009      2.171      5.996
REMARK INTER + INTRA:         -13.469
REMARK INTER:                  -9.607
REMARK INTRA:                  -3.863
REMARK UNBOUND:                -4.305
REMARK SMILES CCCCCCCCCCCCCCCCCCCCCCCC(=O)[O-]
REMARK SMILES IDX 13 1 14 2 15 3 16 4 17 5 18 6 19 7 20 8 21 9 22 10 23 11
REMARK SMILES IDX 24 12 25 13 26 14 12 15 11 16 10 17 9 18 8 19 7 20 6 21 5 22
REMARK SMILES IDX 4 23 3 24 2 25 1 26
REMARK H PARENT
REMARK Flexibility Score: inf
ROOT
ATOM      1  C   UNL     1     -15.421 -32.892  19.048  1.00  0.00     0.000 C 
ENDROOT
BRANCH   1   2
ATOM      2  C   UNL     1     -15.576 -33.758  20.308  1.00  0.00     0.000 C 
BRANCH   2   3
ATOM      3  C   UNL     1     -15.927 -32.927  21.554  1.00  0.00     0.000 C 
BRANCH   3   4
ATOM      4  C   UNL     1     -17.439 -32.886  21.825  1.00  0.00     0.000 C 
BRANCH   4   5
ATOM      5  C   UNL     1     -18.230 -33.829  20.902  1.00  0.00     0.000 C 
BRANCH   5   6
ATOM      6  C   UNL     1     -19.294 -33.086  20.079  1.00  0.00     0.000 C 
BRANCH   6   7
ATOM      7  C   UNL     1     -19.311 -31.575  20.371  1.00  0.00     0.000 C 
BRANCH   7   8
ATOM      8  C   UNL     1     -19.681 -30.738  19.135  1.00  0.00     0.000 C 
BRANCH   8   9
ATOM      9  C   UNL     1     -18.577 -29.778  18.650  1.00  0.00     0.000 C 
BRANCH   9  10
ATOM     10  C   UNL     1     -17.315 -29.780  19.539  1.00  0.00     0.006 C 
BRANCH  10  11
ATOM     11  C   UNL     1     -16.813 -28.363  19.845  1.00  0.00     0.053 C 
BRANCH  11  12
ATOM     12  C   UNL     1     -15.877 -27.897  18.777  1.00  0.00     0.041 C 
ATOM     13  O   UNL     1     -16.320 -27.296  17.763  1.00  0.00    -0.550 OA
ATOM     14  O   UNL     1     -14.508 -28.080  18.924  1.00  0.00    -0.550 OA
ENDBRANCH  11  12
ENDBRANCH  10  11
ENDBRANCH   9  10
ENDBRANCH   8   9
ENDBRANCH   7   8
ENDBRANCH   6   7
ENDBRANCH   5   6
ENDBRANCH   4   5
ENDBRANCH   3   4
ENDBRANCH   2   3
ENDBRANCH   1   2
BRANCH   1  15
ATOM     15  C   UNL     1     -15.975 -33.579  17.787  1.00  0.00     0.000 C 
BRANCH  15  16
ATOM     16  C   UNL     1     -17.161 -32.801  17.176  1.00  0.00     0.000 C 
BRANCH  16  17
ATOM     17  C   UNL     1     -16.828 -32.122  15.837  1.00  0.00     0.000 C 
BRANCH  17  18
ATOM     18  C   UNL     1     -16.110 -30.775  16.015  1.00  0.00    -0.000 C 
BRANCH  18  19
ATOM     19  C   UNL     1     -14.631 -30.819  15.587  1.00  0.00    -0.000 C 
BRANCH  19  20
ATOM     20  C   UNL     1     -13.611 -30.614  16.722  1.00  0.00    -0.000 C 
BRANCH  20  21
ATOM     21  C   UNL     1     -12.665 -31.808  16.904  1.00  0.00    -0.000 C 
BRANCH  21  22
ATOM     22  C   UNL     1     -11.431 -31.411  17.729  1.00  0.00    -0.000 C 
BRANCH  22  23
ATOM     23  C   UNL     1     -11.793 -30.875  19.126  1.00  0.00    -0.000 C 
BRANCH  23  24
ATOM     24  C   UNL     1     -10.609 -30.299  19.929  1.00  0.00    -0.000 C 
BRANCH  24  25
ATOM     25  C   UNL     1      -9.762 -29.257  19.178  1.00  0.00    -0.003 C 
ATOM     26  C   UNL     1     -10.541 -27.986  18.840  1.00  0.00     0.004 C 
ENDBRANCH  24  25
ENDBRANCH  23  24
ENDBRANCH  22  23
ENDBRANCH  21  22
ENDBRANCH  20  21
ENDBRANCH  19  20
ENDBRANCH  18  19
ENDBRANCH  17  18
ENDBRANCH  16  17
ENDBRANCH  15  16
ENDBRANCH   1  15
TORSDOF 22
ENDMDL
MODEL 9
REMARK VINA RESULT:    -4.006      1.948      4.633
REMARK INTER + INTRA:         -13.464
REMARK INTER:                  -9.644
REMARK INTRA:                  -3.820
REMARK UNBOUND:                -4.305
REMARK SMILES CCCCCCCCCCCCCCCCCCCCCCCC(=O)[O-]
REMARK SMILES IDX 13 1 14 2 15 3 16 4 17 5 18 6 19 7 20 8 21 9 22 10 23 11
REMARK SMILES IDX 24 12 25 13 26 14 12 15 11 16 10 17 9 18 8 19 7 20 6 21 5 22
REMARK SMILES IDX 4 23 3 24 2 25 1 26
REMARK H PARENT
REMARK Flexibility Score: inf
ROOT
ATOM      1  C   UNL     1     -18.129 -31.014  20.013  1.00  0.00     0.000 C 
ENDROOT
BRANCH   1   2
ATOM      2  C   UNL     1     -18.471 -31.953  21.181  1.00  0.00     0.000 C 
BRANCH   2   3
ATOM      3  C   UNL     1     -18.548 -33.427  20.748  1.00  0.00     0.000 C 
BRANCH   3   4
ATOM      4  C   UNL     1     -17.420 -33.814  19.779  1.00  0.00     0.000 C 
BRANCH   4   5
ATOM      5  C   UNL     1     -16.100 -34.125  20.506  1.00  0.00     0.000 C 
BRANCH   5   6
ATOM      6  C   UNL     1     -14.878 -33.988  19.584  1.00  0.00     0.000 C 
BRANCH   6   7
ATOM      7  C   UNL     1     -14.013 -32.764  19.933  1.00  0.00     0.000 C 
BRANCH   7   8
ATOM      8  C   UNL     1     -12.630 -32.806  19.264  1.00  0.00     0.000 C 
BRANCH   8   9
ATOM      9  C   UNL     1     -12.171 -31.473  18.641  1.00  0.00     0.000 C 
BRANCH   9  10
ATOM     10  C   UNL     1     -11.341 -30.591  19.599  1.00  0.00     0.006 C 
BRANCH  10  11
ATOM     11  C   UNL     1     -11.344 -29.114  19.183  1.00  0.00     0.053 C 
BRANCH  11  12
ATOM     12  C   UNL     1     -10.304 -28.863  18.138  1.00  0.00     0.041 C 
ATOM     13  O   UNL     1      -9.138 -29.317  18.281  1.00  0.00    -0.550 OA
ATOM     14  O   UNL     1     -10.635 -28.169  16.982  1.00  0.00    -0.550 OA
ENDBRANCH  11  12
ENDBRANCH  10  11
ENDBRANCH   9  10
ENDBRANCH   8   9
ENDBRANCH   7   8
ENDBRANCH   6   7
ENDBRANCH   5   6
ENDBRANCH   4   5
ENDBRANCH   3   4
ENDBRANCH   2   3
ENDBRANCH   1   2
BRANCH   1  15
ATOM     15  C   UNL     1     -19.378 -30.556  19.239  1.00  0.00     0.000 C 
BRANCH  15  16
ATOM     16  C   UNL     1     -19.217 -30.743  17.715  1.00  0.00     0.000 C 
BRANCH  16  17
ATOM     17  C   UNL     1     -19.271 -32.213  17.265  1.00  0.00     0.000 C 
BRANCH  17  18
ATOM     18  C   UNL     1     -18.321 -32.513  16.095  1.00  0.00    -0.000 C 
BRANCH  18  19
ATOM     19  C   UNL     1     -16.835 -32.459  16.496  1.00  0.00    -0.000 C 
BRANCH  19  20
ATOM     20  C   UNL     1     -15.963 -31.507  15.658  1.00  0.00    -0.000 C 
BRANCH  20  21
ATOM     21  C   UNL     1     -15.791 -30.124  16.302  1.00  0.00    -0.000 C 
BRANCH  21  22
ATOM     22  C   UNL     1     -15.501 -30.251  17.805  1.00  0.00    -0.000 C 
BRANCH  22  23
ATOM     23  C   UNL     1     -15.052 -28.923  18.442  1.00  0.00    -0.000 C 
BRANCH  23  24
ATOM     24  C   UNL     1     -16.025 -27.744  18.244  1.00  0.00    -0.000 C 
BRANCH  24  25
ATOM     25  C   UNL     1     -16.850 -27.368  19.486  1.00  0.00    -0.003 C 
ATOM     26  C   UNL     1     -18.301 -27.015  19.154  1.00  0.00     0.004 C 
ENDBRANCH  24  25
ENDBRANCH  23  24
ENDBRANCH  22  23
ENDBRANCH  21  22
ENDBRANCH  20  21
ENDBRANCH  19  20
ENDBRANCH  18  19
ENDBRANCH  17  18
ENDBRANCH  16  17
ENDBRANCH  15  16
ENDBRANCH   1  15
TORSDOF 22
ENDMDL
