MODEL 1
REMARK VINA RESULT:    -7.549      0.000      0.000
REMARK INTER + INTRA:          -9.159
REMARK INTER:                  -9.094
REMARK INTRA:                  -0.065
REMARK UNBOUND:                -0.065
REMARK SMILES O=c1c(O)c(-c2ccc(O)cc2O)oc2cc(O)cc(O)c12
REMARK SMILES IDX 5 1 3 2 2 3 1 4 22 5 20 6 19 7 17 8 16 9 15 10 14 11 6 12
REMARK SMILES IDX 8 13 7 14 9 15 11 16 12 17 10 18 13 20 4 22 21 24 18 26
REMARK H PARENT 10 19 13 21 4 23 21 25 18 27
REMARK Flexibility Score: inf
ROOT
ATOM      1  C   UNL     1       9.704  -1.488  19.180  1.00  0.00     0.184 A 
ATOM      2  C   UNL     1      11.040  -1.899  19.048  1.00  0.00     0.208 A 
ATOM      3  C   UNL     1      11.353  -3.259  19.207  1.00  0.00     0.238 A 
ATOM      4  O   UNL     1      12.543  -3.630  19.032  1.00  0.00    -0.285 OA
ATOM      5  C   UNL     1      10.328  -4.185  19.517  1.00  0.00     0.111 A 
ATOM      6  C   UNL     1      10.537  -5.580  19.740  1.00  0.00     0.134 A 
ATOM      7  C   UNL     1       9.433  -6.424  19.913  1.00  0.00     0.093 A 
ATOM      8  C   UNL     1       8.133  -5.914  19.937  1.00  0.00     0.123 A 
ATOM      9  C   UNL     1       7.924  -4.547  19.779  1.00  0.00     0.094 A 
ATOM     10  C   UNL     1       9.001  -3.684  19.568  1.00  0.00     0.146 A 
ATOM     11  O   UNL     1       8.756  -2.389  19.411  1.00  0.00    -0.451 OA
ENDROOT
BRANCH   1  12
ATOM     12  C   UNL     1       9.307  -0.066  19.048  1.00  0.00     0.063 A 
ATOM     13  C   UNL     1       9.726   2.290  19.493  1.00  0.00     0.047 A 
ATOM     14  C   UNL     1      10.111   0.952  19.593  1.00  0.00     0.020 A 
ATOM     15  C   UNL     1       8.526   2.631  18.858  1.00  0.00     0.119 A 
ATOM     16  C   UNL     1       7.713   1.627  18.327  1.00  0.00     0.093 A 
ATOM     17  C   UNL     1       8.093   0.280  18.420  1.00  0.00     0.130 A 
BRANCH  15  18
ATOM     18  O   UNL     1       8.130   3.963  18.754  1.00  0.00    -0.508 OA
ATOM     19  H   UNL     1       8.606   4.609  18.135  1.00  0.00     0.293 HD
ENDBRANCH  15  18
BRANCH  17  20
ATOM     20  O   UNL     1       7.275  -0.712  17.878  1.00  0.00    -0.507 OA
ATOM     21  H   UNL     1       7.310  -0.951  16.894  1.00  0.00     0.293 HD
ENDBRANCH  17  20
ENDBRANCH   1  12
BRANCH   2  22
ATOM     22  O   UNL     1      12.032  -0.968  18.728  1.00  0.00    -0.502 OA
ATOM     23  H   UNL     1      12.152  -0.601  17.792  1.00  0.00     0.293 HD
ENDBRANCH   2  22
BRANCH   6  24
ATOM     24  O   UNL     1      11.798  -6.177  19.827  1.00  0.00    -0.507 OA
ATOM     25  H   UNL     1      11.961  -7.151  20.030  1.00  0.00     0.293 HD
ENDBRANCH   6  24
BRANCH   8  26
ATOM     26  O   UNL     1       7.041  -6.760  20.125  1.00  0.00    -0.508 OA
ATOM     27  H   UNL     1       7.065  -7.514  20.801  1.00  0.00     0.293 HD
ENDBRANCH   8  26
TORSDOF 6
ENDMDL
MODEL 2
REMARK VINA RESULT:    -7.156      1.477      6.379
REMARK INTER + INTRA:          -8.685
REMARK INTER:                  -9.123
REMARK INTRA:                   0.438
REMARK UNBOUND:                -0.065
REMARK SMILES O=c1c(O)c(-c2ccc(O)cc2O)oc2cc(O)cc(O)c12
REMARK SMILES IDX 5 1 3 2 2 3 1 4 22 5 20 6 19 7 17 8 16 9 15 10 14 11 6 12
REMARK SMILES IDX 8 13 7 14 9 15 11 16 12 17 10 18 13 20 4 22 21 24 18 26
REMARK H PARENT 10 19 13 21 4 23 21 25 18 27
REMARK Flexibility Score: inf
ROOT
ATOM      1  C   UNL     1      10.440  -2.706  19.403  1.00  0.00     0.184 A 
ATOM      2  C   UNL     1      11.708  -2.245  19.014  1.00  0.00     0.208 A 
ATOM      3  C   UNL     1      11.909  -0.865  18.846  1.00  0.00     0.238 A 
ATOM      4  O   UNL     1      13.062  -0.453  18.553  1.00  0.00    -0.285 OA
ATOM      5  C   UNL     1      10.833   0.033  19.048  1.00  0.00     0.111 A 
ATOM      6  C   UNL     1      10.912   1.447  18.866  1.00  0.00     0.134 A 
ATOM      7  C   UNL     1       9.820   2.250  19.219  1.00  0.00     0.093 A 
ATOM      8  C   UNL     1       8.631   1.685  19.684  1.00  0.00     0.123 A 
ATOM      9  C   UNL     1       8.524   0.302  19.809  1.00  0.00     0.094 A 
ATOM     10  C   UNL     1       9.608  -0.523  19.500  1.00  0.00     0.146 A 
ATOM     11  O   UNL     1       9.467  -1.835  19.644  1.00  0.00    -0.451 OA
ENDROOT
BRANCH   1  12
ATOM     12  C   UNL     1      10.153  -4.149  19.576  1.00  0.00     0.063 A 
ATOM     13  C   UNL     1      10.937  -6.437  19.852  1.00  0.00     0.047 A 
ATOM     14  C   UNL     1      11.205  -5.074  19.715  1.00  0.00     0.020 A 
ATOM     15  C   UNL     1       9.616  -6.900  19.840  1.00  0.00     0.119 A 
ATOM     16  C   UNL     1       8.565  -5.992  19.688  1.00  0.00     0.093 A 
ATOM     17  C   UNL     1       8.824  -4.620  19.553  1.00  0.00     0.130 A 
BRANCH  15  18
ATOM     18  O   UNL     1       9.337  -8.258  19.973  1.00  0.00    -0.508 OA
ATOM     19  H   UNL     1       8.637  -8.713  19.398  1.00  0.00     0.293 HD
ENDBRANCH  15  18
BRANCH  17  20
ATOM     20  O   UNL     1       7.764  -3.724  19.410  1.00  0.00    -0.507 OA
ATOM     21  H   UNL     1       7.474  -3.386  18.500  1.00  0.00     0.293 HD
ENDBRANCH  17  20
ENDBRANCH   1  12
BRANCH   2  22
ATOM     22  O   UNL     1      12.759  -3.149  18.834  1.00  0.00    -0.502 OA
ATOM     23  H   UNL     1      13.142  -3.696  19.595  1.00  0.00     0.293 HD
ENDBRANCH   2  22
BRANCH   6  24
ATOM     24  O   UNL     1      12.020   2.103  18.322  1.00  0.00    -0.507 OA
ATOM     25  H   UNL     1      12.005   3.034  17.935  1.00  0.00     0.293 HD
ENDBRANCH   6  24
BRANCH   8  26
ATOM     26  O   UNL     1       7.545   2.491  20.018  1.00  0.00    -0.508 OA
ATOM     27  H   UNL     1       7.616   3.502  20.022  1.00  0.00     0.293 HD
ENDBRANCH   8  26
TORSDOF 6
ENDMDL
MODEL 3
REMARK VINA RESULT:    -6.635      1.311      3.288
REMARK INTER + INTRA:          -8.057
REMARK INTER:                  -8.396
REMARK INTRA:                   0.339
REMARK UNBOUND:                -0.065
REMARK SMILES O=c1c(O)c(-c2ccc(O)cc2O)oc2cc(O)cc(O)c12
REMARK SMILES IDX 5 1 3 2 2 3 1 4 22 5 20 6 19 7 17 8 16 9 15 10 14 11 6 12
REMARK SMILES IDX 8 13 7 14 9 15 11 16 12 17 10 18 13 20 4 22 21 24 18 26
REMARK H PARENT 10 19 13 21 4 23 21 25 18 27
REMARK Flexibility Score: inf
ROOT
ATOM      1  C   UNL     1       8.299  -1.982  19.482  1.00  0.00     0.184 A 
ATOM      2  C   UNL     1       7.069  -2.649  19.610  1.00  0.00     0.208 A 
ATOM      3  C   UNL     1       7.064  -4.045  19.763  1.00  0.00     0.238 A 
ATOM      4  O   UNL     1       5.963  -4.630  19.934  1.00  0.00    -0.285 OA
ATOM      5  C   UNL     1       8.287  -4.757  19.765  1.00  0.00     0.111 A 
ATOM      6  C   UNL     1       8.399  -6.177  19.874  1.00  0.00     0.134 A 
ATOM      7  C   UNL     1       9.665  -6.763  19.994  1.00  0.00     0.093 A 
ATOM      8  C   UNL     1      10.825  -5.987  19.944  1.00  0.00     0.123 A 
ATOM      9  C   UNL     1      10.728  -4.608  19.780  1.00  0.00     0.094 A 
ATOM     10  C   UNL     1       9.479  -3.990  19.694  1.00  0.00     0.146 A 
ATOM     11  O   UNL     1       9.432  -2.671  19.549  1.00  0.00    -0.451 OA
ENDROOT
BRANCH   1  12
ATOM     12  C   UNL     1       8.376  -0.515  19.294  1.00  0.00     0.063 A 
ATOM     13  C   UNL     1       7.365   1.573  18.556  1.00  0.00     0.047 A 
ATOM     14  C   UNL     1       7.284   0.194  18.759  1.00  0.00     0.020 A 
ATOM     15  C   UNL     1       8.540   2.264  18.872  1.00  0.00     0.119 A 
ATOM     16  C   UNL     1       9.635   1.567  19.390  1.00  0.00     0.093 A 
ATOM     17  C   UNL     1       9.563   0.182  19.600  1.00  0.00     0.130 A 
BRANCH  15  18
ATOM     18  O   UNL     1       8.633   3.639  18.672  1.00  0.00    -0.508 OA
ATOM     19  H   UNL     1       9.528   4.115  18.676  1.00  0.00     0.293 HD
ENDBRANCH  15  18
BRANCH  17  20
ATOM     20  O   UNL     1      10.661  -0.499  20.125  1.00  0.00    -0.507 OA
ATOM     21  H   UNL     1      10.583  -1.448  20.472  1.00  0.00     0.293 HD
ENDBRANCH  17  20
ENDBRANCH   1  12
BRANCH   2  22
ATOM     22  O   UNL     1       5.875  -1.923  19.619  1.00  0.00    -0.502 OA
ATOM     23  H   UNL     1       5.506  -1.493  20.458  1.00  0.00     0.293 HD
ENDBRANCH   2  22
BRANCH   6  24
ATOM     24  O   UNL     1       7.307  -7.050  19.841  1.00  0.00    -0.507 OA
ATOM     25  H   UNL     1       6.572  -7.078  20.530  1.00  0.00     0.293 HD
ENDBRANCH   6  24
BRANCH   8  26
ATOM     26  O   UNL     1      12.081  -6.580  20.050  1.00  0.00    -0.508 OA
ATOM     27  H   UNL     1      12.338  -7.382  19.485  1.00  0.00     0.293 HD
ENDBRANCH   8  26
TORSDOF 6
ENDMDL
MODEL 4
REMARK VINA RESULT:    -6.574      1.577      7.049
REMARK INTER + INTRA:          -7.984
REMARK INTER:                  -8.310
REMARK INTRA:                   0.326
REMARK UNBOUND:                -0.065
REMARK SMILES O=c1c(O)c(-c2ccc(O)cc2O)oc2cc(O)cc(O)c12
REMARK SMILES IDX 5 1 3 2 2 3 1 4 22 5 20 6 19 7 17 8 16 9 15 10 14 11 6 12
REMARK SMILES IDX 8 13 7 14 9 15 11 16 12 17 10 18 13 20 4 22 21 24 18 26
REMARK H PARENT 10 19 13 21 4 23 21 25 18 27
REMARK Flexibility Score: inf
ROOT
ATOM      1  C   UNL     1       8.941  -2.635  19.571  1.00  0.00     0.184 A 
ATOM      2  C   UNL     1       7.722  -2.000  19.855  1.00  0.00     0.208 A 
ATOM      3  C   UNL     1       7.661  -0.597  19.828  1.00  0.00     0.238 A 
ATOM      4  O   UNL     1       6.553  -0.036  20.027  1.00  0.00    -0.285 OA
ATOM      5  C   UNL     1       8.827   0.152  19.538  1.00  0.00     0.111 A 
ATOM      6  C   UNL     1       8.892   1.578  19.523  1.00  0.00     0.134 A 
ATOM      7  C   UNL     1      10.066   2.212  19.098  1.00  0.00     0.093 A 
ATOM      8  C   UNL     1      11.198   1.471  18.750  1.00  0.00     0.123 A 
ATOM      9  C   UNL     1      11.163   0.081  18.818  1.00  0.00     0.094 A 
ATOM     10  C   UNL     1       9.996  -0.581  19.203  1.00  0.00     0.146 A 
ATOM     11  O   UNL     1      10.003  -1.908  19.243  1.00  0.00    -0.451 OA
ENDROOT
BRANCH   1  12
ATOM     12  C   UNL     1       9.081  -4.110  19.604  1.00  0.00     0.063 A 
ATOM     13  C   UNL     1       8.079  -6.326  19.504  1.00  0.00     0.047 A 
ATOM     14  C   UNL     1       7.953  -4.937  19.446  1.00  0.00     0.020 A 
ATOM     15  C   UNL     1       9.330  -6.911  19.733  1.00  0.00     0.119 A 
ATOM     16  C   UNL     1      10.454  -6.099  19.906  1.00  0.00     0.093 A 
ATOM     17  C   UNL     1      10.338  -4.702  19.846  1.00  0.00     0.130 A 
BRANCH  15  18
ATOM     18  O   UNL     1       9.467  -8.296  19.795  1.00  0.00    -0.508 OA
ATOM     19  H   UNL     1      10.324  -8.756  19.510  1.00  0.00     0.293 HD
ENDBRANCH  15  18
BRANCH  17  20
ATOM     20  O   UNL     1      11.470  -3.904  20.013  1.00  0.00    -0.507 OA
ATOM     21  H   UNL     1      12.385  -4.207  19.701  1.00  0.00     0.293 HD
ENDBRANCH  17  20
ENDBRANCH   1  12
BRANCH   2  22
ATOM     22  O   UNL     1       6.581  -2.761  20.125  1.00  0.00    -0.502 OA
ATOM     23  H   UNL     1       5.647  -2.442  19.894  1.00  0.00     0.293 HD
ENDBRANCH   2  22
BRANCH   6  24
ATOM     24  O   UNL     1       7.848   2.411  19.939  1.00  0.00    -0.507 OA
ATOM     25  H   UNL     1       7.130   2.779  19.334  1.00  0.00     0.293 HD
ENDBRANCH   6  24
BRANCH   8  26
ATOM     26  O   UNL     1      12.367   2.111  18.342  1.00  0.00    -0.508 OA
ATOM     27  H   UNL     1      13.106   1.611  17.863  1.00  0.00     0.293 HD
ENDBRANCH   8  26
TORSDOF 6
ENDMDL
MODEL 5
REMARK VINA RESULT:    -5.404      1.814      3.614
REMARK INTER + INTRA:          -6.575
REMARK INTER:                  -7.036
REMARK INTRA:                   0.461
REMARK UNBOUND:                -0.065
REMARK SMILES O=c1c(O)c(-c2ccc(O)cc2O)oc2cc(O)cc(O)c12
REMARK SMILES IDX 5 1 3 2 2 3 1 4 22 5 20 6 19 7 17 8 16 9 15 10 14 11 6 12
REMARK SMILES IDX 8 13 7 14 9 15 11 16 12 17 10 18 13 20 4 22 21 24 18 26
REMARK H PARENT 10 19 13 21 4 23 21 25 18 27
REMARK Flexibility Score: inf
ROOT
ATOM      1  C   UNL     1       9.592  -1.789  19.691  1.00  0.00     0.184 A 
ATOM      2  C   UNL     1       8.203  -1.635  19.831  1.00  0.00     0.208 A 
ATOM      3  C   UNL     1       7.399  -2.781  19.942  1.00  0.00     0.238 A 
ATOM      4  O   UNL     1       6.162  -2.637  20.124  1.00  0.00    -0.285 OA
ATOM      5  C   UNL     1       7.993  -4.065  19.888  1.00  0.00     0.111 A 
ATOM      6  C   UNL     1       7.270  -5.296  19.950  1.00  0.00     0.134 A 
ATOM      7  C   UNL     1       7.972  -6.506  20.017  1.00  0.00     0.093 A 
ATOM      8  C   UNL     1       9.367  -6.533  19.960  1.00  0.00     0.123 A 
ATOM      9  C   UNL     1      10.078  -5.342  19.841  1.00  0.00     0.094 A 
ATOM     10  C   UNL     1       9.409  -4.117  19.808  1.00  0.00     0.146 A 
ATOM     11  O   UNL     1      10.126  -3.005  19.705  1.00  0.00    -0.451 OA
ENDROOT
BRANCH   1  12
ATOM     12  C   UNL     1      10.496  -0.624  19.546  1.00  0.00     0.063 A 
ATOM     13  C   UNL     1      10.836   1.731  19.031  1.00  0.00     0.047 A 
ATOM     14  C   UNL     1       9.982   0.638  19.194  1.00  0.00     0.020 A 
ATOM     15  C   UNL     1      12.216   1.578  19.205  1.00  0.00     0.119 A 
ATOM     16  C   UNL     1      12.738   0.326  19.541  1.00  0.00     0.093 A 
ATOM     17  C   UNL     1      11.888  -0.777  19.710  1.00  0.00     0.130 A 
BRANCH  15  18
ATOM     18  O   UNL     1      13.077   2.661  19.043  1.00  0.00    -0.508 OA
ATOM     19  H   UNL     1      13.898   2.600  18.451  1.00  0.00     0.293 HD
ENDBRANCH  15  18
BRANCH  17  20
ATOM     20  O   UNL     1      12.422  -2.019  20.052  1.00  0.00    -0.507 OA
ATOM     21  H   UNL     1      13.423  -2.172  20.101  1.00  0.00     0.293 HD
ENDBRANCH  17  20
ENDBRANCH   1  12
BRANCH   2  22
ATOM     22  O   UNL     1       7.641  -0.357  19.895  1.00  0.00    -0.502 OA
ATOM     23  H   UNL     1       7.573   0.164  20.761  1.00  0.00     0.293 HD
ENDBRANCH   2  22
BRANCH   6  24
ATOM     24  O   UNL     1       5.875  -5.384  19.919  1.00  0.00    -0.507 OA
ATOM     25  H   UNL     1       5.320  -5.437  19.079  1.00  0.00     0.293 HD
ENDBRANCH   6  24
BRANCH   8  26
ATOM     26  O   UNL     1      10.056  -7.743  20.012  1.00  0.00    -0.508 OA
ATOM     27  H   UNL     1      10.813  -7.951  19.371  1.00  0.00     0.293 HD
ENDBRANCH   8  26
TORSDOF 6
ENDMDL
MODEL 6
REMARK VINA RESULT:    -4.894      2.078      2.526
REMARK INTER + INTRA:          -5.960
REMARK INTER:                  -5.703
REMARK INTRA:                  -0.257
REMARK UNBOUND:                -0.065
REMARK SMILES O=c1c(O)c(-c2ccc(O)cc2O)oc2cc(O)cc(O)c12
REMARK SMILES IDX 5 1 3 2 2 3 1 4 22 5 20 6 19 7 17 8 16 9 15 10 14 11 6 12
REMARK SMILES IDX 8 13 7 14 9 15 11 16 12 17 10 18 13 20 4 22 21 24 18 26
REMARK H PARENT 10 19 13 21 4 23 21 25 18 27
REMARK Flexibility Score: inf
ROOT
ATOM      1  C   UNL     1      11.165  -2.245  19.431  1.00  0.00     0.184 A 
ATOM      2  C   UNL     1      12.014  -3.362  19.355  1.00  0.00     0.208 A 
ATOM      3  C   UNL     1      11.463  -4.646  19.496  1.00  0.00     0.238 A 
ATOM      4  O   UNL     1      12.219  -5.645  19.370  1.00  0.00    -0.285 OA
ATOM      5  C   UNL     1      10.075  -4.795  19.732  1.00  0.00     0.111 A 
ATOM      6  C   UNL     1       9.416  -6.046  19.931  1.00  0.00     0.134 A 
ATOM      7  C   UNL     1       8.020  -6.083  20.029  1.00  0.00     0.093 A 
ATOM      8  C   UNL     1       7.265  -4.908  20.001  1.00  0.00     0.123 A 
ATOM      9  C   UNL     1       7.904  -3.679  19.867  1.00  0.00     0.094 A 
ATOM     10  C   UNL     1       9.292  -3.612  19.729  1.00  0.00     0.146 A 
ATOM     11  O   UNL     1       9.859  -2.420  19.593  1.00  0.00    -0.451 OA
ENDROOT
BRANCH   1  12
ATOM     12  C   UNL     1      11.682  -0.862  19.314  1.00  0.00     0.063 A 
ATOM     13  C   UNL     1      13.237   0.875  20.017  1.00  0.00     0.047 A 
ATOM     14  C   UNL     1      12.765  -0.436  20.106  1.00  0.00     0.020 A 
ATOM     15  C   UNL     1      12.627   1.785  19.145  1.00  0.00     0.119 A 
ATOM     16  C   UNL     1      11.542   1.376  18.365  1.00  0.00     0.093 A 
ATOM     17  C   UNL     1      11.063   0.060  18.445  1.00  0.00     0.130 A 
BRANCH  15  18
ATOM     18  O   UNL     1      13.088   3.096  19.049  1.00  0.00    -0.508 OA
ATOM     19  H   UNL     1      12.457   3.865  18.853  1.00  0.00     0.293 HD
ENDBRANCH  15  18
BRANCH  17  20
ATOM     20  O   UNL     1       9.984  -0.335  17.655  1.00  0.00    -0.507 OA
ATOM     21  H   UNL     1       9.187   0.272  17.501  1.00  0.00     0.293 HD
ENDBRANCH  17  20
ENDBRANCH   1  12
BRANCH   2  22
ATOM     22  O   UNL     1      13.378  -3.191  19.107  1.00  0.00    -0.502 OA
ATOM     23  H   UNL     1      13.775  -3.259  18.177  1.00  0.00     0.293 HD
ENDBRANCH   2  22
BRANCH   6  24
ATOM     24  O   UNL     1      10.084  -7.267  20.065  1.00  0.00    -0.507 OA
ATOM     25  H   UNL     1      10.043  -7.859  20.881  1.00  0.00     0.293 HD
ENDBRANCH   6  24
BRANCH   8  26
ATOM     26  O   UNL     1       5.877  -4.954  20.114  1.00  0.00    -0.508 OA
ATOM     27  H   UNL     1       5.277  -4.942  19.298  1.00  0.00     0.293 HD
ENDBRANCH   8  26
TORSDOF 6
ENDMDL
MODEL 7
REMARK VINA RESULT:    -4.824      2.414      5.252
REMARK INTER + INTRA:          -5.876
REMARK INTER:                  -5.725
REMARK INTRA:                  -0.152
REMARK UNBOUND:                -0.065
REMARK SMILES O=c1c(O)c(-c2ccc(O)cc2O)oc2cc(O)cc(O)c12
REMARK SMILES IDX 5 1 3 2 2 3 1 4 22 5 20 6 19 7 17 8 16 9 15 10 14 11 6 12
REMARK SMILES IDX 8 13 7 14 9 15 11 16 12 17 10 18 13 20 4 22 21 24 18 26
REMARK H PARENT 10 19 13 21 4 23 21 25 18 27
REMARK Flexibility Score: inf
ROOT
ATOM      1  C   UNL     1      10.819  -0.847  19.174  1.00  0.00     0.184 A 
ATOM      2  C   UNL     1      10.253   0.401  18.868  1.00  0.00     0.208 A 
ATOM      3  C   UNL     1       8.858   0.504  18.747  1.00  0.00     0.238 A 
ATOM      4  O   UNL     1       8.352   1.636  18.529  1.00  0.00    -0.285 OA
ATOM      5  C   UNL     1       8.050  -0.647  18.913  1.00  0.00     0.111 A 
ATOM      6  C   UNL     1       6.629  -0.667  18.773  1.00  0.00     0.134 A 
ATOM      7  C   UNL     1       5.921  -1.834  19.085  1.00  0.00     0.093 A 
ATOM      8  C   UNL     1       6.587  -2.999  19.470  1.00  0.00     0.123 A 
ATOM      9  C   UNL     1       7.977  -3.006  19.552  1.00  0.00     0.094 A 
ATOM     10  C   UNL     1       8.709  -1.848  19.283  1.00  0.00     0.146 A 
ATOM     11  O   UNL     1      10.032  -1.896  19.384  1.00  0.00    -0.451 OA
ENDROOT
BRANCH   1  12
ATOM     12  C   UNL     1      12.285  -1.032  19.294  1.00  0.00     0.063 A 
ATOM     13  C   UNL     1      14.445  -0.278  20.125  1.00  0.00     0.047 A 
ATOM     14  C   UNL     1      13.060  -0.120  20.034  1.00  0.00     0.020 A 
ATOM     15  C   UNL     1      15.077  -1.341  19.470  1.00  0.00     0.119 A 
ATOM     16  C   UNL     1      14.318  -2.243  18.721  1.00  0.00     0.093 A 
ATOM     17  C   UNL     1      12.926  -2.095  18.626  1.00  0.00     0.130 A 
BRANCH  15  18
ATOM     18  O   UNL     1      16.458  -1.506  19.553  1.00  0.00    -0.508 OA
ATOM     19  H   UNL     1      16.942  -1.478  20.443  1.00  0.00     0.293 HD
ENDBRANCH  15  18
BRANCH  17  20
ATOM     20  O   UNL     1      12.180  -3.008  17.881  1.00  0.00    -0.507 OA
ATOM     21  H   UNL     1      11.634  -3.737  18.325  1.00  0.00     0.293 HD
ENDBRANCH  17  20
ENDBRANCH   1  12
BRANCH   2  22
ATOM     22  O   UNL     1      11.070   1.525  18.722  1.00  0.00    -0.502 OA
ATOM     23  H   UNL     1      11.690   1.648  17.931  1.00  0.00     0.293 HD
ENDBRANCH   2  22
BRANCH   6  24
ATOM     24  O   UNL     1       5.875   0.415  18.308  1.00  0.00    -0.507 OA
ATOM     25  H   UNL     1       5.208   0.369  17.553  1.00  0.00     0.293 HD
ENDBRANCH   6  24
BRANCH   8  26
ATOM     26  O   UNL     1       5.875  -4.160  19.765  1.00  0.00    -0.508 OA
ATOM     27  H   UNL     1       4.996  -4.374  19.307  1.00  0.00     0.293 HD
ENDBRANCH   8  26
TORSDOF 6
ENDMDL
