MODEL 1
REMARK VINA RESULT:    -1.803      0.000      0.000
REMARK INTER + INTRA:          -2.523
REMARK INTER:                  -2.172
REMARK INTRA:                  -0.352
REMARK UNBOUND:                -0.352
REMARK SMILES Oc1cc(O)c2cc(O)c(-c3ccc(O)c(O)c3)[o+]c2c1
REMARK SMILES IDX 10 1 19 2 20 3 21 4 2 5 3 6 4 7 6 8 7 9 8 10 11 11 12 12
REMARK SMILES IDX 13 13 14 14 18 15 16 16 15 17 17 19 9 21 1 23 5 25
REMARK H PARENT 15 18 17 20 9 22 1 24 5 26
REMARK Flexibility Score: inf
ROOT
ATOM      1  C   UNL     1     -14.816 -21.017  80.369  1.00  0.00     0.402 A 
ATOM      2  O   UNL     1     -14.262 -21.698  79.369  1.00  0.00    -0.202 OA
ATOM      3  C   UNL     1     -14.518 -21.453  78.089  1.00  0.00     0.368 A 
ATOM      4  C   UNL     1     -13.885 -22.223  77.110  1.00  0.00     0.162 A 
ATOM      5  C   UNL     1     -14.133 -21.986  75.757  1.00  0.00     0.128 A 
ATOM      6  C   UNL     1     -15.021 -20.973  75.378  1.00  0.00     0.093 A 
ATOM      7  C   UNL     1     -15.669 -20.188  76.340  1.00  0.00     0.136 A 
ATOM      8  C   UNL     1     -15.421 -20.428  77.717  1.00  0.00     0.125 A 
ATOM      9  C   UNL     1     -16.035 -19.701  78.750  1.00  0.00     0.078 A 
ATOM     10  C   UNL     1     -15.745 -19.998  80.085  1.00  0.00     0.223 A 
ENDROOT
BRANCH   1  11
ATOM     11  C   UNL     1     -14.442 -21.377  81.755  1.00  0.00     0.087 A 
ATOM     12  C   UNL     1     -13.347 -20.774  82.400  1.00  0.00     0.022 A 
ATOM     13  C   UNL     1     -12.999 -21.149  83.700  1.00  0.00     0.051 A 
ATOM     14  C   UNL     1     -13.730 -22.139  84.370  1.00  0.00     0.157 A 
ATOM     15  C   UNL     1     -15.157 -22.385  82.424  1.00  0.00     0.068 A 
ATOM     16  C   UNL     1     -14.809 -22.761  83.729  1.00  0.00     0.158 A 
BRANCH  14  17
ATOM     17  O   UNL     1     -13.386 -22.514  85.667  1.00  0.00    -0.504 OA
ATOM     18  H   UNL     1     -13.152 -23.473  85.898  1.00  0.00     0.293 HD
ENDBRANCH  14  17
BRANCH  16  19
ATOM     19  O   UNL     1     -15.529 -23.751  84.395  1.00  0.00    -0.504 OA
ATOM     20  H   UNL     1     -15.661 -23.725  85.400  1.00  0.00     0.293 HD
ENDBRANCH  16  19
ENDBRANCH   1  11
BRANCH  10  21
ATOM     21  O   UNL     1     -16.391 -19.309  81.111  1.00  0.00    -0.500 OA
ATOM     22  H   UNL     1     -17.161 -19.720  81.625  1.00  0.00     0.294 HD
ENDBRANCH  10  21
BRANCH   5  23
ATOM     23  O   UNL     1     -13.491 -22.763  74.795  1.00  0.00    -0.507 OA
ATOM     24  H   UNL     1     -12.750 -22.385  74.216  1.00  0.00     0.293 HD
ENDBRANCH   5  23
BRANCH   7  25
ATOM     25  O   UNL     1     -16.539 -19.194  75.881  1.00  0.00    -0.507 OA
ATOM     26  H   UNL     1     -17.453 -19.013  76.269  1.00  0.00     0.293 HD
ENDBRANCH   7  25
TORSDOF 6
ENDMDL
MODEL 2
REMARK VINA RESULT:    -1.536      1.761      6.911
REMARK INTER + INTRA:          -2.202
REMARK INTER:                  -1.849
REMARK INTRA:                  -0.353
REMARK UNBOUND:                -0.352
REMARK SMILES Oc1cc(O)c2cc(O)c(-c3ccc(O)c(O)c3)[o+]c2c1
REMARK SMILES IDX 10 1 19 2 20 3 21 4 2 5 3 6 4 7 6 8 7 9 8 10 11 11 12 12
REMARK SMILES IDX 13 13 14 14 18 15 16 16 15 17 17 19 9 21 1 23 5 25
REMARK H PARENT 15 18 17 20 9 22 1 24 5 26
REMARK Flexibility Score: inf
ROOT
ATOM      1  C   UNL     1     -14.281 -21.252  81.073  1.00  0.00     0.402 A 
ATOM      2  O   UNL     1     -14.732 -22.494  81.222  1.00  0.00    -0.202 OA
ATOM      3  C   UNL     1     -14.522 -23.221  82.315  1.00  0.00     0.368 A 
ATOM      4  C   UNL     1     -15.038 -24.517  82.378  1.00  0.00     0.162 A 
ATOM      5  C   UNL     1     -14.835 -25.302  83.515  1.00  0.00     0.128 A 
ATOM      6  C   UNL     1     -14.112 -24.788  84.596  1.00  0.00     0.093 A 
ATOM      7  C   UNL     1     -13.583 -23.492  84.557  1.00  0.00     0.136 A 
ATOM      8  C   UNL     1     -13.785 -22.692  83.402  1.00  0.00     0.125 A 
ATOM      9  C   UNL     1     -13.282 -21.388  83.269  1.00  0.00     0.078 A 
ATOM     10  C   UNL     1     -13.517 -20.662  82.098  1.00  0.00     0.223 A 
ENDROOT
BRANCH   1  11
ATOM     11  C   UNL     1     -14.589 -20.541  79.811  1.00  0.00     0.087 A 
ATOM     12  C   UNL     1     -15.733 -19.732  79.685  1.00  0.00     0.022 A 
ATOM     13  C   UNL     1     -16.015 -19.091  78.477  1.00  0.00     0.051 A 
ATOM     14  C   UNL     1     -15.167 -19.258  77.374  1.00  0.00     0.157 A 
ATOM     15  C   UNL     1     -13.754 -20.721  78.695  1.00  0.00     0.068 A 
ATOM     16  C   UNL     1     -14.037 -20.077  77.482  1.00  0.00     0.158 A 
BRANCH  14  17
ATOM     17  O   UNL     1     -15.445 -18.618  76.167  1.00  0.00    -0.504 OA
ATOM     18  H   UNL     1     -16.396 -18.498  75.837  1.00  0.00     0.293 HD
ENDBRANCH  14  17
BRANCH  16  19
ATOM     19  O   UNL     1     -13.200 -20.246  76.381  1.00  0.00    -0.504 OA
ATOM     20  H   UNL     1     -12.458 -20.937  76.381  1.00  0.00     0.293 HD
ENDBRANCH  16  19
ENDBRANCH   1  11
BRANCH  10  21
ATOM     21  O   UNL     1     -12.976 -19.385  81.945  1.00  0.00    -0.500 OA
ATOM     22  H   UNL     1     -13.289 -18.758  81.214  1.00  0.00     0.294 HD
ENDBRANCH  10  21
BRANCH   5  23
ATOM     23  O   UNL     1     -15.359 -26.593  83.560  1.00  0.00    -0.507 OA
ATOM     24  H   UNL     1     -16.328 -26.780  83.333  1.00  0.00     0.293 HD
ENDBRANCH   5  23
BRANCH   7  25
ATOM     25  O   UNL     1     -12.875 -23.050  85.679  1.00  0.00    -0.507 OA
ATOM     26  H   UNL     1     -13.229 -23.078  86.624  1.00  0.00     0.293 HD
ENDBRANCH   7  25
TORSDOF 6
ENDMDL
MODEL 3
REMARK VINA RESULT:    -1.531      3.835      7.005
REMARK INTER + INTRA:          -2.196
REMARK INTER:                  -1.854
REMARK INTRA:                  -0.341
REMARK UNBOUND:                -0.352
REMARK SMILES Oc1cc(O)c2cc(O)c(-c3ccc(O)c(O)c3)[o+]c2c1
REMARK SMILES IDX 10 1 19 2 20 3 21 4 2 5 3 6 4 7 6 8 7 9 8 10 11 11 12 12
REMARK SMILES IDX 13 13 14 14 18 15 16 16 15 17 17 19 9 21 1 23 5 25
REMARK H PARENT 15 18 17 20 9 22 1 24 5 26
REMARK Flexibility Score: inf
ROOT
ATOM      1  C   UNL     1     -16.506 -24.111  81.960  1.00  0.00     0.402 A 
ATOM      2  O   UNL     1     -15.935 -22.993  81.518  1.00  0.00    -0.202 OA
ATOM      3  C   UNL     1     -14.963 -22.364  82.170  1.00  0.00     0.368 A 
ATOM      4  C   UNL     1     -14.425 -21.196  81.625  1.00  0.00     0.162 A 
ATOM      5  C   UNL     1     -13.400 -20.516  82.285  1.00  0.00     0.128 A 
ATOM      6  C   UNL     1     -12.909 -21.007  83.499  1.00  0.00     0.093 A 
ATOM      7  C   UNL     1     -13.432 -22.175  84.068  1.00  0.00     0.136 A 
ATOM      8  C   UNL     1     -14.476 -22.868  83.400  1.00  0.00     0.125 A 
ATOM      9  C   UNL     1     -15.069 -24.038  83.901  1.00  0.00     0.078 A 
ATOM     10  C   UNL     1     -16.097 -24.662  83.189  1.00  0.00     0.223 A 
ENDROOT
BRANCH   1  11
ATOM     11  C   UNL     1     -17.574 -24.724  81.138  1.00  0.00     0.087 A 
ATOM     12  C   UNL     1     -18.933 -24.453  81.381  1.00  0.00     0.022 A 
ATOM     13  C   UNL     1     -19.924 -25.063  80.607  1.00  0.00     0.051 A 
ATOM     14  C   UNL     1     -19.574 -25.960  79.590  1.00  0.00     0.157 A 
ATOM     15  C   UNL     1     -17.231 -25.641  80.130  1.00  0.00     0.068 A 
ATOM     16  C   UNL     1     -18.225 -26.253  79.353  1.00  0.00     0.158 A 
BRANCH  14  17
ATOM     17  O   UNL     1     -20.560 -26.568  78.815  1.00  0.00    -0.504 OA
ATOM     18  H   UNL     1     -21.486 -26.752  79.183  1.00  0.00     0.293 HD
ENDBRANCH  14  17
BRANCH  16  19
ATOM     19  O   UNL     1     -17.880 -27.151  78.345  1.00  0.00    -0.504 OA
ATOM     20  H   UNL     1     -17.778 -28.142  78.531  1.00  0.00     0.293 HD
ENDBRANCH  16  19
ENDBRANCH   1  11
BRANCH  10  21
ATOM     21  O   UNL     1     -16.720 -25.797  83.709  1.00  0.00    -0.500 OA
ATOM     22  H   UNL     1     -16.217 -26.666  83.843  1.00  0.00     0.294 HD
ENDBRANCH  10  21
BRANCH   5  23
ATOM     23  O   UNL     1     -12.875 -19.354  81.725  1.00  0.00    -0.507 OA
ATOM     24  H   UNL     1     -12.932 -18.462  82.204  1.00  0.00     0.293 HD
ENDBRANCH   5  23
BRANCH   7  25
ATOM     25  O   UNL     1     -12.885 -22.602  85.282  1.00  0.00    -0.507 OA
ATOM     26  H   UNL     1     -13.073 -22.171  86.175  1.00  0.00     0.293 HD
ENDBRANCH   7  25
TORSDOF 6
ENDMDL
MODEL 4
REMARK VINA RESULT:    -1.512      1.766      3.124
REMARK INTER + INTRA:          -2.174
REMARK INTER:                  -1.829
REMARK INTRA:                  -0.344
REMARK UNBOUND:                -0.352
REMARK SMILES Oc1cc(O)c2cc(O)c(-c3ccc(O)c(O)c3)[o+]c2c1
REMARK SMILES IDX 10 1 19 2 20 3 21 4 2 5 3 6 4 7 6 8 7 9 8 10 11 11 12 12
REMARK SMILES IDX 13 13 14 14 18 15 16 16 15 17 17 19 9 21 1 23 5 25
REMARK H PARENT 15 18 17 20 9 22 1 24 5 26
REMARK Flexibility Score: inf
ROOT
ATOM      1  C   UNL     1     -14.060 -20.784  80.678  1.00  0.00     0.402 A 
ATOM      2  O   UNL     1     -14.604 -19.584  80.494  1.00  0.00    -0.202 OA
ATOM      3  C   UNL     1     -14.683 -18.993  79.307  1.00  0.00     0.368 A 
ATOM      4  C   UNL     1     -15.274 -17.730  79.215  1.00  0.00     0.162 A 
ATOM      5  C   UNL     1     -15.374 -17.087  77.980  1.00  0.00     0.128 A 
ATOM      6  C   UNL     1     -14.880 -17.708  76.829  1.00  0.00     0.093 A 
ATOM      7  C   UNL     1     -14.282 -18.973  76.894  1.00  0.00     0.136 A 
ATOM      8  C   UNL     1     -14.176 -19.630  78.149  1.00  0.00     0.125 A 
ATOM      9  C   UNL     1     -13.582 -20.891  78.312  1.00  0.00     0.078 A 
ATOM     10  C   UNL     1     -13.509 -21.473  79.580  1.00  0.00     0.223 A 
ENDROOT
BRANCH   1  11
ATOM     11  C   UNL     1     -14.040 -21.342  82.049  1.00  0.00     0.087 A 
ATOM     12  C   UNL     1     -12.994 -21.052  82.944  1.00  0.00     0.022 A 
ATOM     13  C   UNL     1     -12.984 -21.610  84.224  1.00  0.00     0.051 A 
ATOM     14  C   UNL     1     -14.011 -22.475  84.625  1.00  0.00     0.157 A 
ATOM     15  C   UNL     1     -15.055 -22.226  82.450  1.00  0.00     0.068 A 
ATOM     16  C   UNL     1     -15.047 -22.786  83.736  1.00  0.00     0.158 A 
BRANCH  14  17
ATOM     17  O   UNL     1     -14.006 -23.032  85.903  1.00  0.00    -0.504 OA
ATOM     18  H   UNL     1     -13.151 -23.368  86.332  1.00  0.00     0.293 HD
ENDBRANCH  14  17
BRANCH  16  19
ATOM     19  O   UNL     1     -16.063 -23.652  84.136  1.00  0.00    -0.504 OA
ATOM     20  H   UNL     1     -16.984 -23.618  83.715  1.00  0.00     0.293 HD
ENDBRANCH  16  19
ENDBRANCH   1  11
BRANCH  10  21
ATOM     21  O   UNL     1     -12.875 -22.704  79.751  1.00  0.00    -0.500 OA
ATOM     22  H   UNL     1     -11.877 -22.771  79.906  1.00  0.00     0.294 HD
ENDBRANCH  10  21
BRANCH   5  23
ATOM     23  O   UNL     1     -15.968 -15.828  77.908  1.00  0.00    -0.507 OA
ATOM     24  H   UNL     1     -15.429 -14.980  78.037  1.00  0.00     0.293 HD
ENDBRANCH   5  23
BRANCH   7  25
ATOM     25  O   UNL     1     -13.816 -19.529  75.699  1.00  0.00    -0.507 OA
ATOM     26  H   UNL     1     -14.407 -19.945  74.995  1.00  0.00     0.293 HD
ENDBRANCH   7  25
TORSDOF 6
ENDMDL
MODEL 5
REMARK VINA RESULT:    -1.506      5.010      7.092
REMARK INTER + INTRA:          -2.166
REMARK INTER:                  -1.819
REMARK INTRA:                  -0.347
REMARK UNBOUND:                -0.352
REMARK SMILES Oc1cc(O)c2cc(O)c(-c3ccc(O)c(O)c3)[o+]c2c1
REMARK SMILES IDX 10 1 19 2 20 3 21 4 2 5 3 6 4 7 6 8 7 9 8 10 11 11 12 12
REMARK SMILES IDX 13 13 14 14 18 15 16 16 15 17 17 19 9 21 1 23 5 25
REMARK H PARENT 15 18 17 20 9 22 1 24 5 26
REMARK Flexibility Score: inf
ROOT
ATOM      1  C   UNL     1     -18.342 -22.927  83.776  1.00  0.00     0.402 A 
ATOM      2  O   UNL     1     -18.868 -24.149  83.746  1.00  0.00    -0.202 OA
ATOM      3  C   UNL     1     -20.115 -24.398  83.359  1.00  0.00     0.368 A 
ATOM      4  C   UNL     1     -20.577 -25.716  83.361  1.00  0.00     0.162 A 
ATOM      5  C   UNL     1     -21.881 -26.007  82.957  1.00  0.00     0.128 A 
ATOM      6  C   UNL     1     -22.730 -24.974  82.547  1.00  0.00     0.093 A 
ATOM      7  C   UNL     1     -22.291 -23.644  82.537  1.00  0.00     0.136 A 
ATOM      8  C   UNL     1     -20.967 -23.344  82.950  1.00  0.00     0.125 A 
ATOM      9  C   UNL     1     -20.446 -22.040  82.985  1.00  0.00     0.078 A 
ATOM     10  C   UNL     1     -19.132 -21.821  83.409  1.00  0.00     0.223 A 
ENDROOT
BRANCH   1  11
ATOM     11  C   UNL     1     -16.937 -22.780  84.217  1.00  0.00     0.087 A 
ATOM     12  C   UNL     1     -16.609 -22.607  85.574  1.00  0.00     0.022 A 
ATOM     13  C   UNL     1     -15.277 -22.445  85.963  1.00  0.00     0.051 A 
ATOM     14  C   UNL     1     -14.256 -22.442  85.004  1.00  0.00     0.157 A 
ATOM     15  C   UNL     1     -15.910 -22.755  83.258  1.00  0.00     0.068 A 
ATOM     16  C   UNL     1     -14.573 -22.594  83.648  1.00  0.00     0.158 A 
BRANCH  14  17
ATOM     17  O   UNL     1     -12.926 -22.283  85.389  1.00  0.00    -0.504 OA
ATOM     18  H   UNL     1     -12.194 -22.886  85.031  1.00  0.00     0.293 HD
ENDBRANCH  14  17
BRANCH  16  19
ATOM     19  O   UNL     1     -13.556 -22.583  82.696  1.00  0.00    -0.504 OA
ATOM     20  H   UNL     1     -13.155 -21.715  82.359  1.00  0.00     0.293 HD
ENDBRANCH  16  19
ENDBRANCH   1  11
BRANCH  10  21
ATOM     21  O   UNL     1     -18.630 -20.522  83.490  1.00  0.00    -0.500 OA
ATOM     22  H   UNL     1     -17.934 -20.263  84.179  1.00  0.00     0.294 HD
ENDBRANCH  10  21
BRANCH   5  23
ATOM     23  O   UNL     1     -22.323 -27.328  82.964  1.00  0.00    -0.507 OA
ATOM     24  H   UNL     1     -21.705 -28.096  82.729  1.00  0.00     0.293 HD
ENDBRANCH   5  23
BRANCH   7  25
ATOM     25  O   UNL     1     -23.199 -22.669  82.111  1.00  0.00    -0.507 OA
ATOM     26  H   UNL     1     -24.026 -22.398  82.621  1.00  0.00     0.293 HD
ENDBRANCH   7  25
TORSDOF 6
ENDMDL
MODEL 6
REMARK VINA RESULT:    -1.500      1.753      7.203
REMARK INTER + INTRA:          -2.159
REMARK INTER:                  -1.806
REMARK INTRA:                  -0.353
REMARK UNBOUND:                -0.352
REMARK SMILES Oc1cc(O)c2cc(O)c(-c3ccc(O)c(O)c3)[o+]c2c1
REMARK SMILES IDX 10 1 19 2 20 3 21 4 2 5 3 6 4 7 6 8 7 9 8 10 11 11 12 12
REMARK SMILES IDX 13 13 14 14 18 15 16 16 15 17 17 19 9 21 1 23 5 25
REMARK H PARENT 15 18 17 20 9 22 1 24 5 26
REMARK Flexibility Score: inf
ROOT
ATOM      1  C   UNL     1     -15.084 -21.292  81.447  1.00  0.00     0.402 A 
ATOM      2  O   UNL     1     -15.907 -22.138  82.060  1.00  0.00    -0.202 OA
ATOM      3  C   UNL     1     -15.608 -22.751  83.200  1.00  0.00     0.368 A 
ATOM      4  C   UNL     1     -16.540 -23.621  83.769  1.00  0.00     0.162 A 
ATOM      5  C   UNL     1     -16.254 -24.276  84.968  1.00  0.00     0.128 A 
ATOM      6  C   UNL     1     -15.028 -24.060  85.604  1.00  0.00     0.093 A 
ATOM      7  C   UNL     1     -14.075 -23.192  85.054  1.00  0.00     0.136 A 
ATOM      8  C   UNL     1     -14.362 -22.527  83.834  1.00  0.00     0.125 A 
ATOM      9  C   UNL     1     -13.464 -21.651  83.203  1.00  0.00     0.078 A 
ATOM     10  C   UNL     1     -13.814 -21.035  81.998  1.00  0.00     0.223 A 
ENDROOT
BRANCH   1  11
ATOM     11  C   UNL     1     -15.536 -20.664  80.184  1.00  0.00     0.087 A 
ATOM     12  C   UNL     1     -16.188 -19.418  80.177  1.00  0.00     0.022 A 
ATOM     13  C   UNL     1     -16.627 -18.858  78.975  1.00  0.00     0.051 A 
ATOM     14  C   UNL     1     -16.433 -19.538  77.766  1.00  0.00     0.157 A 
ATOM     15  C   UNL     1     -15.363 -21.351  78.971  1.00  0.00     0.068 A 
ATOM     16  C   UNL     1     -15.803 -20.789  77.764  1.00  0.00     0.158 A 
BRANCH  14  17
ATOM     17  O   UNL     1     -16.868 -18.981  76.565  1.00  0.00    -0.504 OA
ATOM     18  H   UNL     1     -17.057 -17.988  76.478  1.00  0.00     0.293 HD
ENDBRANCH  14  17
BRANCH  16  19
ATOM     19  O   UNL     1     -15.619 -21.466  76.560  1.00  0.00    -0.504 OA
ATOM     20  H   UNL     1     -15.309 -20.985  75.724  1.00  0.00     0.293 HD
ENDBRANCH  16  19
ENDBRANCH   1  11
BRANCH  10  21
ATOM     21  O   UNL     1     -12.903 -20.203  81.346  1.00  0.00    -0.500 OA
ATOM     22  H   UNL     1     -12.940 -20.055  80.345  1.00  0.00     0.294 HD
ENDBRANCH  10  21
BRANCH   5  23
ATOM     23  O   UNL     1     -17.197 -25.140  85.520  1.00  0.00    -0.507 OA
ATOM     24  H   UNL     1     -16.943 -25.823  86.225  1.00  0.00     0.293 HD
ENDBRANCH   5  23
BRANCH   7  25
ATOM     25  O   UNL     1     -12.875 -23.027  85.752  1.00  0.00    -0.507 OA
ATOM     26  H   UNL     1     -12.795 -22.573  86.650  1.00  0.00     0.293 HD
ENDBRANCH   7  25
TORSDOF 6
ENDMDL
MODEL 7
REMARK VINA RESULT:    -1.485      3.729      6.804
REMARK INTER + INTRA:          -2.141
REMARK INTER:                  -1.788
REMARK INTRA:                  -0.353
REMARK UNBOUND:                -0.352
REMARK SMILES Oc1cc(O)c2cc(O)c(-c3ccc(O)c(O)c3)[o+]c2c1
REMARK SMILES IDX 10 1 19 2 20 3 21 4 2 5 3 6 4 7 6 8 7 9 8 10 11 11 12 12
REMARK SMILES IDX 13 13 14 14 18 15 16 16 15 17 17 19 9 21 1 23 5 25
REMARK H PARENT 15 18 17 20 9 22 1 24 5 26
REMARK Flexibility Score: inf
ROOT
ATOM      1  C   UNL     1     -16.288 -23.307  80.968  1.00  0.00     0.402 A 
ATOM      2  O   UNL     1     -15.751 -23.702  82.119  1.00  0.00    -0.202 OA
ATOM      3  C   UNL     1     -14.832 -23.002  82.775  1.00  0.00     0.368 A 
ATOM      4  C   UNL     1     -14.328 -23.500  83.979  1.00  0.00     0.162 A 
ATOM      5  C   UNL     1     -13.364 -22.784  84.691  1.00  0.00     0.128 A 
ATOM      6  C   UNL     1     -12.900 -21.561  84.196  1.00  0.00     0.093 A 
ATOM      7  C   UNL     1     -13.388 -21.039  82.991  1.00  0.00     0.136 A 
ATOM      8  C   UNL     1     -14.366 -21.766  82.264  1.00  0.00     0.125 A 
ATOM      9  C   UNL     1     -14.902 -21.329  81.042  1.00  0.00     0.078 A 
ATOM     10  C   UNL     1     -15.859 -22.102  80.379  1.00  0.00     0.223 A 
ENDROOT
BRANCH   1  11
ATOM     11  C   UNL     1     -17.311 -24.171  80.338  1.00  0.00     0.087 A 
ATOM     12  C   UNL     1     -18.682 -23.996  80.601  1.00  0.00     0.022 A 
ATOM     13  C   UNL     1     -19.627 -24.840  80.014  1.00  0.00     0.051 A 
ATOM     14  C   UNL     1     -19.217 -25.879  79.166  1.00  0.00     0.157 A 
ATOM     15  C   UNL     1     -16.906 -25.227  79.504  1.00  0.00     0.068 A 
ATOM     16  C   UNL     1     -17.854 -26.075  78.914  1.00  0.00     0.158 A 
BRANCH  14  17
ATOM     17  O   UNL     1     -20.158 -26.721  78.577  1.00  0.00    -0.504 OA
ATOM     18  H   UNL     1     -21.153 -26.539  78.648  1.00  0.00     0.293 HD
ENDBRANCH  14  17
BRANCH  16  19
ATOM     19  O   UNL     1     -17.450 -27.112  78.077  1.00  0.00    -0.504 OA
ATOM     20  H   UNL     1     -17.057 -27.970  78.447  1.00  0.00     0.293 HD
ENDBRANCH  16  19
ENDBRANCH   1  11
BRANCH  10  21
ATOM     21  O   UNL     1     -16.356 -21.692  79.142  1.00  0.00    -0.500 OA
ATOM     22  H   UNL     1     -17.350 -21.604  78.970  1.00  0.00     0.294 HD
ENDBRANCH  10  21
BRANCH   5  23
ATOM     23  O   UNL     1     -12.875 -23.297  85.890  1.00  0.00    -0.507 OA
ATOM     24  H   UNL     1     -11.893 -23.517  86.012  1.00  0.00     0.293 HD
ENDBRANCH   5  23
BRANCH   7  25
ATOM     25  O   UNL     1     -12.875 -19.810  82.566  1.00  0.00    -0.507 OA
ATOM     26  H   UNL     1     -11.961 -19.683  82.159  1.00  0.00     0.293 HD
ENDBRANCH   7  25
TORSDOF 6
ENDMDL
MODEL 8
REMARK VINA RESULT:    -1.471      3.054      3.603
REMARK INTER + INTRA:          -2.124
REMARK INTER:                  -1.789
REMARK INTRA:                  -0.335
REMARK UNBOUND:                -0.352
REMARK SMILES Oc1cc(O)c2cc(O)c(-c3ccc(O)c(O)c3)[o+]c2c1
REMARK SMILES IDX 10 1 19 2 20 3 21 4 2 5 3 6 4 7 6 8 7 9 8 10 11 11 12 12
REMARK SMILES IDX 13 13 14 14 18 15 16 16 15 17 17 19 9 21 1 23 5 25
REMARK H PARENT 15 18 17 20 9 22 1 24 5 26
REMARK Flexibility Score: inf
ROOT
ATOM      1  C   UNL     1     -14.960 -22.020  82.387  1.00  0.00     0.402 A 
ATOM      2  O   UNL     1     -14.116 -21.129  81.875  1.00  0.00    -0.202 OA
ATOM      3  C   UNL     1     -14.476 -20.209  80.986  1.00  0.00     0.368 A 
ATOM      4  C   UNL     1     -13.516 -19.315  80.507  1.00  0.00     0.162 A 
ATOM      5  C   UNL     1     -13.865 -18.337  79.575  1.00  0.00     0.128 A 
ATOM      6  C   UNL     1     -15.185 -18.250  79.118  1.00  0.00     0.093 A 
ATOM      7  C   UNL     1     -16.166 -19.135  79.582  1.00  0.00     0.136 A 
ATOM      8  C   UNL     1     -15.813 -20.133  80.528  1.00  0.00     0.125 A 
ATOM      9  C   UNL     1     -16.726 -21.070  81.038  1.00  0.00     0.078 A 
ATOM     10  C   UNL     1     -16.303 -22.028  81.964  1.00  0.00     0.223 A 
ENDROOT
BRANCH   1  11
ATOM     11  C   UNL     1     -14.441 -22.989  83.378  1.00  0.00     0.087 A 
ATOM     12  C   UNL     1     -14.317 -22.652  84.739  1.00  0.00     0.022 A 
ATOM     13  C   UNL     1     -13.801 -23.576  85.651  1.00  0.00     0.051 A 
ATOM     14  C   UNL     1     -13.390 -24.843  85.217  1.00  0.00     0.157 A 
ATOM     15  C   UNL     1     -14.007 -24.254  82.947  1.00  0.00     0.068 A 
ATOM     16  C   UNL     1     -13.490 -25.182  83.862  1.00  0.00     0.158 A 
BRANCH  14  17
ATOM     17  O   UNL     1     -12.876 -25.768  86.125  1.00  0.00    -0.504 OA
ATOM     18  H   UNL     1     -13.054 -25.689  87.120  1.00  0.00     0.293 HD
ENDBRANCH  14  17
BRANCH  16  19
ATOM     19  O   UNL     1     -13.073 -26.440  83.433  1.00  0.00    -0.504 OA
ATOM     20  H   UNL     1     -13.109 -27.248  84.045  1.00  0.00     0.293 HD
ENDBRANCH  16  19
ENDBRANCH   1  11
BRANCH  10  21
ATOM     21  O   UNL     1     -17.198 -22.990  82.434  1.00  0.00    -0.500 OA
ATOM     22  H   UNL     1     -17.299 -23.890  81.981  1.00  0.00     0.294 HD
ENDBRANCH  10  21
BRANCH   5  23
ATOM     23  O   UNL     1     -12.894 -17.453  79.109  1.00  0.00    -0.507 OA
ATOM     24  H   UNL     1     -12.602 -17.449  78.139  1.00  0.00     0.293 HD
ENDBRANCH   5  23
BRANCH   7  25
ATOM     25  O   UNL     1     -17.462 -18.982  79.079  1.00  0.00    -0.507 OA
ATOM     26  H   UNL     1     -18.023 -18.151  79.192  1.00  0.00     0.293 HD
ENDBRANCH   7  25
TORSDOF 6
ENDMDL
MODEL 9
REMARK VINA RESULT:    -1.452      3.825      6.926
REMARK INTER + INTRA:          -2.101
REMARK INTER:                  -1.748
REMARK INTRA:                  -0.353
REMARK UNBOUND:                -0.352
REMARK SMILES Oc1cc(O)c2cc(O)c(-c3ccc(O)c(O)c3)[o+]c2c1
REMARK SMILES IDX 10 1 19 2 20 3 21 4 2 5 3 6 4 7 6 8 7 9 8 10 11 11 12 12
REMARK SMILES IDX 13 13 14 14 18 15 16 16 15 17 17 19 9 21 1 23 5 25
REMARK H PARENT 15 18 17 20 9 22 1 24 5 26
REMARK Flexibility Score: inf
ROOT
ATOM      1  C   UNL     1     -17.050 -23.723  82.586  1.00  0.00     0.402 A 
ATOM      2  O   UNL     1     -16.395 -22.775  81.921  1.00  0.00    -0.202 OA
ATOM      3  C   UNL     1     -15.274 -22.215  82.363  1.00  0.00     0.368 A 
ATOM      4  C   UNL     1     -14.658 -21.227  81.592  1.00  0.00     0.162 A 
ATOM      5  C   UNL     1     -13.478 -20.624  82.030  1.00  0.00     0.128 A 
ATOM      6  C   UNL     1     -12.908 -21.011  83.248  1.00  0.00     0.093 A 
ATOM      7  C   UNL     1     -13.507 -21.999  84.040  1.00  0.00     0.136 A 
ATOM      8  C   UNL     1     -14.709 -22.612  83.599  1.00  0.00     0.125 A 
ATOM      9  C   UNL     1     -15.385 -23.600  84.332  1.00  0.00     0.078 A 
ATOM     10  C   UNL     1     -16.568 -24.155  83.836  1.00  0.00     0.223 A 
ENDROOT
BRANCH   1  11
ATOM     11  C   UNL     1     -18.285 -24.275  81.984  1.00  0.00     0.087 A 
ATOM     12  C   UNL     1     -18.252 -25.411  81.154  1.00  0.00     0.022 A 
ATOM     13  C   UNL     1     -19.427 -25.899  80.578  1.00  0.00     0.051 A 
ATOM     14  C   UNL     1     -20.649 -25.254  80.811  1.00  0.00     0.157 A 
ATOM     15  C   UNL     1     -19.510 -23.621  82.196  1.00  0.00     0.068 A 
ATOM     16  C   UNL     1     -20.690 -24.112  81.619  1.00  0.00     0.158 A 
BRANCH  14  17
ATOM     17  O   UNL     1     -21.823 -25.740  80.239  1.00  0.00    -0.504 OA
ATOM     18  H   UNL     1     -21.806 -26.417  79.484  1.00  0.00     0.293 HD
ENDBRANCH  14  17
BRANCH  16  19
ATOM     19  O   UNL     1     -21.906 -23.469  81.843  1.00  0.00    -0.504 OA
ATOM     20  H   UNL     1     -22.319 -22.859  81.146  1.00  0.00     0.293 HD
ENDBRANCH  16  19
ENDBRANCH   1  11
BRANCH  10  21
ATOM     21  O   UNL     1     -17.267 -25.101  84.586  1.00  0.00    -0.500 OA
ATOM     22  H   UNL     1     -16.835 -25.590  85.361  1.00  0.00     0.294 HD
ENDBRANCH  10  21
BRANCH   5  23
ATOM     23  O   UNL     1     -12.877 -19.641  81.246  1.00  0.00    -0.507 OA
ATOM     24  H   UNL     1     -11.894 -19.684  81.003  1.00  0.00     0.293 HD
ENDBRANCH   5  23
BRANCH   7  25
ATOM     25  O   UNL     1     -12.875 -22.331  85.242  1.00  0.00    -0.507 OA
ATOM     26  H   UNL     1     -12.328 -23.167  85.386  1.00  0.00     0.293 HD
ENDBRANCH   7  25
TORSDOF 6
ENDMDL
