MODEL 1
REMARK VINA RESULT:    -2.324      0.000      0.000
REMARK INTER + INTRA:          -3.546
REMARK INTER:                  -3.682
REMARK INTRA:                   0.137
REMARK UNBOUND:                 0.137
REMARK SMILES CCCCCCCCCCCC(=O)[O-]
REMARK SMILES IDX 7 1 8 2 9 3 10 4 11 5 12 6 13 7 14 8 6 9 5 10 4 11 3 12 2 13
REMARK SMILES IDX 1 14
REMARK H PARENT
REMARK Flexibility Score: inf
ROOT
ATOM      1  C   UNL     1      -0.276 -31.006  -5.171  1.00  0.00     0.000 C 
ENDROOT
BRANCH   1   2
ATOM      2  C   UNL     1      -1.382 -32.051  -4.961  1.00  0.00     0.000 C 
BRANCH   2   3
ATOM      3  C   UNL     1      -2.383 -31.640  -3.867  1.00  0.00     0.000 C 
BRANCH   3   4
ATOM      4  C   UNL     1      -3.809 -31.457  -4.410  1.00  0.00     0.006 C 
BRANCH   4   5
ATOM      5  C   UNL     1      -3.868 -30.486  -5.596  1.00  0.00     0.053 C 
BRANCH   5   6
ATOM      6  C   UNL     1      -4.014 -31.240  -6.880  1.00  0.00     0.041 C 
ATOM      7  O   UNL     1      -5.079 -31.158  -7.545  1.00  0.00    -0.550 OA
ATOM      8  O   UNL     1      -2.953 -31.992  -7.370  1.00  0.00    -0.550 OA
ENDBRANCH   5   6
ENDBRANCH   4   5
ENDBRANCH   3   4
ENDBRANCH   2   3
ENDBRANCH   1   2
BRANCH   1   9
ATOM      9  C   UNL     1       1.026 -31.369  -4.443  1.00  0.00     0.000 C 
BRANCH   9  10
ATOM     10  C   UNL     1       1.993 -32.105  -5.380  1.00  0.00    -0.000 C 
BRANCH  10  11
ATOM     11  C   UNL     1       1.733 -31.727  -6.846  1.00  0.00    -0.000 C 
BRANCH  11  12
ATOM     12  C   UNL     1       2.463 -30.439  -7.271  1.00  0.00    -0.000 C 
BRANCH  12  13
ATOM     13  C   UNL     1       3.876 -30.655  -7.842  1.00  0.00    -0.003 C 
ATOM     14  C   UNL     1       4.190 -32.123  -8.124  1.00  0.00     0.004 C 
ENDBRANCH  12  13
ENDBRANCH  11  12
ENDBRANCH  10  11
ENDBRANCH   9  10
ENDBRANCH   1   9
TORSDOF 10
ENDMDL
MODEL 2
REMARK VINA RESULT:    -2.139     22.947     24.020
REMARK INTER + INTRA:          -3.252
REMARK INTER:                  -2.641
REMARK INTRA:                  -0.611
REMARK UNBOUND:                 0.137
REMARK SMILES CCCCCCCCCCCC(=O)[O-]
REMARK SMILES IDX 7 1 8 2 9 3 10 4 11 5 12 6 13 7 14 8 6 9 5 10 4 11 3 12 2 13
REMARK SMILES IDX 1 14
REMARK H PARENT
REMARK Flexibility Score: inf
ROOT
ATOM      1  C   UNL     1       4.222 -13.297   8.804  1.00  0.00     0.000 C 
ENDROOT
BRANCH   1   2
ATOM      2  C   UNL     1       3.195 -14.436   8.896  1.00  0.00     0.000 C 
BRANCH   2   3
ATOM      3  C   UNL     1       3.088 -15.243   7.591  1.00  0.00     0.000 C 
BRANCH   3   4
ATOM      4  C   UNL     1       3.720 -14.515   6.394  1.00  0.00     0.006 C 
BRANCH   4   5
ATOM      5  C   UNL     1       2.687 -14.124   5.330  1.00  0.00     0.053 C 
BRANCH   5   6
ATOM      6  C   UNL     1       1.545 -13.389   5.957  1.00  0.00     0.041 C 
ATOM      7  O   UNL     1       1.712 -12.226   6.410  1.00  0.00    -0.550 OA
ATOM      8  O   UNL     1       0.282 -13.967   5.994  1.00  0.00    -0.550 OA
ENDBRANCH   5   6
ENDBRANCH   4   5
ENDBRANCH   3   4
ENDBRANCH   2   3
ENDBRANCH   1   2
BRANCH   1   9
ATOM      9  C   UNL     1       3.627 -11.933   9.180  1.00  0.00     0.000 C 
BRANCH   9  10
ATOM     10  C   UNL     1       2.632 -12.067  10.340  1.00  0.00    -0.000 C 
BRANCH  10  11
ATOM     11  C   UNL     1       3.366 -12.185  11.684  1.00  0.00    -0.000 C 
BRANCH  11  12
ATOM     12  C   UNL     1       3.743 -13.636  12.036  1.00  0.00    -0.000 C 
BRANCH  12  13
ATOM     13  C   UNL     1       5.256 -13.908  12.125  1.00  0.00    -0.003 C 
ATOM     14  C   UNL     1       6.095 -12.632  12.088  1.00  0.00     0.004 C 
ENDBRANCH  12  13
ENDBRANCH  11  12
ENDBRANCH  10  11
ENDBRANCH   9  10
ENDBRANCH   1   9
TORSDOF 10
ENDMDL
MODEL 3
REMARK VINA RESULT:    -1.227      2.912      6.193
REMARK INTER + INTRA:          -1.808
REMARK INTER:                  -1.557
REMARK INTRA:                  -0.251
REMARK UNBOUND:                 0.137
REMARK SMILES CCCCCCCCCCCC(=O)[O-]
REMARK SMILES IDX 7 1 8 2 9 3 10 4 11 5 12 6 13 7 14 8 6 9 5 10 4 11 3 12 2 13
REMARK SMILES IDX 1 14
REMARK H PARENT
REMARK Flexibility Score: inf
ROOT
ATOM      1  C   UNL     1       0.744 -30.817  -3.281  1.00  0.00     0.000 C 
ENDROOT
BRANCH   1   2
ATOM      2  C   UNL     1       1.200 -31.764  -4.401  1.00  0.00     0.000 C 
BRANCH   2   3
ATOM      3  C   UNL     1       1.029 -31.149  -5.801  1.00  0.00     0.000 C 
BRANCH   3   4
ATOM      4  C   UNL     1       1.585 -32.051  -6.914  1.00  0.00     0.006 C 
BRANCH   4   5
ATOM      5  C   UNL     1       3.117 -32.125  -6.903  1.00  0.00     0.053 C 
BRANCH   5   6
ATOM      6  C   UNL     1       3.699 -31.015  -7.721  1.00  0.00     0.041 C 
ATOM      7  O   UNL     1       3.002 -30.005  -8.006  1.00  0.00    -0.550 OA
ATOM      8  O   UNL     1       5.027 -31.071  -8.125  1.00  0.00    -0.550 OA
ENDBRANCH   5   6
ENDBRANCH   4   5
ENDBRANCH   3   4
ENDBRANCH   2   3
ENDBRANCH   1   2
BRANCH   1   9
ATOM      9  C   UNL     1      -0.784 -30.741  -3.156  1.00  0.00     0.000 C 
BRANCH   9  10
ATOM     10  C   UNL     1      -1.436 -32.069  -3.563  1.00  0.00    -0.000 C 
BRANCH  10  11
ATOM     11  C   UNL     1      -2.231 -31.914  -4.868  1.00  0.00    -0.000 C 
BRANCH  11  12
ATOM     12  C   UNL     1      -3.181 -30.702  -4.851  1.00  0.00    -0.000 C 
BRANCH  12  13
ATOM     13  C   UNL     1      -4.522 -30.921  -5.576  1.00  0.00    -0.003 C 
ATOM     14  C   UNL     1      -4.353 -31.245  -7.059  1.00  0.00     0.004 C 
ENDBRANCH  12  13
ENDBRANCH  11  12
ENDBRANCH  10  11
ENDBRANCH   9  10
ENDBRANCH   1   9
TORSDOF 10
ENDMDL
MODEL 4
REMARK VINA RESULT:    -1.092      1.125      1.732
REMARK INTER + INTRA:          -1.593
REMARK INTER:                  -1.139
REMARK INTRA:                  -0.454
REMARK UNBOUND:                 0.137
REMARK SMILES CCCCCCCCCCCC(=O)[O-]
REMARK SMILES IDX 7 1 8 2 9 3 10 4 11 5 12 6 13 7 14 8 6 9 5 10 4 11 3 12 2 13
REMARK SMILES IDX 1 14
REMARK H PARENT
REMARK Flexibility Score: inf
ROOT
ATOM      1  C   UNL     1       0.810 -31.272  -3.965  1.00  0.00     0.000 C 
ENDROOT
BRANCH   1   2
ATOM      2  C   UNL     1      -0.447 -31.339  -4.847  1.00  0.00     0.000 C 
BRANCH   2   3
ATOM      3  C   UNL     1      -1.675 -31.868  -4.087  1.00  0.00     0.000 C 
BRANCH   3   4
ATOM      4  C   UNL     1      -2.792 -30.819  -3.966  1.00  0.00     0.006 C 
BRANCH   4   5
ATOM      5  C   UNL     1      -3.217 -30.252  -5.326  1.00  0.00     0.053 C 
BRANCH   5   6
ATOM      6  C   UNL     1      -4.138 -31.203  -6.023  1.00  0.00     0.041 C 
ATOM      7  O   UNL     1      -4.726 -32.107  -5.373  1.00  0.00    -0.550 OA
ATOM      8  O   UNL     1      -4.388 -31.059  -7.382  1.00  0.00    -0.550 OA
ENDBRANCH   5   6
ENDBRANCH   4   5
ENDBRANCH   3   4
ENDBRANCH   2   3
ENDBRANCH   1   2
BRANCH   1   9
ATOM      9  C   UNL     1       2.108 -31.285  -4.785  1.00  0.00     0.000 C 
BRANCH   9  10
ATOM     10  C   UNL     1       1.939 -32.104  -6.071  1.00  0.00    -0.000 C 
BRANCH  10  11
ATOM     11  C   UNL     1       3.241 -32.125  -6.885  1.00  0.00    -0.000 C 
BRANCH  11  12
ATOM     12  C   UNL     1       3.580 -30.759  -7.509  1.00  0.00    -0.000 C 
BRANCH  12  13
ATOM     13  C   UNL     1       2.359 -29.897  -7.882  1.00  0.00    -0.003 C 
ATOM     14  C   UNL     1       2.216 -28.653  -7.008  1.00  0.00     0.004 C 
ENDBRANCH  12  13
ENDBRANCH  11  12
ENDBRANCH  10  11
ENDBRANCH   9  10
ENDBRANCH   1   9
TORSDOF 10
ENDMDL
MODEL 5
REMARK VINA RESULT:     0.376     22.900     24.035
REMARK INTER + INTRA:           0.733
REMARK INTER:                   1.197
REMARK INTRA:                  -0.464
REMARK UNBOUND:                 0.137
REMARK SMILES CCCCCCCCCCCC(=O)[O-]
REMARK SMILES IDX 7 1 8 2 9 3 10 4 11 5 12 6 13 7 14 8 6 9 5 10 4 11 3 12 2 13
REMARK SMILES IDX 1 14
REMARK H PARENT
REMARK Flexibility Score: inf
ROOT
ATOM      1  C   UNL     1       3.441 -14.164   9.539  1.00  0.00     0.000 C 
ENDROOT
BRANCH   1   2
ATOM      2  C   UNL     1       3.111 -14.751   8.157  1.00  0.00     0.000 C 
BRANCH   2   3
ATOM      3  C   UNL     1       4.137 -14.350   7.084  1.00  0.00     0.000 C 
BRANCH   3   4
ATOM      4  C   UNL     1       3.527 -13.464   5.985  1.00  0.00     0.006 C 
BRANCH   4   5
ATOM      5  C   UNL     1       2.131 -12.948   6.353  1.00  0.00     0.053 C 
BRANCH   5   6
ATOM      6  C   UNL     1       1.083 -13.681   5.576  1.00  0.00     0.041 C 
ATOM      7  O   UNL     1       0.076 -14.158   6.164  1.00  0.00    -0.550 OA
ATOM      8  O   UNL     1       1.191 -13.794   4.195  1.00  0.00    -0.550 OA
ENDBRANCH   5   6
ENDBRANCH   4   5
ENDBRANCH   3   4
ENDBRANCH   2   3
ENDBRANCH   1   2
BRANCH   1   9
ATOM      9  C   UNL     1       4.212 -12.839   9.449  1.00  0.00     0.000 C 
BRANCH   9  10
ATOM     10  C   UNL     1       5.008 -12.578  10.734  1.00  0.00    -0.000 C 
BRANCH  10  11
ATOM     11  C   UNL     1       4.155 -12.867  11.978  1.00  0.00    -0.000 C 
BRANCH  11  12
ATOM     12  C   UNL     1       2.899 -11.981  12.063  1.00  0.00    -0.000 C 
BRANCH  12  13
ATOM     13  C   UNL     1       1.567 -12.751  12.124  1.00  0.00    -0.003 C 
ATOM     14  C   UNL     1       0.356 -11.876  11.807  1.00  0.00     0.004 C 
ENDBRANCH  12  13
ENDBRANCH  11  12
ENDBRANCH  10  11
ENDBRANCH   9  10
ENDBRANCH   1   9
TORSDOF 10
ENDMDL
