MODEL 1
REMARK VINA RESULT:    -5.576      0.000      0.000
REMARK INTER + INTRA:         -18.808
REMARK INTER:                 -14.702
REMARK INTRA:                  -4.106
REMARK UNBOUND:                -4.106
REMARK SMILES CCCCCCCCCCCCCCCCCCCCCCCCCCCCCC(=O)[O-]
REMARK SMILES IDX 16 1 17 2 18 3 19 4 20 5 21 6 22 7 23 8 24 9 25 10 26 11
REMARK SMILES IDX 27 12 28 13 29 14 30 15 31 16 32 17 15 18 14 19 13 20 12 21
REMARK SMILES IDX 11 22 10 23 9 24 8 25 7 26 6 27 5 28 4 29 3 30 2 31 1 32
REMARK H PARENT
REMARK Flexibility Score: inf
ROOT
ATOM      1  C   UNL     1     -11.620  -9.558  10.591  1.00  0.00     0.000 C 
ENDROOT
BRANCH   1   2
ATOM      2  C   UNL     1     -12.217 -10.301  11.795  1.00  0.00     0.000 C 
BRANCH   2   3
ATOM      3  C   UNL     1     -13.687 -10.660  11.543  1.00  0.00     0.000 C 
BRANCH   3   4
ATOM      4  C   UNL     1     -14.283  -9.931  10.324  1.00  0.00     0.000 C 
BRANCH   4   5
ATOM      5  C   UNL     1     -15.663  -9.289  10.560  1.00  0.00     0.000 C 
BRANCH   5   6
ATOM      6  C   UNL     1     -15.925  -8.080   9.649  1.00  0.00     0.000 C 
BRANCH   6   7
ATOM      7  C   UNL     1     -14.651  -7.674   8.894  1.00  0.00     0.000 C 
BRANCH   7   8
ATOM      8  C   UNL     1     -14.551  -6.156   8.675  1.00  0.00     0.000 C 
BRANCH   8   9
ATOM      9  C   UNL     1     -13.890  -5.430   9.857  1.00  0.00     0.000 C 
BRANCH   9  10
ATOM     10  C   UNL     1     -13.593  -3.965   9.504  1.00  0.00     0.000 C 
BRANCH  10  11
ATOM     11  C   UNL     1     -14.754  -3.282   8.760  1.00  0.00     0.000 C 
BRANCH  11  12
ATOM     12  C   UNL     1     -14.344  -2.474   7.512  1.00  0.00     0.000 C 
BRANCH  12  13
ATOM     13  C   UNL     1     -14.078  -3.312   6.246  1.00  0.00     0.006 C 
BRANCH  13  14
ATOM     14  C   UNL     1     -15.114  -3.119   5.128  1.00  0.00     0.053 C 
BRANCH  14  15
ATOM     15  C   UNL     1     -14.881  -4.055   3.982  1.00  0.00     0.041 C 
ATOM     16  O   UNL     1     -13.950  -3.836   3.164  1.00  0.00    -0.550 OA
ATOM     17  O   UNL     1     -15.717  -5.148   3.797  1.00  0.00    -0.550 OA
ENDBRANCH  14  15
ENDBRANCH  13  14
ENDBRANCH  12  13
ENDBRANCH  11  12
ENDBRANCH  10  11
ENDBRANCH   9  10
ENDBRANCH   8   9
ENDBRANCH   7   8
ENDBRANCH   6   7
ENDBRANCH   5   6
ENDBRANCH   4   5
ENDBRANCH   3   4
ENDBRANCH   2   3
ENDBRANCH   1   2
BRANCH   1  18
ATOM     18  C   UNL     1     -11.279  -8.093  10.911  1.00  0.00     0.000 C 
BRANCH  18  19
ATOM     19  C   UNL     1     -10.873  -7.295   9.663  1.00  0.00     0.000 C 
BRANCH  19  20
ATOM     20  C   UNL     1     -11.039  -8.145   8.396  1.00  0.00     0.000 C 
BRANCH  20  21
ATOM     21  C   UNL     1      -9.873  -7.975   7.405  1.00  0.00     0.000 C 
BRANCH  21  22
ATOM     22  C   UNL     1      -8.579  -8.728   7.778  1.00  0.00     0.000 C 
BRANCH  22  23
ATOM     23  C   UNL     1      -8.783 -10.128   8.384  1.00  0.00     0.000 C 
BRANCH  23  24
ATOM     24  C   UNL     1      -8.452 -11.261   7.397  1.00  0.00    -0.000 C 
BRANCH  24  25
ATOM     25  C   UNL     1      -9.683 -12.111   7.040  1.00  0.00    -0.000 C 
BRANCH  25  26
ATOM     26  C   UNL     1     -10.937 -11.706   7.837  1.00  0.00    -0.000 C 
BRANCH  26  27
ATOM     27  C   UNL     1     -11.204 -12.648   9.022  1.00  0.00    -0.000 C 
BRANCH  27  28
ATOM     28  C   UNL     1     -12.463 -13.509   8.817  1.00  0.00    -0.000 C 
BRANCH  28  29
ATOM     29  C   UNL     1     -12.139 -14.963   8.430  1.00  0.00    -0.000 C 
BRANCH  29  30
ATOM     30  C   UNL     1     -10.687 -15.402   8.700  1.00  0.00    -0.000 C 
BRANCH  30  31
ATOM     31  C   UNL     1     -10.593 -16.626   9.621  1.00  0.00    -0.003 C 
ATOM     32  C   UNL     1     -11.625 -17.683   9.235  1.00  0.00     0.004 C 
ENDBRANCH  30  31
ENDBRANCH  29  30
ENDBRANCH  28  29
ENDBRANCH  27  28
ENDBRANCH  26  27
ENDBRANCH  25  26
ENDBRANCH  24  25
ENDBRANCH  23  24
ENDBRANCH  22  23
ENDBRANCH  21  22
ENDBRANCH  20  21
ENDBRANCH  19  20
ENDBRANCH  18  19
ENDBRANCH   1  18
TORSDOF 28
ENDMDL
MODEL 2
REMARK VINA RESULT:    -5.549      1.171      2.308
REMARK INTER + INTRA:         -18.737
REMARK INTER:                 -14.459
REMARK INTRA:                  -4.278
REMARK UNBOUND:                -4.106
REMARK SMILES CCCCCCCCCCCCCCCCCCCCCCCCCCCCCC(=O)[O-]
REMARK SMILES IDX 16 1 17 2 18 3 19 4 20 5 21 6 22 7 23 8 24 9 25 10 26 11
REMARK SMILES IDX 27 12 28 13 29 14 30 15 31 16 32 17 15 18 14 19 13 20 12 21
REMARK SMILES IDX 11 22 10 23 9 24 8 25 7 26 6 27 5 28 4 29 3 30 2 31 1 32
REMARK H PARENT
REMARK Flexibility Score: inf
ROOT
ATOM      1  C   UNL     1     -13.261  -8.750   9.553  1.00  0.00     0.000 C 
ENDROOT
BRANCH   1   2
ATOM      2  C   UNL     1     -14.574  -9.058  10.288  1.00  0.00     0.000 C 
BRANCH   2   3
ATOM      3  C   UNL     1     -15.759  -8.364   9.604  1.00  0.00     0.000 C 
BRANCH   3   4
ATOM      4  C   UNL     1     -15.344  -7.539   8.372  1.00  0.00     0.000 C 
BRANCH   4   5
ATOM      5  C   UNL     1     -15.328  -6.015   8.585  1.00  0.00     0.000 C 
BRANCH   5   6
ATOM      6  C   UNL     1     -13.949  -5.388   8.328  1.00  0.00     0.000 C 
BRANCH   6   7
ATOM      7  C   UNL     1     -13.754  -4.121   9.173  1.00  0.00     0.000 C 
BRANCH   7   8
ATOM      8  C   UNL     1     -14.928  -3.137   9.046  1.00  0.00     0.000 C 
BRANCH   8   9
ATOM      9  C   UNL     1     -14.480  -1.734   8.612  1.00  0.00     0.000 C 
BRANCH   9  10
ATOM     10  C   UNL     1     -13.174  -1.799   7.807  1.00  0.00     0.000 C 
BRANCH  10  11
ATOM     11  C   UNL     1     -13.329  -1.268   6.371  1.00  0.00     0.000 C 
BRANCH  11  12
ATOM     12  C   UNL     1     -14.402  -1.980   5.524  1.00  0.00     0.000 C 
BRANCH  12  13
ATOM     13  C   UNL     1     -14.137  -3.475   5.250  1.00  0.00     0.006 C 
BRANCH  13  14
ATOM     14  C   UNL     1     -15.358  -4.251   4.734  1.00  0.00     0.053 C 
BRANCH  14  15
ATOM     15  C   UNL     1     -15.224  -4.603   3.284  1.00  0.00     0.041 C 
ATOM     16  O   UNL     1     -14.500  -3.905   2.526  1.00  0.00    -0.550 OA
ATOM     17  O   UNL     1     -15.929  -5.679   2.763  1.00  0.00    -0.550 OA
ENDBRANCH  14  15
ENDBRANCH  13  14
ENDBRANCH  12  13
ENDBRANCH  11  12
ENDBRANCH  10  11
ENDBRANCH   9  10
ENDBRANCH   8   9
ENDBRANCH   7   8
ENDBRANCH   6   7
ENDBRANCH   5   6
ENDBRANCH   4   5
ENDBRANCH   3   4
ENDBRANCH   2   3
ENDBRANCH   1   2
BRANCH   1  18
ATOM     18  C   UNL     1     -12.278  -7.942  10.416  1.00  0.00     0.000 C 
BRANCH  18  19
ATOM     19  C   UNL     1     -10.920  -7.733   9.727  1.00  0.00     0.000 C 
BRANCH  19  20
ATOM     20  C   UNL     1     -10.974  -8.202   8.266  1.00  0.00     0.000 C 
BRANCH  20  21
ATOM     21  C   UNL     1      -9.591  -8.206   7.588  1.00  0.00     0.000 C 
BRANCH  21  22
ATOM     22  C   UNL     1      -8.618  -9.292   8.091  1.00  0.00     0.000 C 
BRANCH  22  23
ATOM     23  C   UNL     1      -8.761 -10.669   7.418  1.00  0.00     0.000 C 
BRANCH  23  24
ATOM     24  C   UNL     1      -9.746 -11.594   8.153  1.00  0.00    -0.000 C 
BRANCH  24  25
ATOM     25  C   UNL     1      -9.761 -11.353   9.671  1.00  0.00    -0.000 C 
BRANCH  25  26
ATOM     26  C   UNL     1     -10.898 -12.111  10.382  1.00  0.00    -0.000 C 
BRANCH  26  27
ATOM     27  C   UNL     1     -12.241 -11.972   9.647  1.00  0.00    -0.000 C 
BRANCH  27  28
ATOM     28  C   UNL     1     -13.169 -13.176   9.883  1.00  0.00    -0.000 C 
BRANCH  28  29
ATOM     29  C   UNL     1     -13.263 -14.109   8.661  1.00  0.00    -0.000 C 
BRANCH  29  30
ATOM     30  C   UNL     1     -11.911 -14.596   8.108  1.00  0.00    -0.000 C 
BRANCH  30  31
ATOM     31  C   UNL     1     -11.316 -15.756   8.916  1.00  0.00    -0.003 C 
ATOM     32  C   UNL     1      -9.792 -15.665   8.967  1.00  0.00     0.004 C 
ENDBRANCH  30  31
ENDBRANCH  29  30
ENDBRANCH  28  29
ENDBRANCH  27  28
ENDBRANCH  26  27
ENDBRANCH  25  26
ENDBRANCH  24  25
ENDBRANCH  23  24
ENDBRANCH  22  23
ENDBRANCH  21  22
ENDBRANCH  20  21
ENDBRANCH  19  20
ENDBRANCH  18  19
ENDBRANCH   1  18
TORSDOF 28
ENDMDL
MODEL 3
REMARK VINA RESULT:    -5.175      1.537      4.341
REMARK INTER + INTRA:         -17.752
REMARK INTER:                 -13.706
REMARK INTRA:                  -4.045
REMARK UNBOUND:                -4.106
REMARK SMILES CCCCCCCCCCCCCCCCCCCCCCCCCCCCCC(=O)[O-]
REMARK SMILES IDX 16 1 17 2 18 3 19 4 20 5 21 6 22 7 23 8 24 9 25 10 26 11
REMARK SMILES IDX 27 12 28 13 29 14 30 15 31 16 32 17 15 18 14 19 13 20 12 21
REMARK SMILES IDX 11 22 10 23 9 24 8 25 7 26 6 27 5 28 4 29 3 30 2 31 1 32
REMARK H PARENT
REMARK Flexibility Score: inf
ROOT
ATOM      1  C   UNL     1     -13.971  -7.795   8.420  1.00  0.00     0.000 C 
ENDROOT
BRANCH   1   2
ATOM      2  C   UNL     1     -15.314  -7.071   8.596  1.00  0.00     0.000 C 
BRANCH   2   3
ATOM      3  C   UNL     1     -15.945  -7.408   9.953  1.00  0.00     0.000 C 
BRANCH   3   4
ATOM      4  C   UNL     1     -16.123  -6.174  10.857  1.00  0.00     0.000 C 
BRANCH   4   5
ATOM      5  C   UNL     1     -15.362  -4.916  10.398  1.00  0.00     0.000 C 
BRANCH   5   6
ATOM      6  C   UNL     1     -16.000  -3.613  10.903  1.00  0.00     0.000 C 
BRANCH   6   7
ATOM      7  C   UNL     1     -15.999  -2.538   9.805  1.00  0.00     0.000 C 
BRANCH   7   8
ATOM      8  C   UNL     1     -15.071  -1.358  10.133  1.00  0.00     0.000 C 
BRANCH   8   9
ATOM      9  C   UNL     1     -14.040  -1.090   9.026  1.00  0.00     0.000 C 
BRANCH   9  10
ATOM     10  C   UNL     1     -13.644  -2.395   8.318  1.00  0.00     0.000 C 
BRANCH  10  11
ATOM     11  C   UNL     1     -13.847  -2.334   6.794  1.00  0.00     0.000 C 
BRANCH  11  12
ATOM     12  C   UNL     1     -15.307  -2.485   6.324  1.00  0.00     0.000 C 
BRANCH  12  13
ATOM     13  C   UNL     1     -15.816  -3.938   6.219  1.00  0.00     0.006 C 
BRANCH  13  14
ATOM     14  C   UNL     1     -14.888  -4.879   5.437  1.00  0.00     0.053 C 
BRANCH  14  15
ATOM     15  C   UNL     1     -14.975  -4.649   3.959  1.00  0.00     0.041 C 
ATOM     16  O   UNL     1     -14.279  -3.752   3.415  1.00  0.00    -0.550 OA
ATOM     17  O   UNL     1     -15.852  -5.402   3.189  1.00  0.00    -0.550 OA
ENDBRANCH  14  15
ENDBRANCH  13  14
ENDBRANCH  12  13
ENDBRANCH  11  12
ENDBRANCH  10  11
ENDBRANCH   9  10
ENDBRANCH   8   9
ENDBRANCH   7   8
ENDBRANCH   6   7
ENDBRANCH   5   6
ENDBRANCH   4   5
ENDBRANCH   3   4
ENDBRANCH   2   3
ENDBRANCH   1   2
BRANCH   1  18
ATOM     18  C   UNL     1     -12.770  -6.839   8.492  1.00  0.00     0.000 C 
BRANCH  18  19
ATOM     19  C   UNL     1     -11.644  -7.371   9.390  1.00  0.00     0.000 C 
BRANCH  19  20
ATOM     20  C   UNL     1     -12.220  -8.148  10.582  1.00  0.00     0.000 C 
BRANCH  20  21
ATOM     21  C   UNL     1     -11.338  -9.338  11.003  1.00  0.00     0.000 C 
BRANCH  21  22
ATOM     22  C   UNL     1     -12.106 -10.590  11.473  1.00  0.00     0.000 C 
BRANCH  22  23
ATOM     23  C   UNL     1     -13.242 -11.055  10.543  1.00  0.00     0.000 C 
BRANCH  23  24
ATOM     24  C   UNL     1     -13.141 -12.546  10.176  1.00  0.00    -0.000 C 
BRANCH  24  25
ATOM     25  C   UNL     1     -11.696 -12.985   9.884  1.00  0.00    -0.000 C 
BRANCH  25  26
ATOM     26  C   UNL     1     -11.489 -13.411   8.419  1.00  0.00    -0.000 C 
BRANCH  26  27
ATOM     27  C   UNL     1     -10.359 -12.623   7.737  1.00  0.00    -0.000 C 
BRANCH  27  28
ATOM     28  C   UNL     1     -10.674 -11.122   7.621  1.00  0.00    -0.000 C 
BRANCH  28  29
ATOM     29  C   UNL     1      -9.543 -10.228   8.162  1.00  0.00    -0.000 C 
BRANCH  29  30
ATOM     30  C   UNL     1      -8.152 -10.498   7.558  1.00  0.00    -0.000 C 
BRANCH  30  31
ATOM     31  C   UNL     1      -7.493  -9.236   6.985  1.00  0.00    -0.003 C 
ATOM     32  C   UNL     1      -8.391  -8.016   7.170  1.00  0.00     0.004 C 
ENDBRANCH  30  31
ENDBRANCH  29  30
ENDBRANCH  28  29
ENDBRANCH  27  28
ENDBRANCH  26  27
ENDBRANCH  25  26
ENDBRANCH  24  25
ENDBRANCH  23  24
ENDBRANCH  22  23
ENDBRANCH  21  22
ENDBRANCH  20  21
ENDBRANCH  19  20
ENDBRANCH  18  19
ENDBRANCH   1  18
TORSDOF 28
ENDMDL
MODEL 4
REMARK VINA RESULT:    -5.041      3.709      9.950
REMARK INTER + INTRA:         -17.398
REMARK INTER:                 -13.706
REMARK INTRA:                  -3.692
REMARK UNBOUND:                -4.106
REMARK SMILES CCCCCCCCCCCCCCCCCCCCCCCCCCCCCC(=O)[O-]
REMARK SMILES IDX 16 1 17 2 18 3 19 4 20 5 21 6 22 7 23 8 24 9 25 10 26 11
REMARK SMILES IDX 27 12 28 13 29 14 30 15 31 16 32 17 15 18 14 19 13 20 12 21
REMARK SMILES IDX 11 22 10 23 9 24 8 25 7 26 6 27 5 28 4 29 3 30 2 31 1 32
REMARK H PARENT
REMARK Flexibility Score: inf
ROOT
ATOM      1  C   UNL     1     -11.984  -8.501   7.828  1.00  0.00     0.000 C 
ENDROOT
BRANCH   1   2
ATOM      2  C   UNL     1     -10.622  -8.009   8.337  1.00  0.00     0.000 C 
BRANCH   2   3
ATOM      3  C   UNL     1      -9.535  -8.204   7.271  1.00  0.00     0.000 C 
BRANCH   3   4
ATOM      4  C   UNL     1      -8.326  -9.008   7.785  1.00  0.00     0.000 C 
BRANCH   4   5
ATOM      5  C   UNL     1      -8.302 -10.488   7.364  1.00  0.00     0.000 C 
BRANCH   5   6
ATOM      6  C   UNL     1      -9.663 -11.182   7.531  1.00  0.00     0.000 C 
BRANCH   6   7
ATOM      7  C   UNL     1      -9.701 -12.015   8.821  1.00  0.00     0.000 C 
BRANCH   7   8
ATOM      8  C   UNL     1      -9.751 -11.146  10.087  1.00  0.00     0.000 C 
BRANCH   8   9
ATOM      9  C   UNL     1     -11.187 -10.841  10.539  1.00  0.00     0.000 C 
BRANCH   9  10
ATOM     10  C   UNL     1     -11.954 -12.138  10.842  1.00  0.00     0.000 C 
BRANCH  10  11
ATOM     11  C   UNL     1     -13.177 -12.336   9.928  1.00  0.00     0.000 C 
BRANCH  11  12
ATOM     12  C   UNL     1     -13.300 -13.739   9.299  1.00  0.00     0.000 C 
BRANCH  12  13
ATOM     13  C   UNL     1     -12.178 -14.116   8.311  1.00  0.00     0.006 C 
BRANCH  13  14
ATOM     14  C   UNL     1     -11.684 -15.565   8.435  1.00  0.00     0.053 C 
BRANCH  14  15
ATOM     15  C   UNL     1     -10.327 -15.642   9.064  1.00  0.00     0.041 C 
ATOM     16  O   UNL     1     -10.151 -15.238  10.243  1.00  0.00    -0.550 OA
ATOM     17  O   UNL     1      -9.250 -16.126   8.334  1.00  0.00    -0.550 OA
ENDBRANCH  14  15
ENDBRANCH  13  14
ENDBRANCH  12  13
ENDBRANCH  11  12
ENDBRANCH  10  11
ENDBRANCH   9  10
ENDBRANCH   8   9
ENDBRANCH   7   8
ENDBRANCH   6   7
ENDBRANCH   5   6
ENDBRANCH   4   5
ENDBRANCH   3   4
ENDBRANCH   2   3
ENDBRANCH   1   2
BRANCH   1  18
ATOM     18  C   UNL     1     -13.155  -7.981   8.678  1.00  0.00     0.000 C 
BRANCH  18  19
ATOM     19  C   UNL     1     -12.709  -6.968   9.742  1.00  0.00     0.000 C 
BRANCH  19  20
ATOM     20  C   UNL     1     -13.519  -5.669   9.630  1.00  0.00     0.000 C 
BRANCH  20  21
ATOM     21  C   UNL     1     -14.902  -5.880   8.987  1.00  0.00     0.000 C 
BRANCH  21  22
ATOM     22  C   UNL     1     -15.954  -4.803   9.324  1.00  0.00     0.000 C 
BRANCH  22  23
ATOM     23  C   UNL     1     -15.863  -4.214  10.743  1.00  0.00     0.000 C 
BRANCH  23  24
ATOM     24  C   UNL     1     -15.897  -2.675  10.754  1.00  0.00    -0.000 C 
BRANCH  24  25
ATOM     25  C   UNL     1     -15.652  -2.070   9.362  1.00  0.00    -0.000 C 
BRANCH  25  26
ATOM     26  C   UNL     1     -14.211  -1.557   9.183  1.00  0.00    -0.000 C 
BRANCH  26  27
ATOM     27  C   UNL     1     -13.459  -2.308   8.072  1.00  0.00    -0.000 C 
BRANCH  27  28
ATOM     28  C   UNL     1     -13.504  -1.567   6.724  1.00  0.00    -0.000 C 
BRANCH  28  29
ATOM     29  C   UNL     1     -14.685  -2.004   5.839  1.00  0.00    -0.000 C 
BRANCH  29  30
ATOM     30  C   UNL     1     -15.037  -3.501   5.914  1.00  0.00    -0.000 C 
BRANCH  30  31
ATOM     31  C   UNL     1     -14.357  -4.332   4.817  1.00  0.00    -0.003 C 
ATOM     32  C   UNL     1     -14.212  -3.526   3.529  1.00  0.00     0.004 C 
ENDBRANCH  30  31
ENDBRANCH  29  30
ENDBRANCH  28  29
ENDBRANCH  27  28
ENDBRANCH  26  27
ENDBRANCH  25  26
ENDBRANCH  24  25
ENDBRANCH  23  24
ENDBRANCH  22  23
ENDBRANCH  21  22
ENDBRANCH  20  21
ENDBRANCH  19  20
ENDBRANCH  18  19
ENDBRANCH   1  18
TORSDOF 28
ENDMDL
MODEL 5
REMARK VINA RESULT:    -5.029     13.863     17.385
REMARK INTER + INTRA:         -17.366
REMARK INTER:                 -11.322
REMARK INTRA:                  -6.044
REMARK UNBOUND:                -4.106
REMARK SMILES CCCCCCCCCCCCCCCCCCCCCCCCCCCCCC(=O)[O-]
REMARK SMILES IDX 16 1 17 2 18 3 19 4 20 5 21 6 22 7 23 8 24 9 25 10 26 11
REMARK SMILES IDX 27 12 28 13 29 14 30 15 31 16 32 17 15 18 14 19 13 20 12 21
REMARK SMILES IDX 11 22 10 23 9 24 8 25 7 26 6 27 5 28 4 29 3 30 2 31 1 32
REMARK H PARENT
REMARK Flexibility Score: inf
ROOT
ATOM      1  C   UNL     1       2.277 -13.620  17.886  1.00  0.00     0.000 C 
ENDROOT
BRANCH   1   2
ATOM      2  C   UNL     1       3.342 -14.427  18.642  1.00  0.00     0.000 C 
BRANCH   2   3
ATOM      3  C   UNL     1       2.692 -15.511  19.512  1.00  0.00     0.000 C 
BRANCH   3   4
ATOM      4  C   UNL     1       3.165 -16.932  19.156  1.00  0.00     0.000 C 
BRANCH   4   5
ATOM      5  C   UNL     1       2.127 -17.797  18.417  1.00  0.00     0.000 C 
BRANCH   5   6
ATOM      6  C   UNL     1       2.103 -17.543  16.902  1.00  0.00     0.000 C 
BRANCH   6   7
ATOM      7  C   UNL     1       3.522 -17.315  16.360  1.00  0.00     0.000 C 
BRANCH   7   8
ATOM      8  C   UNL     1       3.597 -16.141  15.371  1.00  0.00     0.000 C 
BRANCH   8   9
ATOM      9  C   UNL     1       2.330 -16.011  14.511  1.00  0.00     0.000 C 
BRANCH   9  10
ATOM     10  C   UNL     1       2.417 -14.785  13.590  1.00  0.00     0.000 C 
BRANCH  10  11
ATOM     11  C   UNL     1       2.987 -13.543  14.298  1.00  0.00     0.000 C 
BRANCH  11  12
ATOM     12  C   UNL     1       2.040 -12.328  14.348  1.00  0.00     0.000 C 
BRANCH  12  13
ATOM     13  C   UNL     1       2.717 -10.981  14.673  1.00  0.00     0.006 C 
BRANCH  13  14
ATOM     14  C   UNL     1       2.424 -10.448  16.084  1.00  0.00     0.053 C 
BRANCH  14  15
ATOM     15  C   UNL     1       2.369  -8.951  16.116  1.00  0.00     0.041 C 
ATOM     16  O   UNL     1       2.341  -8.295  15.042  1.00  0.00    -0.550 OA
ATOM     17  O   UNL     1       2.385  -8.281  17.332  1.00  0.00    -0.550 OA
ENDBRANCH  14  15
ENDBRANCH  13  14
ENDBRANCH  12  13
ENDBRANCH  11  12
ENDBRANCH  10  11
ENDBRANCH   9  10
ENDBRANCH   8   9
ENDBRANCH   7   8
ENDBRANCH   6   7
ENDBRANCH   5   6
ENDBRANCH   4   5
ENDBRANCH   3   4
ENDBRANCH   2   3
ENDBRANCH   1   2
BRANCH   1  18
ATOM     18  C   UNL     1       0.882 -14.258  17.970  1.00  0.00     0.000 C 
BRANCH  18  19
ATOM     19  C   UNL     1      -0.044 -13.810  16.829  1.00  0.00     0.000 C 
BRANCH  19  20
ATOM     20  C   UNL     1      -0.651 -15.024  16.112  1.00  0.00     0.000 C 
BRANCH  20  21
ATOM     21  C   UNL     1      -1.171 -14.688  14.702  1.00  0.00     0.000 C 
BRANCH  21  22
ATOM     22  C   UNL     1      -2.458 -13.838  14.663  1.00  0.00     0.000 C 
BRANCH  22  23
ATOM     23  C   UNL     1      -3.677 -14.453  15.373  1.00  0.00     0.000 C 
BRANCH  23  24
ATOM     24  C   UNL     1      -4.628 -13.393  15.955  1.00  0.00    -0.000 C 
BRANCH  24  25
ATOM     25  C   UNL     1      -3.925 -12.449  16.944  1.00  0.00    -0.000 C 
BRANCH  25  26
ATOM     26  C   UNL     1      -3.303 -13.195  18.139  1.00  0.00    -0.000 C 
BRANCH  26  27
ATOM     27  C   UNL     1      -4.358 -13.936  18.977  1.00  0.00    -0.000 C 
BRANCH  27  28
ATOM     28  C   UNL     1      -3.866 -15.311  19.461  1.00  0.00    -0.000 C 
BRANCH  28  29
ATOM     29  C   UNL     1      -2.368 -15.542  19.190  1.00  0.00    -0.000 C 
BRANCH  29  30
ATOM     30  C   UNL     1      -1.836 -16.927  19.602  1.00  0.00    -0.000 C 
BRANCH  30  31
ATOM     31  C   UNL     1      -1.536 -17.834  18.401  1.00  0.00    -0.003 C 
ATOM     32  C   UNL     1      -2.712 -17.863  17.428  1.00  0.00     0.004 C 
ENDBRANCH  30  31
ENDBRANCH  29  30
ENDBRANCH  28  29
ENDBRANCH  27  28
ENDBRANCH  26  27
ENDBRANCH  25  26
ENDBRANCH  24  25
ENDBRANCH  23  24
ENDBRANCH  22  23
ENDBRANCH  21  22
ENDBRANCH  20  21
ENDBRANCH  19  20
ENDBRANCH  18  19
ENDBRANCH   1  18
TORSDOF 28
ENDMDL
MODEL 6
REMARK VINA RESULT:    -5.012      1.238      3.808
REMARK INTER + INTRA:         -17.322
REMARK INTER:                 -13.861
REMARK INTRA:                  -3.461
REMARK UNBOUND:                -4.106
REMARK SMILES CCCCCCCCCCCCCCCCCCCCCCCCCCCCCC(=O)[O-]
REMARK SMILES IDX 16 1 17 2 18 3 19 4 20 5 21 6 22 7 23 8 24 9 25 10 26 11
REMARK SMILES IDX 27 12 28 13 29 14 30 15 31 16 32 17 15 18 14 19 13 20 12 21
REMARK SMILES IDX 11 22 10 23 9 24 8 25 7 26 6 27 5 28 4 29 3 30 2 31 1 32
REMARK H PARENT
REMARK Flexibility Score: inf
ROOT
ATOM      1  C   UNL     1     -10.485  -8.247   9.367  1.00  0.00     0.000 C 
ENDROOT
BRANCH   1   2
ATOM      2  C   UNL     1     -11.026  -6.988  10.061  1.00  0.00     0.000 C 
BRANCH   2   3
ATOM      3  C   UNL     1     -12.559  -6.954  10.014  1.00  0.00     0.000 C 
BRANCH   3   4
ATOM      4  C   UNL     1     -13.109  -5.800   9.154  1.00  0.00     0.000 C 
BRANCH   4   5
ATOM      5  C   UNL     1     -14.527  -6.023   8.597  1.00  0.00     0.000 C 
BRANCH   5   6
ATOM      6  C   UNL     1     -15.626  -5.462   9.512  1.00  0.00     0.000 C 
BRANCH   6   7
ATOM      7  C   UNL     1     -15.114  -4.252  10.308  1.00  0.00     0.000 C 
BRANCH   7   8
ATOM      8  C   UNL     1     -15.765  -2.932   9.864  1.00  0.00     0.000 C 
BRANCH   8   9
ATOM      9  C   UNL     1     -14.734  -1.827   9.591  1.00  0.00     0.000 C 
BRANCH   9  10
ATOM     10  C   UNL     1     -13.543  -2.373   8.789  1.00  0.00     0.000 C 
BRANCH  10  11
ATOM     11  C   UNL     1     -13.454  -1.778   7.372  1.00  0.00     0.000 C 
BRANCH  11  12
ATOM     12  C   UNL     1     -14.740  -1.898   6.531  1.00  0.00     0.000 C 
BRANCH  12  13
ATOM     13  C   UNL     1     -15.120  -3.333   6.114  1.00  0.00     0.006 C 
BRANCH  13  14
ATOM     14  C   UNL     1     -14.223  -3.934   5.022  1.00  0.00     0.053 C 
BRANCH  14  15
ATOM     15  C   UNL     1     -14.999  -4.276   3.786  1.00  0.00     0.041 C 
ATOM     16  O   UNL     1     -16.074  -4.926   3.872  1.00  0.00    -0.550 OA
ATOM     17  O   UNL     1     -14.515  -3.906   2.538  1.00  0.00    -0.550 OA
ENDBRANCH  14  15
ENDBRANCH  13  14
ENDBRANCH  12  13
ENDBRANCH  11  12
ENDBRANCH  10  11
ENDBRANCH   9  10
ENDBRANCH   8   9
ENDBRANCH   7   8
ENDBRANCH   6   7
ENDBRANCH   5   6
ENDBRANCH   4   5
ENDBRANCH   3   4
ENDBRANCH   2   3
ENDBRANCH   1   2
BRANCH   1  18
ATOM     18  C   UNL     1     -10.482  -8.122   7.835  1.00  0.00     0.000 C 
BRANCH  18  19
ATOM     19  C   UNL     1      -9.067  -8.175   7.240  1.00  0.00     0.000 C 
BRANCH  19  20
ATOM     20  C   UNL     1      -8.238  -9.282   7.906  1.00  0.00     0.000 C 
BRANCH  20  21
ATOM     21  C   UNL     1      -8.568 -10.685   7.363  1.00  0.00     0.000 C 
BRANCH  21  22
ATOM     22  C   UNL     1      -9.402 -11.575   8.308  1.00  0.00     0.000 C 
BRANCH  22  23
ATOM     23  C   UNL     1     -10.086 -12.783   7.643  1.00  0.00     0.000 C 
BRANCH  23  24
ATOM     24  C   UNL     1     -10.008 -14.059   8.500  1.00  0.00    -0.000 C 
BRANCH  24  25
ATOM     25  C   UNL     1     -11.393 -14.553   8.950  1.00  0.00    -0.000 C 
BRANCH  25  26
ATOM     26  C   UNL     1     -12.506 -13.521   8.689  1.00  0.00    -0.000 C 
BRANCH  26  27
ATOM     27  C   UNL     1     -13.000 -12.855   9.983  1.00  0.00    -0.000 C 
BRANCH  27  28
ATOM     28  C   UNL     1     -11.956 -11.902  10.591  1.00  0.00    -0.000 C 
BRANCH  28  29
ATOM     29  C   UNL     1     -12.544 -10.984  11.679  1.00  0.00    -0.000 C 
BRANCH  29  30
ATOM     30  C   UNL     1     -14.029 -10.622  11.494  1.00  0.00    -0.000 C 
BRANCH  30  31
ATOM     31  C   UNL     1     -14.266  -9.640  10.338  1.00  0.00    -0.003 C 
ATOM     32  C   UNL     1     -15.712  -9.148  10.324  1.00  0.00     0.004 C 
ENDBRANCH  30  31
ENDBRANCH  29  30
ENDBRANCH  28  29
ENDBRANCH  27  28
ENDBRANCH  26  27
ENDBRANCH  25  26
ENDBRANCH  24  25
ENDBRANCH  23  24
ENDBRANCH  22  23
ENDBRANCH  21  22
ENDBRANCH  20  21
ENDBRANCH  19  20
ENDBRANCH  18  19
ENDBRANCH   1  18
TORSDOF 28
ENDMDL
MODEL 7
REMARK VINA RESULT:    -4.859     13.817     18.060
REMARK INTER + INTRA:         -16.917
REMARK INTER:                 -11.075
REMARK INTRA:                  -5.842
REMARK UNBOUND:                -4.106
REMARK SMILES CCCCCCCCCCCCCCCCCCCCCCCCCCCCCC(=O)[O-]
REMARK SMILES IDX 16 1 17 2 18 3 19 4 20 5 21 6 22 7 23 8 24 9 25 10 26 11
REMARK SMILES IDX 27 12 28 13 29 14 30 15 31 16 32 17 15 18 14 19 13 20 12 21
REMARK SMILES IDX 11 22 10 23 9 24 8 25 7 26 6 27 5 28 4 29 3 30 2 31 1 32
REMARK H PARENT
REMARK Flexibility Score: inf
ROOT
ATOM      1  C   UNL     1      -1.017 -13.837  16.124  1.00  0.00     0.000 C 
ENDROOT
BRANCH   1   2
ATOM      2  C   UNL     1       0.271 -13.284  15.497  1.00  0.00     0.000 C 
BRANCH   2   3
ATOM      3  C   UNL     1       1.021 -12.386  16.490  1.00  0.00     0.000 C 
BRANCH   3   4
ATOM      4  C   UNL     1       2.344 -13.003  16.978  1.00  0.00     0.000 C 
BRANCH   4   5
ATOM      5  C   UNL     1       2.212 -13.964  18.174  1.00  0.00     0.000 C 
BRANCH   5   6
ATOM      6  C   UNL     1       3.570 -14.425  18.726  1.00  0.00     0.000 C 
BRANCH   6   7
ATOM      7  C   UNL     1       3.389 -15.505  19.803  1.00  0.00     0.000 C 
BRANCH   7   8
ATOM      8  C   UNL     1       1.930 -15.968  19.938  1.00  0.00     0.000 C 
BRANCH   8   9
ATOM      9  C   UNL     1       1.787 -17.496  19.890  1.00  0.00     0.000 C 
BRANCH   9  10
ATOM     10  C   UNL     1       2.815 -18.113  18.930  1.00  0.00     0.000 C 
BRANCH  10  11
ATOM     11  C   UNL     1       2.352 -18.090  17.462  1.00  0.00     0.000 C 
BRANCH  11  12
ATOM     12  C   UNL     1       3.304 -17.368  16.488  1.00  0.00     0.000 C 
BRANCH  12  13
ATOM     13  C   UNL     1       2.621 -16.408  15.493  1.00  0.00     0.006 C 
BRANCH  13  14
ATOM     14  C   UNL     1       1.684 -17.097  14.490  1.00  0.00     0.053 C 
BRANCH  14  15
ATOM     15  C   UNL     1       2.013 -16.732  13.075  1.00  0.00     0.041 C 
ATOM     16  O   UNL     1       2.432 -17.609  12.275  1.00  0.00    -0.550 OA
ATOM     17  O   UNL     1       1.892 -15.415  12.652  1.00  0.00    -0.550 OA
ENDBRANCH  14  15
ENDBRANCH  13  14
ENDBRANCH  12  13
ENDBRANCH  11  12
ENDBRANCH  10  11
ENDBRANCH   9  10
ENDBRANCH   8   9
ENDBRANCH   7   8
ENDBRANCH   6   7
ENDBRANCH   5   6
ENDBRANCH   4   5
ENDBRANCH   3   4
ENDBRANCH   2   3
ENDBRANCH   1   2
BRANCH   1  18
ATOM     18  C   UNL     1      -1.152 -15.359  15.950  1.00  0.00     0.000 C 
BRANCH  18  19
ATOM     19  C   UNL     1      -0.691 -16.139  17.190  1.00  0.00     0.000 C 
BRANCH  19  20
ATOM     20  C   UNL     1      -1.227 -15.488  18.473  1.00  0.00     0.000 C 
BRANCH  20  21
ATOM     21  C   UNL     1      -2.015 -16.470  19.358  1.00  0.00     0.000 C 
BRANCH  21  22
ATOM     22  C   UNL     1      -1.739 -17.964  19.089  1.00  0.00     0.000 C 
BRANCH  22  23
ATOM     23  C   UNL     1      -2.918 -18.756  18.497  1.00  0.00     0.000 C 
BRANCH  23  24
ATOM     24  C   UNL     1      -4.246 -17.981  18.551  1.00  0.00    -0.000 C 
BRANCH  24  25
ATOM     25  C   UNL     1      -4.859 -17.763  17.158  1.00  0.00    -0.000 C 
BRANCH  25  26
ATOM     26  C   UNL     1      -5.749 -16.507  17.090  1.00  0.00    -0.000 C 
BRANCH  26  27
ATOM     27  C   UNL     1      -5.310 -15.541  15.978  1.00  0.00    -0.000 C 
BRANCH  27  28
ATOM     28  C   UNL     1      -4.593 -14.296  16.528  1.00  0.00    -0.000 C 
BRANCH  28  29
ATOM     29  C   UNL     1      -4.620 -14.219  18.066  1.00  0.00    -0.000 C 
BRANCH  29  30
ATOM     30  C   UNL     1      -4.115 -12.891  18.661  1.00  0.00    -0.000 C 
BRANCH  30  31
ATOM     31  C   UNL     1      -3.562 -11.931  17.599  1.00  0.00    -0.003 C 
ATOM     32  C   UNL     1      -4.626 -10.928  17.159  1.00  0.00     0.004 C 
ENDBRANCH  30  31
ENDBRANCH  29  30
ENDBRANCH  28  29
ENDBRANCH  27  28
ENDBRANCH  26  27
ENDBRANCH  25  26
ENDBRANCH  24  25
ENDBRANCH  23  24
ENDBRANCH  22  23
ENDBRANCH  21  22
ENDBRANCH  20  21
ENDBRANCH  19  20
ENDBRANCH  18  19
ENDBRANCH   1  18
TORSDOF 28
ENDMDL
MODEL 8
REMARK VINA RESULT:    -4.843     14.033     17.708
REMARK INTER + INTRA:         -16.877
REMARK INTER:                 -11.014
REMARK INTRA:                  -5.863
REMARK UNBOUND:                -4.106
REMARK SMILES CCCCCCCCCCCCCCCCCCCCCCCCCCCCCC(=O)[O-]
REMARK SMILES IDX 16 1 17 2 18 3 19 4 20 5 21 6 22 7 23 8 24 9 25 10 26 11
REMARK SMILES IDX 27 12 28 13 29 14 30 15 31 16 32 17 15 18 14 19 13 20 12 21
REMARK SMILES IDX 11 22 10 23 9 24 8 25 7 26 6 27 5 28 4 29 3 30 2 31 1 32
REMARK H PARENT
REMARK Flexibility Score: inf
ROOT
ATOM      1  C   UNL     1       2.039 -13.246  17.338  1.00  0.00     0.000 C 
ENDROOT
BRANCH   1   2
ATOM      2  C   UNL     1       2.966 -14.113  18.202  1.00  0.00     0.000 C 
BRANCH   2   3
ATOM      3  C   UNL     1       2.157 -15.119  19.033  1.00  0.00     0.000 C 
BRANCH   3   4
ATOM      4  C   UNL     1       3.042 -16.152  19.754  1.00  0.00     0.000 C 
BRANCH   4   5
ATOM      5  C   UNL     1       3.863 -17.067  18.827  1.00  0.00     0.000 C 
BRANCH   5   6
ATOM      6  C   UNL     1       3.008 -18.135  18.128  1.00  0.00     0.000 C 
BRANCH   6   7
ATOM      7  C   UNL     1       3.311 -18.186  16.623  1.00  0.00     0.000 C 
BRANCH   7   8
ATOM      8  C   UNL     1       2.621 -17.056  15.842  1.00  0.00     0.000 C 
BRANCH   8   9
ATOM      9  C   UNL     1       3.618 -16.158  15.097  1.00  0.00     0.000 C 
BRANCH   9  10
ATOM     10  C   UNL     1       2.885 -15.079  14.285  1.00  0.00     0.000 C 
BRANCH  10  11
ATOM     11  C   UNL     1       3.713 -13.793  14.113  1.00  0.00     0.000 C 
BRANCH  11  12
ATOM     12  C   UNL     1       2.901 -12.540  13.732  1.00  0.00     0.000 C 
BRANCH  12  13
ATOM     13  C   UNL     1       3.504 -11.199  14.198  1.00  0.00     0.006 C 
BRANCH  13  14
ATOM     14  C   UNL     1       2.501 -10.254  14.877  1.00  0.00     0.053 C 
BRANCH  14  15
ATOM     15  C   UNL     1       2.999  -8.842  14.913  1.00  0.00     0.041 C 
ATOM     16  O   UNL     1       3.531  -8.384  15.957  1.00  0.00    -0.550 OA
ATOM     17  O   UNL     1       2.841  -8.022  13.804  1.00  0.00    -0.550 OA
ENDBRANCH  14  15
ENDBRANCH  13  14
ENDBRANCH  12  13
ENDBRANCH  11  12
ENDBRANCH  10  11
ENDBRANCH   9  10
ENDBRANCH   8   9
ENDBRANCH   7   8
ENDBRANCH   6   7
ENDBRANCH   5   6
ENDBRANCH   4   5
ENDBRANCH   3   4
ENDBRANCH   2   3
ENDBRANCH   1   2
BRANCH   1  18
ATOM     18  C   UNL     1       0.556 -13.614  17.510  1.00  0.00     0.000 C 
BRANCH  18  19
ATOM     19  C   UNL     1      -0.357 -12.862  16.529  1.00  0.00     0.000 C 
BRANCH  19  20
ATOM     20  C   UNL     1      -0.210 -13.424  15.109  1.00  0.00     0.000 C 
BRANCH  20  21
ATOM     21  C   UNL     1      -1.224 -14.541  14.799  1.00  0.00     0.000 C 
BRANCH  21  22
ATOM     22  C   UNL     1      -0.760 -15.967  15.161  1.00  0.00     0.000 C 
BRANCH  22  23
ATOM     23  C   UNL     1      -1.467 -16.603  16.372  1.00  0.00     0.000 C 
BRANCH  23  24
ATOM     24  C   UNL     1      -0.482 -17.186  17.400  1.00  0.00    -0.000 C 
BRANCH  24  25
ATOM     25  C   UNL     1      -1.135 -17.429  18.771  1.00  0.00    -0.000 C 
BRANCH  25  26
ATOM     26  C   UNL     1      -1.460 -16.121  19.515  1.00  0.00    -0.000 C 
BRANCH  26  27
ATOM     27  C   UNL     1      -2.960 -15.984  19.826  1.00  0.00    -0.000 C 
BRANCH  27  28
ATOM     28  C   UNL     1      -3.734 -15.283  18.696  1.00  0.00    -0.000 C 
BRANCH  28  29
ATOM     29  C   UNL     1      -3.132 -13.918  18.313  1.00  0.00    -0.000 C 
BRANCH  29  30
ATOM     30  C   UNL     1      -4.152 -12.861  17.853  1.00  0.00    -0.000 C 
BRANCH  30  31
ATOM     31  C   UNL     1      -4.075 -12.570  16.348  1.00  0.00    -0.003 C 
ATOM     32  C   UNL     1      -4.871 -13.598  15.549  1.00  0.00     0.004 C 
ENDBRANCH  30  31
ENDBRANCH  29  30
ENDBRANCH  28  29
ENDBRANCH  27  28
ENDBRANCH  26  27
ENDBRANCH  25  26
ENDBRANCH  24  25
ENDBRANCH  23  24
ENDBRANCH  22  23
ENDBRANCH  21  22
ENDBRANCH  20  21
ENDBRANCH  19  20
ENDBRANCH  18  19
ENDBRANCH   1  18
TORSDOF 28
ENDMDL
MODEL 9
REMARK VINA RESULT:    -4.825     13.095     16.781
REMARK INTER + INTRA:         -16.830
REMARK INTER:                 -11.326
REMARK INTRA:                  -5.504
REMARK UNBOUND:                -4.106
REMARK SMILES CCCCCCCCCCCCCCCCCCCCCCCCCCCCCC(=O)[O-]
REMARK SMILES IDX 16 1 17 2 18 3 19 4 20 5 21 6 22 7 23 8 24 9 25 10 26 11
REMARK SMILES IDX 27 12 28 13 29 14 30 15 31 16 32 17 15 18 14 19 13 20 12 21
REMARK SMILES IDX 11 22 10 23 9 24 8 25 7 26 6 27 5 28 4 29 3 30 2 31 1 32
REMARK H PARENT
REMARK Flexibility Score: inf
ROOT
ATOM      1  C   UNL     1      -1.462 -15.626  16.118  1.00  0.00     0.000 C 
ENDROOT
BRANCH   1   2
ATOM      2  C   UNL     1      -0.799 -14.653  17.103  1.00  0.00     0.000 C 
BRANCH   2   3
ATOM      3  C   UNL     1      -0.209 -15.406  18.303  1.00  0.00     0.000 C 
BRANCH   3   4
ATOM      4  C   UNL     1       1.231 -14.975  18.635  1.00  0.00     0.000 C 
BRANCH   4   5
ATOM      5  C   UNL     1       1.687 -13.662  17.972  1.00  0.00     0.000 C 
BRANCH   5   6
ATOM      6  C   UNL     1       3.214 -13.560  17.830  1.00  0.00     0.000 C 
BRANCH   6   7
ATOM      7  C   UNL     1       3.606 -12.370  16.943  1.00  0.00     0.000 C 
BRANCH   7   8
ATOM      8  C   UNL     1       2.392 -11.542  16.491  1.00  0.00     0.000 C 
BRANCH   8   9
ATOM      9  C   UNL     1       2.338 -11.356  14.967  1.00  0.00     0.000 C 
BRANCH   9  10
ATOM     10  C   UNL     1       2.747 -12.647  14.242  1.00  0.00     0.000 C 
BRANCH  10  11
ATOM     11  C   UNL     1       1.685 -13.757  14.351  1.00  0.00     0.000 C 
BRANCH  11  12
ATOM     12  C   UNL     1       2.191 -15.177  14.028  1.00  0.00     0.000 C 
BRANCH  12  13
ATOM     13  C   UNL     1       2.394 -16.095  15.251  1.00  0.00     0.006 C 
BRANCH  13  14
ATOM     14  C   UNL     1       1.557 -17.382  15.223  1.00  0.00     0.053 C 
BRANCH  14  15
ATOM     15  C   UNL     1       1.778 -18.219  16.446  1.00  0.00     0.041 C 
ATOM     16  O   UNL     1       0.806 -18.544  17.177  1.00  0.00    -0.550 OA
ATOM     17  O   UNL     1       3.064 -18.609  16.797  1.00  0.00    -0.550 OA
ENDBRANCH  14  15
ENDBRANCH  13  14
ENDBRANCH  12  13
ENDBRANCH  11  12
ENDBRANCH  10  11
ENDBRANCH   9  10
ENDBRANCH   8   9
ENDBRANCH   7   8
ENDBRANCH   6   7
ENDBRANCH   5   6
ENDBRANCH   4   5
ENDBRANCH   3   4
ENDBRANCH   2   3
ENDBRANCH   1   2
BRANCH   1  18
ATOM     18  C   UNL     1      -1.757 -14.978  14.755  1.00  0.00     0.000 C 
BRANCH  18  19
ATOM     19  C   UNL     1      -2.415 -13.596  14.889  1.00  0.00     0.000 C 
BRANCH  19  20
ATOM     20  C   UNL     1      -3.908 -13.734  15.219  1.00  0.00     0.000 C 
BRANCH  20  21
ATOM     21  C   UNL     1      -4.448 -12.556  16.052  1.00  0.00     0.000 C 
BRANCH  21  22
ATOM     22  C   UNL     1      -3.572 -12.147  17.254  1.00  0.00     0.000 C 
BRANCH  22  23
ATOM     23  C   UNL     1      -4.073 -12.628  18.628  1.00  0.00     0.000 C 
BRANCH  23  24
ATOM     24  C   UNL     1      -3.644 -14.071  18.949  1.00  0.00    -0.000 C 
BRANCH  24  25
ATOM     25  C   UNL     1      -4.793 -15.079  18.783  1.00  0.00    -0.000 C 
BRANCH  25  26
ATOM     26  C   UNL     1      -4.347 -16.381  18.093  1.00  0.00    -0.000 C 
BRANCH  26  27
ATOM     27  C   UNL     1      -5.208 -16.715  16.864  1.00  0.00    -0.000 C 
BRANCH  27  28
ATOM     28  C   UNL     1      -6.494 -15.872  16.798  1.00  0.00    -0.000 C 
BRANCH  28  29
ATOM     29  C   UNL     1      -7.772 -16.713  16.978  1.00  0.00    -0.000 C 
BRANCH  29  30
ATOM     30  C   UNL     1      -8.262 -17.433  15.708  1.00  0.00    -0.000 C 
BRANCH  30  31
ATOM     31  C   UNL     1      -8.471 -18.939  15.917  1.00  0.00    -0.003 C 
ATOM     32  C   UNL     1      -7.181 -19.713  15.654  1.00  0.00     0.004 C 
ENDBRANCH  30  31
ENDBRANCH  29  30
ENDBRANCH  28  29
ENDBRANCH  27  28
ENDBRANCH  26  27
ENDBRANCH  25  26
ENDBRANCH  24  25
ENDBRANCH  23  24
ENDBRANCH  22  23
ENDBRANCH  21  22
ENDBRANCH  20  21
ENDBRANCH  19  20
ENDBRANCH  18  19
ENDBRANCH   1  18
TORSDOF 28
ENDMDL
