MODEL 1
REMARK VINA RESULT:    -5.074      0.000      0.000
REMARK INTER + INTRA:         -19.340
REMARK INTER:                 -13.380
REMARK INTRA:                  -5.961
REMARK UNBOUND:                -5.961
REMARK SMILES CCCCCCCCCCCCCCCCCCCCCCCCCCCCCC(=O)[O-]
REMARK SMILES IDX 16 1 17 2 18 3 19 4 20 5 21 6 22 7 23 8 24 9 25 10 26 11
REMARK SMILES IDX 27 12 28 13 29 14 30 15 31 16 32 17 15 18 14 19 13 20 12 21
REMARK SMILES IDX 11 22 10 23 9 24 8 25 7 26 6 27 5 28 4 29 3 30 2 31 1 32
REMARK H PARENT
REMARK Flexibility Score: inf
ROOT
ATOM      1  C   UNL     1     -18.742  55.066  -3.580  1.00  0.00     0.000 C 
ENDROOT
BRANCH   1   2
ATOM      2  C   UNL     1     -19.177  56.534  -3.404  1.00  0.00     0.000 C 
BRANCH   2   3
ATOM      3  C   UNL     1     -20.686  56.802  -3.558  1.00  0.00     0.000 C 
BRANCH   3   4
ATOM      4  C   UNL     1     -21.611  55.626  -3.176  1.00  0.00     0.000 C 
BRANCH   4   5
ATOM      5  C   UNL     1     -22.839  56.009  -2.329  1.00  0.00     0.000 C 
BRANCH   5   6
ATOM      6  C   UNL     1     -24.051  55.098  -2.587  1.00  0.00     0.000 C 
BRANCH   6   7
ATOM      7  C   UNL     1     -25.386  55.787  -2.264  1.00  0.00     0.000 C 
BRANCH   7   8
ATOM      8  C   UNL     1     -26.171  55.077  -1.148  1.00  0.00     0.000 C 
BRANCH   8   9
ATOM      9  C   UNL     1     -26.546  56.019   0.010  1.00  0.00     0.000 C 
BRANCH   9  10
ATOM     10  C   UNL     1     -26.536  57.520  -0.342  1.00  0.00     0.000 C 
BRANCH  10  11
ATOM     11  C   UNL     1     -25.920  58.442   0.730  1.00  0.00     0.000 C 
BRANCH  11  12
ATOM     12  C   UNL     1     -24.908  59.472   0.199  1.00  0.00     0.000 C 
BRANCH  12  13
ATOM     13  C   UNL     1     -24.203  59.008  -1.087  1.00  0.00     0.006 C 
BRANCH  13  14
ATOM     14  C   UNL     1     -24.027  60.152  -2.094  1.00  0.00     0.053 C 
BRANCH  14  15
ATOM     15  C   UNL     1     -24.979  60.031  -3.245  1.00  0.00     0.041 C 
ATOM     16  O   UNL     1     -25.934  59.211  -3.195  1.00  0.00    -0.550 OA
ATOM     17  O   UNL     1     -24.831  60.848  -4.359  1.00  0.00    -0.550 OA
ENDBRANCH  14  15
ENDBRANCH  13  14
ENDBRANCH  12  13
ENDBRANCH  11  12
ENDBRANCH  10  11
ENDBRANCH   9  10
ENDBRANCH   8   9
ENDBRANCH   7   8
ENDBRANCH   6   7
ENDBRANCH   5   6
ENDBRANCH   4   5
ENDBRANCH   3   4
ENDBRANCH   2   3
ENDBRANCH   1   2
BRANCH   1  18
ATOM     18  C   UNL     1     -17.919  54.502  -2.403  1.00  0.00     0.000 C 
BRANCH  18  19
ATOM     19  C   UNL     1     -18.728  53.556  -1.503  1.00  0.00     0.000 C 
BRANCH  19  20
ATOM     20  C   UNL     1     -19.790  52.799  -2.311  1.00  0.00     0.000 C 
BRANCH  20  21
ATOM     21  C   UNL     1     -21.104  52.681  -1.524  1.00  0.00     0.000 C 
BRANCH  21  22
ATOM     22  C   UNL     1     -21.093  53.495  -0.223  1.00  0.00     0.000 C 
BRANCH  22  23
ATOM     23  C   UNL     1     -22.094  52.967   0.821  1.00  0.00     0.000 C 
BRANCH  23  24
ATOM     24  C   UNL     1     -23.412  53.756   0.828  1.00  0.00    -0.000 C 
BRANCH  24  25
ATOM     25  C   UNL     1     -23.374  54.960   1.783  1.00  0.00    -0.000 C 
BRANCH  25  26
ATOM     26  C   UNL     1     -23.010  56.249   1.034  1.00  0.00    -0.000 C 
BRANCH  26  27
ATOM     27  C   UNL     1     -22.402  57.314   1.962  1.00  0.00    -0.000 C 
BRANCH  27  28
ATOM     28  C   UNL     1     -20.958  57.676   1.574  1.00  0.00    -0.000 C 
BRANCH  28  29
ATOM     29  C   UNL     1     -20.469  56.921   0.327  1.00  0.00    -0.000 C 
BRANCH  29  30
ATOM     30  C   UNL     1     -19.013  56.421   0.443  1.00  0.00    -0.000 C 
BRANCH  30  31
ATOM     31  C   UNL     1     -18.039  57.553   0.803  1.00  0.00    -0.003 C 
ATOM     32  C   UNL     1     -16.606  57.185   0.432  1.00  0.00     0.004 C 
ENDBRANCH  30  31
ENDBRANCH  29  30
ENDBRANCH  28  29
ENDBRANCH  27  28
ENDBRANCH  26  27
ENDBRANCH  25  26
ENDBRANCH  24  25
ENDBRANCH  23  24
ENDBRANCH  22  23
ENDBRANCH  21  22
ENDBRANCH  20  21
ENDBRANCH  19  20
ENDBRANCH  18  19
ENDBRANCH   1  18
TORSDOF 28
ENDMDL
MODEL 2
REMARK VINA RESULT:    -5.057      2.977      5.718
REMARK INTER + INTRA:         -19.295
REMARK INTER:                 -14.302
REMARK INTRA:                  -4.993
REMARK UNBOUND:                -5.961
REMARK SMILES CCCCCCCCCCCCCCCCCCCCCCCCCCCCCC(=O)[O-]
REMARK SMILES IDX 16 1 17 2 18 3 19 4 20 5 21 6 22 7 23 8 24 9 25 10 26 11
REMARK SMILES IDX 27 12 28 13 29 14 30 15 31 16 32 17 15 18 14 19 13 20 12 21
REMARK SMILES IDX 11 22 10 23 9 24 8 25 7 26 6 27 5 28 4 29 3 30 2 31 1 32
REMARK H PARENT
REMARK Flexibility Score: inf
ROOT
ATOM      1  C   UNL     1     -18.314  56.614  -3.909  1.00  0.00     0.000 C 
ENDROOT
BRANCH   1   2
ATOM      2  C   UNL     1     -17.008  55.887  -3.535  1.00  0.00     0.000 C 
BRANCH   2   3
ATOM      3  C   UNL     1     -17.183  54.525  -2.836  1.00  0.00     0.000 C 
BRANCH   3   4
ATOM      4  C   UNL     1     -16.609  54.434  -1.406  1.00  0.00     0.000 C 
BRANCH   4   5
ATOM      5  C   UNL     1     -17.610  53.982  -0.327  1.00  0.00     0.000 C 
BRANCH   5   6
ATOM      6  C   UNL     1     -17.648  54.925   0.888  1.00  0.00     0.000 C 
BRANCH   6   7
ATOM      7  C   UNL     1     -17.576  56.406   0.487  1.00  0.00     0.000 C 
BRANCH   7   8
ATOM      8  C   UNL     1     -18.860  57.181   0.827  1.00  0.00     0.000 C 
BRANCH   8   9
ATOM      9  C   UNL     1     -20.140  56.388   0.505  1.00  0.00     0.000 C 
BRANCH   9  10
ATOM     10  C   UNL     1     -21.451  57.189   0.633  1.00  0.00     0.000 C 
BRANCH  10  11
ATOM     11  C   UNL     1     -21.608  57.988   1.942  1.00  0.00     0.000 C 
BRANCH  11  12
ATOM     12  C   UNL     1     -23.042  58.061   2.494  1.00  0.00     0.000 C 
BRANCH  12  13
ATOM     13  C   UNL     1     -23.264  59.268   3.421  1.00  0.00     0.006 C 
BRANCH  13  14
ATOM     14  C   UNL     1     -22.047  59.541   4.316  1.00  0.00     0.053 C 
BRANCH  14  15
ATOM     15  C   UNL     1     -22.400  59.470   5.770  1.00  0.00     0.041 C 
ATOM     16  O   UNL     1     -21.492  59.376   6.639  1.00  0.00    -0.550 OA
ATOM     17  O   UNL     1     -23.729  59.542   6.168  1.00  0.00    -0.550 OA
ENDBRANCH  14  15
ENDBRANCH  13  14
ENDBRANCH  12  13
ENDBRANCH  11  12
ENDBRANCH  10  11
ENDBRANCH   9  10
ENDBRANCH   8   9
ENDBRANCH   7   8
ENDBRANCH   6   7
ENDBRANCH   5   6
ENDBRANCH   4   5
ENDBRANCH   3   4
ENDBRANCH   2   3
ENDBRANCH   1   2
BRANCH   1  18
ATOM     18  C   UNL     1     -19.410  56.548  -2.824  1.00  0.00     0.000 C 
BRANCH  18  19
ATOM     19  C   UNL     1     -20.831  56.502  -3.407  1.00  0.00     0.000 C 
BRANCH  19  20
ATOM     20  C   UNL     1     -21.566  55.230  -2.969  1.00  0.00     0.000 C 
BRANCH  20  21
ATOM     21  C   UNL     1     -20.592  54.207  -2.366  1.00  0.00     0.000 C 
BRANCH  21  22
ATOM     22  C   UNL     1     -21.283  53.216  -1.418  1.00  0.00     0.000 C 
BRANCH  22  23
ATOM     23  C   UNL     1     -22.459  53.846  -0.650  1.00  0.00     0.000 C 
BRANCH  23  24
ATOM     24  C   UNL     1     -22.594  53.296   0.779  1.00  0.00    -0.000 C 
BRANCH  24  25
ATOM     25  C   UNL     1     -23.662  54.037   1.599  1.00  0.00    -0.000 C 
BRANCH  25  26
ATOM     26  C   UNL     1     -24.291  55.177   0.785  1.00  0.00    -0.000 C 
BRANCH  26  27
ATOM     27  C   UNL     1     -25.768  54.912   0.452  1.00  0.00    -0.000 C 
BRANCH  27  28
ATOM     28  C   UNL     1     -26.384  56.021  -0.418  1.00  0.00    -0.000 C 
BRANCH  28  29
ATOM     29  C   UNL     1     -26.321  57.405   0.250  1.00  0.00    -0.000 C 
BRANCH  29  30
ATOM     30  C   UNL     1     -25.291  58.354  -0.398  1.00  0.00    -0.000 C 
BRANCH  30  31
ATOM     31  C   UNL     1     -24.695  57.769  -1.687  1.00  0.00    -0.003 C 
ATOM     32  C   UNL     1     -23.551  58.635  -2.207  1.00  0.00     0.004 C 
ENDBRANCH  30  31
ENDBRANCH  29  30
ENDBRANCH  28  29
ENDBRANCH  27  28
ENDBRANCH  26  27
ENDBRANCH  25  26
ENDBRANCH  24  25
ENDBRANCH  23  24
ENDBRANCH  22  23
ENDBRANCH  21  22
ENDBRANCH  20  21
ENDBRANCH  19  20
ENDBRANCH  18  19
ENDBRANCH   1  18
TORSDOF 28
ENDMDL
MODEL 3
REMARK VINA RESULT:    -5.030      2.468      3.405
REMARK INTER + INTRA:         -19.224
REMARK INTER:                 -13.845
REMARK INTRA:                  -5.379
REMARK UNBOUND:                -5.961
REMARK SMILES CCCCCCCCCCCCCCCCCCCCCCCCCCCCCC(=O)[O-]
REMARK SMILES IDX 16 1 17 2 18 3 19 4 20 5 21 6 22 7 23 8 24 9 25 10 26 11
REMARK SMILES IDX 27 12 28 13 29 14 30 15 31 16 32 17 15 18 14 19 13 20 12 21
REMARK SMILES IDX 11 22 10 23 9 24 8 25 7 26 6 27 5 28 4 29 3 30 2 31 1 32
REMARK H PARENT
REMARK Flexibility Score: inf
ROOT
ATOM      1  C   UNL     1     -18.572  53.968  -3.287  1.00  0.00     0.000 C 
ENDROOT
BRANCH   1   2
ATOM      2  C   UNL     1     -18.559  55.473  -3.619  1.00  0.00     0.000 C 
BRANCH   2   3
ATOM      3  C   UNL     1     -19.506  56.346  -2.774  1.00  0.00     0.000 C 
BRANCH   3   4
ATOM      4  C   UNL     1     -20.885  56.633  -3.407  1.00  0.00     0.000 C 
BRANCH   4   5
ATOM      5  C   UNL     1     -21.928  55.513  -3.239  1.00  0.00     0.000 C 
BRANCH   5   6
ATOM      6  C   UNL     1     -23.312  56.041  -2.821  1.00  0.00     0.000 C 
BRANCH   6   7
ATOM      7  C   UNL     1     -24.289  54.912  -2.460  1.00  0.00     0.000 C 
BRANCH   7   8
ATOM      8  C   UNL     1     -25.584  55.426  -1.810  1.00  0.00     0.000 C 
BRANCH   8   9
ATOM      9  C   UNL     1     -25.907  56.882  -2.193  1.00  0.00     0.000 C 
BRANCH   9  10
ATOM     10  C   UNL     1     -26.202  57.817  -1.003  1.00  0.00     0.000 C 
BRANCH  10  11
ATOM     11  C   UNL     1     -24.962  58.285  -0.212  1.00  0.00     0.000 C 
BRANCH  11  12
ATOM     12  C   UNL     1     -25.252  58.799   1.208  1.00  0.00     0.000 C 
BRANCH  12  13
ATOM     13  C   UNL     1     -23.987  59.291   1.934  1.00  0.00     0.006 C 
BRANCH  13  14
ATOM     14  C   UNL     1     -23.774  58.572   3.273  1.00  0.00     0.053 C 
BRANCH  14  15
ATOM     15  C   UNL     1     -22.779  59.286   4.135  1.00  0.00     0.041 C 
ATOM     16  O   UNL     1     -21.924  60.053   3.617  1.00  0.00    -0.550 OA
ATOM     17  O   UNL     1     -22.817  59.131   5.516  1.00  0.00    -0.550 OA
ENDBRANCH  14  15
ENDBRANCH  13  14
ENDBRANCH  12  13
ENDBRANCH  11  12
ENDBRANCH  10  11
ENDBRANCH   9  10
ENDBRANCH   8   9
ENDBRANCH   7   8
ENDBRANCH   6   7
ENDBRANCH   5   6
ENDBRANCH   4   5
ENDBRANCH   3   4
ENDBRANCH   2   3
ENDBRANCH   1   2
BRANCH   1  18
ATOM     18  C   UNL     1     -18.034  53.623  -1.883  1.00  0.00     0.000 C 
BRANCH  18  19
ATOM     19  C   UNL     1     -19.114  53.057  -0.948  1.00  0.00     0.000 C 
BRANCH  19  20
ATOM     20  C   UNL     1     -20.291  52.484  -1.748  1.00  0.00     0.000 C 
BRANCH  20  21
ATOM     21  C   UNL     1     -21.633  52.849  -1.097  1.00  0.00     0.000 C 
BRANCH  21  22
ATOM     22  C   UNL     1     -21.483  53.865   0.045  1.00  0.00     0.000 C 
BRANCH  22  23
ATOM     23  C   UNL     1     -22.837  54.363   0.583  1.00  0.00     0.000 C 
BRANCH  23  24
ATOM     24  C   UNL     1     -22.815  55.855   0.949  1.00  0.00    -0.000 C 
BRANCH  24  25
ATOM     25  C   UNL     1     -21.628  56.601   0.319  1.00  0.00    -0.000 C 
BRANCH  25  26
ATOM     26  C   UNL     1     -20.806  57.335   1.389  1.00  0.00    -0.000 C 
BRANCH  26  27
ATOM     27  C   UNL     1     -19.353  57.575   0.946  1.00  0.00    -0.000 C 
BRANCH  27  28
ATOM     28  C   UNL     1     -18.619  56.268   0.600  1.00  0.00    -0.000 C 
BRANCH  28  29
ATOM     29  C   UNL     1     -17.116  56.478   0.350  1.00  0.00    -0.000 C 
BRANCH  29  30
ATOM     30  C   UNL     1     -16.558  57.761   1.003  1.00  0.00    -0.000 C 
BRANCH  30  31
ATOM     31  C   UNL     1     -15.434  58.394   0.170  1.00  0.00    -0.003 C 
ATOM     32  C   UNL     1     -14.420  59.103   1.062  1.00  0.00     0.004 C 
ENDBRANCH  30  31
ENDBRANCH  29  30
ENDBRANCH  28  29
ENDBRANCH  27  28
ENDBRANCH  26  27
ENDBRANCH  25  26
ENDBRANCH  24  25
ENDBRANCH  23  24
ENDBRANCH  22  23
ENDBRANCH  21  22
ENDBRANCH  20  21
ENDBRANCH  19  20
ENDBRANCH  18  19
ENDBRANCH   1  18
TORSDOF 28
ENDMDL
MODEL 4
REMARK VINA RESULT:    -5.005      2.832      4.797
REMARK INTER + INTRA:         -19.158
REMARK INTER:                 -14.951
REMARK INTRA:                  -4.207
REMARK UNBOUND:                -5.961
REMARK SMILES CCCCCCCCCCCCCCCCCCCCCCCCCCCCCC(=O)[O-]
REMARK SMILES IDX 16 1 17 2 18 3 19 4 20 5 21 6 22 7 23 8 24 9 25 10 26 11
REMARK SMILES IDX 27 12 28 13 29 14 30 15 31 16 32 17 15 18 14 19 13 20 12 21
REMARK SMILES IDX 11 22 10 23 9 24 8 25 7 26 6 27 5 28 4 29 3 30 2 31 1 32
REMARK H PARENT
REMARK Flexibility Score: inf
ROOT
ATOM      1  C   UNL     1     -17.035  56.774  -1.737  1.00  0.00     0.000 C 
ENDROOT
BRANCH   1   2
ATOM      2  C   UNL     1     -16.865  56.592  -3.258  1.00  0.00     0.000 C 
BRANCH   2   3
ATOM      3  C   UNL     1     -18.124  56.134  -4.017  1.00  0.00     0.000 C 
BRANCH   3   4
ATOM      4  C   UNL     1     -19.463  56.368  -3.283  1.00  0.00     0.000 C 
BRANCH   4   5
ATOM      5  C   UNL     1     -20.241  55.091  -2.918  1.00  0.00     0.000 C 
BRANCH   5   6
ATOM      6  C   UNL     1     -19.404  53.811  -3.088  1.00  0.00     0.000 C 
BRANCH   6   7
ATOM      7  C   UNL     1     -19.522  52.865  -1.884  1.00  0.00     0.000 C 
BRANCH   7   8
ATOM      8  C   UNL     1     -20.981  52.580  -1.489  1.00  0.00     0.000 C 
BRANCH   8   9
ATOM      9  C   UNL     1     -21.349  53.152  -0.108  1.00  0.00     0.000 C 
BRANCH   9  10
ATOM     10  C   UNL     1     -22.475  54.205  -0.120  1.00  0.00     0.000 C 
BRANCH  10  11
ATOM     11  C   UNL     1     -23.461  54.126   1.063  1.00  0.00     0.000 C 
BRANCH  11  12
ATOM     12  C   UNL     1     -24.834  54.773   0.811  1.00  0.00     0.000 C 
BRANCH  12  13
ATOM     13  C   UNL     1     -24.908  55.510  -0.537  1.00  0.00     0.006 C 
BRANCH  13  14
ATOM     14  C   UNL     1     -25.338  56.974  -0.372  1.00  0.00     0.053 C 
BRANCH  14  15
ATOM     15  C   UNL     1     -24.891  57.818  -1.526  1.00  0.00     0.041 C 
ATOM     16  O   UNL     1     -25.723  58.204  -2.391  1.00  0.00    -0.550 OA
ATOM     17  O   UNL     1     -23.561  58.207  -1.630  1.00  0.00    -0.550 OA
ENDBRANCH  14  15
ENDBRANCH  13  14
ENDBRANCH  12  13
ENDBRANCH  11  12
ENDBRANCH  10  11
ENDBRANCH   9  10
ENDBRANCH   8   9
ENDBRANCH   7   8
ENDBRANCH   6   7
ENDBRANCH   5   6
ENDBRANCH   4   5
ENDBRANCH   3   4
ENDBRANCH   2   3
ENDBRANCH   1   2
BRANCH   1  18
ATOM     18  C   UNL     1     -16.926  55.467  -0.925  1.00  0.00     0.000 C 
BRANCH  18  19
ATOM     19  C   UNL     1     -17.867  55.432   0.288  1.00  0.00     0.000 C 
BRANCH  19  20
ATOM     20  C   UNL     1     -18.539  56.794   0.504  1.00  0.00     0.000 C 
BRANCH  20  21
ATOM     21  C   UNL     1     -20.068  56.659   0.535  1.00  0.00     0.000 C 
BRANCH  21  22
ATOM     22  C   UNL     1     -20.736  57.678   1.469  1.00  0.00     0.000 C 
BRANCH  22  23
ATOM     23  C   UNL     1     -22.258  57.475   1.583  1.00  0.00     0.000 C 
BRANCH  23  24
ATOM     24  C   UNL     1     -22.984  58.727   2.102  1.00  0.00    -0.000 C 
BRANCH  24  25
ATOM     25  C   UNL     1     -23.736  58.471   3.417  1.00  0.00    -0.000 C 
BRANCH  25  26
ATOM     26  C   UNL     1     -23.583  59.656   4.382  1.00  0.00    -0.000 C 
BRANCH  26  27
ATOM     27  C   UNL     1     -22.659  59.329   5.567  1.00  0.00    -0.000 C 
BRANCH  27  28
ATOM     28  C   UNL     1     -21.183  59.644   5.267  1.00  0.00    -0.000 C 
BRANCH  28  29
ATOM     29  C   UNL     1     -20.518  60.482   6.371  1.00  0.00    -0.000 C 
BRANCH  29  30
ATOM     30  C   UNL     1     -20.284  59.698   7.680  1.00  0.00    -0.000 C 
BRANCH  30  31
ATOM     31  C   UNL     1     -19.749  58.282   7.420  1.00  0.00    -0.003 C 
ATOM     32  C   UNL     1     -20.280  57.294   8.454  1.00  0.00     0.004 C 
ENDBRANCH  30  31
ENDBRANCH  29  30
ENDBRANCH  28  29
ENDBRANCH  27  28
ENDBRANCH  26  27
ENDBRANCH  25  26
ENDBRANCH  24  25
ENDBRANCH  23  24
ENDBRANCH  22  23
ENDBRANCH  21  22
ENDBRANCH  20  21
ENDBRANCH  19  20
ENDBRANCH  18  19
ENDBRANCH   1  18
TORSDOF 28
ENDMDL
MODEL 5
REMARK VINA RESULT:    -4.996      2.943      6.044
REMARK INTER + INTRA:         -19.134
REMARK INTER:                 -13.341
REMARK INTRA:                  -5.794
REMARK UNBOUND:                -5.961
REMARK SMILES CCCCCCCCCCCCCCCCCCCCCCCCCCCCCC(=O)[O-]
REMARK SMILES IDX 16 1 17 2 18 3 19 4 20 5 21 6 22 7 23 8 24 9 25 10 26 11
REMARK SMILES IDX 27 12 28 13 29 14 30 15 31 16 32 17 15 18 14 19 13 20 12 21
REMARK SMILES IDX 11 22 10 23 9 24 8 25 7 26 6 27 5 28 4 29 3 30 2 31 1 32
REMARK H PARENT
REMARK Flexibility Score: inf
ROOT
ATOM      1  C   UNL     1     -18.717  53.294  -1.587  1.00  0.00     0.000 C 
ENDROOT
BRANCH   1   2
ATOM      2  C   UNL     1     -19.525  52.896  -0.337  1.00  0.00     0.000 C 
BRANCH   2   3
ATOM      3  C   UNL     1     -21.032  52.673  -0.565  1.00  0.00     0.000 C 
BRANCH   3   4
ATOM      4  C   UNL     1     -21.951  53.826  -0.105  1.00  0.00     0.000 C 
BRANCH   4   5
ATOM      5  C   UNL     1     -22.826  53.515   1.123  1.00  0.00     0.000 C 
BRANCH   5   6
ATOM      6  C   UNL     1     -23.675  54.717   1.573  1.00  0.00     0.000 C 
BRANCH   6   7
ATOM      7  C   UNL     1     -23.170  56.045   0.990  1.00  0.00     0.000 C 
BRANCH   7   8
ATOM      8  C   UNL     1     -22.714  57.038   2.073  1.00  0.00     0.000 C 
BRANCH   8   9
ATOM      9  C   UNL     1     -21.288  57.566   1.838  1.00  0.00     0.000 C 
BRANCH   9  10
ATOM     10  C   UNL     1     -20.669  57.183   0.479  1.00  0.00     0.000 C 
BRANCH  10  11
ATOM     11  C   UNL     1     -19.425  56.274   0.556  1.00  0.00     0.000 C 
BRANCH  11  12
ATOM     12  C   UNL     1     -18.127  56.898   0.017  1.00  0.00     0.000 C 
BRANCH  12  13
ATOM     13  C   UNL     1     -17.021  56.989   1.083  1.00  0.00     0.006 C 
BRANCH  13  14
ATOM     14  C   UNL     1     -16.518  58.427   1.271  1.00  0.00     0.053 C 
BRANCH  14  15
ATOM     15  C   UNL     1     -15.270  58.686   0.484  1.00  0.00     0.041 C 
ATOM     16  O   UNL     1     -15.242  58.457  -0.755  1.00  0.00    -0.550 OA
ATOM     17  O   UNL     1     -14.148  59.214   1.112  1.00  0.00    -0.550 OA
ENDBRANCH  14  15
ENDBRANCH  13  14
ENDBRANCH  12  13
ENDBRANCH  11  12
ENDBRANCH  10  11
ENDBRANCH   9  10
ENDBRANCH   8   9
ENDBRANCH   7   8
ENDBRANCH   6   7
ENDBRANCH   5   6
ENDBRANCH   4   5
ENDBRANCH   3   4
ENDBRANCH   2   3
ENDBRANCH   1   2
BRANCH   1  18
ATOM     18  C   UNL     1     -19.582  53.652  -2.814  1.00  0.00     0.000 C 
BRANCH  18  19
ATOM     19  C   UNL     1     -19.313  55.068  -3.346  1.00  0.00     0.000 C 
BRANCH  19  20
ATOM     20  C   UNL     1     -20.471  56.014  -3.005  1.00  0.00     0.000 C 
BRANCH  20  21
ATOM     21  C   UNL     1     -21.823  55.394  -3.386  1.00  0.00     0.000 C 
BRANCH  21  22
ATOM     22  C   UNL     1     -22.998  56.006  -2.610  1.00  0.00     0.000 C 
BRANCH  22  23
ATOM     23  C   UNL     1     -24.261  55.127  -2.647  1.00  0.00     0.000 C 
BRANCH  23  24
ATOM     24  C   UNL     1     -25.496  55.842  -2.075  1.00  0.00    -0.000 C 
BRANCH  24  25
ATOM     25  C   UNL     1     -26.168  55.046  -0.945  1.00  0.00    -0.000 C 
BRANCH  25  26
ATOM     26  C   UNL     1     -26.789  55.986   0.098  1.00  0.00    -0.000 C 
BRANCH  26  27
ATOM     27  C   UNL     1     -26.716  57.462  -0.327  1.00  0.00    -0.000 C 
BRANCH  27  28
ATOM     28  C   UNL     1     -25.853  58.306   0.627  1.00  0.00    -0.000 C 
BRANCH  28  29
ATOM     29  C   UNL     1     -25.279  59.564  -0.046  1.00  0.00    -0.000 C 
BRANCH  29  30
ATOM     30  C   UNL     1     -23.755  59.493  -0.281  1.00  0.00    -0.000 C 
BRANCH  30  31
ATOM     31  C   UNL     1     -23.407  59.247  -1.757  1.00  0.00    -0.003 C 
ATOM     32  C   UNL     1     -24.609  59.512  -2.658  1.00  0.00     0.004 C 
ENDBRANCH  30  31
ENDBRANCH  29  30
ENDBRANCH  28  29
ENDBRANCH  27  28
ENDBRANCH  26  27
ENDBRANCH  25  26
ENDBRANCH  24  25
ENDBRANCH  23  24
ENDBRANCH  22  23
ENDBRANCH  21  22
ENDBRANCH  20  21
ENDBRANCH  19  20
ENDBRANCH  18  19
ENDBRANCH   1  18
TORSDOF 28
ENDMDL
MODEL 6
REMARK VINA RESULT:    -4.995      3.359      5.133
REMARK INTER + INTRA:         -19.131
REMARK INTER:                 -14.780
REMARK INTRA:                  -4.352
REMARK UNBOUND:                -5.961
REMARK SMILES CCCCCCCCCCCCCCCCCCCCCCCCCCCCCC(=O)[O-]
REMARK SMILES IDX 16 1 17 2 18 3 19 4 20 5 21 6 22 7 23 8 24 9 25 10 26 11
REMARK SMILES IDX 27 12 28 13 29 14 30 15 31 16 32 17 15 18 14 19 13 20 12 21
REMARK SMILES IDX 11 22 10 23 9 24 8 25 7 26 6 27 5 28 4 29 3 30 2 31 1 32
REMARK H PARENT
REMARK Flexibility Score: inf
ROOT
ATOM      1  C   UNL     1     -17.118  54.833  -2.171  1.00  0.00     0.000 C 
ENDROOT
BRANCH   1   2
ATOM      2  C   UNL     1     -17.010  56.096  -3.047  1.00  0.00     0.000 C 
BRANCH   2   3
ATOM      3  C   UNL     1     -18.337  56.611  -3.634  1.00  0.00     0.000 C 
BRANCH   3   4
ATOM      4  C   UNL     1     -19.588  55.779  -3.278  1.00  0.00     0.000 C 
BRANCH   4   5
ATOM      5  C   UNL     1     -20.911  56.565  -3.252  1.00  0.00     0.000 C 
BRANCH   5   6
ATOM      6  C   UNL     1     -22.149  55.652  -3.218  1.00  0.00     0.000 C 
BRANCH   6   7
ATOM      7  C   UNL     1     -23.264  56.204  -2.316  1.00  0.00     0.000 C 
BRANCH   7   8
ATOM      8  C   UNL     1     -24.524  55.322  -2.316  1.00  0.00     0.000 C 
BRANCH   8   9
ATOM      9  C   UNL     1     -25.617  55.841  -1.364  1.00  0.00     0.000 C 
BRANCH   9  10
ATOM     10  C   UNL     1     -25.253  55.789   0.133  1.00  0.00     0.000 C 
BRANCH  10  11
ATOM     11  C   UNL     1     -24.730  54.427   0.636  1.00  0.00     0.000 C 
BRANCH  11  12
ATOM     12  C   UNL     1     -23.344  54.466   1.300  1.00  0.00     0.000 C 
BRANCH  12  13
ATOM     13  C   UNL     1     -22.437  53.304   0.857  1.00  0.00     0.006 C 
BRANCH  13  14
ATOM     14  C   UNL     1     -22.010  53.433  -0.612  1.00  0.00     0.053 C 
BRANCH  14  15
ATOM     15  C   UNL     1     -20.643  52.866  -0.845  1.00  0.00     0.041 C 
ATOM     16  O   UNL     1     -20.295  52.502  -2.000  1.00  0.00    -0.550 OA
ATOM     17  O   UNL     1     -19.741  52.769   0.208  1.00  0.00    -0.550 OA
ENDBRANCH  14  15
ENDBRANCH  13  14
ENDBRANCH  12  13
ENDBRANCH  11  12
ENDBRANCH  10  11
ENDBRANCH   9  10
ENDBRANCH   8   9
ENDBRANCH   7   8
ENDBRANCH   6   7
ENDBRANCH   5   6
ENDBRANCH   4   5
ENDBRANCH   3   4
ENDBRANCH   2   3
ENDBRANCH   1   2
BRANCH   1  18
ATOM     18  C   UNL     1     -17.015  55.102  -0.655  1.00  0.00     0.000 C 
BRANCH  18  19
ATOM     19  C   UNL     1     -16.738  56.577  -0.324  1.00  0.00     0.000 C 
BRANCH  19  20
ATOM     20  C   UNL     1     -17.925  57.210   0.413  1.00  0.00     0.000 C 
BRANCH  20  21
ATOM     21  C   UNL     1     -19.046  56.184   0.640  1.00  0.00     0.000 C 
BRANCH  21  22
ATOM     22  C   UNL     1     -20.435  56.735   0.290  1.00  0.00     0.000 C 
BRANCH  22  23
ATOM     23  C   UNL     1     -21.113  57.443   1.478  1.00  0.00     0.000 C 
BRANCH  23  24
ATOM     24  C   UNL     1     -22.489  58.024   1.113  1.00  0.00    -0.000 C 
BRANCH  24  25
ATOM     25  C   UNL     1     -23.425  58.130   2.327  1.00  0.00    -0.000 C 
BRANCH  25  26
ATOM     26  C   UNL     1     -22.740  58.856   3.493  1.00  0.00    -0.000 C 
BRANCH  26  27
ATOM     27  C   UNL     1     -23.696  59.104   4.671  1.00  0.00    -0.000 C 
BRANCH  27  28
ATOM     28  C   UNL     1     -23.049  59.940   5.789  1.00  0.00    -0.000 C 
BRANCH  28  29
ATOM     29  C   UNL     1     -22.092  59.118   6.669  1.00  0.00    -0.000 C 
BRANCH  29  30
ATOM     30  C   UNL     1     -20.601  59.399   6.384  1.00  0.00    -0.000 C 
BRANCH  30  31
ATOM     31  C   UNL     1     -19.690  58.280   6.910  1.00  0.00    -0.003 C 
ATOM     32  C   UNL     1     -20.024  57.932   8.357  1.00  0.00     0.004 C 
ENDBRANCH  30  31
ENDBRANCH  29  30
ENDBRANCH  28  29
ENDBRANCH  27  28
ENDBRANCH  26  27
ENDBRANCH  25  26
ENDBRANCH  24  25
ENDBRANCH  23  24
ENDBRANCH  22  23
ENDBRANCH  21  22
ENDBRANCH  20  21
ENDBRANCH  19  20
ENDBRANCH  18  19
ENDBRANCH   1  18
TORSDOF 28
ENDMDL
MODEL 7
REMARK VINA RESULT:    -4.927      2.322      4.751
REMARK INTER + INTRA:         -18.954
REMARK INTER:                 -14.434
REMARK INTRA:                  -4.520
REMARK UNBOUND:                -5.961
REMARK SMILES CCCCCCCCCCCCCCCCCCCCCCCCCCCCCC(=O)[O-]
REMARK SMILES IDX 16 1 17 2 18 3 19 4 20 5 21 6 22 7 23 8 24 9 25 10 26 11
REMARK SMILES IDX 27 12 28 13 29 14 30 15 31 16 32 17 15 18 14 19 13 20 12 21
REMARK SMILES IDX 11 22 10 23 9 24 8 25 7 26 6 27 5 28 4 29 3 30 2 31 1 32
REMARK H PARENT
REMARK Flexibility Score: inf
ROOT
ATOM      1  C   UNL     1     -21.814  54.264  -0.255  1.00  0.00     0.000 C 
ENDROOT
BRANCH   1   2
ATOM      2  C   UNL     1     -23.088  54.280   0.612  1.00  0.00     0.000 C 
BRANCH   2   3
ATOM      3  C   UNL     1     -23.514  55.663   1.139  1.00  0.00     0.000 C 
BRANCH   3   4
ATOM      4  C   UNL     1     -24.870  56.184   0.618  1.00  0.00     0.000 C 
BRANCH   4   5
ATOM      5  C   UNL     1     -25.858  55.095   0.161  1.00  0.00     0.000 C 
BRANCH   5   6
ATOM      6  C   UNL     1     -26.049  55.061  -1.365  1.00  0.00     0.000 C 
BRANCH   6   7
ATOM      7  C   UNL     1     -25.359  56.238  -2.071  1.00  0.00     0.000 C 
BRANCH   7   8
ATOM      8  C   UNL     1     -26.336  57.362  -2.453  1.00  0.00     0.000 C 
BRANCH   8   9
ATOM      9  C   UNL     1     -25.685  58.757  -2.422  1.00  0.00     0.000 C 
BRANCH   9  10
ATOM     10  C   UNL     1     -24.168  58.760  -2.146  1.00  0.00     0.000 C 
BRANCH  10  11
ATOM     11  C   UNL     1     -23.542  60.153  -1.933  1.00  0.00     0.000 C 
BRANCH  11  12
ATOM     12  C   UNL     1     -23.077  60.446  -0.497  1.00  0.00     0.000 C 
BRANCH  12  13
ATOM     13  C   UNL     1     -23.048  59.188   0.389  1.00  0.00     0.006 C 
BRANCH  13  14
ATOM     14  C   UNL     1     -22.001  59.294   1.507  1.00  0.00     0.053 C 
BRANCH  14  15
ATOM     15  C   UNL     1     -22.636  59.315   2.863  1.00  0.00     0.041 C 
ATOM     16  O   UNL     1     -23.891  59.286   2.977  1.00  0.00    -0.550 OA
ATOM     17  O   UNL     1     -21.842  59.332   4.003  1.00  0.00    -0.550 OA
ENDBRANCH  14  15
ENDBRANCH  13  14
ENDBRANCH  12  13
ENDBRANCH  11  12
ENDBRANCH  10  11
ENDBRANCH   9  10
ENDBRANCH   8   9
ENDBRANCH   7   8
ENDBRANCH   6   7
ENDBRANCH   5   6
ENDBRANCH   4   5
ENDBRANCH   3   4
ENDBRANCH   2   3
ENDBRANCH   1   2
BRANCH   1  18
ATOM     18  C   UNL     1     -22.062  53.928  -1.741  1.00  0.00     0.000 C 
BRANCH  18  19
ATOM     19  C   UNL     1     -22.261  55.177  -2.613  1.00  0.00     0.000 C 
BRANCH  19  20
ATOM     20  C   UNL     1     -21.198  56.239  -2.306  1.00  0.00     0.000 C 
BRANCH  20  21
ATOM     21  C   UNL     1     -20.427  56.634  -3.575  1.00  0.00     0.000 C 
BRANCH  21  22
ATOM     22  C   UNL     1     -18.907  56.667  -3.361  1.00  0.00     0.000 C 
BRANCH  22  23
ATOM     23  C   UNL     1     -18.199  55.419  -3.918  1.00  0.00     0.000 C 
BRANCH  23  24
ATOM     24  C   UNL     1     -18.266  54.223  -2.955  1.00  0.00    -0.000 C 
BRANCH  24  25
ATOM     25  C   UNL     1     -17.337  54.388  -1.742  1.00  0.00    -0.000 C 
BRANCH  25  26
ATOM     26  C   UNL     1     -18.104  54.189  -0.427  1.00  0.00    -0.000 C 
BRANCH  26  27
ATOM     27  C   UNL     1     -18.451  55.523   0.255  1.00  0.00    -0.000 C 
BRANCH  27  28
ATOM     28  C   UNL     1     -17.551  56.677  -0.219  1.00  0.00    -0.000 C 
BRANCH  28  29
ATOM     29  C   UNL     1     -16.384  56.955   0.742  1.00  0.00    -0.000 C 
BRANCH  29  30
ATOM     30  C   UNL     1     -16.310  58.423   1.211  1.00  0.00    -0.000 C 
BRANCH  30  31
ATOM     31  C   UNL     1     -15.166  59.192   0.532  1.00  0.00    -0.003 C 
ATOM     32  C   UNL     1     -13.833  58.916   1.220  1.00  0.00     0.004 C 
ENDBRANCH  30  31
ENDBRANCH  29  30
ENDBRANCH  28  29
ENDBRANCH  27  28
ENDBRANCH  26  27
ENDBRANCH  25  26
ENDBRANCH  24  25
ENDBRANCH  23  24
ENDBRANCH  22  23
ENDBRANCH  21  22
ENDBRANCH  20  21
ENDBRANCH  19  20
ENDBRANCH  18  19
ENDBRANCH   1  18
TORSDOF 28
ENDMDL
MODEL 8
REMARK VINA RESULT:    -4.891      3.479      5.682
REMARK INTER + INTRA:         -18.859
REMARK INTER:                 -13.582
REMARK INTRA:                  -5.277
REMARK UNBOUND:                -5.961
REMARK SMILES CCCCCCCCCCCCCCCCCCCCCCCCCCCCCC(=O)[O-]
REMARK SMILES IDX 16 1 17 2 18 3 19 4 20 5 21 6 22 7 23 8 24 9 25 10 26 11
REMARK SMILES IDX 27 12 28 13 29 14 30 15 31 16 32 17 15 18 14 19 13 20 12 21
REMARK SMILES IDX 11 22 10 23 9 24 8 25 7 26 6 27 5 28 4 29 3 30 2 31 1 32
REMARK H PARENT
REMARK Flexibility Score: inf
ROOT
ATOM      1  C   UNL     1     -17.618  54.936   0.027  1.00  0.00     0.000 C 
ENDROOT
BRANCH   1   2
ATOM      2  C   UNL     1     -17.300  56.235   0.792  1.00  0.00     0.000 C 
BRANCH   2   3
ATOM      3  C   UNL     1     -18.351  57.354   0.665  1.00  0.00     0.000 C 
BRANCH   3   4
ATOM      4  C   UNL     1     -19.819  56.908   0.843  1.00  0.00     0.000 C 
BRANCH   4   5
ATOM      5  C   UNL     1     -20.714  57.897   1.613  1.00  0.00     0.000 C 
BRANCH   5   6
ATOM      6  C   UNL     1     -22.188  57.460   1.658  1.00  0.00     0.000 C 
BRANCH   6   7
ATOM      7  C   UNL     1     -23.091  58.343   0.783  1.00  0.00     0.000 C 
BRANCH   7   8
ATOM      8  C   UNL     1     -22.954  59.841   1.105  1.00  0.00     0.000 C 
BRANCH   8   9
ATOM      9  C   UNL     1     -24.272  60.471   1.593  1.00  0.00     0.000 C 
BRANCH   9  10
ATOM     10  C   UNL     1     -25.042  59.639   2.638  1.00  0.00     0.000 C 
BRANCH  10  11
ATOM     11  C   UNL     1     -25.182  60.296   4.026  1.00  0.00     0.000 C 
BRANCH  11  12
ATOM     12  C   UNL     1     -23.857  60.539   4.769  1.00  0.00     0.000 C 
BRANCH  12  13
ATOM     13  C   UNL     1     -23.004  59.265   4.900  1.00  0.00     0.006 C 
BRANCH  13  14
ATOM     14  C   UNL     1     -21.503  59.560   4.774  1.00  0.00     0.053 C 
BRANCH  14  15
ATOM     15  C   UNL     1     -20.828  59.588   6.111  1.00  0.00     0.041 C 
ATOM     16  O   UNL     1     -19.855  58.822   6.348  1.00  0.00    -0.550 OA
ATOM     17  O   UNL     1     -21.251  60.483   7.086  1.00  0.00    -0.550 OA
ENDBRANCH  14  15
ENDBRANCH  13  14
ENDBRANCH  12  13
ENDBRANCH  11  12
ENDBRANCH  10  11
ENDBRANCH   9  10
ENDBRANCH   8   9
ENDBRANCH   7   8
ENDBRANCH   6   7
ENDBRANCH   5   6
ENDBRANCH   4   5
ENDBRANCH   3   4
ENDBRANCH   2   3
ENDBRANCH   1   2
BRANCH   1  18
ATOM     18  C   UNL     1     -16.579  54.565  -1.052  1.00  0.00     0.000 C 
BRANCH  18  19
ATOM     19  C   UNL     1     -17.129  54.684  -2.481  1.00  0.00     0.000 C 
BRANCH  19  20
ATOM     20  C   UNL     1     -17.042  56.130  -2.986  1.00  0.00     0.000 C 
BRANCH  20  21
ATOM     21  C   UNL     1     -18.376  56.584  -3.597  1.00  0.00     0.000 C 
BRANCH  21  22
ATOM     22  C   UNL     1     -19.580  56.264  -2.700  1.00  0.00     0.000 C 
BRANCH  22  23
ATOM     23  C   UNL     1     -20.926  56.620  -3.356  1.00  0.00     0.000 C 
BRANCH  23  24
ATOM     24  C   UNL     1     -22.099  56.572  -2.364  1.00  0.00    -0.000 C 
BRANCH  24  25
ATOM     25  C   UNL     1     -23.262  55.703  -2.866  1.00  0.00    -0.000 C 
BRANCH  25  26
ATOM     26  C   UNL     1     -23.460  54.472  -1.969  1.00  0.00    -0.000 C 
BRANCH  26  27
ATOM     27  C   UNL     1     -23.580  54.846  -0.482  1.00  0.00    -0.000 C 
BRANCH  27  28
ATOM     28  C   UNL     1     -22.636  54.022   0.410  1.00  0.00    -0.000 C 
BRANCH  28  29
ATOM     29  C   UNL     1     -21.236  53.851  -0.202  1.00  0.00    -0.000 C 
BRANCH  29  30
ATOM     30  C   UNL     1     -20.583  52.492   0.126  1.00  0.00    -0.000 C 
BRANCH  30  31
ATOM     31  C   UNL     1     -19.722  51.968  -1.032  1.00  0.00    -0.003 C 
ATOM     32  C   UNL     1     -20.068  52.673  -2.340  1.00  0.00     0.004 C 
ENDBRANCH  30  31
ENDBRANCH  29  30
ENDBRANCH  28  29
ENDBRANCH  27  28
ENDBRANCH  26  27
ENDBRANCH  25  26
ENDBRANCH  24  25
ENDBRANCH  23  24
ENDBRANCH  22  23
ENDBRANCH  21  22
ENDBRANCH  20  21
ENDBRANCH  19  20
ENDBRANCH  18  19
ENDBRANCH   1  18
TORSDOF 28
ENDMDL
MODEL 9
REMARK VINA RESULT:    -4.843      1.170      4.241
REMARK INTER + INTRA:         -18.731
REMARK INTER:                 -13.225
REMARK INTRA:                  -5.506
REMARK UNBOUND:                -5.961
REMARK SMILES CCCCCCCCCCCCCCCCCCCCCCCCCCCCCC(=O)[O-]
REMARK SMILES IDX 16 1 17 2 18 3 19 4 20 5 21 6 22 7 23 8 24 9 25 10 26 11
REMARK SMILES IDX 27 12 28 13 29 14 30 15 31 16 32 17 15 18 14 19 13 20 12 21
REMARK SMILES IDX 11 22 10 23 9 24 8 25 7 26 6 27 5 28 4 29 3 30 2 31 1 32
REMARK H PARENT
REMARK Flexibility Score: inf
ROOT
ATOM      1  C   UNL     1     -17.992  54.410  -2.877  1.00  0.00     0.000 C 
ENDROOT
BRANCH   1   2
ATOM      2  C   UNL     1     -16.726  54.484  -2.001  1.00  0.00     0.000 C 
BRANCH   2   3
ATOM      3  C   UNL     1     -16.904  54.031  -0.539  1.00  0.00     0.000 C 
BRANCH   3   4
ATOM      4  C   UNL     1     -17.658  55.021   0.375  1.00  0.00     0.000 C 
BRANCH   4   5
ATOM      5  C   UNL     1     -17.335  56.507   0.137  1.00  0.00     0.000 C 
BRANCH   5   6
ATOM      6  C   UNL     1     -18.319  57.455   0.847  1.00  0.00     0.000 C 
BRANCH   6   7
ATOM      7  C   UNL     1     -19.754  56.907   0.866  1.00  0.00     0.000 C 
BRANCH   7   8
ATOM      8  C   UNL     1     -20.744  57.850   1.571  1.00  0.00     0.000 C 
BRANCH   8   9
ATOM      9  C   UNL     1     -22.212  57.533   1.236  1.00  0.00     0.000 C 
BRANCH   9  10
ATOM     10  C   UNL     1     -23.212  57.797   2.380  1.00  0.00     0.000 C 
BRANCH  10  11
ATOM     11  C   UNL     1     -24.473  58.590   1.982  1.00  0.00     0.000 C 
BRANCH  11  12
ATOM     12  C   UNL     1     -24.469  59.142   0.546  1.00  0.00     0.000 C 
BRANCH  12  13
ATOM     13  C   UNL     1     -25.852  59.644   0.096  1.00  0.00     0.006 C 
BRANCH  13  14
ATOM     14  C   UNL     1     -26.415  58.817  -1.068  1.00  0.00     0.053 C 
BRANCH  14  15
ATOM     15  C   UNL     1     -26.159  59.471  -2.391  1.00  0.00     0.041 C 
ATOM     16  O   UNL     1     -27.114  59.952  -3.057  1.00  0.00    -0.550 OA
ATOM     17  O   UNL     1     -24.860  59.580  -2.873  1.00  0.00    -0.550 OA
ENDBRANCH  14  15
ENDBRANCH  13  14
ENDBRANCH  12  13
ENDBRANCH  11  12
ENDBRANCH  10  11
ENDBRANCH   9  10
ENDBRANCH   8   9
ENDBRANCH   7   8
ENDBRANCH   6   7
ENDBRANCH   5   6
ENDBRANCH   4   5
ENDBRANCH   3   4
ENDBRANCH   2   3
ENDBRANCH   1   2
BRANCH   1  18
ATOM     18  C   UNL     1     -18.136  55.571  -3.883  1.00  0.00     0.000 C 
BRANCH  18  19
ATOM     19  C   UNL     1     -19.185  56.609  -3.454  1.00  0.00     0.000 C 
BRANCH  19  20
ATOM     20  C   UNL     1     -20.144  56.026  -2.410  1.00  0.00     0.000 C 
BRANCH  20  21
ATOM     21  C   UNL     1     -21.521  55.734  -3.024  1.00  0.00     0.000 C 
BRANCH  21  22
ATOM     22  C   UNL     1     -22.537  56.857  -2.767  1.00  0.00     0.000 C 
BRANCH  22  23
ATOM     23  C   UNL     1     -23.623  56.458  -1.751  1.00  0.00     0.000 C 
BRANCH  23  24
ATOM     24  C   UNL     1     -24.802  55.722  -2.406  1.00  0.00    -0.000 C 
BRANCH  24  25
ATOM     25  C   UNL     1     -25.769  55.121  -1.373  1.00  0.00    -0.000 C 
BRANCH  25  26
ATOM     26  C   UNL     1     -25.352  55.492   0.057  1.00  0.00    -0.000 C 
BRANCH  26  27
ATOM     27  C   UNL     1     -25.060  54.254   0.921  1.00  0.00    -0.000 C 
BRANCH  27  28
ATOM     28  C   UNL     1     -23.590  54.184   1.371  1.00  0.00    -0.000 C 
BRANCH  28  29
ATOM     29  C   UNL     1     -22.616  54.004   0.195  1.00  0.00    -0.000 C 
BRANCH  29  30
ATOM     30  C   UNL     1     -21.527  52.942   0.457  1.00  0.00    -0.000 C 
BRANCH  30  31
ATOM     31  C   UNL     1     -20.493  52.880  -0.677  1.00  0.00    -0.003 C 
ATOM     32  C   UNL     1     -19.843  51.502  -0.755  1.00  0.00     0.004 C 
ENDBRANCH  30  31
ENDBRANCH  29  30
ENDBRANCH  28  29
ENDBRANCH  27  28
ENDBRANCH  26  27
ENDBRANCH  25  26
ENDBRANCH  24  25
ENDBRANCH  23  24
ENDBRANCH  22  23
ENDBRANCH  21  22
ENDBRANCH  20  21
ENDBRANCH  19  20
ENDBRANCH  18  19
ENDBRANCH   1  18
TORSDOF 28
ENDMDL
