MODEL 1
REMARK VINA RESULT:    -7.112      0.000      0.000
REMARK INTER + INTRA:          -8.648
REMARK INTER:                  -8.360
REMARK INTRA:                  -0.288
REMARK UNBOUND:                -0.288
REMARK SMILES O=c1c(O)c(-c2ccc(O)cc2)oc2cc(O)cc(O)c12
REMARK SMILES IDX 5 1 3 2 2 3 1 4 21 5 19 6 18 7 16 8 15 9 14 10 13 11 6 12
REMARK SMILES IDX 7 13 8 14 9 15 12 16 11 17 10 18 4 20 20 22 17 24
REMARK H PARENT 10 19 4 21 20 23 17 25
REMARK Flexibility Score: inf
ROOT
ATOM      1  C   UNL     1       9.767  11.604 -15.995  1.00  0.00     0.180 A 
ATOM      2  C   UNL     1      10.467  10.433 -16.332  1.00  0.00     0.208 A 
ATOM      3  C   UNL     1      10.151   9.237 -15.670  1.00  0.00     0.238 A 
ATOM      4  O   UNL     1      10.818   8.203 -15.938  1.00  0.00    -0.285 OA
ATOM      5  C   UNL     1       9.129   9.222 -14.690  1.00  0.00     0.111 A 
ATOM      6  C   UNL     1       8.699   8.058 -13.984  1.00  0.00     0.134 A 
ATOM      7  C   UNL     1       7.771   8.185 -12.943  1.00  0.00     0.093 A 
ATOM      8  C   UNL     1       7.210   9.424 -12.626  1.00  0.00     0.123 A 
ATOM      9  C   UNL     1       7.578  10.556 -13.349  1.00  0.00     0.094 A 
ATOM     10  C   UNL     1       8.529  10.467 -14.369  1.00  0.00     0.146 A 
ATOM     11  O   UNL     1       8.861  11.572 -15.025  1.00  0.00    -0.452 OA
ENDROOT
BRANCH   1  12
ATOM     12  C   UNL     1      10.026  12.899 -16.666  1.00  0.00     0.021 A 
ATOM     13  C   UNL     1       9.300  13.236 -17.820  1.00  0.00     0.016 A 
ATOM     14  C   UNL     1       9.543  14.444 -18.482  1.00  0.00     0.047 A 
ATOM     15  C   UNL     1      10.523  15.321 -18.010  1.00  0.00     0.115 A 
ATOM     16  C   UNL     1      11.024  13.776 -16.206  1.00  0.00     0.016 A 
ATOM     17  C   UNL     1      11.266  14.983 -16.871  1.00  0.00     0.047 A 
BRANCH  15  18
ATOM     18  O   UNL     1      10.754  16.520 -18.678  1.00  0.00    -0.508 OA
ATOM     19  H   UNL     1      10.299  17.381 -18.395  1.00  0.00     0.293 HD
ENDBRANCH  15  18
ENDBRANCH   1  12
BRANCH   2  20
ATOM     20  O   UNL     1      11.487  10.474 -17.288  1.00  0.00    -0.502 OA
ATOM     21  H   UNL     1      11.402  10.996 -18.152  1.00  0.00     0.293 HD
ENDBRANCH   2  20
BRANCH   6  22
ATOM     22  O   UNL     1       9.129   6.762 -14.283  1.00  0.00    -0.507 OA
ATOM     23  H   UNL     1       8.774   5.924 -13.847  1.00  0.00     0.293 HD
ENDBRANCH   6  22
BRANCH   8  24
ATOM     24  O   UNL     1       6.275   9.538 -11.600  1.00  0.00    -0.508 OA
ATOM     25  H   UNL     1       5.449   8.952 -11.566  1.00  0.00     0.293 HD
ENDBRANCH   8  24
TORSDOF 5
ENDMDL
MODEL 2
REMARK VINA RESULT:    -6.796      1.908      7.234
REMARK INTER + INTRA:          -8.276
REMARK INTER:                  -7.989
REMARK INTRA:                  -0.287
REMARK UNBOUND:                -0.288
REMARK SMILES O=c1c(O)c(-c2ccc(O)cc2)oc2cc(O)cc(O)c12
REMARK SMILES IDX 5 1 3 2 2 3 1 4 21 5 19 6 18 7 16 8 15 9 14 10 13 11 6 12
REMARK SMILES IDX 7 13 8 14 9 15 12 16 11 17 10 18 4 20 20 22 17 24
REMARK H PARENT 10 19 4 21 20 23 17 25
REMARK Flexibility Score: inf
ROOT
ATOM      1  C   UNL     1       9.940  12.328 -17.072  1.00  0.00     0.180 A 
ATOM      2  C   UNL     1      10.716  13.402 -16.605  1.00  0.00     0.208 A 
ATOM      3  C   UNL     1      10.729  14.601 -17.336  1.00  0.00     0.238 A 
ATOM      4  O   UNL     1      11.469  15.541 -16.942  1.00  0.00    -0.285 OA
ATOM      5  C   UNL     1       9.954  14.717 -18.514  1.00  0.00     0.111 A 
ATOM      6  C   UNL     1       9.861  15.897 -19.311  1.00  0.00     0.134 A 
ATOM      7  C   UNL     1       9.168  15.857 -20.528  1.00  0.00     0.093 A 
ATOM      8  C   UNL     1       8.511  14.697 -20.944  1.00  0.00     0.123 A 
ATOM      9  C   UNL     1       8.545  13.557 -20.144  1.00  0.00     0.094 A 
ATOM     10  C   UNL     1       9.258  13.556 -18.943  1.00  0.00     0.146 A 
ATOM     11  O   UNL     1       9.276  12.445 -18.217  1.00  0.00    -0.452 OA
ENDROOT
BRANCH   1  12
ATOM     12  C   UNL     1       9.854  11.041 -16.345  1.00  0.00     0.021 A 
ATOM     13  C   UNL     1       8.917  10.892 -15.309  1.00  0.00     0.016 A 
ATOM     14  C   UNL     1       8.835   9.693 -14.595  1.00  0.00     0.047 A 
ATOM     15  C   UNL     1       9.697   8.634 -14.895  1.00  0.00     0.115 A 
ATOM     16  C   UNL     1      10.732   9.979 -16.630  1.00  0.00     0.016 A 
ATOM     17  C   UNL     1      10.648   8.781 -15.913  1.00  0.00     0.047 A 
BRANCH  15  18
ATOM     18  O   UNL     1       9.602   7.445 -14.176  1.00  0.00    -0.508 OA
ATOM     19  H   UNL     1       8.948   7.340 -13.409  1.00  0.00     0.293 HD
ENDBRANCH  15  18
ENDBRANCH   1  12
BRANCH   2  20
ATOM     20  O   UNL     1      11.491  13.259 -15.451  1.00  0.00    -0.502 OA
ATOM     21  H   UNL     1      12.188  12.531 -15.350  1.00  0.00     0.293 HD
ENDBRANCH   2  20
BRANCH   6  22
ATOM     22  O   UNL     1      10.403  17.132 -18.943  1.00  0.00    -0.507 OA
ATOM     23  H   UNL     1      10.294  17.560 -18.036  1.00  0.00     0.293 HD
ENDBRANCH   6  22
BRANCH   8  24
ATOM     24  O   UNL     1       7.810  14.671 -22.148  1.00  0.00    -0.508 OA
ATOM     25  H   UNL     1       7.484  15.522 -22.591  1.00  0.00     0.293 HD
ENDBRANCH   8  24
TORSDOF 5
ENDMDL
MODEL 3
REMARK VINA RESULT:    -6.747      1.900      7.221
REMARK INTER + INTRA:          -8.218
REMARK INTER:                  -7.918
REMARK INTRA:                  -0.300
REMARK UNBOUND:                -0.288
REMARK SMILES O=c1c(O)c(-c2ccc(O)cc2)oc2cc(O)cc(O)c12
REMARK SMILES IDX 5 1 3 2 2 3 1 4 21 5 19 6 18 7 16 8 15 9 14 10 13 11 6 12
REMARK SMILES IDX 7 13 8 14 9 15 12 16 11 17 10 18 4 20 20 22 17 24
REMARK H PARENT 10 19 4 21 20 23 17 25
REMARK Flexibility Score: inf
ROOT
ATOM      1  C   UNL     1       9.936  12.354 -16.990  1.00  0.00     0.180 A 
ATOM      2  C   UNL     1      10.727  13.433 -16.562  1.00  0.00     0.208 A 
ATOM      3  C   UNL     1      10.739  14.613 -17.323  1.00  0.00     0.238 A 
ATOM      4  O   UNL     1      11.492  15.556 -16.964  1.00  0.00    -0.285 OA
ATOM      5  C   UNL     1       9.950  14.704 -18.494  1.00  0.00     0.111 A 
ATOM      6  C   UNL     1       9.855  15.864 -19.320  1.00  0.00     0.134 A 
ATOM      7  C   UNL     1       9.147  15.798 -20.526  1.00  0.00     0.093 A 
ATOM      8  C   UNL     1       8.475  14.633 -20.903  1.00  0.00     0.123 A 
ATOM      9  C   UNL     1       8.511  13.514 -20.075  1.00  0.00     0.094 A 
ATOM     10  C   UNL     1       9.240  13.538 -18.883  1.00  0.00     0.146 A 
ATOM     11  O   UNL     1       9.258  12.446 -18.129  1.00  0.00    -0.452 OA
ENDROOT
BRANCH   1  12
ATOM     12  C   UNL     1       9.851  11.087 -16.228  1.00  0.00     0.021 A 
ATOM     13  C   UNL     1      10.706  10.023 -16.556  1.00  0.00     0.016 A 
ATOM     14  C   UNL     1      10.627   8.810 -15.863  1.00  0.00     0.047 A 
ATOM     15  C   UNL     1       9.684   8.641 -14.846  1.00  0.00     0.115 A 
ATOM     16  C   UNL     1       8.890  10.904 -15.216  1.00  0.00     0.016 A 
ATOM     17  C   UNL     1       8.813   9.691 -14.526  1.00  0.00     0.047 A 
BRANCH  15  18
ATOM     18  O   UNL     1       9.617   7.429 -14.164  1.00  0.00    -0.508 OA
ATOM     19  H   UNL     1       8.808   7.178 -13.608  1.00  0.00     0.293 HD
ENDBRANCH  15  18
ENDBRANCH   1  12
BRANCH   2  20
ATOM     20  O   UNL     1      11.516  13.315 -15.414  1.00  0.00    -0.502 OA
ATOM     21  H   UNL     1      11.318  13.827 -14.563  1.00  0.00     0.293 HD
ENDBRANCH   2  20
BRANCH   6  22
ATOM     22  O   UNL     1      10.412  17.103 -18.991  1.00  0.00    -0.507 OA
ATOM     23  H   UNL     1       9.934  17.988 -19.068  1.00  0.00     0.293 HD
ENDBRANCH   6  22
BRANCH   8  24
ATOM     24  O   UNL     1       7.758  14.581 -22.097  1.00  0.00    -0.508 OA
ATOM     25  H   UNL     1       7.924  15.245 -22.845  1.00  0.00     0.293 HD
ENDBRANCH   8  24
TORSDOF 5
ENDMDL
MODEL 4
REMARK VINA RESULT:    -6.713      3.841      6.773
REMARK INTER + INTRA:          -8.179
REMARK INTER:                  -7.894
REMARK INTRA:                  -0.285
REMARK UNBOUND:                -0.288
REMARK SMILES O=c1c(O)c(-c2ccc(O)cc2)oc2cc(O)cc(O)c12
REMARK SMILES IDX 5 1 3 2 2 3 1 4 21 5 19 6 18 7 16 8 15 9 14 10 13 11 6 12
REMARK SMILES IDX 7 13 8 14 9 15 12 16 11 17 10 18 4 20 20 22 17 24
REMARK H PARENT 10 19 4 21 20 23 17 25
REMARK Flexibility Score: inf
ROOT
ATOM      1  C   UNL     1       8.715  16.551 -19.224  1.00  0.00     0.180 A 
ATOM      2  C   UNL     1       8.560  16.146 -20.560  1.00  0.00     0.208 A 
ATOM      3  C   UNL     1       8.736  14.791 -20.886  1.00  0.00     0.238 A 
ATOM      4  O   UNL     1       8.649  14.443 -22.093  1.00  0.00    -0.285 OA
ATOM      5  C   UNL     1       9.048  13.857 -19.869  1.00  0.00     0.111 A 
ATOM      6  C   UNL     1       9.210  12.454 -20.079  1.00  0.00     0.134 A 
ATOM      7  C   UNL     1       9.648  11.644 -19.024  1.00  0.00     0.093 A 
ATOM      8  C   UNL     1       9.867  12.175 -17.751  1.00  0.00     0.123 A 
ATOM      9  C   UNL     1       9.655  13.532 -17.522  1.00  0.00     0.094 A 
ATOM     10  C   UNL     1       9.253  14.373 -18.563  1.00  0.00     0.146 A 
ATOM     11  O   UNL     1       9.074  15.662 -18.304  1.00  0.00    -0.452 OA
ENDROOT
BRANCH   1  12
ATOM     12  C   UNL     1       8.521  17.956 -18.798  1.00  0.00     0.021 A 
ATOM     13  C   UNL     1       9.601  18.852 -18.855  1.00  0.00     0.016 A 
ATOM     14  C   UNL     1       9.446  20.178 -18.438  1.00  0.00     0.047 A 
ATOM     15  C   UNL     1       8.215  20.620 -17.944  1.00  0.00     0.115 A 
ATOM     16  C   UNL     1       7.290  18.402 -18.283  1.00  0.00     0.016 A 
ATOM     17  C   UNL     1       7.138  19.728 -17.865  1.00  0.00     0.047 A 
BRANCH  15  18
ATOM     18  O   UNL     1       8.074  21.943 -17.533  1.00  0.00    -0.508 OA
ATOM     19  H   UNL     1       7.310  22.522 -17.863  1.00  0.00     0.293 HD
ENDBRANCH  15  18
ENDBRANCH   1  12
BRANCH   2  20
ATOM     20  O   UNL     1       8.272  17.088 -21.552  1.00  0.00    -0.502 OA
ATOM     21  H   UNL     1       7.387  17.579 -21.595  1.00  0.00     0.293 HD
ENDBRANCH   2  20
BRANCH   6  22
ATOM     22  O   UNL     1       8.929  11.809 -21.287  1.00  0.00    -0.507 OA
ATOM     23  H   UNL     1       8.527  10.887 -21.366  1.00  0.00     0.293 HD
ENDBRANCH   6  22
BRANCH   8  24
ATOM     24  O   UNL     1      10.287  11.359 -16.704  1.00  0.00    -0.508 OA
ATOM     25  H   UNL     1       9.932  11.479 -15.762  1.00  0.00     0.293 HD
ENDBRANCH   8  24
TORSDOF 5
ENDMDL
MODEL 5
REMARK VINA RESULT:    -6.461      2.803      7.438
REMARK INTER + INTRA:          -7.882
REMARK INTER:                  -7.594
REMARK INTRA:                  -0.289
REMARK UNBOUND:                -0.288
REMARK SMILES O=c1c(O)c(-c2ccc(O)cc2)oc2cc(O)cc(O)c12
REMARK SMILES IDX 5 1 3 2 2 3 1 4 21 5 19 6 18 7 16 8 15 9 14 10 13 11 6 12
REMARK SMILES IDX 7 13 8 14 9 15 12 16 11 17 10 18 4 20 20 22 17 24
REMARK H PARENT 10 19 4 21 20 23 17 25
REMARK Flexibility Score: inf
ROOT
ATOM      1  C   UNL     1       7.425   7.726 -14.492  1.00  0.00     0.180 A 
ATOM      2  C   UNL     1       6.995   8.124 -13.215  1.00  0.00     0.208 A 
ATOM      3  C   UNL     1       7.232   9.443 -12.798  1.00  0.00     0.238 A 
ATOM      4  O   UNL     1       6.894   9.779 -11.632  1.00  0.00    -0.285 OA
ATOM      5  C   UNL     1       7.882  10.352 -13.668  1.00  0.00     0.111 A 
ATOM      6  C   UNL     1       8.139  11.723 -13.364  1.00  0.00     0.134 A 
ATOM      7  C   UNL     1       8.905  12.494 -14.247  1.00  0.00     0.093 A 
ATOM      8  C   UNL     1       9.367  11.963 -15.452  1.00  0.00     0.123 A 
ATOM      9  C   UNL     1       9.071  10.643 -15.785  1.00  0.00     0.094 A 
ATOM     10  C   UNL     1       8.340   9.838 -14.909  1.00  0.00     0.146 A 
ATOM     11  O   UNL     1       8.090   8.582 -15.260  1.00  0.00    -0.452 OA
ENDROOT
BRANCH   1  12
ATOM     12  C   UNL     1       7.189   6.360 -15.014  1.00  0.00     0.021 A 
ATOM     13  C   UNL     1       8.132   5.350 -14.762  1.00  0.00     0.016 A 
ATOM     14  C   UNL     1       7.939   4.059 -15.263  1.00  0.00     0.047 A 
ATOM     15  C   UNL     1       6.811   3.765 -16.034  1.00  0.00     0.115 A 
ATOM     16  C   UNL     1       6.065   6.063 -15.807  1.00  0.00     0.016 A 
ATOM     17  C   UNL     1       5.875   4.771 -16.308  1.00  0.00     0.047 A 
BRANCH  15  18
ATOM     18  O   UNL     1       6.631   2.475 -16.526  1.00  0.00    -0.508 OA
ATOM     19  H   UNL     1       5.965   1.836 -16.106  1.00  0.00     0.293 HD
ENDBRANCH  15  18
ENDBRANCH   1  12
BRANCH   2  20
ATOM     20  O   UNL     1       6.375   7.205 -12.364  1.00  0.00    -0.502 OA
ATOM     21  H   UNL     1       6.596   6.217 -12.376  1.00  0.00     0.293 HD
ENDBRANCH   2  20
BRANCH   6  22
ATOM     22  O   UNL     1       7.645  12.376 -12.231  1.00  0.00    -0.507 OA
ATOM     23  H   UNL     1       8.032  12.291 -11.304  1.00  0.00     0.293 HD
ENDBRANCH   6  22
BRANCH   8  24
ATOM     24  O   UNL     1      10.115  12.742 -16.332  1.00  0.00    -0.508 OA
ATOM     25  H   UNL     1      10.200  12.501 -17.313  1.00  0.00     0.293 HD
ENDBRANCH   8  24
TORSDOF 5
ENDMDL
MODEL 6
REMARK VINA RESULT:    -6.427      2.488      7.188
REMARK INTER + INTRA:          -7.842
REMARK INTER:                  -7.542
REMARK INTRA:                  -0.300
REMARK UNBOUND:                -0.288
REMARK SMILES O=c1c(O)c(-c2ccc(O)cc2)oc2cc(O)cc(O)c12
REMARK SMILES IDX 5 1 3 2 2 3 1 4 21 5 19 6 18 7 16 8 15 9 14 10 13 11 6 12
REMARK SMILES IDX 7 13 8 14 9 15 12 16 11 17 10 18 4 20 20 22 17 24
REMARK H PARENT 10 19 4 21 20 23 17 25
REMARK Flexibility Score: inf
ROOT
ATOM      1  C   UNL     1       9.089  11.676 -17.942  1.00  0.00     0.180 A 
ATOM      2  C   UNL     1       8.264  11.401 -19.046  1.00  0.00     0.208 A 
ATOM      3  C   UNL     1       8.032  12.412 -19.992  1.00  0.00     0.238 A 
ATOM      4  O   UNL     1       7.248  12.177 -20.949  1.00  0.00    -0.285 OA
ATOM      5  C   UNL     1       8.640  13.680 -19.831  1.00  0.00     0.111 A 
ATOM      6  C   UNL     1       8.507  14.765 -20.749  1.00  0.00     0.134 A 
ATOM      7  C   UNL     1       9.046  16.015 -20.422  1.00  0.00     0.093 A 
ATOM      8  C   UNL     1       9.770  16.202 -19.243  1.00  0.00     0.123 A 
ATOM      9  C   UNL     1       9.957  15.134 -18.369  1.00  0.00     0.094 A 
ATOM     10  C   UNL     1       9.400  13.884 -18.649  1.00  0.00     0.146 A 
ATOM     11  O   UNL     1       9.592  12.895 -17.785  1.00  0.00    -0.452 OA
ENDROOT
BRANCH   1  12
ATOM     12  C   UNL     1       9.401  10.654 -16.916  1.00  0.00     0.021 A 
ATOM     13  C   UNL     1       8.619  10.582 -15.751  1.00  0.00     0.016 A 
ATOM     14  C   UNL     1       8.910   9.639 -14.760  1.00  0.00     0.047 A 
ATOM     15  C   UNL     1       9.993   8.769 -14.913  1.00  0.00     0.115 A 
ATOM     16  C   UNL     1      10.500   9.788 -17.056  1.00  0.00     0.016 A 
ATOM     17  C   UNL     1      10.790   8.847 -16.063  1.00  0.00     0.047 A 
BRANCH  15  18
ATOM     18  O   UNL     1      10.270   7.834 -13.919  1.00  0.00    -0.508 OA
ATOM     19  H   UNL     1       9.837   6.917 -13.918  1.00  0.00     0.293 HD
ENDBRANCH  15  18
ENDBRANCH   1  12
BRANCH   2  20
ATOM     20  O   UNL     1       7.655  10.148 -19.174  1.00  0.00    -0.502 OA
ATOM     21  H   UNL     1       6.777   9.922 -18.721  1.00  0.00     0.293 HD
ENDBRANCH   2  20
BRANCH   6  22
ATOM     22  O   UNL     1       7.883  14.660 -21.995  1.00  0.00    -0.507 OA
ATOM     23  H   UNL     1       8.314  14.896 -22.876  1.00  0.00     0.293 HD
ENDBRANCH   6  22
BRANCH   8  24
ATOM     24  O   UNL     1      10.317  17.445 -18.934  1.00  0.00    -0.508 OA
ATOM     25  H   UNL     1       9.733  18.235 -18.685  1.00  0.00     0.293 HD
ENDBRANCH   8  24
TORSDOF 5
ENDMDL
MODEL 7
REMARK VINA RESULT:    -6.303      2.313      3.216
REMARK INTER + INTRA:          -7.696
REMARK INTER:                  -7.803
REMARK INTRA:                   0.107
REMARK UNBOUND:                -0.288
REMARK SMILES O=c1c(O)c(-c2ccc(O)cc2)oc2cc(O)cc(O)c12
REMARK SMILES IDX 5 1 3 2 2 3 1 4 21 5 19 6 18 7 16 8 15 9 14 10 13 11 6 12
REMARK SMILES IDX 7 13 8 14 9 15 12 16 11 17 10 18 4 20 20 22 17 24
REMARK H PARENT 10 19 4 21 20 23 17 25
REMARK Flexibility Score: inf
ROOT
ATOM      1  C   UNL     1       9.117  12.903 -18.580  1.00  0.00     0.180 A 
ATOM      2  C   UNL     1       9.539  11.599 -18.887  1.00  0.00     0.208 A 
ATOM      3  C   UNL     1       9.572  10.636 -17.866  1.00  0.00     0.238 A 
ATOM      4  O   UNL     1      10.003   9.484 -18.134  1.00  0.00    -0.285 OA
ATOM      5  C   UNL     1       9.167  10.985 -16.555  1.00  0.00     0.111 A 
ATOM      6  C   UNL     1       9.123  10.080 -15.452  1.00  0.00     0.134 A 
ATOM      7  C   UNL     1       8.833  10.566 -14.171  1.00  0.00     0.093 A 
ATOM      8  C   UNL     1       8.521  11.911 -13.965  1.00  0.00     0.123 A 
ATOM      9  C   UNL     1       8.503  12.791 -15.044  1.00  0.00     0.094 A 
ATOM     10  C   UNL     1       8.824  12.343 -16.328  1.00  0.00     0.146 A 
ATOM     11  O   UNL     1       8.807  13.217 -17.327  1.00  0.00    -0.452 OA
ENDROOT
BRANCH   1  12
ATOM     12  C   UNL     1       9.030  13.966 -19.608  1.00  0.00     0.021 A 
ATOM     13  C   UNL     1       8.439  13.682 -20.849  1.00  0.00     0.016 A 
ATOM     14  C   UNL     1       8.366  14.666 -21.842  1.00  0.00     0.047 A 
ATOM     15  C   UNL     1       8.897  15.938 -21.611  1.00  0.00     0.115 A 
ATOM     16  C   UNL     1       9.579  15.243 -19.389  1.00  0.00     0.016 A 
ATOM     17  C   UNL     1       9.506  16.224 -20.383  1.00  0.00     0.047 A 
BRANCH  15  18
ATOM     18  O   UNL     1       8.817  16.907 -22.608  1.00  0.00    -0.508 OA
ATOM     19  H   UNL     1       7.932  17.330 -22.866  1.00  0.00     0.293 HD
ENDBRANCH  15  18
ENDBRANCH   1  12
BRANCH   2  20
ATOM     20  O   UNL     1       9.955  11.281 -20.183  1.00  0.00    -0.502 OA
ATOM     21  H   UNL     1      10.435  10.416 -20.403  1.00  0.00     0.293 HD
ENDBRANCH   2  20
BRANCH   6  22
ATOM     22  O   UNL     1       9.329   8.702 -15.565  1.00  0.00    -0.507 OA
ATOM     23  H   UNL     1       8.832   8.097 -16.202  1.00  0.00     0.293 HD
ENDBRANCH   6  22
BRANCH   8  24
ATOM     24  O   UNL     1       8.217  12.383 -12.690  1.00  0.00    -0.508 OA
ATOM     25  H   UNL     1       7.849  11.770 -11.971  1.00  0.00     0.293 HD
ENDBRANCH   8  24
TORSDOF 5
ENDMDL
MODEL 8
REMARK VINA RESULT:    -6.288      1.226      3.059
REMARK INTER + INTRA:          -7.679
REMARK INTER:                  -7.402
REMARK INTRA:                  -0.276
REMARK UNBOUND:                -0.288
REMARK SMILES O=c1c(O)c(-c2ccc(O)cc2)oc2cc(O)cc(O)c12
REMARK SMILES IDX 5 1 3 2 2 3 1 4 21 5 19 6 18 7 16 8 15 9 14 10 13 11 6 12
REMARK SMILES IDX 7 13 8 14 9 15 12 16 11 17 10 18 4 20 20 22 17 24
REMARK H PARENT 10 19 4 21 20 23 17 25
REMARK Flexibility Score: inf
ROOT
ATOM      1  C   UNL     1       8.726  12.441 -15.404  1.00  0.00     0.180 A 
ATOM      2  C   UNL     1       7.665  12.794 -14.553  1.00  0.00     0.208 A 
ATOM      3  C   UNL     1       7.117  11.818 -13.707  1.00  0.00     0.238 A 
ATOM      4  O   UNL     1       6.131  12.126 -12.986  1.00  0.00    -0.285 OA
ATOM      5  C   UNL     1       7.646  10.505 -13.710  1.00  0.00     0.111 A 
ATOM      6  C   UNL     1       7.194   9.446 -12.866  1.00  0.00     0.134 A 
ATOM      7  C   UNL     1       7.701   8.154 -13.047  1.00  0.00     0.093 A 
ATOM      8  C   UNL     1       8.691   7.895 -13.998  1.00  0.00     0.123 A 
ATOM      9  C   UNL     1       9.181   8.933 -14.786  1.00  0.00     0.094 A 
ATOM     10  C   UNL     1       8.669  10.226 -14.653  1.00  0.00     0.146 A 
ATOM     11  O   UNL     1       9.157  11.185 -15.432  1.00  0.00    -0.452 OA
ENDROOT
BRANCH   1  12
ATOM     12  C   UNL     1       9.373  13.420 -16.306  1.00  0.00     0.021 A 
ATOM     13  C   UNL     1       8.817  13.669 -17.572  1.00  0.00     0.016 A 
ATOM     14  C   UNL     1       9.424  14.574 -18.448  1.00  0.00     0.047 A 
ATOM     15  C   UNL     1      10.602  15.230 -18.077  1.00  0.00     0.115 A 
ATOM     16  C   UNL     1      10.569  14.069 -15.947  1.00  0.00     0.016 A 
ATOM     17  C   UNL     1      11.175  14.972 -16.825  1.00  0.00     0.047 A 
BRANCH  15  18
ATOM     18  O   UNL     1      11.195  16.129 -18.960  1.00  0.00    -0.508 OA
ATOM     19  H   UNL     1      11.909  15.834 -19.616  1.00  0.00     0.293 HD
ENDBRANCH  15  18
ENDBRANCH   1  12
BRANCH   2  20
ATOM     20  O   UNL     1       7.143  14.091 -14.581  1.00  0.00    -0.502 OA
ATOM     21  H   UNL     1       7.447  14.813 -13.938  1.00  0.00     0.293 HD
ENDBRANCH   2  20
BRANCH   6  22
ATOM     22  O   UNL     1       6.276   9.616 -11.825  1.00  0.00    -0.507 OA
ATOM     23  H   UNL     1       5.345   9.230 -11.811  1.00  0.00     0.293 HD
ENDBRANCH   6  22
BRANCH   8  24
ATOM     24  O   UNL     1       9.201   6.609 -14.160  1.00  0.00    -0.508 OA
ATOM     25  H   UNL     1      10.183   6.449 -14.358  1.00  0.00     0.293 HD
ENDBRANCH   8  24
TORSDOF 5
ENDMDL
MODEL 9
REMARK VINA RESULT:    -6.190      2.003      6.970
REMARK INTER + INTRA:          -7.563
REMARK INTER:                  -7.717
REMARK INTRA:                   0.154
REMARK UNBOUND:                -0.288
REMARK SMILES O=c1c(O)c(-c2ccc(O)cc2)oc2cc(O)cc(O)c12
REMARK SMILES IDX 5 1 3 2 2 3 1 4 21 5 19 6 18 7 16 8 15 9 14 10 13 11 6 12
REMARK SMILES IDX 7 13 8 14 9 15 12 16 11 17 10 18 4 20 20 22 17 24
REMARK H PARENT 10 19 4 21 20 23 17 25
REMARK Flexibility Score: inf
ROOT
ATOM      1  C   UNL     1       8.395  11.278 -14.741  1.00  0.00     0.180 A 
ATOM      2  C   UNL     1       8.791  12.571 -14.359  1.00  0.00     0.208 A 
ATOM      3  C   UNL     1       9.165  13.490 -15.352  1.00  0.00     0.238 A 
ATOM      4  O   UNL     1       9.571  14.629 -15.001  1.00  0.00    -0.285 OA
ATOM      5  C   UNL     1       9.125  13.111 -16.716  1.00  0.00     0.111 A 
ATOM      6  C   UNL     1       9.445  13.972 -17.808  1.00  0.00     0.134 A 
ATOM      7  C   UNL     1       9.497  13.451 -19.106  1.00  0.00     0.093 A 
ATOM      8  C   UNL     1       9.177  12.116 -19.360  1.00  0.00     0.123 A 
ATOM      9  C   UNL     1       8.805  11.282 -18.308  1.00  0.00     0.094 A 
ATOM     10  C   UNL     1       8.779  11.763 -16.997  1.00  0.00     0.146 A 
ATOM     11  O   UNL     1       8.431  10.931 -16.023  1.00  0.00    -0.452 OA
ENDROOT
BRANCH   1  12
ATOM     12  C   UNL     1       7.962  10.262 -13.755  1.00  0.00     0.021 A 
ATOM     13  C   UNL     1       8.294   8.913 -13.961  1.00  0.00     0.016 A 
ATOM     14  C   UNL     1       7.876   7.934 -13.053  1.00  0.00     0.047 A 
ATOM     15  C   UNL     1       7.110   8.289 -11.939  1.00  0.00     0.115 A 
ATOM     16  C   UNL     1       7.175  10.610 -12.642  1.00  0.00     0.016 A 
ATOM     17  C   UNL     1       6.758   9.629 -11.737  1.00  0.00     0.047 A 
BRANCH  15  18
ATOM     18  O   UNL     1       6.703   7.304 -11.043  1.00  0.00    -0.508 OA
ATOM     19  H   UNL     1       6.360   6.405 -11.363  1.00  0.00     0.293 HD
ENDBRANCH  15  18
ENDBRANCH   1  12
BRANCH   2  20
ATOM     20  O   UNL     1       8.845  12.919 -13.006  1.00  0.00    -0.502 OA
ATOM     21  H   UNL     1       8.196  13.575 -12.587  1.00  0.00     0.293 HD
ENDBRANCH   2  20
BRANCH   6  22
ATOM     22  O   UNL     1       9.691  15.342 -17.674  1.00  0.00    -0.507 OA
ATOM     23  H   UNL     1       9.418  16.043 -18.345  1.00  0.00     0.293 HD
ENDBRANCH   6  22
BRANCH   8  24
ATOM     24  O   UNL     1       9.215  11.610 -20.657  1.00  0.00    -0.508 OA
ATOM     25  H   UNL     1       9.973  11.016 -20.973  1.00  0.00     0.293 HD
ENDBRANCH   8  24
TORSDOF 5
ENDMDL
