MODEL 1
REMARK VINA RESULT:    -6.477      0.000      0.000
REMARK INTER + INTRA:          -7.891
REMARK INTER:                  -7.613
REMARK INTRA:                  -0.278
REMARK UNBOUND:                -0.278
REMARK SMILES O=c1cc(-c2ccc(O)c(O)c2)oc2cc(O)cc(O)c12
REMARK SMILES IDX 4 1 3 2 2 3 1 4 21 5 19 6 18 7 16 8 15 9 14 10 13 11 5 12
REMARK SMILES IDX 6 13 7 14 8 15 12 16 10 17 9 18 11 20 20 22 17 24
REMARK H PARENT 9 19 11 21 20 23 17 25
REMARK Flexibility Score: inf
ROOT
ATOM      1  C   UNL     1      -9.788   4.032  23.939  1.00  0.00     0.138 A 
ATOM      2  C   UNL     1     -10.226   5.268  24.434  1.00  0.00     0.100 A 
ATOM      3  C   UNL     1     -11.546   5.668  24.224  1.00  0.00     0.197 A 
ATOM      4  O   UNL     1     -11.924   6.757  24.728  1.00  0.00    -0.289 OA
ATOM      5  C   UNL     1     -12.423   4.839  23.481  1.00  0.00     0.107 A 
ATOM      6  C   UNL     1     -13.780   5.158  23.175  1.00  0.00     0.134 A 
ATOM      7  C   UNL     1     -14.579   4.214  22.517  1.00  0.00     0.093 A 
ATOM      8  C   UNL     1     -14.054   2.987  22.104  1.00  0.00     0.123 A 
ATOM      9  C   UNL     1     -12.718   2.687  22.355  1.00  0.00     0.094 A 
ATOM     10  C   UNL     1     -11.903   3.593  23.040  1.00  0.00     0.146 A 
ATOM     11  O   UNL     1     -10.639   3.259  23.274  1.00  0.00    -0.456 OA
ENDROOT
BRANCH   1  12
ATOM     12  C   UNL     1      -8.393   3.559  24.132  1.00  0.00     0.021 A 
ATOM     13  C   UNL     1      -8.164   2.238  24.545  1.00  0.00     0.016 A 
ATOM     14  C   UNL     1      -6.863   1.771  24.739  1.00  0.00     0.051 A 
ATOM     15  C   UNL     1      -5.765   2.611  24.537  1.00  0.00     0.157 A 
ATOM     16  C   UNL     1      -7.289   4.411  23.942  1.00  0.00     0.062 A 
ATOM     17  C   UNL     1      -5.980   3.951  24.139  1.00  0.00     0.158 A 
BRANCH  15  18
ATOM     18  O   UNL     1      -4.489   2.081  24.743  1.00  0.00    -0.504 OA
ATOM     19  H   UNL     1      -4.025   1.459  24.098  1.00  0.00     0.293 HD
ENDBRANCH  15  18
BRANCH  17  20
ATOM     20  O   UNL     1      -4.935   4.853  23.932  1.00  0.00    -0.504 OA
ATOM     21  H   UNL     1      -4.050   4.814  24.417  1.00  0.00     0.293 HD
ENDBRANCH  17  20
ENDBRANCH   1  12
BRANCH   6  22
ATOM     22  O   UNL     1     -14.383   6.385  23.470  1.00  0.00    -0.507 OA
ATOM     23  H   UNL     1     -14.078   7.022  24.188  1.00  0.00     0.293 HD
ENDBRANCH   6  22
BRANCH   8  24
ATOM     24  O   UNL     1     -14.852   2.061  21.438  1.00  0.00    -0.508 OA
ATOM     25  H   UNL     1     -14.807   1.948  20.431  1.00  0.00     0.293 HD
ENDBRANCH   8  24
TORSDOF 5
ENDMDL
MODEL 2
REMARK VINA RESULT:    -6.262      2.081      4.086
REMARK INTER + INTRA:          -7.639
REMARK INTER:                  -7.322
REMARK INTRA:                  -0.316
REMARK UNBOUND:                -0.278
REMARK SMILES O=c1cc(-c2ccc(O)c(O)c2)oc2cc(O)cc(O)c12
REMARK SMILES IDX 4 1 3 2 2 3 1 4 21 5 19 6 18 7 16 8 15 9 14 10 13 11 5 12
REMARK SMILES IDX 6 13 7 14 8 15 12 16 10 17 9 18 11 20 20 22 17 24
REMARK H PARENT 9 19 11 21 20 23 17 25
REMARK Flexibility Score: inf
ROOT
ATOM      1  C   UNL     1     -12.012   2.399  22.793  1.00  0.00     0.138 A 
ATOM      2  C   UNL     1     -12.239   1.016  22.767  1.00  0.00     0.100 A 
ATOM      3  C   UNL     1     -13.495   0.528  22.407  1.00  0.00     0.197 A 
ATOM      4  O   UNL     1     -13.651  -0.719  22.340  1.00  0.00    -0.289 OA
ATOM      5  C   UNL     1     -14.542   1.433  22.106  1.00  0.00     0.107 A 
ATOM      6  C   UNL     1     -15.873   1.052  21.759  1.00  0.00     0.134 A 
ATOM      7  C   UNL     1     -16.797   2.036  21.384  1.00  0.00     0.093 A 
ATOM      8  C   UNL     1     -16.455   3.390  21.400  1.00  0.00     0.123 A 
ATOM      9  C   UNL     1     -15.173   3.775  21.785  1.00  0.00     0.094 A 
ATOM     10  C   UNL     1     -14.218   2.816  22.130  1.00  0.00     0.146 A 
ATOM     11  O   UNL     1     -13.002   3.226  22.474  1.00  0.00    -0.456 OA
ENDROOT
BRANCH   1  12
ATOM     12  C   UNL     1     -10.696   2.972  23.172  1.00  0.00     0.021 A 
ATOM     13  C   UNL     1      -9.589   2.122  23.316  1.00  0.00     0.016 A 
ATOM     14  C   UNL     1      -8.342   2.634  23.677  1.00  0.00     0.051 A 
ATOM     15  C   UNL     1      -8.174   4.002  23.915  1.00  0.00     0.157 A 
ATOM     16  C   UNL     1     -10.532   4.347  23.425  1.00  0.00     0.062 A 
ATOM     17  C   UNL     1      -9.284   4.869  23.793  1.00  0.00     0.158 A 
BRANCH  15  18
ATOM     18  O   UNL     1      -6.900   4.452  24.268  1.00  0.00    -0.504 OA
ATOM     19  H   UNL     1      -6.489   5.310  23.930  1.00  0.00     0.293 HD
ENDBRANCH  15  18
BRANCH  17  20
ATOM     20  O   UNL     1      -9.198   6.243  24.029  1.00  0.00    -0.504 OA
ATOM     21  H   UNL     1      -9.187   6.941  23.300  1.00  0.00     0.293 HD
ENDBRANCH  17  20
ENDBRANCH   1  12
BRANCH   6  22
ATOM     22  O   UNL     1     -16.344  -0.265  21.786  1.00  0.00    -0.507 OA
ATOM     23  H   UNL     1     -16.528  -0.797  22.621  1.00  0.00     0.293 HD
ENDBRANCH   6  22
BRANCH   8  24
ATOM     24  O   UNL     1     -17.385   4.362  21.040  1.00  0.00    -0.508 OA
ATOM     25  H   UNL     1     -17.141   5.345  21.011  1.00  0.00     0.293 HD
ENDBRANCH   8  24
TORSDOF 5
ENDMDL
MODEL 3
REMARK VINA RESULT:    -6.230      1.182      3.034
REMARK INTER + INTRA:          -7.601
REMARK INTER:                  -7.321
REMARK INTRA:                  -0.280
REMARK UNBOUND:                -0.278
REMARK SMILES O=c1cc(-c2ccc(O)c(O)c2)oc2cc(O)cc(O)c12
REMARK SMILES IDX 4 1 3 2 2 3 1 4 21 5 19 6 18 7 16 8 15 9 14 10 13 11 5 12
REMARK SMILES IDX 6 13 7 14 8 15 12 16 10 17 9 18 11 20 20 22 17 24
REMARK H PARENT 9 19 11 21 20 23 17 25
REMARK Flexibility Score: inf
ROOT
ATOM      1  C   UNL     1     -10.060   3.131  23.257  1.00  0.00     0.138 A 
ATOM      2  C   UNL     1     -10.542   2.045  22.514  1.00  0.00     0.100 A 
ATOM      3  C   UNL     1     -11.878   2.019  22.113  1.00  0.00     0.197 A 
ATOM      4  O   UNL     1     -12.266   1.058  21.400  1.00  0.00    -0.289 OA
ATOM      5  C   UNL     1     -12.747   3.072  22.491  1.00  0.00     0.107 A 
ATOM      6  C   UNL     1     -14.135   3.137  22.169  1.00  0.00     0.134 A 
ATOM      7  C   UNL     1     -14.871   4.279  22.513  1.00  0.00     0.093 A 
ATOM      8  C   UNL     1     -14.281   5.332  23.218  1.00  0.00     0.123 A 
ATOM      9  C   UNL     1     -12.939   5.255  23.580  1.00  0.00     0.094 A 
ATOM     10  C   UNL     1     -12.169   4.146  23.221  1.00  0.00     0.146 A 
ATOM     11  O   UNL     1     -10.888   4.122  23.571  1.00  0.00    -0.456 OA
ENDROOT
BRANCH   1  12
ATOM     12  C   UNL     1      -8.649   3.207  23.712  1.00  0.00     0.021 A 
ATOM     13  C   UNL     1      -7.956   4.422  23.607  1.00  0.00     0.016 A 
ATOM     14  C   UNL     1      -6.626   4.519  24.022  1.00  0.00     0.051 A 
ATOM     15  C   UNL     1      -5.956   3.407  24.539  1.00  0.00     0.157 A 
ATOM     16  C   UNL     1      -7.971   2.082  24.219  1.00  0.00     0.062 A 
ATOM     17  C   UNL     1      -6.636   2.170  24.633  1.00  0.00     0.158 A 
BRANCH  15  18
ATOM     18  O   UNL     1      -4.629   3.571  24.941  1.00  0.00    -0.504 OA
ATOM     19  H   UNL     1      -3.892   2.912  24.740  1.00  0.00     0.293 HD
ENDBRANCH  15  18
BRANCH  17  20
ATOM     20  O   UNL     1      -6.029   1.012  25.124  1.00  0.00    -0.504 OA
ATOM     21  H   UNL     1      -6.139   0.098  24.711  1.00  0.00     0.293 HD
ENDBRANCH  17  20
ENDBRANCH   1  12
BRANCH   6  22
ATOM     22  O   UNL     1     -14.843   2.110  21.537  1.00  0.00    -0.507 OA
ATOM     23  H   UNL     1     -14.542   1.150  21.480  1.00  0.00     0.293 HD
ENDBRANCH   6  22
BRANCH   8  24
ATOM     24  O   UNL     1     -15.024   6.456  23.569  1.00  0.00    -0.508 OA
ATOM     25  H   UNL     1     -15.896   6.683  23.103  1.00  0.00     0.293 HD
ENDBRANCH   8  24
TORSDOF 5
ENDMDL
MODEL 4
REMARK VINA RESULT:    -6.199      2.654      7.361
REMARK INTER + INTRA:          -7.564
REMARK INTER:                  -7.298
REMARK INTRA:                  -0.266
REMARK UNBOUND:                -0.278
REMARK SMILES O=c1cc(-c2ccc(O)c(O)c2)oc2cc(O)cc(O)c12
REMARK SMILES IDX 4 1 3 2 2 3 1 4 21 5 19 6 18 7 16 8 15 9 14 10 13 11 5 12
REMARK SMILES IDX 6 13 7 14 8 15 12 16 10 17 9 18 11 20 20 22 17 24
REMARK H PARENT 9 19 11 21 20 23 17 25
REMARK Flexibility Score: inf
ROOT
ATOM      1  C   UNL     1     -13.116   2.860  22.773  1.00  0.00     0.138 A 
ATOM      2  C   UNL     1     -11.870   2.295  22.468  1.00  0.00     0.100 A 
ATOM      3  C   UNL     1     -10.702   3.008  22.739  1.00  0.00     0.197 A 
ATOM      4  O   UNL     1      -9.598   2.451  22.505  1.00  0.00    -0.289 OA
ATOM      5  C   UNL     1     -10.784   4.312  23.286  1.00  0.00     0.107 A 
ATOM      6  C   UNL     1      -9.663   5.146  23.573  1.00  0.00     0.134 A 
ATOM      7  C   UNL     1      -9.864   6.380  24.206  1.00  0.00     0.093 A 
ATOM      8  C   UNL     1     -11.150   6.833  24.509  1.00  0.00     0.123 A 
ATOM      9  C   UNL     1     -12.254   6.047  24.188  1.00  0.00     0.094 A 
ATOM     10  C   UNL     1     -12.085   4.797  23.589  1.00  0.00     0.146 A 
ATOM     11  O   UNL     1     -13.164   4.072  23.315  1.00  0.00    -0.456 OA
ENDROOT
BRANCH   1  12
ATOM     12  C   UNL     1     -14.390   2.147  22.502  1.00  0.00     0.021 A 
ATOM     13  C   UNL     1     -14.857   1.198  23.424  1.00  0.00     0.016 A 
ATOM     14  C   UNL     1     -16.049   0.509  23.190  1.00  0.00     0.051 A 
ATOM     15  C   UNL     1     -16.793   0.742  22.030  1.00  0.00     0.157 A 
ATOM     16  C   UNL     1     -15.130   2.373  21.326  1.00  0.00     0.062 A 
ATOM     17  C   UNL     1     -16.324   1.682  21.082  1.00  0.00     0.158 A 
BRANCH  15  18
ATOM     18  O   UNL     1     -17.978   0.024  21.858  1.00  0.00    -0.504 OA
ATOM     19  H   UNL     1     -18.544  -0.323  22.618  1.00  0.00     0.293 HD
ENDBRANCH  15  18
BRANCH  17  20
ATOM     20  O   UNL     1     -17.004   1.957  19.894  1.00  0.00    -0.504 OA
ATOM     21  H   UNL     1     -16.646   2.555  19.164  1.00  0.00     0.293 HD
ENDBRANCH  17  20
ENDBRANCH   1  12
BRANCH   6  22
ATOM     22  O   UNL     1      -8.342   4.827  23.241  1.00  0.00    -0.507 OA
ATOM     23  H   UNL     1      -7.657   5.480  22.895  1.00  0.00     0.293 HD
ENDBRANCH   6  22
BRANCH   8  24
ATOM     24  O   UNL     1     -11.342   8.067  25.125  1.00  0.00    -0.508 OA
ATOM     25  H   UNL     1     -10.771   8.871  24.891  1.00  0.00     0.293 HD
ENDBRANCH   8  24
TORSDOF 5
ENDMDL
MODEL 5
REMARK VINA RESULT:    -6.196      2.352      6.799
REMARK INTER + INTRA:          -7.560
REMARK INTER:                  -7.264
REMARK INTRA:                  -0.297
REMARK UNBOUND:                -0.278
REMARK SMILES O=c1cc(-c2ccc(O)c(O)c2)oc2cc(O)cc(O)c12
REMARK SMILES IDX 4 1 3 2 2 3 1 4 21 5 19 6 18 7 16 8 15 9 14 10 13 11 5 12
REMARK SMILES IDX 6 13 7 14 8 15 12 16 10 17 9 18 11 20 20 22 17 24
REMARK H PARENT 9 19 11 21 20 23 17 25
REMARK Flexibility Score: inf
ROOT
ATOM      1  C   UNL     1     -12.025   3.035  23.645  1.00  0.00     0.138 A 
ATOM      2  C   UNL     1     -10.761   2.493  23.913  1.00  0.00     0.100 A 
ATOM      3  C   UNL     1      -9.732   3.325  24.357  1.00  0.00     0.197 A 
ATOM      4  O   UNL     1      -8.625   2.800  24.642  1.00  0.00    -0.289 OA
ATOM      5  C   UNL     1      -9.962   4.715  24.499  1.00  0.00     0.107 A 
ATOM      6  C   UNL     1      -8.980   5.665  24.912  1.00  0.00     0.134 A 
ATOM      7  C   UNL     1      -9.354   7.000  25.112  1.00  0.00     0.093 A 
ATOM      8  C   UNL     1     -10.658   7.431  24.858  1.00  0.00     0.123 A 
ATOM      9  C   UNL     1     -11.611   6.521  24.408  1.00  0.00     0.094 A 
ATOM     10  C   UNL     1     -11.280   5.175  24.232  1.00  0.00     0.146 A 
ATOM     11  O   UNL     1     -12.224   4.338  23.818  1.00  0.00    -0.456 OA
ENDROOT
BRANCH   1  12
ATOM     12  C   UNL     1     -13.154   2.197  23.168  1.00  0.00     0.021 A 
ATOM     13  C   UNL     1     -14.371   2.807  22.829  1.00  0.00     0.016 A 
ATOM     14  C   UNL     1     -15.449   2.041  22.383  1.00  0.00     0.051 A 
ATOM     15  C   UNL     1     -15.342   0.652  22.276  1.00  0.00     0.157 A 
ATOM     16  C   UNL     1     -13.049   0.796  23.074  1.00  0.00     0.062 A 
ATOM     17  C   UNL     1     -14.128   0.020  22.631  1.00  0.00     0.158 A 
BRANCH  15  18
ATOM     18  O   UNL     1     -16.456  -0.056  21.818  1.00  0.00    -0.504 OA
ATOM     19  H   UNL     1     -16.999  -0.687  22.390  1.00  0.00     0.293 HD
ENDBRANCH  15  18
BRANCH  17  20
ATOM     20  O   UNL     1     -13.950  -1.364  22.565  1.00  0.00    -0.504 OA
ATOM     21  H   UNL     1     -14.471  -2.027  23.121  1.00  0.00     0.293 HD
ENDBRANCH  17  20
ENDBRANCH   1  12
BRANCH   6  22
ATOM     22  O   UNL     1      -7.631   5.359  25.117  1.00  0.00    -0.507 OA
ATOM     23  H   UNL     1      -7.236   4.433  25.084  1.00  0.00     0.293 HD
ENDBRANCH   6  22
BRANCH   8  24
ATOM     24  O   UNL     1     -11.016   8.764  25.046  1.00  0.00    -0.508 OA
ATOM     25  H   UNL     1     -10.358   9.443  25.410  1.00  0.00     0.293 HD
ENDBRANCH   8  24
TORSDOF 5
ENDMDL
MODEL 6
REMARK VINA RESULT:    -6.195      2.849      4.914
REMARK INTER + INTRA:          -7.559
REMARK INTER:                  -7.288
REMARK INTRA:                  -0.271
REMARK UNBOUND:                -0.278
REMARK SMILES O=c1cc(-c2ccc(O)c(O)c2)oc2cc(O)cc(O)c12
REMARK SMILES IDX 4 1 3 2 2 3 1 4 21 5 19 6 18 7 16 8 15 9 14 10 13 11 5 12
REMARK SMILES IDX 6 13 7 14 8 15 12 16 10 17 9 18 11 20 20 22 17 24
REMARK H PARENT 9 19 11 21 20 23 17 25
REMARK Flexibility Score: inf
ROOT
ATOM      1  C   UNL     1     -13.125   3.670  23.113  1.00  0.00     0.138 A 
ATOM      2  C   UNL     1     -13.063   2.312  23.454  1.00  0.00     0.100 A 
ATOM      3  C   UNL     1     -14.016   1.428  22.947  1.00  0.00     0.197 A 
ATOM      4  O   UNL     1     -13.901   0.206  23.227  1.00  0.00    -0.289 OA
ATOM      5  C   UNL     1     -15.059   1.914  22.122  1.00  0.00     0.107 A 
ATOM      6  C   UNL     1     -16.105   1.112  21.575  1.00  0.00     0.134 A 
ATOM      7  C   UNL     1     -17.026   1.689  20.690  1.00  0.00     0.093 A 
ATOM      8  C   UNL     1     -16.972   3.050  20.378  1.00  0.00     0.123 A 
ATOM      9  C   UNL     1     -15.985   3.850  20.946  1.00  0.00     0.094 A 
ATOM     10  C   UNL     1     -15.031   3.299  21.805  1.00  0.00     0.146 A 
ATOM     11  O   UNL     1     -14.095   4.095  22.310  1.00  0.00    -0.456 OA
ENDROOT
BRANCH   1  12
ATOM     12  C   UNL     1     -12.140   4.655  23.627  1.00  0.00     0.021 A 
ATOM     13  C   UNL     1     -12.594   5.792  24.310  1.00  0.00     0.016 A 
ATOM     14  C   UNL     1     -11.689   6.736  24.798  1.00  0.00     0.051 A 
ATOM     15  C   UNL     1     -10.314   6.573  24.606  1.00  0.00     0.157 A 
ATOM     16  C   UNL     1     -10.756   4.496  23.420  1.00  0.00     0.062 A 
ATOM     17  C   UNL     1      -9.841   5.441  23.902  1.00  0.00     0.158 A 
BRANCH  15  18
ATOM     18  O   UNL     1      -9.461   7.550  25.123  1.00  0.00    -0.504 OA
ATOM     19  H   UNL     1      -9.399   7.787  26.102  1.00  0.00     0.293 HD
ENDBRANCH  15  18
BRANCH  17  20
ATOM     20  O   UNL     1      -8.485   5.217  23.658  1.00  0.00    -0.504 OA
ATOM     21  H   UNL     1      -8.120   4.845  22.793  1.00  0.00     0.293 HD
ENDBRANCH  17  20
ENDBRANCH   1  12
BRANCH   6  22
ATOM     22  O   UNL     1     -16.300  -0.238  21.880  1.00  0.00    -0.507 OA
ATOM     23  H   UNL     1     -17.078  -0.797  21.568  1.00  0.00     0.293 HD
ENDBRANCH   6  22
BRANCH   8  24
ATOM     24  O   UNL     1     -17.901   3.617  19.510  1.00  0.00    -0.508 OA
ATOM     25  H   UNL     1     -18.866   3.310  19.491  1.00  0.00     0.293 HD
ENDBRANCH   8  24
TORSDOF 5
ENDMDL
MODEL 7
REMARK VINA RESULT:    -6.120      1.762      6.811
REMARK INTER + INTRA:          -7.472
REMARK INTER:                  -7.158
REMARK INTRA:                  -0.314
REMARK UNBOUND:                -0.278
REMARK SMILES O=c1cc(-c2ccc(O)c(O)c2)oc2cc(O)cc(O)c12
REMARK SMILES IDX 4 1 3 2 2 3 1 4 21 5 19 6 18 7 16 8 15 9 14 10 13 11 5 12
REMARK SMILES IDX 6 13 7 14 8 15 12 16 10 17 9 18 11 20 20 22 17 24
REMARK H PARENT 9 19 11 21 20 23 17 25
REMARK Flexibility Score: inf
ROOT
ATOM      1  C   UNL     1     -12.711   3.443  23.337  1.00  0.00     0.138 A 
ATOM      2  C   UNL     1     -12.976   4.768  23.709  1.00  0.00     0.100 A 
ATOM      3  C   UNL     1     -11.927   5.597  24.107  1.00  0.00     0.197 A 
ATOM      4  O   UNL     1     -12.190   6.797  24.381  1.00  0.00    -0.289 OA
ATOM      5  C   UNL     1     -10.608   5.085  24.166  1.00  0.00     0.107 A 
ATOM      6  C   UNL     1      -9.465   5.827  24.588  1.00  0.00     0.134 A 
ATOM      7  C   UNL     1      -8.195   5.241  24.509  1.00  0.00     0.093 A 
ATOM      8  C   UNL     1      -8.033   3.922  24.079  1.00  0.00     0.123 A 
ATOM      9  C   UNL     1      -9.149   3.174  23.712  1.00  0.00     0.094 A 
ATOM     10  C   UNL     1     -10.426   3.740  23.746  1.00  0.00     0.146 A 
ATOM     11  O   UNL     1     -11.460   2.996  23.370  1.00  0.00    -0.456 OA
ENDROOT
BRANCH   1  12
ATOM     12  C   UNL     1     -13.790   2.516  22.910  1.00  0.00     0.021 A 
ATOM     13  C   UNL     1     -15.042   3.036  22.549  1.00  0.00     0.016 A 
ATOM     14  C   UNL     1     -16.075   2.186  22.150  1.00  0.00     0.051 A 
ATOM     15  C   UNL     1     -15.887   0.802  22.112  1.00  0.00     0.157 A 
ATOM     16  C   UNL     1     -13.603   1.121  22.886  1.00  0.00     0.062 A 
ATOM     17  C   UNL     1     -14.636   0.261  22.490  1.00  0.00     0.158 A 
BRANCH  15  18
ATOM     18  O   UNL     1     -16.958   0.007  21.698  1.00  0.00    -0.504 OA
ATOM     19  H   UNL     1     -17.836  -0.059  22.191  1.00  0.00     0.293 HD
ENDBRANCH  15  18
BRANCH  17  20
ATOM     20  O   UNL     1     -14.377  -1.111  22.493  1.00  0.00    -0.504 OA
ATOM     21  H   UNL     1     -14.923  -1.788  23.005  1.00  0.00     0.293 HD
ENDBRANCH  17  20
ENDBRANCH   1  12
BRANCH   6  22
ATOM     22  O   UNL     1      -9.520   7.124  25.109  1.00  0.00    -0.507 OA
ATOM     23  H   UNL     1     -10.174   7.835  24.823  1.00  0.00     0.293 HD
ENDBRANCH   6  22
BRANCH   8  24
ATOM     24  O   UNL     1      -6.768   3.344  24.019  1.00  0.00    -0.508 OA
ATOM     25  H   UNL     1      -6.607   2.388  24.317  1.00  0.00     0.293 HD
ENDBRANCH   8  24
TORSDOF 5
ENDMDL
MODEL 8
REMARK VINA RESULT:    -6.040      1.712      6.909
REMARK INTER + INTRA:          -7.377
REMARK INTER:                  -7.101
REMARK INTRA:                  -0.276
REMARK UNBOUND:                -0.278
REMARK SMILES O=c1cc(-c2ccc(O)c(O)c2)oc2cc(O)cc(O)c12
REMARK SMILES IDX 4 1 3 2 2 3 1 4 21 5 19 6 18 7 16 8 15 9 14 10 13 11 5 12
REMARK SMILES IDX 6 13 7 14 8 15 12 16 10 17 9 18 11 20 20 22 17 24
REMARK H PARENT 9 19 11 21 20 23 17 25
REMARK Flexibility Score: inf
ROOT
ATOM      1  C   UNL     1     -12.848   3.453  23.166  1.00  0.00     0.138 A 
ATOM      2  C   UNL     1     -13.084   4.774  23.571  1.00  0.00     0.100 A 
ATOM      3  C   UNL     1     -12.021   5.561  24.018  1.00  0.00     0.197 A 
ATOM      4  O   UNL     1     -12.257   6.758  24.322  1.00  0.00    -0.289 OA
ATOM      5  C   UNL     1     -10.719   5.009  24.091  1.00  0.00     0.107 A 
ATOM      6  C   UNL     1      -9.565   5.705  24.561  1.00  0.00     0.134 A 
ATOM      7  C   UNL     1      -8.311   5.085  24.494  1.00  0.00     0.093 A 
ATOM      8  C   UNL     1      -8.177   3.775  24.028  1.00  0.00     0.123 A 
ATOM      9  C   UNL     1      -9.304   3.071  23.613  1.00  0.00     0.094 A 
ATOM     10  C   UNL     1     -10.565   3.672  23.635  1.00  0.00     0.146 A 
ATOM     11  O   UNL     1     -11.611   2.970  23.214  1.00  0.00    -0.456 OA
ENDROOT
BRANCH   1  12
ATOM     12  C   UNL     1     -13.942   2.571  22.686  1.00  0.00     0.021 A 
ATOM     13  C   UNL     1     -14.039   1.263  23.182  1.00  0.00     0.016 A 
ATOM     14  C   UNL     1     -15.055   0.411  22.743  1.00  0.00     0.051 A 
ATOM     15  C   UNL     1     -15.986   0.841  21.794  1.00  0.00     0.157 A 
ATOM     16  C   UNL     1     -14.870   3.001  21.719  1.00  0.00     0.062 A 
ATOM     17  C   UNL     1     -15.889   2.151  21.270  1.00  0.00     0.158 A 
BRANCH  15  18
ATOM     18  O   UNL     1     -16.980  -0.058  21.400  1.00  0.00    -0.504 OA
ATOM     19  H   UNL     1     -17.698  -0.412  22.015  1.00  0.00     0.293 HD
ENDBRANCH  15  18
BRANCH  17  20
ATOM     20  O   UNL     1     -16.772   2.645  20.308  1.00  0.00    -0.504 OA
ATOM     21  H   UNL     1     -17.512   3.304  20.506  1.00  0.00     0.293 HD
ENDBRANCH  17  20
ENDBRANCH   1  12
BRANCH   6  22
ATOM     22  O   UNL     1      -9.596   6.987  25.120  1.00  0.00    -0.507 OA
ATOM     23  H   UNL     1      -9.188   7.243  26.004  1.00  0.00     0.293 HD
ENDBRANCH   6  22
BRANCH   8  24
ATOM     24  O   UNL     1      -6.927   3.163  23.979  1.00  0.00    -0.508 OA
ATOM     25  H   UNL     1      -6.225   3.333  24.689  1.00  0.00     0.293 HD
ENDBRANCH   8  24
TORSDOF 5
ENDMDL
MODEL 9
REMARK VINA RESULT:    -6.032      2.809      4.636
REMARK INTER + INTRA:          -7.368
REMARK INTER:                  -7.062
REMARK INTRA:                  -0.305
REMARK UNBOUND:                -0.278
REMARK SMILES O=c1cc(-c2ccc(O)c(O)c2)oc2cc(O)cc(O)c12
REMARK SMILES IDX 4 1 3 2 2 3 1 4 21 5 19 6 18 7 16 8 15 9 14 10 13 11 5 12
REMARK SMILES IDX 6 13 7 14 8 15 12 16 10 17 9 18 11 20 20 22 17 24
REMARK H PARENT 9 19 11 21 20 23 17 25
REMARK Flexibility Score: inf
ROOT
ATOM      1  C   UNL     1     -12.805   4.142  23.386  1.00  0.00     0.138 A 
ATOM      2  C   UNL     1     -14.052   4.500  22.858  1.00  0.00     0.100 A 
ATOM      3  C   UNL     1     -14.941   3.506  22.447  1.00  0.00     0.197 A 
ATOM      4  O   UNL     1     -16.074   3.859  22.029  1.00  0.00    -0.289 OA
ATOM      5  C   UNL     1     -14.562   2.144  22.533  1.00  0.00     0.107 A 
ATOM      6  C   UNL     1     -15.371   1.047  22.113  1.00  0.00     0.134 A 
ATOM      7  C   UNL     1     -14.929  -0.263  22.340  1.00  0.00     0.093 A 
ATOM      8  C   UNL     1     -13.682  -0.514  22.918  1.00  0.00     0.123 A 
ATOM      9  C   UNL     1     -12.864   0.552  23.285  1.00  0.00     0.094 A 
ATOM     10  C   UNL     1     -13.291   1.869  23.105  1.00  0.00     0.146 A 
ATOM     11  O   UNL     1     -12.487   2.855  23.486  1.00  0.00    -0.456 OA
ENDROOT
BRANCH   1  12
ATOM     12  C   UNL     1     -11.820   5.159  23.835  1.00  0.00     0.021 A 
ATOM     13  C   UNL     1     -12.277   6.390  24.328  1.00  0.00     0.016 A 
ATOM     14  C   UNL     1     -11.372   7.365  24.751  1.00  0.00     0.051 A 
ATOM     15  C   UNL     1      -9.994   7.139  24.681  1.00  0.00     0.157 A 
ATOM     16  C   UNL     1     -10.432   4.935  23.751  1.00  0.00     0.062 A 
ATOM     17  C   UNL     1      -9.518   5.910  24.169  1.00  0.00     0.158 A 
BRANCH  15  18
ATOM     18  O   UNL     1      -9.143   8.153  25.125  1.00  0.00    -0.504 OA
ATOM     19  H   UNL     1      -9.456   9.065  25.424  1.00  0.00     0.293 HD
ENDBRANCH  15  18
BRANCH  17  20
ATOM     20  O   UNL     1      -8.157   5.618  24.055  1.00  0.00    -0.504 OA
ATOM     21  H   UNL     1      -7.428   6.316  24.057  1.00  0.00     0.293 HD
ENDBRANCH  17  20
ENDBRANCH   1  12
BRANCH   6  22
ATOM     22  O   UNL     1     -16.597   1.183  21.454  1.00  0.00    -0.507 OA
ATOM     23  H   UNL     1     -16.916   2.018  20.990  1.00  0.00     0.293 HD
ENDBRANCH   6  22
BRANCH   8  24
ATOM     24  O   UNL     1     -13.244  -1.819  23.125  1.00  0.00    -0.508 OA
ATOM     25  H   UNL     1     -13.896  -2.578  23.287  1.00  0.00     0.293 HD
ENDBRANCH   8  24
TORSDOF 5
ENDMDL
