MODEL 1
REMARK VINA RESULT:    -2.159      0.000      0.000
REMARK INTER + INTRA:          -3.949
REMARK INTER:                  -3.420
REMARK INTRA:                  -0.529
REMARK UNBOUND:                -0.529
REMARK SMILES CCCCCCCCCCCC(=O)[O-]
REMARK SMILES IDX 7 1 8 2 9 3 10 4 11 5 12 6 13 7 14 8 6 9 5 10 4 11 3 12 2 13
REMARK SMILES IDX 1 14
REMARK H PARENT
REMARK Flexibility Score: inf
ROOT
ATOM      1  C   UNL     1      -5.338  36.179  19.398  1.00  0.00     0.000 C 
ENDROOT
BRANCH   1   2
ATOM      2  C   UNL     1      -4.905  34.731  19.128  1.00  0.00     0.000 C 
BRANCH   2   3
ATOM      3  C   UNL     1      -4.615  34.465  17.641  1.00  0.00     0.000 C 
BRANCH   3   4
ATOM      4  C   UNL     1      -3.957  35.667  16.943  1.00  0.00     0.006 C 
BRANCH   4   5
ATOM      5  C   UNL     1      -3.032  35.235  15.796  1.00  0.00     0.053 C 
BRANCH   5   6
ATOM      6  C   UNL     1      -3.129  36.160  14.622  1.00  0.00     0.041 C 
ATOM      7  O   UNL     1      -2.128  36.355  13.884  1.00  0.00    -0.550 OA
ATOM      8  O   UNL     1      -4.335  36.783  14.325  1.00  0.00    -0.550 OA
ENDBRANCH   5   6
ENDBRANCH   4   5
ENDBRANCH   3   4
ENDBRANCH   2   3
ENDBRANCH   1   2
BRANCH   1   9
ATOM      9  C   UNL     1      -5.363  36.473  20.903  1.00  0.00     0.000 C 
BRANCH   9  10
ATOM     10  C   UNL     1      -4.618  35.384  21.689  1.00  0.00    -0.000 C 
BRANCH  10  11
ATOM     11  C   UNL     1      -5.387  34.921  22.937  1.00  0.00    -0.000 C 
BRANCH  11  12
ATOM     12  C   UNL     1      -6.125  36.075  23.639  1.00  0.00    -0.000 C 
BRANCH  12  13
ATOM     13  C   UNL     1      -6.093  35.948  25.170  1.00  0.00    -0.003 C 
ATOM     14  C   UNL     1      -4.985  36.783  25.812  1.00  0.00     0.004 C 
ENDBRANCH  12  13
ENDBRANCH  11  12
ENDBRANCH  10  11
ENDBRANCH   9  10
ENDBRANCH   1   9
TORSDOF 10
ENDMDL
MODEL 2
REMARK VINA RESULT:    -1.780      4.117      7.975
REMARK INTER + INTRA:          -3.349
REMARK INTER:                  -3.141
REMARK INTRA:                  -0.208
REMARK UNBOUND:                -0.529
REMARK SMILES CCCCCCCCCCCC(=O)[O-]
REMARK SMILES IDX 7 1 8 2 9 3 10 4 11 5 12 6 13 7 14 8 6 9 5 10 4 11 3 12 2 13
REMARK SMILES IDX 1 14
REMARK H PARENT
REMARK Flexibility Score: inf
ROOT
ATOM      1  C   UNL     1      -4.779  36.217  19.353  1.00  0.00     0.000 C 
ENDROOT
BRANCH   1   2
ATOM      2  C   UNL     1      -5.121  36.444  20.833  1.00  0.00     0.000 C 
BRANCH   2   3
ATOM      3  C   UNL     1      -5.893  35.267  21.451  1.00  0.00     0.000 C 
BRANCH   3   4
ATOM      4  C   UNL     1      -5.208  34.706  22.708  1.00  0.00     0.006 C 
BRANCH   4   5
ATOM      5  C   UNL     1      -6.122  34.761  23.940  1.00  0.00     0.053 C 
BRANCH   5   6
ATOM      6  C   UNL     1      -6.081  36.101  24.607  1.00  0.00     0.041 C 
ATOM      7  O   UNL     1      -5.989  36.184  25.859  1.00  0.00    -0.550 OA
ATOM      8  O   UNL     1      -6.112  37.260  23.841  1.00  0.00    -0.550 OA
ENDBRANCH   5   6
ENDBRANCH   4   5
ENDBRANCH   3   4
ENDBRANCH   2   3
ENDBRANCH   1   2
BRANCH   1   9
ATOM      9  C   UNL     1      -4.962  34.744  18.967  1.00  0.00     0.000 C 
BRANCH   9  10
ATOM     10  C   UNL     1      -4.289  34.441  17.620  1.00  0.00    -0.000 C 
BRANCH  10  11
ATOM     11  C   UNL     1      -4.136  35.690  16.737  1.00  0.00    -0.000 C 
BRANCH  11  12
ATOM     12  C   UNL     1      -3.027  35.535  15.681  1.00  0.00    -0.000 C 
BRANCH  12  13
ATOM     13  C   UNL     1      -3.422  36.133  14.322  1.00  0.00    -0.003 C 
ATOM     14  C   UNL     1      -3.843  37.600  14.419  1.00  0.00     0.004 C 
ENDBRANCH  12  13
ENDBRANCH  11  12
ENDBRANCH  10  11
ENDBRANCH   9  10
ENDBRANCH   1   9
TORSDOF 10
ENDMDL
MODEL 3
REMARK VINA RESULT:    -1.264      3.061      7.102
REMARK INTER + INTRA:          -2.532
REMARK INTER:                  -2.001
REMARK INTRA:                  -0.531
REMARK UNBOUND:                -0.529
REMARK SMILES CCCCCCCCCCCC(=O)[O-]
REMARK SMILES IDX 7 1 8 2 9 3 10 4 11 5 12 6 13 7 14 8 6 9 5 10 4 11 3 12 2 13
REMARK SMILES IDX 1 14
REMARK H PARENT
REMARK Flexibility Score: inf
ROOT
ATOM      1  C   UNL     1      -5.751  35.131  19.651  1.00  0.00     0.000 C 
ENDROOT
BRANCH   1   2
ATOM      2  C   UNL     1      -4.531  35.053  20.580  1.00  0.00     0.000 C 
BRANCH   2   3
ATOM      3  C   UNL     1      -4.888  35.321  22.052  1.00  0.00     0.000 C 
BRANCH   3   4
ATOM      4  C   UNL     1      -6.057  36.307  22.207  1.00  0.00     0.006 C 
BRANCH   4   5
ATOM      5  C   UNL     1      -5.608  37.648  22.805  1.00  0.00     0.053 C 
BRANCH   5   6
ATOM      6  C   UNL     1      -5.521  38.722  21.765  1.00  0.00     0.041 C 
ATOM      7  O   UNL     1      -5.357  39.923  22.106  1.00  0.00    -0.550 OA
ATOM      8  O   UNL     1      -5.593  38.394  20.417  1.00  0.00    -0.550 OA
ENDBRANCH   5   6
ENDBRANCH   4   5
ENDBRANCH   3   4
ENDBRANCH   2   3
ENDBRANCH   1   2
BRANCH   1   9
ATOM      9  C   UNL     1      -5.577  34.211  18.437  1.00  0.00     0.000 C 
BRANCH   9  10
ATOM     10  C   UNL     1      -4.207  34.425  17.776  1.00  0.00    -0.000 C 
BRANCH  10  11
ATOM     11  C   UNL     1      -4.183  35.644  16.839  1.00  0.00    -0.000 C 
BRANCH  11  12
ATOM     12  C   UNL     1      -3.102  35.530  15.750  1.00  0.00    -0.000 C 
BRANCH  12  13
ATOM     13  C   UNL     1      -3.576  36.069  14.392  1.00  0.00    -0.003 C 
ATOM     14  C   UNL     1      -3.871  37.570  14.419  1.00  0.00     0.004 C 
ENDBRANCH  12  13
ENDBRANCH  11  12
ENDBRANCH  10  11
ENDBRANCH   9  10
ENDBRANCH   1   9
TORSDOF 10
ENDMDL
MODEL 4
REMARK VINA RESULT:    -1.171      2.319      4.233
REMARK INTER + INTRA:          -2.384
REMARK INTER:                  -1.963
REMARK INTRA:                  -0.420
REMARK UNBOUND:                -0.529
REMARK SMILES CCCCCCCCCCCC(=O)[O-]
REMARK SMILES IDX 7 1 8 2 9 3 10 4 11 5 12 6 13 7 14 8 6 9 5 10 4 11 3 12 2 13
REMARK SMILES IDX 1 14
REMARK H PARENT
REMARK Flexibility Score: inf
ROOT
ATOM      1  C   UNL     1      -5.339  34.865  24.051  1.00  0.00     0.000 C 
ENDROOT
BRANCH   1   2
ATOM      2  C   UNL     1      -6.078  34.815  22.706  1.00  0.00     0.000 C 
BRANCH   2   3
ATOM      3  C   UNL     1      -5.139  35.008  21.505  1.00  0.00     0.000 C 
BRANCH   3   4
ATOM      4  C   UNL     1      -5.884  35.459  20.237  1.00  0.00     0.006 C 
BRANCH   4   5
ATOM      5  C   UNL     1      -4.921  35.876  19.117  1.00  0.00     0.053 C 
BRANCH   5   6
ATOM      6  C   UNL     1      -4.743  34.790  18.101  1.00  0.00     0.041 C 
ATOM      7  O   UNL     1      -5.359  33.699  18.225  1.00  0.00    -0.550 OA
ATOM      8  O   UNL     1      -3.919  34.994  17.001  1.00  0.00    -0.550 OA
ENDBRANCH   5   6
ENDBRANCH   4   5
ENDBRANCH   3   4
ENDBRANCH   2   3
ENDBRANCH   1   2
BRANCH   1   9
ATOM      9  C   UNL     1      -6.125  35.687  25.080  1.00  0.00     0.000 C 
BRANCH   9  10
ATOM     10  C   UNL     1      -5.669  37.154  25.076  1.00  0.00    -0.000 C 
BRANCH  10  11
ATOM     11  C   UNL     1      -5.721  37.790  23.677  1.00  0.00    -0.000 C 
BRANCH  11  12
ATOM     12  C   UNL     1      -5.360  39.285  23.694  1.00  0.00    -0.000 C 
BRANCH  12  13
ATOM     13  C   UNL     1      -5.256  39.881  22.281  1.00  0.00    -0.003 C 
ATOM     14  C   UNL     1      -5.543  38.857  21.183  1.00  0.00     0.004 C 
ENDBRANCH  12  13
ENDBRANCH  11  12
ENDBRANCH  10  11
ENDBRANCH   9  10
ENDBRANCH   1   9
TORSDOF 10
ENDMDL
MODEL 5
REMARK VINA RESULT:    -1.004      3.938      7.816
REMARK INTER + INTRA:          -2.120
REMARK INTER:                  -1.597
REMARK INTRA:                  -0.523
REMARK UNBOUND:                -0.529
REMARK SMILES CCCCCCCCCCCC(=O)[O-]
REMARK SMILES IDX 7 1 8 2 9 3 10 4 11 5 12 6 13 7 14 8 6 9 5 10 4 11 3 12 2 13
REMARK SMILES IDX 1 14
REMARK H PARENT
REMARK Flexibility Score: inf
ROOT
ATOM      1  C   UNL     1      -4.532  35.313  17.171  1.00  0.00     0.000 C 
ENDROOT
BRANCH   1   2
ATOM      2  C   UNL     1      -4.618  35.344  18.704  1.00  0.00     0.000 C 
BRANCH   2   3
ATOM      3  C   UNL     1      -5.151  36.682  19.241  1.00  0.00     0.000 C 
BRANCH   3   4
ATOM      4  C   UNL     1      -5.424  36.646  20.754  1.00  0.00     0.006 C 
BRANCH   4   5
ATOM      5  C   UNL     1      -5.585  35.212  21.279  1.00  0.00     0.053 C 
BRANCH   5   6
ATOM      6  C   UNL     1      -5.689  35.172  22.772  1.00  0.00     0.041 C 
ATOM      7  O   UNL     1      -6.050  36.196  23.410  1.00  0.00    -0.550 OA
ATOM      8  O   UNL     1      -5.417  33.995  23.458  1.00  0.00    -0.550 OA
ENDBRANCH   5   6
ENDBRANCH   4   5
ENDBRANCH   3   4
ENDBRANCH   2   3
ENDBRANCH   1   2
BRANCH   1   9
ATOM      9  C   UNL     1      -3.184  34.748  16.708  1.00  0.00     0.000 C 
BRANCH   9  10
ATOM     10  C   UNL     1      -2.659  35.511  15.483  1.00  0.00    -0.000 C 
BRANCH  10  11
ATOM     11  C   UNL     1      -3.778  35.913  14.508  1.00  0.00    -0.000 C 
BRANCH  11  12
ATOM     12  C   UNL     1      -3.556  37.308  13.896  1.00  0.00    -0.000 C 
BRANCH  12  13
ATOM     13  C   UNL     1      -4.186  38.426  14.741  1.00  0.00    -0.003 C 
ATOM     14  C   UNL     1      -4.759  39.561  13.890  1.00  0.00     0.004 C 
ENDBRANCH  12  13
ENDBRANCH  11  12
ENDBRANCH  10  11
ENDBRANCH   9  10
ENDBRANCH   1   9
TORSDOF 10
ENDMDL
MODEL 6
REMARK VINA RESULT:    -0.891      4.107      5.090
REMARK INTER + INTRA:          -1.941
REMARK INTER:                  -2.261
REMARK INTRA:                   0.320
REMARK UNBOUND:                -0.529
REMARK SMILES CCCCCCCCCCCC(=O)[O-]
REMARK SMILES IDX 7 1 8 2 9 3 10 4 11 5 12 6 13 7 14 8 6 9 5 10 4 11 3 12 2 13
REMARK SMILES IDX 1 14
REMARK H PARENT
REMARK Flexibility Score: inf
ROOT
ATOM      1  C   UNL     1      -4.809  35.475  21.621  1.00  0.00     0.000 C 
ENDROOT
BRANCH   1   2
ATOM      2  C   UNL     1      -4.676  35.574  20.094  1.00  0.00     0.000 C 
BRANCH   2   3
ATOM      3  C   UNL     1      -5.411  36.793  19.512  1.00  0.00     0.000 C 
BRANCH   3   4
ATOM      4  C   UNL     1      -5.064  38.099  20.247  1.00  0.00     0.006 C 
BRANCH   4   5
ATOM      5  C   UNL     1      -5.905  38.289  21.517  1.00  0.00     0.053 C 
BRANCH   5   6
ATOM      6  C   UNL     1      -5.500  39.516  22.275  1.00  0.00     0.041 C 
ATOM      7  O   UNL     1      -5.467  40.635  21.699  1.00  0.00    -0.550 OA
ATOM      8  O   UNL     1      -5.188  39.428  23.626  1.00  0.00    -0.550 OA
ENDBRANCH   5   6
ENDBRANCH   4   5
ENDBRANCH   3   4
ENDBRANCH   2   3
ENDBRANCH   1   2
BRANCH   1   9
ATOM      9  C   UNL     1      -6.125  34.796  22.016  1.00  0.00     0.000 C 
BRANCH   9  10
ATOM     10  C   UNL     1      -5.911  33.816  23.180  1.00  0.00    -0.000 C 
BRANCH  10  11
ATOM     11  C   UNL     1      -6.119  34.472  24.555  1.00  0.00    -0.000 C 
BRANCH  11  12
ATOM     12  C   UNL     1      -5.920  35.997  24.518  1.00  0.00    -0.000 C 
BRANCH  12  13
ATOM     13  C   UNL     1      -5.622  36.584  25.906  1.00  0.00    -0.003 C 
ATOM     14  C   UNL     1      -4.428  37.540  25.903  1.00  0.00     0.004 C 
ENDBRANCH  12  13
ENDBRANCH  11  12
ENDBRANCH  10  11
ENDBRANCH   9  10
ENDBRANCH   1   9
TORSDOF 10
ENDMDL
MODEL 7
REMARK VINA RESULT:    -0.803      2.175      3.624
REMARK INTER + INTRA:          -1.802
REMARK INTER:                  -1.956
REMARK INTRA:                   0.155
REMARK UNBOUND:                -0.529
REMARK SMILES CCCCCCCCCCCC(=O)[O-]
REMARK SMILES IDX 7 1 8 2 9 3 10 4 11 5 12 6 13 7 14 8 6 9 5 10 4 11 3 12 2 13
REMARK SMILES IDX 1 14
REMARK H PARENT
REMARK Flexibility Score: inf
ROOT
ATOM      1  C   UNL     1      -5.242  35.351  22.466  1.00  0.00     0.000 C 
ENDROOT
BRANCH   1   2
ATOM      2  C   UNL     1      -6.124  36.437  21.831  1.00  0.00     0.000 C 
BRANCH   2   3
ATOM      3  C   UNL     1      -5.337  37.367  20.893  1.00  0.00     0.000 C 
BRANCH   3   4
ATOM      4  C   UNL     1      -5.080  36.737  19.514  1.00  0.00     0.006 C 
BRANCH   4   5
ATOM      5  C   UNL     1      -4.800  35.231  19.609  1.00  0.00     0.053 C 
BRANCH   5   6
ATOM      6  C   UNL     1      -4.858  34.567  18.268  1.00  0.00     0.041 C 
ATOM      7  O   UNL     1      -5.617  33.580  18.082  1.00  0.00    -0.550 OA
ATOM      8  O   UNL     1      -4.097  35.058  17.214  1.00  0.00    -0.550 OA
ENDBRANCH   5   6
ENDBRANCH   4   5
ENDBRANCH   3   4
ENDBRANCH   2   3
ENDBRANCH   1   2
BRANCH   1   9
ATOM      9  C   UNL     1      -6.094  34.323  23.219  1.00  0.00     0.000 C 
BRANCH   9  10
ATOM     10  C   UNL     1      -6.125  34.631  24.724  1.00  0.00    -0.000 C 
BRANCH  10  11
ATOM     11  C   UNL     1      -6.028  36.136  25.025  1.00  0.00    -0.000 C 
BRANCH  11  12
ATOM     12  C   UNL     1      -4.751  36.501  25.803  1.00  0.00    -0.000 C 
BRANCH  12  13
ATOM     13  C   UNL     1      -4.535  38.020  25.897  1.00  0.00    -0.003 C 
ATOM     14  C   UNL     1      -4.956  38.759  24.627  1.00  0.00     0.004 C 
ENDBRANCH  12  13
ENDBRANCH  11  12
ENDBRANCH  10  11
ENDBRANCH   9  10
ENDBRANCH   1   9
TORSDOF 10
ENDMDL
