MODEL 1
REMARK VINA RESULT:    -4.113      0.000      0.000
REMARK INTER + INTRA:          -5.286
REMARK INTER:                  -4.954
REMARK INTRA:                  -0.332
REMARK UNBOUND:                -0.332
REMARK SMILES O=c1c(O)c(-c2ccc(O)c(O)c2)oc2cc(O)cc(O)c12
REMARK SMILES IDX 5 1 3 2 2 3 1 4 22 5 20 6 19 7 17 8 16 9 15 10 14 11 6 12
REMARK SMILES IDX 7 13 8 14 9 15 13 16 11 17 10 18 12 20 4 22 21 24 18 26
REMARK H PARENT 10 19 12 21 4 23 21 25 18 27
REMARK Flexibility Score: inf
ROOT
ATOM      1  C   UNL     1      21.621  48.778  87.374  1.00  0.00     0.180 A 
ATOM      2  C   UNL     1      20.883  47.603  87.618  1.00  0.00     0.208 A 
ATOM      3  C   UNL     1      19.572  47.714  88.108  1.00  0.00     0.238 A 
ATOM      4  O   UNL     1      18.898  46.669  88.320  1.00  0.00    -0.285 OA
ATOM      5  C   UNL     1      19.030  48.991  88.365  1.00  0.00     0.111 A 
ATOM      6  C   UNL     1      17.720  49.189  88.863  1.00  0.00     0.134 A 
ATOM      7  C   UNL     1      17.256  50.491  89.102  1.00  0.00     0.093 A 
ATOM      8  C   UNL     1      18.075  51.596  88.853  1.00  0.00     0.123 A 
ATOM      9  C   UNL     1      19.369  51.406  88.360  1.00  0.00     0.094 A 
ATOM     10  C   UNL     1      19.850  50.116  88.114  1.00  0.00     0.146 A 
ATOM     11  O   UNL     1      21.082  49.964  87.642  1.00  0.00    -0.452 OA
ENDROOT
BRANCH   1  12
ATOM     12  C   UNL     1      23.001  48.743  86.839  1.00  0.00     0.025 A 
ATOM     13  C   UNL     1      23.251  48.765  85.456  1.00  0.00     0.016 A 
ATOM     14  C   UNL     1      24.563  48.756  84.975  1.00  0.00     0.051 A 
ATOM     15  C   UNL     1      25.643  48.739  85.869  1.00  0.00     0.157 A 
ATOM     16  C   UNL     1      24.087  48.747  87.730  1.00  0.00     0.062 A 
ATOM     17  C   UNL     1      25.404  48.737  87.248  1.00  0.00     0.158 A 
BRANCH  15  18
ATOM     18  O   UNL     1      26.952  48.728  85.393  1.00  0.00    -0.504 OA
ATOM     19  H   UNL     1      27.159  48.584  84.412  1.00  0.00     0.293 HD
ENDBRANCH  15  18
BRANCH  17  20
ATOM     20  O   UNL     1      26.479  48.727  88.135  1.00  0.00    -0.504 OA
ATOM     21  H   UNL     1      26.340  48.736  89.139  1.00  0.00     0.293 HD
ENDBRANCH  17  20
ENDBRANCH   1  12
BRANCH   2  22
ATOM     22  O   UNL     1      21.460  46.349  87.402  1.00  0.00    -0.502 OA
ATOM     23  H   UNL     1      22.246  46.012  87.945  1.00  0.00     0.293 HD
ENDBRANCH   2  22
BRANCH   6  24
ATOM     24  O   UNL     1      16.878  48.107  89.122  1.00  0.00    -0.507 OA
ATOM     25  H   UNL     1      16.551  47.898  90.058  1.00  0.00     0.293 HD
ENDBRANCH   6  24
BRANCH   8  26
ATOM     26  O   UNL     1      17.590  52.878  89.099  1.00  0.00    -0.508 OA
ATOM     27  H   UNL     1      18.001  53.693  88.658  1.00  0.00     0.293 HD
ENDBRANCH   8  26
TORSDOF 6
ENDMDL
MODEL 2
REMARK VINA RESULT:    -3.977      2.721      4.579
REMARK INTER + INTRA:          -5.123
REMARK INTER:                  -4.905
REMARK INTRA:                  -0.218
REMARK UNBOUND:                -0.332
REMARK SMILES O=c1c(O)c(-c2ccc(O)c(O)c2)oc2cc(O)cc(O)c12
REMARK SMILES IDX 5 1 3 2 2 3 1 4 22 5 20 6 19 7 17 8 16 9 15 10 14 11 6 12
REMARK SMILES IDX 7 13 8 14 9 15 13 16 11 17 10 18 12 20 4 22 21 24 18 26
REMARK H PARENT 10 19 12 21 4 23 21 25 18 27
REMARK Flexibility Score: inf
ROOT
ATOM      1  C   UNL     1      21.359  50.124  87.619  1.00  0.00     0.180 A 
ATOM      2  C   UNL     1      20.038  50.566  87.828  1.00  0.00     0.208 A 
ATOM      3  C   UNL     1      19.824  51.888  88.251  1.00  0.00     0.238 A 
ATOM      4  O   UNL     1      18.645  52.299  88.431  1.00  0.00    -0.285 OA
ATOM      5  C   UNL     1      20.929  52.735  88.476  1.00  0.00     0.111 A 
ATOM      6  C   UNL     1      20.800  54.078  88.906  1.00  0.00     0.134 A 
ATOM      7  C   UNL     1      21.949  54.854  89.117  1.00  0.00     0.093 A 
ATOM      8  C   UNL     1      23.221  54.316  88.907  1.00  0.00     0.123 A 
ATOM      9  C   UNL     1      23.355  52.991  88.481  1.00  0.00     0.094 A 
ATOM     10  C   UNL     1      22.222  52.201  88.264  1.00  0.00     0.146 A 
ATOM     11  O   UNL     1      22.377  50.946  87.856  1.00  0.00    -0.452 OA
ENDROOT
BRANCH   1  12
ATOM     12  C   UNL     1      21.664  48.751  87.155  1.00  0.00     0.025 A 
ATOM     13  C   UNL     1      22.183  48.510  85.871  1.00  0.00     0.016 A 
ATOM     14  C   UNL     1      22.486  47.208  85.465  1.00  0.00     0.051 A 
ATOM     15  C   UNL     1      22.288  46.131  86.339  1.00  0.00     0.157 A 
ATOM     16  C   UNL     1      21.487  47.670  88.035  1.00  0.00     0.062 A 
ATOM     17  C   UNL     1      21.791  46.363  87.627  1.00  0.00     0.158 A 
BRANCH  15  18
ATOM     18  O   UNL     1      22.588  44.831  85.937  1.00  0.00    -0.504 OA
ATOM     19  H   UNL     1      22.955  44.633  85.014  1.00  0.00     0.293 HD
ENDBRANCH  15  18
BRANCH  17  20
ATOM     20  O   UNL     1      21.601  45.291  88.497  1.00  0.00    -0.504 OA
ATOM     21  H   UNL     1      21.102  44.457  88.212  1.00  0.00     0.293 HD
ENDBRANCH  17  20
ENDBRANCH   1  12
BRANCH   2  22
ATOM     22  O   UNL     1      18.963  49.693  87.645  1.00  0.00    -0.502 OA
ATOM     23  H   UNL     1      18.940  49.009  86.898  1.00  0.00     0.293 HD
ENDBRANCH   2  22
BRANCH   6  24
ATOM     24  O   UNL     1      19.544  54.645  89.125  1.00  0.00    -0.507 OA
ATOM     25  H   UNL     1      18.692  54.183  88.829  1.00  0.00     0.293 HD
ENDBRANCH   6  24
BRANCH   8  26
ATOM     26  O   UNL     1      24.346  55.108  89.124  1.00  0.00    -0.508 OA
ATOM     27  H   UNL     1      25.036  55.258  88.398  1.00  0.00     0.293 HD
ENDBRANCH   8  26
TORSDOF 6
ENDMDL
MODEL 3
REMARK VINA RESULT:    -3.763      1.227      2.985
REMARK INTER + INTRA:          -4.866
REMARK INTER:                  -4.544
REMARK INTRA:                  -0.322
REMARK UNBOUND:                -0.332
REMARK SMILES O=c1c(O)c(-c2ccc(O)c(O)c2)oc2cc(O)cc(O)c12
REMARK SMILES IDX 5 1 3 2 2 3 1 4 22 5 20 6 19 7 17 8 16 9 15 10 14 11 6 12
REMARK SMILES IDX 7 13 8 14 9 15 13 16 11 17 10 18 12 20 4 22 21 24 18 26
REMARK H PARENT 10 19 12 21 4 23 21 25 18 27
REMARK Flexibility Score: inf
ROOT
ATOM      1  C   UNL     1      21.838  49.019  87.521  1.00  0.00     0.180 A 
ATOM      2  C   UNL     1      21.172  50.232  87.787  1.00  0.00     0.208 A 
ATOM      3  C   UNL     1      19.839  50.192  88.226  1.00  0.00     0.238 A 
ATOM      4  O   UNL     1      19.236  51.271  88.478  1.00  0.00    -0.285 OA
ATOM      5  C   UNL     1      19.191  48.948  88.372  1.00  0.00     0.111 A 
ATOM      6  C   UNL     1      17.849  48.821  88.805  1.00  0.00     0.134 A 
ATOM      7  C   UNL     1      17.272  47.547  88.916  1.00  0.00     0.093 A 
ATOM      8  C   UNL     1      18.007  46.402  88.602  1.00  0.00     0.123 A 
ATOM      9  C   UNL     1      19.333  46.521  88.175  1.00  0.00     0.094 A 
ATOM     10  C   UNL     1      19.927  47.781  88.060  1.00  0.00     0.146 A 
ATOM     11  O   UNL     1      21.190  47.866  87.656  1.00  0.00    -0.452 OA
ENDROOT
BRANCH   1  12
ATOM     12  C   UNL     1      23.249  48.979  87.074  1.00  0.00     0.025 A 
ATOM     13  C   UNL     1      23.590  49.094  85.715  1.00  0.00     0.016 A 
ATOM     14  C   UNL     1      24.930  49.077  85.319  1.00  0.00     0.051 A 
ATOM     15  C   UNL     1      25.948  48.960  86.275  1.00  0.00     0.157 A 
ATOM     16  C   UNL     1      24.274  48.883  88.030  1.00  0.00     0.062 A 
ATOM     17  C   UNL     1      25.619  48.866  87.633  1.00  0.00     0.158 A 
BRANCH  15  18
ATOM     18  O   UNL     1      27.285  48.942  85.885  1.00  0.00    -0.504 OA
ATOM     19  H   UNL     1      28.033  48.835  86.559  1.00  0.00     0.293 HD
ENDBRANCH  15  18
BRANCH  17  20
ATOM     20  O   UNL     1      26.632  48.757  88.583  1.00  0.00    -0.504 OA
ATOM     21  H   UNL     1      26.819  47.884  89.063  1.00  0.00     0.293 HD
ENDBRANCH  17  20
ENDBRANCH   1  12
BRANCH   2  22
ATOM     22  O   UNL     1      21.822  51.453  87.588  1.00  0.00    -0.502 OA
ATOM     23  H   UNL     1      22.687  51.529  87.066  1.00  0.00     0.293 HD
ENDBRANCH   2  22
BRANCH   6  24
ATOM     24  O   UNL     1      17.087  49.946  89.125  1.00  0.00    -0.507 OA
ATOM     25  H   UNL     1      16.252  49.879  89.694  1.00  0.00     0.293 HD
ENDBRANCH   6  24
BRANCH   8  26
ATOM     26  O   UNL     1      17.410  45.149  88.721  1.00  0.00    -0.508 OA
ATOM     27  H   UNL     1      17.905  44.362  89.123  1.00  0.00     0.293 HD
ENDBRANCH   8  26
TORSDOF 6
ENDMDL
MODEL 4
REMARK VINA RESULT:    -3.763      2.320      7.726
REMARK INTER + INTRA:          -4.865
REMARK INTER:                  -4.624
REMARK INTRA:                  -0.242
REMARK UNBOUND:                -0.332
REMARK SMILES O=c1c(O)c(-c2ccc(O)c(O)c2)oc2cc(O)cc(O)c12
REMARK SMILES IDX 5 1 3 2 2 3 1 4 22 5 20 6 19 7 17 8 16 9 15 10 14 11 6 12
REMARK SMILES IDX 7 13 8 14 9 15 13 16 11 17 10 18 12 20 4 22 21 24 18 26
REMARK H PARENT 10 19 12 21 4 23 21 25 18 27
REMARK Flexibility Score: inf
ROOT
ATOM      1  C   UNL     1      23.047  50.486  87.167  1.00  0.00     0.180 A 
ATOM      2  C   UNL     1      23.724  51.709  87.340  1.00  0.00     0.208 A 
ATOM      3  C   UNL     1      25.053  51.818  86.900  1.00  0.00     0.238 A 
ATOM      4  O   UNL     1      25.665  52.912  87.040  1.00  0.00    -0.285 OA
ATOM      5  C   UNL     1      25.687  50.702  86.316  1.00  0.00     0.111 A 
ATOM      6  C   UNL     1      27.024  50.727  85.851  1.00  0.00     0.134 A 
ATOM      7  C   UNL     1      27.587  49.571  85.290  1.00  0.00     0.093 A 
ATOM      8  C   UNL     1      26.842  48.394  85.185  1.00  0.00     0.123 A 
ATOM      9  C   UNL     1      25.521  48.364  85.642  1.00  0.00     0.094 A 
ATOM     10  C   UNL     1      24.940  49.505  86.203  1.00  0.00     0.146 A 
ATOM     11  O   UNL     1      23.682  49.450  86.625  1.00  0.00    -0.452 OA
ENDROOT
BRANCH   1  12
ATOM     12  C   UNL     1      21.640  50.299  87.587  1.00  0.00     0.025 A 
ATOM     13  C   UNL     1      21.309  49.558  88.735  1.00  0.00     0.016 A 
ATOM     14  C   UNL     1      19.975  49.417  89.125  1.00  0.00     0.051 A 
ATOM     15  C   UNL     1      18.954  50.024  88.383  1.00  0.00     0.157 A 
ATOM     16  C   UNL     1      20.613  50.924  86.858  1.00  0.00     0.062 A 
ATOM     17  C   UNL     1      19.274  50.781  87.249  1.00  0.00     0.158 A 
BRANCH  15  18
ATOM     18  O   UNL     1      17.622  49.884  88.767  1.00  0.00    -0.504 OA
ATOM     19  H   UNL     1      17.366  49.692  89.728  1.00  0.00     0.293 HD
ENDBRANCH  15  18
BRANCH  17  20
ATOM     20  O   UNL     1      18.258  51.391  86.516  1.00  0.00    -0.504 OA
ATOM     21  H   UNL     1      18.322  51.504  85.511  1.00  0.00     0.293 HD
ENDBRANCH  17  20
ENDBRANCH   1  12
BRANCH   2  22
ATOM     22  O   UNL     1      23.089  52.785  87.966  1.00  0.00    -0.502 OA
ATOM     23  H   UNL     1      23.602  53.513  88.448  1.00  0.00     0.293 HD
ENDBRANCH   2  22
BRANCH   6  24
ATOM     24  O   UNL     1      27.794  51.887  85.942  1.00  0.00    -0.507 OA
ATOM     25  H   UNL     1      27.718  52.632  85.259  1.00  0.00     0.293 HD
ENDBRANCH   6  24
BRANCH   8  26
ATOM     26  O   UNL     1      27.425  47.261  84.625  1.00  0.00    -0.508 OA
ATOM     27  H   UNL     1      26.919  46.385  84.553  1.00  0.00     0.293 HD
ENDBRANCH   8  26
TORSDOF 6
ENDMDL
MODEL 5
REMARK VINA RESULT:    -3.736      1.788      6.961
REMARK INTER + INTRA:          -4.832
REMARK INTER:                  -5.222
REMARK INTRA:                   0.390
REMARK UNBOUND:                -0.332
REMARK SMILES O=c1c(O)c(-c2ccc(O)c(O)c2)oc2cc(O)cc(O)c12
REMARK SMILES IDX 5 1 3 2 2 3 1 4 22 5 20 6 19 7 17 8 16 9 15 10 14 11 6 12
REMARK SMILES IDX 7 13 8 14 9 15 13 16 11 17 10 18 12 20 4 22 21 24 18 26
REMARK H PARENT 10 19 12 21 4 23 21 25 18 27
REMARK Flexibility Score: inf
ROOT
ATOM      1  C   UNL     1      20.879  49.203  87.952  1.00  0.00     0.180 A 
ATOM      2  C   UNL     1      21.083  50.566  88.247  1.00  0.00     0.208 A 
ATOM      3  C   UNL     1      22.302  51.163  87.887  1.00  0.00     0.238 A 
ATOM      4  O   UNL     1      22.491  52.384  88.136  1.00  0.00    -0.285 OA
ATOM      5  C   UNL     1      23.299  50.387  87.262  1.00  0.00     0.111 A 
ATOM      6  C   UNL     1      24.556  50.911  86.872  1.00  0.00     0.134 A 
ATOM      7  C   UNL     1      25.500  50.071  86.262  1.00  0.00     0.093 A 
ATOM      8  C   UNL     1      25.214  48.723  86.036  1.00  0.00     0.123 A 
ATOM      9  C   UNL     1      23.975  48.201  86.418  1.00  0.00     0.094 A 
ATOM     10  C   UNL     1      23.019  49.020  87.025  1.00  0.00     0.146 A 
ATOM     11  O   UNL     1      21.848  48.500  87.374  1.00  0.00    -0.452 OA
ENDROOT
BRANCH   1  12
ATOM     12  C   UNL     1      19.614  48.509  88.282  1.00  0.00     0.025 A 
ATOM     13  C   UNL     1      18.442  49.224  88.587  1.00  0.00     0.016 A 
ATOM     14  C   UNL     1      17.254  48.546  88.871  1.00  0.00     0.051 A 
ATOM     15  C   UNL     1      17.215  47.146  88.841  1.00  0.00     0.157 A 
ATOM     16  C   UNL     1      19.563  47.105  88.233  1.00  0.00     0.062 A 
ATOM     17  C   UNL     1      18.371  46.425  88.518  1.00  0.00     0.158 A 
BRANCH  15  18
ATOM     18  O   UNL     1      16.032  46.466  89.125  1.00  0.00    -0.504 OA
ATOM     19  H   UNL     1      15.126  46.883  88.947  1.00  0.00     0.293 HD
ENDBRANCH  15  18
BRANCH  17  20
ATOM     20  O   UNL     1      18.328  45.032  88.482  1.00  0.00    -0.504 OA
ATOM     21  H   UNL     1      18.547  44.516  87.638  1.00  0.00     0.293 HD
ENDBRANCH  17  20
ENDBRANCH   1  12
BRANCH   2  22
ATOM     22  O   UNL     1      20.097  51.300  88.911  1.00  0.00    -0.502 OA
ATOM     23  H   UNL     1      20.318  52.080  89.518  1.00  0.00     0.293 HD
ENDBRANCH   2  22
BRANCH   6  24
ATOM     24  O   UNL     1      24.872  52.253  87.085  1.00  0.00    -0.507 OA
ATOM     25  H   UNL     1      25.008  52.627  88.016  1.00  0.00     0.293 HD
ENDBRANCH   6  24
BRANCH   8  26
ATOM     26  O   UNL     1      26.170  47.911  85.429  1.00  0.00    -0.508 OA
ATOM     27  H   UNL     1      27.154  48.153  85.439  1.00  0.00     0.293 HD
ENDBRANCH   8  26
TORSDOF 6
ENDMDL
MODEL 6
REMARK VINA RESULT:    -3.702      1.853      6.879
REMARK INTER + INTRA:          -4.792
REMARK INTER:                  -4.529
REMARK INTRA:                  -0.263
REMARK UNBOUND:                -0.332
REMARK SMILES O=c1c(O)c(-c2ccc(O)c(O)c2)oc2cc(O)cc(O)c12
REMARK SMILES IDX 5 1 3 2 2 3 1 4 22 5 20 6 19 7 17 8 16 9 15 10 14 11 6 12
REMARK SMILES IDX 7 13 8 14 9 15 13 16 11 17 10 18 12 20 4 22 21 24 18 26
REMARK H PARENT 10 19 12 21 4 23 21 25 18 27
REMARK Flexibility Score: inf
ROOT
ATOM      1  C   UNL     1      21.697  49.566  86.987  1.00  0.00     0.180 A 
ATOM      2  C   UNL     1      21.995  48.435  86.201  1.00  0.00     0.208 A 
ATOM      3  C   UNL     1      23.306  48.263  85.729  1.00  0.00     0.238 A 
ATOM      4  O   UNL     1      23.586  47.249  85.033  1.00  0.00    -0.285 OA
ATOM      5  C   UNL     1      24.287  49.229  86.030  1.00  0.00     0.111 A 
ATOM      6  C   UNL     1      25.629  49.133  85.588  1.00  0.00     0.134 A 
ATOM      7  C   UNL     1      26.545  50.141  85.923  1.00  0.00     0.093 A 
ATOM      8  C   UNL     1      26.147  51.241  86.686  1.00  0.00     0.123 A 
ATOM      9  C   UNL     1      24.824  51.341  87.126  1.00  0.00     0.094 A 
ATOM     10  C   UNL     1      23.896  50.346  86.805  1.00  0.00     0.146 A 
ATOM     11  O   UNL     1      22.646  50.464  87.239  1.00  0.00    -0.452 OA
ENDROOT
BRANCH   1  12
ATOM     12  C   UNL     1      20.344  49.807  87.538  1.00  0.00     0.025 A 
ATOM     13  C   UNL     1      19.841  49.043  88.606  1.00  0.00     0.016 A 
ATOM     14  C   UNL     1      18.571  49.305  89.125  1.00  0.00     0.051 A 
ATOM     15  C   UNL     1      17.791  50.341  88.595  1.00  0.00     0.157 A 
ATOM     16  C   UNL     1      19.567  50.858  87.024  1.00  0.00     0.062 A 
ATOM     17  C   UNL     1      18.291  51.120  87.545  1.00  0.00     0.158 A 
BRANCH  15  18
ATOM     18  O   UNL     1      16.523  50.605  89.109  1.00  0.00    -0.504 OA
ATOM     19  H   UNL     1      15.891  49.857  89.369  1.00  0.00     0.293 HD
ENDBRANCH  15  18
BRANCH  17  20
ATOM     20  O   UNL     1      17.517  52.155  87.023  1.00  0.00    -0.504 OA
ATOM     21  H   UNL     1      17.920  52.878  86.438  1.00  0.00     0.293 HD
ENDBRANCH  17  20
ENDBRANCH   1  12
BRANCH   2  22
ATOM     22  O   UNL     1      20.992  47.518  85.876  1.00  0.00    -0.502 OA
ATOM     23  H   UNL     1      20.669  47.380  84.926  1.00  0.00     0.293 HD
ENDBRANCH   2  22
BRANCH   6  24
ATOM     24  O   UNL     1      26.058  48.047  84.824  1.00  0.00    -0.507 OA
ATOM     25  H   UNL     1      26.846  47.476  85.104  1.00  0.00     0.293 HD
ENDBRANCH   6  24
BRANCH   8  26
ATOM     26  O   UNL     1      27.077  52.228  87.004  1.00  0.00    -0.508 OA
ATOM     27  H   UNL     1      27.121  52.637  87.930  1.00  0.00     0.293 HD
ENDBRANCH   8  26
TORSDOF 6
ENDMDL
MODEL 7
REMARK VINA RESULT:    -3.701      2.270      4.479
REMARK INTER + INTRA:          -4.791
REMARK INTER:                  -4.570
REMARK INTRA:                  -0.221
REMARK UNBOUND:                -0.332
REMARK SMILES O=c1c(O)c(-c2ccc(O)c(O)c2)oc2cc(O)cc(O)c12
REMARK SMILES IDX 5 1 3 2 2 3 1 4 22 5 20 6 19 7 17 8 16 9 15 10 14 11 6 12
REMARK SMILES IDX 7 13 8 14 9 15 13 16 11 17 10 18 12 20 4 22 21 24 18 26
REMARK H PARENT 10 19 12 21 4 23 21 25 18 27
REMARK Flexibility Score: inf
ROOT
ATOM      1  C   UNL     1      22.046  48.135  87.813  1.00  0.00     0.180 A 
ATOM      2  C   UNL     1      20.708  48.553  87.951  1.00  0.00     0.208 A 
ATOM      3  C   UNL     1      19.739  47.612  88.333  1.00  0.00     0.238 A 
ATOM      4  O   UNL     1      18.539  47.977  88.470  1.00  0.00    -0.285 OA
ATOM      5  C   UNL     1      20.117  46.271  88.548  1.00  0.00     0.111 A 
ATOM      6  C   UNL     1      19.202  45.260  88.930  1.00  0.00     0.134 A 
ATOM      7  C   UNL     1      19.655  43.946  89.117  1.00  0.00     0.093 A 
ATOM      8  C   UNL     1      21.001  43.622  88.929  1.00  0.00     0.123 A 
ATOM      9  C   UNL     1      21.910  44.617  88.553  1.00  0.00     0.094 A 
ATOM     10  C   UNL     1      21.479  45.933  88.364  1.00  0.00     0.146 A 
ATOM     11  O   UNL     1      22.363  46.859  88.010  1.00  0.00    -0.452 OA
ENDROOT
BRANCH   1  12
ATOM     12  C   UNL     1      23.127  49.072  87.433  1.00  0.00     0.025 A 
ATOM     13  C   UNL     1      23.541  50.102  88.295  1.00  0.00     0.016 A 
ATOM     14  C   UNL     1      24.580  50.960  87.925  1.00  0.00     0.051 A 
ATOM     15  C   UNL     1      25.230  50.791  86.695  1.00  0.00     0.157 A 
ATOM     16  C   UNL     1      23.797  48.895  86.210  1.00  0.00     0.062 A 
ATOM     17  C   UNL     1      24.839  49.756  85.838  1.00  0.00     0.158 A 
BRANCH  15  18
ATOM     18  O   UNL     1      26.266  51.645  86.322  1.00  0.00    -0.504 OA
ATOM     19  H   UNL     1      27.164  51.626  86.791  1.00  0.00     0.293 HD
ENDBRANCH  15  18
BRANCH  17  20
ATOM     20  O   UNL     1      25.492  49.586  84.618  1.00  0.00    -0.504 OA
ATOM     21  H   UNL     1      24.998  49.275  83.790  1.00  0.00     0.293 HD
ENDBRANCH  17  20
ENDBRANCH   1  12
BRANCH   2  22
ATOM     22  O   UNL     1      20.351  49.877  87.684  1.00  0.00    -0.502 OA
ATOM     23  H   UNL     1      19.386  50.171  87.588  1.00  0.00     0.293 HD
ENDBRANCH   2  22
BRANCH   6  24
ATOM     24  O   UNL     1      17.851  45.550  89.125  1.00  0.00    -0.507 OA
ATOM     25  H   UNL     1      17.488  46.491  89.024  1.00  0.00     0.293 HD
ENDBRANCH   6  24
BRANCH   8  26
ATOM     26  O   UNL     1      21.425  42.310  89.121  1.00  0.00    -0.508 OA
ATOM     27  H   UNL     1      22.335  42.099  89.513  1.00  0.00     0.293 HD
ENDBRANCH   8  26
TORSDOF 6
ENDMDL
MODEL 8
REMARK VINA RESULT:    -3.694      2.170      6.399
REMARK INTER + INTRA:          -4.782
REMARK INTER:                  -4.991
REMARK INTRA:                   0.209
REMARK UNBOUND:                -0.332
REMARK SMILES O=c1c(O)c(-c2ccc(O)c(O)c2)oc2cc(O)cc(O)c12
REMARK SMILES IDX 5 1 3 2 2 3 1 4 22 5 20 6 19 7 17 8 16 9 15 10 14 11 6 12
REMARK SMILES IDX 7 13 8 14 9 15 13 16 11 17 10 18 12 20 4 22 21 24 18 26
REMARK H PARENT 10 19 12 21 4 23 21 25 18 27
REMARK Flexibility Score: inf
ROOT
ATOM      1  C   UNL     1      20.960  48.809  87.560  1.00  0.00     0.180 A 
ATOM      2  C   UNL     1      21.701  48.229  86.511  1.00  0.00     0.208 A 
ATOM      3  C   UNL     1      22.944  48.787  86.170  1.00  0.00     0.238 A 
ATOM      4  O   UNL     1      23.621  48.269  85.240  1.00  0.00    -0.285 OA
ATOM      5  C   UNL     1      23.413  49.921  86.863  1.00  0.00     0.111 A 
ATOM      6  C   UNL     1      24.652  50.545  86.578  1.00  0.00     0.134 A 
ATOM      7  C   UNL     1      25.045  51.676  87.308  1.00  0.00     0.093 A 
ATOM      8  C   UNL     1      24.226  52.195  88.314  1.00  0.00     0.123 A 
ATOM      9  C   UNL     1      23.003  51.582  88.601  1.00  0.00     0.094 A 
ATOM     10  C   UNL     1      22.593  50.453  87.887  1.00  0.00     0.146 A 
ATOM     11  O   UNL     1      21.428  49.888  88.182  1.00  0.00    -0.452 OA
ENDROOT
BRANCH   1  12
ATOM     12  C   UNL     1      19.652  48.267  87.991  1.00  0.00     0.025 A 
ATOM     13  C   UNL     1      18.588  49.116  88.346  1.00  0.00     0.016 A 
ATOM     14  C   UNL     1      17.355  48.581  88.727  1.00  0.00     0.051 A 
ATOM     15  C   UNL     1      17.162  47.193  88.744  1.00  0.00     0.157 A 
ATOM     16  C   UNL     1      19.446  46.878  87.991  1.00  0.00     0.062 A 
ATOM     17  C   UNL     1      18.209  46.341  88.373  1.00  0.00     0.158 A 
BRANCH  15  18
ATOM     18  O   UNL     1      15.934  46.656  89.125  1.00  0.00    -0.504 OA
ATOM     19  H   UNL     1      15.747  45.663  89.060  1.00  0.00     0.293 HD
ENDBRANCH  15  18
BRANCH  17  20
ATOM     20  O   UNL     1      18.013  44.961  88.385  1.00  0.00    -0.504 OA
ATOM     21  H   UNL     1      18.622  44.333  87.874  1.00  0.00     0.293 HD
ENDBRANCH  17  20
ENDBRANCH   1  12
BRANCH   2  22
ATOM     22  O   UNL     1      21.191  47.136  85.807  1.00  0.00    -0.502 OA
ATOM     23  H   UNL     1      20.803  46.324  86.272  1.00  0.00     0.293 HD
ENDBRANCH   2  22
BRANCH   6  24
ATOM     24  O   UNL     1      25.492  50.052  85.579  1.00  0.00    -0.507 OA
ATOM     25  H   UNL     1      25.758  49.075  85.541  1.00  0.00     0.293 HD
ENDBRANCH   6  24
BRANCH   8  26
ATOM     26  O   UNL     1      24.640  53.320  89.024  1.00  0.00    -0.508 OA
ATOM     27  H   UNL     1      24.091  54.172  89.033  1.00  0.00     0.293 HD
ENDBRANCH   8  26
TORSDOF 6
ENDMDL
MODEL 9
REMARK VINA RESULT:    -3.611      2.607      7.211
REMARK INTER + INTRA:          -4.682
REMARK INTER:                  -4.441
REMARK INTRA:                  -0.241
REMARK UNBOUND:                -0.332
REMARK SMILES O=c1c(O)c(-c2ccc(O)c(O)c2)oc2cc(O)cc(O)c12
REMARK SMILES IDX 5 1 3 2 2 3 1 4 22 5 20 6 19 7 17 8 16 9 15 10 14 11 6 12
REMARK SMILES IDX 7 13 8 14 9 15 13 16 11 17 10 18 12 20 4 22 21 24 18 26
REMARK H PARENT 10 19 12 21 4 23 21 25 18 27
REMARK Flexibility Score: inf
ROOT
ATOM      1  C   UNL     1      23.511  49.837  86.881  1.00  0.00     0.180 A 
ATOM      2  C   UNL     1      24.226  48.860  86.160  1.00  0.00     0.208 A 
ATOM      3  C   UNL     1      25.502  49.178  85.668  1.00  0.00     0.238 A 
ATOM      4  O   UNL     1      26.156  48.308  85.031  1.00  0.00    -0.285 OA
ATOM      5  C   UNL     1      26.031  50.466  85.886  1.00  0.00     0.111 A 
ATOM      6  C   UNL     1      27.307  50.868  85.421  1.00  0.00     0.134 A 
ATOM      7  C   UNL     1      27.760  52.172  85.671  1.00  0.00     0.093 A 
ATOM      8  C   UNL     1      26.964  53.080  86.374  1.00  0.00     0.123 A 
ATOM      9  C   UNL     1      25.704  52.689  86.836  1.00  0.00     0.094 A 
ATOM     10  C   UNL     1      25.235  51.393  86.600  1.00  0.00     0.146 A 
ATOM     11  O   UNL     1      24.037  51.046  87.054  1.00  0.00    -0.452 OA
ENDROOT
BRANCH   1  12
ATOM     12  C   UNL     1      22.169  49.571  87.447  1.00  0.00     0.025 A 
ATOM     13  C   UNL     1      21.993  48.700  88.537  1.00  0.00     0.016 A 
ATOM     14  C   UNL     1      20.719  48.484  89.069  1.00  0.00     0.051 A 
ATOM     15  C   UNL     1      19.607  49.145  88.531  1.00  0.00     0.157 A 
ATOM     16  C   UNL     1      21.053  50.247  86.925  1.00  0.00     0.062 A 
ATOM     17  C   UNL     1      19.775  50.029  87.460  1.00  0.00     0.158 A 
BRANCH  15  18
ATOM     18  O   UNL     1      18.335  48.930  89.059  1.00  0.00    -0.504 OA
ATOM     19  H   UNL     1      18.174  48.250  89.792  1.00  0.00     0.293 HD
ENDBRANCH  15  18
BRANCH  17  20
ATOM     20  O   UNL     1      18.668  50.690  86.930  1.00  0.00    -0.504 OA
ATOM     21  H   UNL     1      18.452  50.656  85.941  1.00  0.00     0.293 HD
ENDBRANCH  17  20
ENDBRANCH   1  12
BRANCH   2  22
ATOM     22  O   UNL     1      23.658  47.607  85.916  1.00  0.00    -0.502 OA
ATOM     23  H   UNL     1      23.285  47.347  85.010  1.00  0.00     0.293 HD
ENDBRANCH   2  22
BRANCH   6  24
ATOM     24  O   UNL     1      28.125  49.985  84.715  1.00  0.00    -0.507 OA
ATOM     25  H   UNL     1      28.430  49.105  85.115  1.00  0.00     0.293 HD
ENDBRANCH   6  24
BRANCH   8  26
ATOM     26  O   UNL     1      27.437  54.369  86.608  1.00  0.00    -0.508 OA
ATOM     27  H   UNL     1      28.303  54.533  87.109  1.00  0.00     0.293 HD
ENDBRANCH   8  26
TORSDOF 6
ENDMDL
