MODEL 1
REMARK VINA RESULT:    -4.634      0.000      0.000
REMARK INTER + INTRA:         -13.418
REMARK INTER:                 -10.051
REMARK INTRA:                  -3.367
REMARK UNBOUND:                -3.367
REMARK SMILES CCCCCCCCCCCCCCCCCCCCCC(=O)[O-]
REMARK SMILES IDX 12 1 11 2 10 3 9 4 8 5 7 6 6 7 5 8 4 9 3 10 2 11 1 12 13 13
REMARK SMILES IDX 14 14 15 15 16 16 17 17 18 18 19 19 20 20 21 21 22 22 23 23
REMARK SMILES IDX 24 24
REMARK H PARENT
REMARK Flexibility Score: inf
ROOT
ATOM      1  C   UNL     1     182.356 181.157 183.715  1.00  0.00     0.000 C 
ENDROOT
BRANCH   1   2
ATOM      2  C   UNL     1     182.124 182.046 184.948  1.00  0.00     0.000 C 
BRANCH   2   3
ATOM      3  C   UNL     1     181.061 183.135 184.710  1.00  0.00     0.000 C 
BRANCH   3   4
ATOM      4  C   UNL     1     180.736 183.425 183.231  1.00  0.00    -0.000 C 
BRANCH   4   5
ATOM      5  C   UNL     1     179.235 183.536 182.898  1.00  0.00    -0.000 C 
BRANCH   5   6
ATOM      6  C   UNL     1     178.819 182.909 181.554  1.00  0.00    -0.000 C 
BRANCH   6   7
ATOM      7  C   UNL     1     177.947 181.644 181.670  1.00  0.00    -0.000 C 
BRANCH   7   8
ATOM      8  C   UNL     1     178.721 180.394 182.141  1.00  0.00    -0.000 C 
BRANCH   8   9
ATOM      9  C   UNL     1     180.042 180.195 181.378  1.00  0.00    -0.000 C 
BRANCH   9  10
ATOM     10  C   UNL     1     180.335 178.718 181.059  1.00  0.00    -0.000 C 
BRANCH  10  11
ATOM     11  C   UNL     1     181.763 178.254 181.396  1.00  0.00    -0.003 C 
ATOM     12  C   UNL     1     181.824 176.808 181.888  1.00  0.00     0.004 C 
ENDBRANCH  10  11
ENDBRANCH   9  10
ENDBRANCH   8   9
ENDBRANCH   7   8
ENDBRANCH   6   7
ENDBRANCH   5   6
ENDBRANCH   4   5
ENDBRANCH   3   4
ENDBRANCH   2   3
ENDBRANCH   1   2
BRANCH   1  13
ATOM     13  C   UNL     1     183.745 180.490 183.711  1.00  0.00     0.000 C 
BRANCH  13  14
ATOM     14  C   UNL     1     184.469 180.493 182.351  1.00  0.00     0.000 C 
BRANCH  14  15
ATOM     15  C   UNL     1     185.895 181.075 182.372  1.00  0.00     0.000 C 
BRANCH  15  16
ATOM     16  C   UNL     1     186.109 182.234 181.374  1.00  0.00     0.000 C 
BRANCH  16  17
ATOM     17  C   UNL     1     185.788 183.607 181.993  1.00  0.00     0.000 C 
BRANCH  17  18
ATOM     18  C   UNL     1     184.277 183.892 182.047  1.00  0.00     0.000 C 
BRANCH  18  19
ATOM     19  C   UNL     1     183.651 184.030 180.649  1.00  0.00     0.000 C 
BRANCH  19  20
ATOM     20  C   UNL     1     182.418 183.127 180.456  1.00  0.00     0.006 C 
BRANCH  20  21
ATOM     21  C   UNL     1     182.682 181.855 179.635  1.00  0.00     0.053 C 
BRANCH  21  22
ATOM     22  C   UNL     1     181.869 181.816 178.379  1.00  0.00     0.041 C 
ATOM     23  O   UNL     1     180.765 181.210 178.358  1.00  0.00    -0.550 OA
ATOM     24  O   UNL     1     182.343 182.422 177.222  1.00  0.00    -0.550 OA
ENDBRANCH  21  22
ENDBRANCH  20  21
ENDBRANCH  19  20
ENDBRANCH  18  19
ENDBRANCH  17  18
ENDBRANCH  16  17
ENDBRANCH  15  16
ENDBRANCH  14  15
ENDBRANCH  13  14
ENDBRANCH   1  13
TORSDOF 20
ENDMDL
MODEL 2
REMARK VINA RESULT:    -4.610      2.038      5.296
REMARK INTER + INTRA:         -13.368
REMARK INTER:                  -9.996
REMARK INTRA:                  -3.372
REMARK UNBOUND:                -3.367
REMARK SMILES CCCCCCCCCCCCCCCCCCCCCC(=O)[O-]
REMARK SMILES IDX 12 1 11 2 10 3 9 4 8 5 7 6 6 7 5 8 4 9 3 10 2 11 1 12 13 13
REMARK SMILES IDX 14 14 15 15 16 16 17 17 18 18 19 19 20 20 21 21 22 22 23 23
REMARK SMILES IDX 24 24
REMARK H PARENT
REMARK Flexibility Score: inf
ROOT
ATOM      1  C   UNL     1     181.936 179.338 180.632  1.00  0.00     0.000 C 
ENDROOT
BRANCH   1   2
ATOM      2  C   UNL     1     180.999 180.451 180.135  1.00  0.00     0.000 C 
BRANCH   2   3
ATOM      3  C   UNL     1     181.331 180.920 178.706  1.00  0.00     0.000 C 
BRANCH   3   4
ATOM      4  C   UNL     1     181.772 182.392 178.582  1.00  0.00    -0.000 C 
BRANCH   4   5
ATOM      5  C   UNL     1     183.174 182.707 179.141  1.00  0.00    -0.000 C 
BRANCH   5   6
ATOM      6  C   UNL     1     183.194 183.679 180.335  1.00  0.00    -0.000 C 
BRANCH   6   7
ATOM      7  C   UNL     1     184.366 183.480 181.314  1.00  0.00    -0.000 C 
BRANCH   7   8
ATOM      8  C   UNL     1     185.286 182.294 180.953  1.00  0.00    -0.000 C 
BRANCH   8   9
ATOM      9  C   UNL     1     186.219 181.897 182.111  1.00  0.00    -0.000 C 
BRANCH   9  10
ATOM     10  C   UNL     1     185.924 180.490 182.663  1.00  0.00    -0.000 C 
BRANCH  10  11
ATOM     11  C   UNL     1     186.878 180.019 183.776  1.00  0.00    -0.003 C 
ATOM     12  C   UNL     1     186.161 179.296 184.915  1.00  0.00     0.004 C 
ENDBRANCH  10  11
ENDBRANCH   9  10
ENDBRANCH   8   9
ENDBRANCH   7   8
ENDBRANCH   6   7
ENDBRANCH   5   6
ENDBRANCH   4   5
ENDBRANCH   3   4
ENDBRANCH   2   3
ENDBRANCH   1   2
BRANCH   1  13
ATOM     13  C   UNL     1     182.475 179.598 182.053  1.00  0.00     0.000 C 
BRANCH  13  14
ATOM     14  C   UNL     1     182.319 181.044 182.557  1.00  0.00     0.000 C 
BRANCH  14  15
ATOM     15  C   UNL     1     182.284 181.201 184.089  1.00  0.00     0.000 C 
BRANCH  15  16
ATOM     16  C   UNL     1     181.565 182.482 184.568  1.00  0.00     0.000 C 
BRANCH  16  17
ATOM     17  C   UNL     1     181.297 183.468 183.416  1.00  0.00     0.000 C 
BRANCH  17  18
ATOM     18  C   UNL     1     179.823 183.477 182.975  1.00  0.00     0.000 C 
BRANCH  18  19
ATOM     19  C   UNL     1     179.663 183.499 181.446  1.00  0.00     0.000 C 
BRANCH  19  20
ATOM     20  C   UNL     1     178.382 182.791 180.969  1.00  0.00     0.006 C 
BRANCH  20  21
ATOM     21  C   UNL     1     177.539 182.172 182.096  1.00  0.00     0.053 C 
BRANCH  21  22
ATOM     22  C   UNL     1     177.555 180.676 182.055  1.00  0.00     0.041 C 
ATOM     23  O   UNL     1     176.505 180.038 181.774  1.00  0.00    -0.550 OA
ATOM     24  O   UNL     1     178.721 179.983 182.358  1.00  0.00    -0.550 OA
ENDBRANCH  21  22
ENDBRANCH  20  21
ENDBRANCH  19  20
ENDBRANCH  18  19
ENDBRANCH  17  18
ENDBRANCH  16  17
ENDBRANCH  15  16
ENDBRANCH  14  15
ENDBRANCH  13  14
ENDBRANCH   1  13
TORSDOF 20
ENDMDL
MODEL 3
REMARK VINA RESULT:    -4.606      2.185      5.764
REMARK INTER + INTRA:         -13.358
REMARK INTER:                 -10.128
REMARK INTRA:                  -3.229
REMARK UNBOUND:                -3.367
REMARK SMILES CCCCCCCCCCCCCCCCCCCCCC(=O)[O-]
REMARK SMILES IDX 12 1 11 2 10 3 9 4 8 5 7 6 6 7 5 8 4 9 3 10 2 11 1 12 13 13
REMARK SMILES IDX 14 14 15 15 16 16 17 17 18 18 19 19 20 20 21 21 22 22 23 23
REMARK SMILES IDX 24 24
REMARK H PARENT
REMARK Flexibility Score: inf
ROOT
ATOM      1  C   UNL     1     182.129 184.903 181.125  1.00  0.00     0.000 C 
ENDROOT
BRANCH   1   2
ATOM      2  C   UNL     1     183.659 184.900 180.970  1.00  0.00     0.000 C 
BRANCH   2   3
ATOM      3  C   UNL     1     184.371 184.080 182.061  1.00  0.00     0.000 C 
BRANCH   3   4
ATOM      4  C   UNL     1     185.864 183.795 181.802  1.00  0.00    -0.000 C 
BRANCH   4   5
ATOM      5  C   UNL     1     186.249 182.303 181.746  1.00  0.00    -0.000 C 
BRANCH   5   6
ATOM      6  C   UNL     1     185.426 181.456 180.758  1.00  0.00    -0.000 C 
BRANCH   6   7
ATOM      7  C   UNL     1     184.314 180.606 181.401  1.00  0.00    -0.000 C 
BRANCH   7   8
ATOM      8  C   UNL     1     184.610 180.189 182.857  1.00  0.00    -0.000 C 
BRANCH   8   9
ATOM      9  C   UNL     1     183.523 180.661 183.839  1.00  0.00    -0.000 C 
BRANCH   9  10
ATOM     10  C   UNL     1     182.450 181.539 183.169  1.00  0.00    -0.000 C 
BRANCH  10  11
ATOM     11  C   UNL     1     181.697 182.482 184.124  1.00  0.00    -0.003 C 
ATOM     12  C   UNL     1     182.030 182.237 185.595  1.00  0.00     0.004 C 
ENDBRANCH  10  11
ENDBRANCH   9  10
ENDBRANCH   8   9
ENDBRANCH   7   8
ENDBRANCH   6   7
ENDBRANCH   5   6
ENDBRANCH   4   5
ENDBRANCH   3   4
ENDBRANCH   2   3
ENDBRANCH   1   2
BRANCH   1  13
ATOM     13  C   UNL     1     181.459 183.675 180.478  1.00  0.00     0.000 C 
BRANCH  13  14
ATOM     14  C   UNL     1     182.335 182.906 179.471  1.00  0.00     0.000 C 
BRANCH  14  15
ATOM     15  C   UNL     1     181.579 181.895 178.587  1.00  0.00     0.000 C 
BRANCH  15  16
ATOM     16  C   UNL     1     180.426 181.171 179.316  1.00  0.00     0.000 C 
BRANCH  16  17
ATOM     17  C   UNL     1     180.934 180.092 180.290  1.00  0.00     0.000 C 
BRANCH  17  18
ATOM     18  C   UNL     1     179.844 179.610 181.261  1.00  0.00     0.000 C 
BRANCH  18  19
ATOM     19  C   UNL     1     179.322 180.736 182.171  1.00  0.00     0.000 C 
BRANCH  19  20
ATOM     20  C   UNL     1     177.911 181.213 181.780  1.00  0.00     0.006 C 
BRANCH  20  21
ATOM     21  C   UNL     1     177.789 182.728 181.557  1.00  0.00     0.053 C 
BRANCH  21  22
ATOM     22  C   UNL     1     177.953 183.501 182.829  1.00  0.00     0.041 C 
ATOM     23  O   UNL     1     179.079 183.971 183.143  1.00  0.00    -0.550 OA
ATOM     24  O   UNL     1     176.871 183.675 183.683  1.00  0.00    -0.550 OA
ENDBRANCH  21  22
ENDBRANCH  20  21
ENDBRANCH  19  20
ENDBRANCH  18  19
ENDBRANCH  17  18
ENDBRANCH  16  17
ENDBRANCH  15  16
ENDBRANCH  14  15
ENDBRANCH  13  14
ENDBRANCH   1  13
TORSDOF 20
ENDMDL
MODEL 4
REMARK VINA RESULT:    -4.601      1.995      4.141
REMARK INTER + INTRA:         -13.347
REMARK INTER:                  -9.870
REMARK INTRA:                  -3.476
REMARK UNBOUND:                -3.367
REMARK SMILES CCCCCCCCCCCCCCCCCCCCCC(=O)[O-]
REMARK SMILES IDX 12 1 11 2 10 3 9 4 8 5 7 6 6 7 5 8 4 9 3 10 2 11 1 12 13 13
REMARK SMILES IDX 14 14 15 15 16 16 17 17 18 18 19 19 20 20 21 21 22 22 23 23
REMARK SMILES IDX 24 24
REMARK H PARENT
REMARK Flexibility Score: inf
ROOT
ATOM      1  C   UNL     1     182.159 179.054 181.708  1.00  0.00     0.000 C 
ENDROOT
BRANCH   1   2
ATOM      2  C   UNL     1     183.100 180.206 182.099  1.00  0.00     0.000 C 
BRANCH   2   3
ATOM      3  C   UNL     1     183.301 180.326 183.621  1.00  0.00     0.000 C 
BRANCH   3   4
ATOM      4  C   UNL     1     182.505 181.457 184.302  1.00  0.00    -0.000 C 
BRANCH   4   5
ATOM      5  C   UNL     1     181.305 181.993 183.497  1.00  0.00    -0.000 C 
BRANCH   5   6
ATOM      6  C   UNL     1     180.872 183.428 183.854  1.00  0.00    -0.000 C 
BRANCH   6   7
ATOM      7  C   UNL     1     179.537 183.877 183.229  1.00  0.00    -0.000 C 
BRANCH   7   8
ATOM      8  C   UNL     1     179.192 183.155 181.909  1.00  0.00    -0.000 C 
BRANCH   8   9
ATOM      9  C   UNL     1     177.713 182.735 181.835  1.00  0.00    -0.000 C 
BRANCH   9  10
ATOM     10  C   UNL     1     177.523 181.294 181.327  1.00  0.00    -0.000 C 
BRANCH  10  11
ATOM     11  C   UNL     1     177.366 180.234 182.433  1.00  0.00    -0.003 C 
ATOM     12  C   UNL     1     176.436 179.088 182.036  1.00  0.00     0.004 C 
ENDBRANCH  10  11
ENDBRANCH   9  10
ENDBRANCH   8   9
ENDBRANCH   7   8
ENDBRANCH   6   7
ENDBRANCH   5   6
ENDBRANCH   4   5
ENDBRANCH   3   4
ENDBRANCH   2   3
ENDBRANCH   1   2
BRANCH   1  13
ATOM     13  C   UNL     1     180.800 179.546 181.174  1.00  0.00     0.000 C 
BRANCH  13  14
ATOM     14  C   UNL     1     180.782 179.926 179.681  1.00  0.00     0.000 C 
BRANCH  14  15
ATOM     15  C   UNL     1     180.853 181.438 179.392  1.00  0.00     0.000 C 
BRANCH  15  16
ATOM     16  C   UNL     1     181.963 181.829 178.392  1.00  0.00     0.000 C 
BRANCH  16  17
ATOM     17  C   UNL     1     183.024 182.748 179.025  1.00  0.00     0.000 C 
BRANCH  17  18
ATOM     18  C   UNL     1     182.580 183.317 180.384  1.00  0.00     0.000 C 
BRANCH  18  19
ATOM     19  C   UNL     1     183.620 184.272 180.993  1.00  0.00     0.000 C 
BRANCH  19  20
ATOM     20  C   UNL     1     184.429 183.626 182.132  1.00  0.00     0.006 C 
BRANCH  20  21
ATOM     21  C   UNL     1     185.882 183.281 181.766  1.00  0.00     0.053 C 
BRANCH  21  22
ATOM     22  C   UNL     1     186.060 181.822 181.483  1.00  0.00     0.041 C 
ATOM     23  O   UNL     1     185.751 181.353 180.356  1.00  0.00    -0.550 OA
ATOM     24  O   UNL     1     186.539 180.973 182.474  1.00  0.00    -0.550 OA
ENDBRANCH  21  22
ENDBRANCH  20  21
ENDBRANCH  19  20
ENDBRANCH  18  19
ENDBRANCH  17  18
ENDBRANCH  16  17
ENDBRANCH  15  16
ENDBRANCH  14  15
ENDBRANCH  13  14
ENDBRANCH   1  13
TORSDOF 20
ENDMDL
MODEL 5
REMARK VINA RESULT:    -4.546      2.905      4.703
REMARK INTER + INTRA:         -13.227
REMARK INTER:                  -9.712
REMARK INTRA:                  -3.515
REMARK UNBOUND:                -3.367
REMARK SMILES CCCCCCCCCCCCCCCCCCCCCC(=O)[O-]
REMARK SMILES IDX 12 1 11 2 10 3 9 4 8 5 7 6 6 7 5 8 4 9 3 10 2 11 1 12 13 13
REMARK SMILES IDX 14 14 15 15 16 16 17 17 18 18 19 19 20 20 21 21 22 22 23 23
REMARK SMILES IDX 24 24
REMARK H PARENT
REMARK Flexibility Score: inf
ROOT
ATOM      1  C   UNL     1     182.125 179.561 180.623  1.00  0.00     0.000 C 
ENDROOT
BRANCH   1   2
ATOM      2  C   UNL     1     182.467 179.742 182.111  1.00  0.00     0.000 C 
BRANCH   2   3
ATOM      3  C   UNL     1     181.448 180.622 182.858  1.00  0.00     0.000 C 
BRANCH   3   4
ATOM      4  C   UNL     1     182.057 181.700 183.776  1.00  0.00    -0.000 C 
BRANCH   4   5
ATOM      5  C   UNL     1     181.271 183.024 183.848  1.00  0.00    -0.000 C 
BRANCH   5   6
ATOM      6  C   UNL     1     181.164 183.789 182.515  1.00  0.00    -0.000 C 
BRANCH   6   7
ATOM      7  C   UNL     1     179.789 183.704 181.826  1.00  0.00    -0.000 C 
BRANCH   7   8
ATOM      8  C   UNL     1     178.603 183.605 182.809  1.00  0.00    -0.000 C 
BRANCH   8   9
ATOM      9  C   UNL     1     177.465 182.718 182.273  1.00  0.00    -0.000 C 
BRANCH   9  10
ATOM     10  C   UNL     1     177.976 181.442 181.580  1.00  0.00    -0.000 C 
BRANCH  10  11
ATOM     11  C   UNL     1     177.798 180.148 182.394  1.00  0.00    -0.003 C 
ATOM     12  C   UNL     1     176.533 179.375 182.024  1.00  0.00     0.004 C 
ENDBRANCH  10  11
ENDBRANCH   9  10
ENDBRANCH   8   9
ENDBRANCH   7   8
ENDBRANCH   6   7
ENDBRANCH   5   6
ENDBRANCH   4   5
ENDBRANCH   3   4
ENDBRANCH   2   3
ENDBRANCH   1   2
BRANCH   1  13
ATOM     13  C   UNL     1     181.100 180.593 180.115  1.00  0.00     0.000 C 
BRANCH  13  14
ATOM     14  C   UNL     1     181.461 181.274 178.782  1.00  0.00     0.000 C 
BRANCH  14  15
ATOM     15  C   UNL     1     182.091 182.674 178.914  1.00  0.00     0.000 C 
BRANCH  15  16
ATOM     16  C   UNL     1     183.564 182.652 179.379  1.00  0.00     0.000 C 
BRANCH  16  17
ATOM     17  C   UNL     1     183.771 183.412 180.702  1.00  0.00     0.000 C 
BRANCH  17  18
ATOM     18  C   UNL     1     184.706 182.668 181.671  1.00  0.00     0.000 C 
BRANCH  18  19
ATOM     19  C   UNL     1     185.715 181.764 180.943  1.00  0.00     0.000 C 
BRANCH  19  20
ATOM     20  C   UNL     1     186.426 180.779 181.890  1.00  0.00     0.006 C 
BRANCH  20  21
ATOM     21  C   UNL     1     185.615 180.398 183.139  1.00  0.00     0.053 C 
BRANCH  21  22
ATOM     22  C   UNL     1     186.481 179.842 184.226  1.00  0.00     0.041 C 
ATOM     23  O   UNL     1     187.732 179.983 184.173  1.00  0.00    -0.550 OA
ATOM     24  O   UNL     1     185.912 179.141 185.282  1.00  0.00    -0.550 OA
ENDBRANCH  21  22
ENDBRANCH  20  21
ENDBRANCH  19  20
ENDBRANCH  18  19
ENDBRANCH  17  18
ENDBRANCH  16  17
ENDBRANCH  15  16
ENDBRANCH  14  15
ENDBRANCH  13  14
ENDBRANCH   1  13
TORSDOF 20
ENDMDL
MODEL 6
REMARK VINA RESULT:    -4.506      1.669      4.493
REMARK INTER + INTRA:         -13.140
REMARK INTER:                 -10.165
REMARK INTRA:                  -2.975
REMARK UNBOUND:                -3.367
REMARK SMILES CCCCCCCCCCCCCCCCCCCCCC(=O)[O-]
REMARK SMILES IDX 12 1 11 2 10 3 9 4 8 5 7 6 6 7 5 8 4 9 3 10 2 11 1 12 13 13
REMARK SMILES IDX 14 14 15 15 16 16 17 17 18 18 19 19 20 20 21 21 22 22 23 23
REMARK SMILES IDX 24 24
REMARK H PARENT
REMARK Flexibility Score: inf
ROOT
ATOM      1  C   UNL     1     186.159 182.183 181.314  1.00  0.00     0.000 C 
ENDROOT
BRANCH   1   2
ATOM      2  C   UNL     1     185.069 181.128 181.566  1.00  0.00     0.000 C 
BRANCH   2   3
ATOM      3  C   UNL     1     185.157 180.498 182.968  1.00  0.00     0.000 C 
BRANCH   3   4
ATOM      4  C   UNL     1     183.803 180.210 183.646  1.00  0.00    -0.000 C 
BRANCH   4   5
ATOM      5  C   UNL     1     182.747 181.324 183.505  1.00  0.00    -0.000 C 
BRANCH   5   6
ATOM      6  C   UNL     1     182.073 181.752 184.822  1.00  0.00    -0.000 C 
BRANCH   6   7
ATOM      7  C   UNL     1     181.249 183.051 184.736  1.00  0.00    -0.000 C 
BRANCH   7   8
ATOM      8  C   UNL     1     180.920 183.487 183.293  1.00  0.00    -0.000 C 
BRANCH   8   9
ATOM      9  C   UNL     1     179.408 183.482 183.006  1.00  0.00    -0.000 C 
BRANCH   9  10
ATOM     10  C   UNL     1     179.075 183.109 181.550  1.00  0.00    -0.000 C 
BRANCH  10  11
ATOM     11  C   UNL     1     177.773 182.309 181.368  1.00  0.00    -0.003 C 
ATOM     12  C   UNL     1     177.780 180.974 182.112  1.00  0.00     0.004 C 
ENDBRANCH  10  11
ENDBRANCH   9  10
ENDBRANCH   8   9
ENDBRANCH   7   8
ENDBRANCH   6   7
ENDBRANCH   5   6
ENDBRANCH   4   5
ENDBRANCH   3   4
ENDBRANCH   2   3
ENDBRANCH   1   2
BRANCH   1  13
ATOM     13  C   UNL     1     185.828 183.549 181.948  1.00  0.00     0.000 C 
BRANCH  13  14
ATOM     14  C   UNL     1     184.327 183.868 182.071  1.00  0.00     0.000 C 
BRANCH  14  15
ATOM     15  C   UNL     1     183.708 184.576 180.850  1.00  0.00     0.000 C 
BRANCH  15  16
ATOM     16  C   UNL     1     182.558 183.784 180.189  1.00  0.00     0.000 C 
BRANCH  16  17
ATOM     17  C   UNL     1     183.073 182.710 179.213  1.00  0.00     0.000 C 
BRANCH  17  18
ATOM     18  C   UNL     1     181.964 182.159 178.300  1.00  0.00     0.000 C 
BRANCH  18  19
ATOM     19  C   UNL     1     180.988 181.234 179.047  1.00  0.00     0.000 C 
BRANCH  19  20
ATOM     20  C   UNL     1     181.521 180.789 180.422  1.00  0.00     0.006 C 
BRANCH  20  21
ATOM     21  C   UNL     1     182.138 179.382 180.440  1.00  0.00     0.053 C 
BRANCH  21  22
ATOM     22  C   UNL     1     181.281 178.401 181.180  1.00  0.00     0.041 C 
ATOM     23  O   UNL     1     180.035 178.572 181.246  1.00  0.00    -0.550 OA
ATOM     24  O   UNL     1     181.862 177.315 181.823  1.00  0.00    -0.550 OA
ENDBRANCH  21  22
ENDBRANCH  20  21
ENDBRANCH  19  20
ENDBRANCH  18  19
ENDBRANCH  17  18
ENDBRANCH  16  17
ENDBRANCH  15  16
ENDBRANCH  14  15
ENDBRANCH  13  14
ENDBRANCH   1  13
TORSDOF 20
ENDMDL
MODEL 7
REMARK VINA RESULT:    -4.504      2.183      5.354
REMARK INTER + INTRA:         -13.137
REMARK INTER:                 -10.142
REMARK INTRA:                  -2.994
REMARK UNBOUND:                -3.367
REMARK SMILES CCCCCCCCCCCCCCCCCCCCCC(=O)[O-]
REMARK SMILES IDX 12 1 11 2 10 3 9 4 8 5 7 6 6 7 5 8 4 9 3 10 2 11 1 12 13 13
REMARK SMILES IDX 14 14 15 15 16 16 17 17 18 18 19 19 20 20 21 21 22 22 23 23
REMARK SMILES IDX 24 24
REMARK H PARENT
REMARK Flexibility Score: inf
ROOT
ATOM      1  C   UNL     1     177.676 183.257 182.656  1.00  0.00     0.000 C 
ENDROOT
BRANCH   1   2
ATOM      2  C   UNL     1     178.302 182.702 181.366  1.00  0.00     0.000 C 
BRANCH   2   3
ATOM      3  C   UNL     1     178.238 181.165 181.282  1.00  0.00     0.000 C 
BRANCH   3   4
ATOM      4  C   UNL     1     179.412 180.420 181.948  1.00  0.00    -0.000 C 
BRANCH   4   5
ATOM      5  C   UNL     1     180.335 179.651 180.982  1.00  0.00    -0.000 C 
BRANCH   5   6
ATOM      6  C   UNL     1     181.407 180.509 180.285  1.00  0.00    -0.000 C 
BRANCH   6   7
ATOM      7  C   UNL     1     180.969 181.135 178.948  1.00  0.00    -0.000 C 
BRANCH   7   8
ATOM      8  C   UNL     1     181.900 182.262 178.452  1.00  0.00    -0.000 C 
BRANCH   8   9
ATOM      9  C   UNL     1     182.677 182.933 179.598  1.00  0.00    -0.000 C 
BRANCH   9  10
ATOM     10  C   UNL     1     181.959 184.171 180.165  1.00  0.00    -0.000 C 
BRANCH  10  11
ATOM     11  C   UNL     1     182.863 185.141 180.948  1.00  0.00    -0.003 C 
ATOM     12  C   UNL     1     182.124 186.386 181.438  1.00  0.00     0.004 C 
ENDBRANCH  10  11
ENDBRANCH   9  10
ENDBRANCH   8   9
ENDBRANCH   7   8
ENDBRANCH   6   7
ENDBRANCH   5   6
ENDBRANCH   4   5
ENDBRANCH   3   4
ENDBRANCH   2   3
ENDBRANCH   1   2
BRANCH   1  13
ATOM     13  C   UNL     1     178.717 183.886 183.603  1.00  0.00     0.000 C 
BRANCH  13  14
ATOM     14  C   UNL     1     180.176 183.810 183.118  1.00  0.00     0.000 C 
BRANCH  14  15
ATOM     15  C   UNL     1     181.138 183.057 184.056  1.00  0.00     0.000 C 
BRANCH  15  16
ATOM     16  C   UNL     1     182.254 182.287 183.316  1.00  0.00     0.000 C 
BRANCH  16  17
ATOM     17  C   UNL     1     182.657 180.993 184.046  1.00  0.00     0.000 C 
BRANCH  17  18
ATOM     18  C   UNL     1     183.476 180.042 183.157  1.00  0.00     0.000 C 
BRANCH  18  19
ATOM     19  C   UNL     1     184.915 180.538 182.929  1.00  0.00     0.000 C 
BRANCH  19  20
ATOM     20  C   UNL     1     185.132 181.111 181.517  1.00  0.00     0.006 C 
BRANCH  20  21
ATOM     21  C   UNL     1     186.403 181.962 181.363  1.00  0.00     0.053 C 
BRANCH  21  22
ATOM     22  C   UNL     1     186.229 183.340 181.921  1.00  0.00     0.041 C 
ATOM     23  O   UNL     1     185.075 183.823 182.069  1.00  0.00    -0.550 OA
ATOM     24  O   UNL     1     187.342 184.105 182.248  1.00  0.00    -0.550 OA
ENDBRANCH  21  22
ENDBRANCH  20  21
ENDBRANCH  19  20
ENDBRANCH  18  19
ENDBRANCH  17  18
ENDBRANCH  16  17
ENDBRANCH  15  16
ENDBRANCH  14  15
ENDBRANCH  13  14
ENDBRANCH   1  13
TORSDOF 20
ENDMDL
MODEL 8
REMARK VINA RESULT:    -4.499      1.749      5.488
REMARK INTER + INTRA:         -13.127
REMARK INTER:                  -9.806
REMARK INTRA:                  -3.320
REMARK UNBOUND:                -3.367
REMARK SMILES CCCCCCCCCCCCCCCCCCCCCC(=O)[O-]
REMARK SMILES IDX 12 1 11 2 10 3 9 4 8 5 7 6 6 7 5 8 4 9 3 10 2 11 1 12 13 13
REMARK SMILES IDX 14 14 15 15 16 16 17 17 18 18 19 19 20 20 21 21 22 22 23 23
REMARK SMILES IDX 24 24
REMARK H PARENT
REMARK Flexibility Score: inf
ROOT
ATOM      1  C   UNL     1     181.690 184.990 181.183  1.00  0.00     0.000 C 
ENDROOT
BRANCH   1   2
ATOM      2  C   UNL     1     180.852 183.815 181.713  1.00  0.00     0.000 C 
BRANCH   2   3
ATOM      3  C   UNL     1     180.660 183.855 183.240  1.00  0.00     0.000 C 
BRANCH   3   4
ATOM      4  C   UNL     1     181.402 182.755 184.025  1.00  0.00    -0.000 C 
BRANCH   4   5
ATOM      5  C   UNL     1     182.758 182.323 183.431  1.00  0.00    -0.000 C 
BRANCH   5   6
ATOM      6  C   UNL     1     183.068 180.819 183.545  1.00  0.00    -0.000 C 
BRANCH   6   7
ATOM      7  C   UNL     1     184.151 180.305 182.578  1.00  0.00    -0.000 C 
BRANCH   7   8
ATOM      8  C   UNL     1     185.553 180.190 183.214  1.00  0.00    -0.000 C 
BRANCH   8   9
ATOM      9  C   UNL     1     186.627 180.955 182.420  1.00  0.00    -0.000 C 
BRANCH   9  10
ATOM     10  C   UNL     1     186.059 182.166 181.657  1.00  0.00    -0.000 C 
BRANCH  10  11
ATOM     11  C   UNL     1     186.209 183.515 182.382  1.00  0.00    -0.003 C 
ATOM     12  C   UNL     1     187.225 184.443 181.718  1.00  0.00     0.004 C 
ENDBRANCH  10  11
ENDBRANCH   9  10
ENDBRANCH   8   9
ENDBRANCH   7   8
ENDBRANCH   6   7
ENDBRANCH   5   6
ENDBRANCH   4   5
ENDBRANCH   3   4
ENDBRANCH   2   3
ENDBRANCH   1   2
BRANCH   1  13
ATOM     13  C   UNL     1     183.057 184.547 180.626  1.00  0.00     0.000 C 
BRANCH  13  14
ATOM     14  C   UNL     1     183.126 183.086 180.143  1.00  0.00     0.000 C 
BRANCH  14  15
ATOM     15  C   UNL     1     182.826 182.878 178.647  1.00  0.00     0.000 C 
BRANCH  15  16
ATOM     16  C   UNL     1     181.941 181.646 178.356  1.00  0.00     0.000 C 
BRANCH  16  17
ATOM     17  C   UNL     1     181.062 181.258 179.558  1.00  0.00     0.000 C 
BRANCH  17  18
ATOM     18  C   UNL     1     181.428 179.882 180.141  1.00  0.00     0.000 C 
BRANCH  18  19
ATOM     19  C   UNL     1     180.340 179.327 181.075  1.00  0.00     0.000 C 
BRANCH  19  20
ATOM     20  C   UNL     1     179.798 180.384 182.055  1.00  0.00     0.006 C 
BRANCH  20  21
ATOM     21  C   UNL     1     178.270 180.549 182.033  1.00  0.00     0.053 C 
BRANCH  21  22
ATOM     22  C   UNL     1     177.859 181.939 181.657  1.00  0.00     0.041 C 
ATOM     23  O   UNL     1     177.969 182.332 180.465  1.00  0.00    -0.550 OA
ATOM     24  O   UNL     1     177.384 182.812 182.628  1.00  0.00    -0.550 OA
ENDBRANCH  21  22
ENDBRANCH  20  21
ENDBRANCH  19  20
ENDBRANCH  18  19
ENDBRANCH  17  18
ENDBRANCH  16  17
ENDBRANCH  15  16
ENDBRANCH  14  15
ENDBRANCH  13  14
ENDBRANCH   1  13
TORSDOF 20
ENDMDL
MODEL 9
REMARK VINA RESULT:    -4.473      1.337      5.832
REMARK INTER + INTRA:         -13.068
REMARK INTER:                  -9.590
REMARK INTRA:                  -3.479
REMARK UNBOUND:                -3.367
REMARK SMILES CCCCCCCCCCCCCCCCCCCCCC(=O)[O-]
REMARK SMILES IDX 12 1 11 2 10 3 9 4 8 5 7 6 6 7 5 8 4 9 3 10 2 11 1 12 13 13
REMARK SMILES IDX 14 14 15 15 16 16 17 17 18 18 19 19 20 20 21 21 22 22 23 23
REMARK SMILES IDX 24 24
REMARK H PARENT
REMARK Flexibility Score: inf
ROOT
ATOM      1  C   UNL     1     182.095 182.252 184.833  1.00  0.00     0.000 C 
ENDROOT
BRANCH   1   2
ATOM      2  C   UNL     1     182.763 180.911 184.483  1.00  0.00     0.000 C 
BRANCH   2   3
ATOM      3  C   UNL     1     182.647 180.556 182.989  1.00  0.00     0.000 C 
BRANCH   3   4
ATOM      4  C   UNL     1     183.959 180.105 182.317  1.00  0.00    -0.000 C 
BRANCH   4   5
ATOM      5  C   UNL     1     185.230 180.283 183.170  1.00  0.00    -0.000 C 
BRANCH   5   6
ATOM      6  C   UNL     1     186.316 181.176 182.541  1.00  0.00    -0.000 C 
BRANCH   6   7
ATOM      7  C   UNL     1     185.830 182.075 181.388  1.00  0.00    -0.000 C 
BRANCH   7   8
ATOM      8  C   UNL     1     185.502 183.520 181.819  1.00  0.00    -0.000 C 
BRANCH   8   9
ATOM      9  C   UNL     1     183.991 183.812 181.805  1.00  0.00    -0.000 C 
BRANCH   9  10
ATOM     10  C   UNL     1     183.612 184.971 180.866  1.00  0.00    -0.000 C 
BRANCH  10  11
ATOM     11  C   UNL     1     182.183 185.513 181.050  1.00  0.00    -0.003 C 
ATOM     12  C   UNL     1     182.138 186.847 181.793  1.00  0.00     0.004 C 
ENDBRANCH  10  11
ENDBRANCH   9  10
ENDBRANCH   8   9
ENDBRANCH   7   8
ENDBRANCH   6   7
ENDBRANCH   5   6
ENDBRANCH   4   5
ENDBRANCH   3   4
ENDBRANCH   2   3
ENDBRANCH   1   2
BRANCH   1  13
ATOM     13  C   UNL     1     181.390 182.902 183.626  1.00  0.00     0.000 C 
BRANCH  13  14
ATOM     14  C   UNL     1     180.021 183.539 183.932  1.00  0.00     0.000 C 
BRANCH  14  15
ATOM     15  C   UNL     1     179.153 183.847 182.697  1.00  0.00     0.000 C 
BRANCH  15  16
ATOM     16  C   UNL     1     177.836 183.042 182.647  1.00  0.00     0.000 C 
BRANCH  16  17
ATOM     17  C   UNL     1     177.880 181.909 181.606  1.00  0.00     0.000 C 
BRANCH  17  18
ATOM     18  C   UNL     1     178.773 180.736 182.045  1.00  0.00     0.000 C 
BRANCH  18  19
ATOM     19  C   UNL     1     179.858 180.398 181.008  1.00  0.00     0.000 C 
BRANCH  19  20
ATOM     20  C   UNL     1     180.159 181.571 180.056  1.00  0.00     0.006 C 
BRANCH  20  21
ATOM     21  C   UNL     1     181.635 181.998 180.018  1.00  0.00     0.053 C 
BRANCH  21  22
ATOM     22  C   UNL     1     182.180 182.016 178.624  1.00  0.00     0.041 C 
ATOM     23  O   UNL     1     183.222 182.673 178.359  1.00  0.00    -0.550 OA
ATOM     24  O   UNL     1     181.521 181.333 177.609  1.00  0.00    -0.550 OA
ENDBRANCH  21  22
ENDBRANCH  20  21
ENDBRANCH  19  20
ENDBRANCH  18  19
ENDBRANCH  17  18
ENDBRANCH  16  17
ENDBRANCH  15  16
ENDBRANCH  14  15
ENDBRANCH  13  14
ENDBRANCH   1  13
TORSDOF 20
ENDMDL
