MODEL 1
REMARK VINA RESULT:    -4.532      0.000      0.000
REMARK INTER + INTRA:         -13.693
REMARK INTER:                 -10.362
REMARK INTRA:                  -3.331
REMARK UNBOUND:                -3.331
REMARK SMILES CCCCCCCCCCCCCCCCCCCCCCCC(=O)[O-]
REMARK SMILES IDX 13 1 14 2 15 3 16 4 17 5 18 6 19 7 20 8 21 9 22 10 23 11
REMARK SMILES IDX 24 12 25 13 26 14 12 15 11 16 10 17 9 18 8 19 7 20 6 21 5 22
REMARK SMILES IDX 4 23 3 24 2 25 1 26
REMARK H PARENT
REMARK Flexibility Score: inf
ROOT
ATOM      1  C   UNL     1      59.025 -26.857  -2.046  1.00  0.00     0.000 C 
ENDROOT
BRANCH   1   2
ATOM      2  C   UNL     1      57.957 -27.919  -2.375  1.00  0.00     0.000 C 
BRANCH   2   3
ATOM      3  C   UNL     1      56.588 -27.694  -1.707  1.00  0.00     0.000 C 
BRANCH   3   4
ATOM      4  C   UNL     1      56.636 -26.941  -0.362  1.00  0.00     0.000 C 
BRANCH   4   5
ATOM      5  C   UNL     1      55.756 -25.678  -0.291  1.00  0.00     0.000 C 
BRANCH   5   6
ATOM      6  C   UNL     1      56.354 -24.426  -0.965  1.00  0.00     0.000 C 
BRANCH   6   7
ATOM      7  C   UNL     1      55.774 -24.098  -2.355  1.00  0.00     0.000 C 
BRANCH   7   8
ATOM      8  C   UNL     1      56.746 -24.429  -3.500  1.00  0.00     0.000 C 
BRANCH   8   9
ATOM      9  C   UNL     1      56.244 -23.902  -4.863  1.00  0.00     0.000 C 
BRANCH   9  10
ATOM     10  C   UNL     1      57.347 -23.233  -5.707  1.00  0.00     0.006 C 
BRANCH  10  11
ATOM     11  C   UNL     1      58.773 -23.526  -5.216  1.00  0.00     0.053 C 
BRANCH  11  12
ATOM     12  C   UNL     1      59.493 -24.472  -6.128  1.00  0.00     0.041 C 
ATOM     13  O   UNL     1      58.952 -25.555  -6.476  1.00  0.00    -0.550 OA
ATOM     14  O   UNL     1      60.762 -24.157  -6.599  1.00  0.00    -0.550 OA
ENDBRANCH  11  12
ENDBRANCH  10  11
ENDBRANCH   9  10
ENDBRANCH   8   9
ENDBRANCH   7   8
ENDBRANCH   6   7
ENDBRANCH   5   6
ENDBRANCH   4   5
ENDBRANCH   3   4
ENDBRANCH   2   3
ENDBRANCH   1   2
BRANCH   1  15
ATOM     15  C   UNL     1      60.074 -26.660  -3.161  1.00  0.00     0.000 C 
BRANCH  15  16
ATOM     16  C   UNL     1      60.943 -25.408  -2.941  1.00  0.00     0.000 C 
BRANCH  16  17
ATOM     17  C   UNL     1      62.436 -25.740  -2.797  1.00  0.00     0.000 C 
BRANCH  17  18
ATOM     18  C   UNL     1      62.703 -27.252  -2.742  1.00  0.00    -0.000 C 
BRANCH  18  19
ATOM     19  C   UNL     1      63.658 -27.598  -1.589  1.00  0.00    -0.000 C 
BRANCH  19  20
ATOM     20  C   UNL     1      63.222 -28.849  -0.807  1.00  0.00    -0.000 C 
BRANCH  20  21
ATOM     21  C   UNL     1      61.700 -29.070  -0.845  1.00  0.00    -0.000 C 
BRANCH  21  22
ATOM     22  C   UNL     1      61.070 -29.141   0.560  1.00  0.00    -0.000 C 
BRANCH  22  23
ATOM     23  C   UNL     1      59.588 -29.559   0.590  1.00  0.00    -0.000 C 
BRANCH  23  24
ATOM     24  C   UNL     1      58.798 -28.882   1.722  1.00  0.00    -0.000 C 
BRANCH  24  25
ATOM     25  C   UNL     1      59.563 -28.882   3.054  1.00  0.00    -0.003 C 
ATOM     26  C   UNL     1      59.178 -27.707   3.956  1.00  0.00     0.004 C 
ENDBRANCH  24  25
ENDBRANCH  23  24
ENDBRANCH  22  23
ENDBRANCH  21  22
ENDBRANCH  20  21
ENDBRANCH  19  20
ENDBRANCH  18  19
ENDBRANCH  17  18
ENDBRANCH  16  17
ENDBRANCH  15  16
ENDBRANCH   1  15
TORSDOF 22
ENDMDL
MODEL 2
REMARK VINA RESULT:    -4.513      1.528      4.280
REMARK INTER + INTRA:         -13.649
REMARK INTER:                 -10.123
REMARK INTRA:                  -3.526
REMARK UNBOUND:                -3.331
REMARK SMILES CCCCCCCCCCCCCCCCCCCCCCCC(=O)[O-]
REMARK SMILES IDX 13 1 14 2 15 3 16 4 17 5 18 6 19 7 20 8 21 9 22 10 23 11
REMARK SMILES IDX 24 12 25 13 26 14 12 15 11 16 10 17 9 18 8 19 7 20 6 21 5 22
REMARK SMILES IDX 4 23 3 24 2 25 1 26
REMARK H PARENT
REMARK Flexibility Score: inf
ROOT
ATOM      1  C   UNL     1      63.479 -27.341  -2.581  1.00  0.00     0.000 C 
ENDROOT
BRANCH   1   2
ATOM      2  C   UNL     1      62.907 -25.912  -2.670  1.00  0.00     0.000 C 
BRANCH   2   3
ATOM      3  C   UNL     1      61.587 -25.789  -3.453  1.00  0.00     0.000 C 
BRANCH   3   4
ATOM      4  C   UNL     1      60.312 -26.064  -2.630  1.00  0.00     0.000 C 
BRANCH   4   5
ATOM      5  C   UNL     1      59.415 -27.192  -3.176  1.00  0.00     0.000 C 
BRANCH   5   6
ATOM      6  C   UNL     1      57.979 -26.765  -3.541  1.00  0.00     0.000 C 
BRANCH   6   7
ATOM      7  C   UNL     1      57.703 -25.253  -3.430  1.00  0.00     0.000 C 
BRANCH   7   8
ATOM      8  C   UNL     1      57.506 -24.580  -4.798  1.00  0.00     0.000 C 
BRANCH   8   9
ATOM      9  C   UNL     1      58.559 -23.481  -5.064  1.00  0.00     0.000 C 
BRANCH   9  10
ATOM     10  C   UNL     1      59.809 -23.995  -5.804  1.00  0.00     0.006 C 
BRANCH  10  11
ATOM     11  C   UNL     1      59.561 -25.251  -6.654  1.00  0.00     0.053 C 
BRANCH  11  12
ATOM     12  C   UNL     1      59.712 -24.972  -8.118  1.00  0.00     0.041 C 
ATOM     13  O   UNL     1      58.713 -24.633  -8.807  1.00  0.00    -0.550 OA
ATOM     14  O   UNL     1      60.958 -25.080  -8.724  1.00  0.00    -0.550 OA
ENDBRANCH  11  12
ENDBRANCH  10  11
ENDBRANCH   9  10
ENDBRANCH   8   9
ENDBRANCH   7   8
ENDBRANCH   6   7
ENDBRANCH   5   6
ENDBRANCH   4   5
ENDBRANCH   3   4
ENDBRANCH   2   3
ENDBRANCH   1   2
BRANCH   1  15
ATOM     15  C   UNL     1      63.470 -27.929  -1.154  1.00  0.00     0.000 C 
BRANCH  15  16
ATOM     16  C   UNL     1      62.662 -29.237  -1.058  1.00  0.00     0.000 C 
BRANCH  16  17
ATOM     17  C   UNL     1      61.205 -29.004  -0.631  1.00  0.00     0.000 C 
BRANCH  17  18
ATOM     18  C   UNL     1      60.989 -29.218   0.875  1.00  0.00    -0.000 C 
BRANCH  18  19
ATOM     19  C   UNL     1      59.538 -29.630   1.168  1.00  0.00    -0.000 C 
BRANCH  19  20
ATOM     20  C   UNL     1      58.769 -30.050  -0.095  1.00  0.00    -0.000 C 
BRANCH  20  21
ATOM     21  C   UNL     1      57.635 -29.072  -0.451  1.00  0.00    -0.000 C 
BRANCH  21  22
ATOM     22  C   UNL     1      57.538 -27.886   0.528  1.00  0.00    -0.000 C 
BRANCH  22  23
ATOM     23  C   UNL     1      56.835 -26.634  -0.031  1.00  0.00    -0.000 C 
BRANCH  23  24
ATOM     24  C   UNL     1      55.358 -26.541   0.388  1.00  0.00    -0.000 C 
BRANCH  24  25
ATOM     25  C   UNL     1      54.420 -26.327  -0.810  1.00  0.00    -0.003 C 
ATOM     26  C   UNL     1      54.748 -27.244  -1.988  1.00  0.00     0.004 C 
ENDBRANCH  24  25
ENDBRANCH  23  24
ENDBRANCH  22  23
ENDBRANCH  21  22
ENDBRANCH  20  21
ENDBRANCH  19  20
ENDBRANCH  18  19
ENDBRANCH  17  18
ENDBRANCH  16  17
ENDBRANCH  15  16
ENDBRANCH   1  15
TORSDOF 22
ENDMDL
MODEL 3
REMARK VINA RESULT:    -4.512      3.962      6.915
REMARK INTER + INTRA:         -13.647
REMARK INTER:                 -10.255
REMARK INTRA:                  -3.392
REMARK UNBOUND:                -3.331
REMARK SMILES CCCCCCCCCCCCCCCCCCCCCCCC(=O)[O-]
REMARK SMILES IDX 13 1 14 2 15 3 16 4 17 5 18 6 19 7 20 8 21 9 22 10 23 11
REMARK SMILES IDX 24 12 25 13 26 14 12 15 11 16 10 17 9 18 8 19 7 20 6 21 5 22
REMARK SMILES IDX 4 23 3 24 2 25 1 26
REMARK H PARENT
REMARK Flexibility Score: inf
ROOT
ATOM      1  C   UNL     1      58.873 -29.643  -0.208  1.00  0.00     0.000 C 
ENDROOT
BRANCH   1   2
ATOM      2  C   UNL     1      58.847 -30.127   1.256  1.00  0.00     0.000 C 
BRANCH   2   3
ATOM      3  C   UNL     1      60.002 -29.609   2.132  1.00  0.00     0.000 C 
BRANCH   3   4
ATOM      4  C   UNL     1      59.603 -28.549   3.178  1.00  0.00     0.000 C 
BRANCH   4   5
ATOM      5  C   UNL     1      58.088 -28.428   3.437  1.00  0.00     0.000 C 
BRANCH   5   6
ATOM      6  C   UNL     1      57.454 -27.096   2.989  1.00  0.00     0.000 C 
BRANCH   6   7
ATOM      7  C   UNL     1      56.936 -27.078   1.538  1.00  0.00     0.000 C 
BRANCH   7   8
ATOM      8  C   UNL     1      55.467 -27.517   1.422  1.00  0.00     0.000 C 
BRANCH   8   9
ATOM      9  C   UNL     1      55.330 -29.006   1.037  1.00  0.00     0.000 C 
BRANCH   9  10
ATOM     10  C   UNL     1      54.832 -29.896   2.193  1.00  0.00     0.006 C 
BRANCH  10  11
ATOM     11  C   UNL     1      54.744 -31.388   1.839  1.00  0.00     0.053 C 
BRANCH  11  12
ATOM     12  C   UNL     1      53.362 -31.779   1.409  1.00  0.00     0.041 C 
ATOM     13  O   UNL     1      53.180 -32.824   0.730  1.00  0.00    -0.550 OA
ATOM     14  O   UNL     1      52.273 -30.991   1.761  1.00  0.00    -0.550 OA
ENDBRANCH  11  12
ENDBRANCH  10  11
ENDBRANCH   9  10
ENDBRANCH   8   9
ENDBRANCH   7   8
ENDBRANCH   6   7
ENDBRANCH   5   6
ENDBRANCH   4   5
ENDBRANCH   3   4
ENDBRANCH   2   3
ENDBRANCH   1   2
BRANCH   1  15
ATOM     15  C   UNL     1      59.924 -28.546  -0.483  1.00  0.00     0.000 C 
BRANCH  15  16
ATOM     16  C   UNL     1      61.092 -29.051  -1.350  1.00  0.00     0.000 C 
BRANCH  16  17
ATOM     17  C   UNL     1      62.444 -28.980  -0.624  1.00  0.00     0.000 C 
BRANCH  17  18
ATOM     18  C   UNL     1      63.596 -28.571  -1.555  1.00  0.00    -0.000 C 
BRANCH  18  19
ATOM     19  C   UNL     1      63.653 -27.045  -1.720  1.00  0.00    -0.000 C 
BRANCH  19  20
ATOM     20  C   UNL     1      63.136 -26.572  -3.089  1.00  0.00    -0.000 C 
BRANCH  20  21
ATOM     21  C   UNL     1      61.795 -25.823  -2.989  1.00  0.00    -0.000 C 
BRANCH  21  22
ATOM     22  C   UNL     1      61.197 -25.478  -4.366  1.00  0.00    -0.000 C 
BRANCH  22  23
ATOM     23  C   UNL     1      59.660 -25.533  -4.443  1.00  0.00    -0.000 C 
BRANCH  23  24
ATOM     24  C   UNL     1      59.059 -26.672  -3.602  1.00  0.00    -0.000 C 
BRANCH  24  25
ATOM     25  C   UNL     1      57.940 -26.187  -2.669  1.00  0.00    -0.003 C 
ATOM     26  C   UNL     1      56.982 -27.308  -2.263  1.00  0.00     0.004 C 
ENDBRANCH  24  25
ENDBRANCH  23  24
ENDBRANCH  22  23
ENDBRANCH  21  22
ENDBRANCH  20  21
ENDBRANCH  19  20
ENDBRANCH  18  19
ENDBRANCH  17  18
ENDBRANCH  16  17
ENDBRANCH  15  16
ENDBRANCH   1  15
TORSDOF 22
ENDMDL
MODEL 4
REMARK VINA RESULT:    -4.511      3.275      7.075
REMARK INTER + INTRA:         -13.644
REMARK INTER:                 -10.250
REMARK INTRA:                  -3.394
REMARK UNBOUND:                -3.331
REMARK SMILES CCCCCCCCCCCCCCCCCCCCCCCC(=O)[O-]
REMARK SMILES IDX 13 1 14 2 15 3 16 4 17 5 18 6 19 7 20 8 21 9 22 10 23 11
REMARK SMILES IDX 24 12 25 13 26 14 12 15 11 16 10 17 9 18 8 19 7 20 6 21 5 22
REMARK SMILES IDX 4 23 3 24 2 25 1 26
REMARK H PARENT
REMARK Flexibility Score: inf
ROOT
ATOM      1  C   UNL     1      60.540 -25.021  -3.757  1.00  0.00     0.000 C 
ENDROOT
BRANCH   1   2
ATOM      2  C   UNL     1      61.355 -26.020  -2.912  1.00  0.00     0.000 C 
BRANCH   2   3
ATOM      3  C   UNL     1      62.880 -25.804  -2.941  1.00  0.00     0.000 C 
BRANCH   3   4
ATOM      4  C   UNL     1      63.700 -26.838  -2.144  1.00  0.00     0.000 C 
BRANCH   4   5
ATOM      5  C   UNL     1      63.033 -28.219  -1.990  1.00  0.00     0.000 C 
BRANCH   5   6
ATOM      6  C   UNL     1      63.013 -28.779  -0.553  1.00  0.00     0.000 C 
BRANCH   6   7
ATOM      7  C   UNL     1      61.620 -29.185  -0.034  1.00  0.00     0.000 C 
BRANCH   7   8
ATOM      8  C   UNL     1      60.523 -29.056  -1.104  1.00  0.00     0.000 C 
BRANCH   8   9
ATOM      9  C   UNL     1      59.105 -29.050  -0.490  1.00  0.00     0.000 C 
BRANCH   9  10
ATOM     10  C   UNL     1      59.023 -29.770   0.870  1.00  0.00     0.006 C 
BRANCH  10  11
ATOM     11  C   UNL     1      58.544 -28.874   2.023  1.00  0.00     0.053 C 
BRANCH  11  12
ATOM     12  C   UNL     1      59.547 -28.814   3.135  1.00  0.00     0.041 C 
ATOM     13  O   UNL     1      59.675 -27.763   3.819  1.00  0.00    -0.550 OA
ATOM     14  O   UNL     1      60.338 -29.920   3.422  1.00  0.00    -0.550 OA
ENDBRANCH  11  12
ENDBRANCH  10  11
ENDBRANCH   9  10
ENDBRANCH   8   9
ENDBRANCH   7   8
ENDBRANCH   6   7
ENDBRANCH   5   6
ENDBRANCH   4   5
ENDBRANCH   3   4
ENDBRANCH   2   3
ENDBRANCH   1   2
BRANCH   1  15
ATOM     15  C   UNL     1      60.725 -25.196  -5.280  1.00  0.00     0.000 C 
BRANCH  15  16
ATOM     16  C   UNL     1      59.402 -25.510  -6.003  1.00  0.00     0.000 C 
BRANCH  16  17
ATOM     17  C   UNL     1      58.401 -26.258  -5.110  1.00  0.00     0.000 C 
BRANCH  17  18
ATOM     18  C   UNL     1      57.078 -25.494  -4.936  1.00  0.00    -0.000 C 
BRANCH  18  19
ATOM     19  C   UNL     1      56.357 -25.933  -3.653  1.00  0.00    -0.000 C 
BRANCH  19  20
ATOM     20  C   UNL     1      56.726 -25.071  -2.434  1.00  0.00    -0.000 C 
BRANCH  20  21
ATOM     21  C   UNL     1      57.634 -25.813  -1.438  1.00  0.00    -0.000 C 
BRANCH  21  22
ATOM     22  C   UNL     1      56.978 -26.003  -0.057  1.00  0.00    -0.000 C 
BRANCH  22  23
ATOM     23  C   UNL     1      55.491 -26.404  -0.089  1.00  0.00    -0.000 C 
BRANCH  23  24
ATOM     24  C   UNL     1      55.207 -27.709   0.673  1.00  0.00    -0.000 C 
BRANCH  24  25
ATOM     25  C   UNL     1      55.478 -28.958  -0.179  1.00  0.00    -0.003 C 
ATOM     26  C   UNL     1      55.031 -28.790  -1.632  1.00  0.00     0.004 C 
ENDBRANCH  24  25
ENDBRANCH  23  24
ENDBRANCH  22  23
ENDBRANCH  21  22
ENDBRANCH  20  21
ENDBRANCH  19  20
ENDBRANCH  18  19
ENDBRANCH  17  18
ENDBRANCH  16  17
ENDBRANCH  15  16
ENDBRANCH   1  15
TORSDOF 22
ENDMDL
MODEL 5
REMARK VINA RESULT:    -4.492      1.881      4.967
REMARK INTER + INTRA:         -13.601
REMARK INTER:                  -9.977
REMARK INTRA:                  -3.624
REMARK UNBOUND:                -3.331
REMARK SMILES CCCCCCCCCCCCCCCCCCCCCCCC(=O)[O-]
REMARK SMILES IDX 13 1 14 2 15 3 16 4 17 5 18 6 19 7 20 8 21 9 22 10 23 11
REMARK SMILES IDX 24 12 25 13 26 14 12 15 11 16 10 17 9 18 8 19 7 20 6 21 5 22
REMARK SMILES IDX 4 23 3 24 2 25 1 26
REMARK H PARENT
REMARK Flexibility Score: inf
ROOT
ATOM      1  C   UNL     1      62.941 -28.706  -1.680  1.00  0.00     0.000 C 
ENDROOT
BRANCH   1   2
ATOM      2  C   UNL     1      63.630 -27.328  -1.651  1.00  0.00     0.000 C 
BRANCH   2   3
ATOM      3  C   UNL     1      63.145 -26.336  -2.725  1.00  0.00     0.000 C 
BRANCH   3   4
ATOM      4  C   UNL     1      61.617 -26.289  -2.925  1.00  0.00     0.000 C 
BRANCH   4   5
ATOM      5  C   UNL     1      61.114 -25.156  -3.842  1.00  0.00     0.000 C 
BRANCH   5   6
ATOM      6  C   UNL     1      60.229 -25.613  -5.019  1.00  0.00     0.000 C 
BRANCH   6   7
ATOM      7  C   UNL     1      60.676 -25.103  -6.403  1.00  0.00     0.000 C 
BRANCH   7   8
ATOM      8  C   UNL     1      59.554 -25.165  -7.452  1.00  0.00     0.000 C 
BRANCH   8   9
ATOM      9  C   UNL     1      58.478 -26.216  -7.097  1.00  0.00     0.000 C 
BRANCH   9  10
ATOM     10  C   UNL     1      57.102 -25.601  -6.776  1.00  0.00     0.006 C 
BRANCH  10  11
ATOM     11  C   UNL     1      57.092 -24.065  -6.759  1.00  0.00     0.053 C 
BRANCH  11  12
ATOM     12  C   UNL     1      57.183 -23.522  -5.365  1.00  0.00     0.041 C 
ATOM     13  O   UNL     1      56.232 -23.689  -4.555  1.00  0.00    -0.550 OA
ATOM     14  O   UNL     1      58.319 -22.835  -4.956  1.00  0.00    -0.550 OA
ENDBRANCH  11  12
ENDBRANCH  10  11
ENDBRANCH   9  10
ENDBRANCH   8   9
ENDBRANCH   7   8
ENDBRANCH   6   7
ENDBRANCH   5   6
ENDBRANCH   4   5
ENDBRANCH   3   4
ENDBRANCH   2   3
ENDBRANCH   1   2
BRANCH   1  15
ATOM     15  C   UNL     1      62.467 -29.196  -0.294  1.00  0.00     0.000 C 
BRANCH  15  16
ATOM     16  C   UNL     1      60.986 -28.869  -0.027  1.00  0.00     0.000 C 
BRANCH  16  17
ATOM     17  C   UNL     1      60.115 -28.989  -1.287  1.00  0.00     0.000 C 
BRANCH  17  18
ATOM     18  C   UNL     1      58.884 -28.071  -1.244  1.00  0.00    -0.000 C 
BRANCH  18  19
ATOM     19  C   UNL     1      58.250 -27.938  -2.637  1.00  0.00    -0.000 C 
BRANCH  19  20
ATOM     20  C   UNL     1      57.569 -26.577  -2.857  1.00  0.00    -0.000 C 
BRANCH  20  21
ATOM     21  C   UNL     1      57.992 -25.528  -1.814  1.00  0.00    -0.000 C 
BRANCH  21  22
ATOM     22  C   UNL     1      56.793 -24.863  -1.113  1.00  0.00    -0.000 C 
BRANCH  22  23
ATOM     23  C   UNL     1      55.761 -25.839  -0.516  1.00  0.00    -0.000 C 
BRANCH  23  24
ATOM     24  C   UNL     1      56.244 -26.498   0.787  1.00  0.00    -0.000 C 
BRANCH  24  25
ATOM     25  C   UNL     1      55.840 -27.976   0.884  1.00  0.00    -0.003 C 
ATOM     26  C   UNL     1      55.243 -28.511  -0.419  1.00  0.00     0.004 C 
ENDBRANCH  24  25
ENDBRANCH  23  24
ENDBRANCH  22  23
ENDBRANCH  21  22
ENDBRANCH  20  21
ENDBRANCH  19  20
ENDBRANCH  18  19
ENDBRANCH  17  18
ENDBRANCH  16  17
ENDBRANCH  15  16
ENDBRANCH   1  15
TORSDOF 22
ENDMDL
MODEL 6
REMARK VINA RESULT:    -4.491      2.228      3.648
REMARK INTER + INTRA:         -13.598
REMARK INTER:                 -10.402
REMARK INTRA:                  -3.196
REMARK UNBOUND:                -3.331
REMARK SMILES CCCCCCCCCCCCCCCCCCCCCCCC(=O)[O-]
REMARK SMILES IDX 13 1 14 2 15 3 16 4 17 5 18 6 19 7 20 8 21 9 22 10 23 11
REMARK SMILES IDX 24 12 25 13 26 14 12 15 11 16 10 17 9 18 8 19 7 20 6 21 5 22
REMARK SMILES IDX 4 23 3 24 2 25 1 26
REMARK H PARENT
REMARK Flexibility Score: inf
ROOT
ATOM      1  C   UNL     1      60.661 -26.678  -3.198  1.00  0.00     0.000 C 
ENDROOT
BRANCH   1   2
ATOM      2  C   UNL     1      59.285 -26.429  -2.548  1.00  0.00     0.000 C 
BRANCH   2   3
ATOM      3  C   UNL     1      58.089 -27.035  -3.307  1.00  0.00     0.000 C 
BRANCH   3   4
ATOM      4  C   UNL     1      57.022 -26.018  -3.758  1.00  0.00     0.000 C 
BRANCH   4   5
ATOM      5  C   UNL     1      57.427 -24.538  -3.610  1.00  0.00     0.000 C 
BRANCH   5   6
ATOM      6  C   UNL     1      57.768 -23.819  -4.930  1.00  0.00     0.000 C 
BRANCH   6   7
ATOM      7  C   UNL     1      59.196 -24.067  -5.454  1.00  0.00     0.000 C 
BRANCH   7   8
ATOM      8  C   UNL     1      59.250 -25.137  -6.557  1.00  0.00     0.000 C 
BRANCH   8   9
ATOM      9  C   UNL     1      60.685 -25.363  -7.083  1.00  0.00     0.000 C 
BRANCH   9  10
ATOM     10  C   UNL     1      60.765 -25.481  -8.617  1.00  0.00     0.006 C 
BRANCH  10  11
ATOM     11  C   UNL     1      61.298 -26.833  -9.113  1.00  0.00     0.053 C 
BRANCH  11  12
ATOM     12  C   UNL     1      62.543 -26.675  -9.932  1.00  0.00     0.041 C 
ATOM     13  O   UNL     1      63.567 -27.362  -9.672  1.00  0.00    -0.550 OA
ATOM     14  O   UNL     1      62.574 -25.771 -10.987  1.00  0.00    -0.550 OA
ENDBRANCH  11  12
ENDBRANCH  10  11
ENDBRANCH   9  10
ENDBRANCH   8   9
ENDBRANCH   7   8
ENDBRANCH   6   7
ENDBRANCH   5   6
ENDBRANCH   4   5
ENDBRANCH   3   4
ENDBRANCH   2   3
ENDBRANCH   1   2
BRANCH   1  15
ATOM     15  C   UNL     1      61.628 -25.480  -3.086  1.00  0.00     0.000 C 
BRANCH  15  16
ATOM     16  C   UNL     1      63.094 -25.918  -2.914  1.00  0.00     0.000 C 
BRANCH  16  17
ATOM     17  C   UNL     1      63.240 -27.434  -2.706  1.00  0.00     0.000 C 
BRANCH  17  18
ATOM     18  C   UNL     1      63.587 -27.802  -1.256  1.00  0.00    -0.000 C 
BRANCH  18  19
ATOM     19  C   UNL     1      62.863 -29.087  -0.827  1.00  0.00    -0.000 C 
BRANCH  19  20
ATOM     20  C   UNL     1      61.347 -28.893  -0.662  1.00  0.00    -0.000 C 
BRANCH  20  21
ATOM     21  C   UNL     1      60.850 -29.286   0.740  1.00  0.00    -0.000 C 
BRANCH  21  22
ATOM     22  C   UNL     1      59.349 -29.004   0.944  1.00  0.00    -0.000 C 
BRANCH  22  23
ATOM     23  C   UNL     1      58.431 -29.507  -0.186  1.00  0.00    -0.000 C 
BRANCH  23  24
ATOM     24  C   UNL     1      57.095 -28.748  -0.254  1.00  0.00    -0.000 C 
BRANCH  24  25
ATOM     25  C   UNL     1      57.069 -27.520   0.669  1.00  0.00    -0.003 C 
ATOM     26  C   UNL     1      56.480 -26.283  -0.011  1.00  0.00     0.004 C 
ENDBRANCH  24  25
ENDBRANCH  23  24
ENDBRANCH  22  23
ENDBRANCH  21  22
ENDBRANCH  20  21
ENDBRANCH  19  20
ENDBRANCH  18  19
ENDBRANCH  17  18
ENDBRANCH  16  17
ENDBRANCH  15  16
ENDBRANCH   1  15
TORSDOF 22
ENDMDL
MODEL 7
REMARK VINA RESULT:    -4.490      3.968      8.627
REMARK INTER + INTRA:         -13.597
REMARK INTER:                 -10.728
REMARK INTRA:                  -2.868
REMARK UNBOUND:                -3.331
REMARK SMILES CCCCCCCCCCCCCCCCCCCCCCCC(=O)[O-]
REMARK SMILES IDX 13 1 14 2 15 3 16 4 17 5 18 6 19 7 20 8 21 9 22 10 23 11
REMARK SMILES IDX 24 12 25 13 26 14 12 15 11 16 10 17 9 18 8 19 7 20 6 21 5 22
REMARK SMILES IDX 4 23 3 24 2 25 1 26
REMARK H PARENT
REMARK Flexibility Score: inf
ROOT
ATOM      1  C   UNL     1      62.938 -25.848  -3.612  1.00  0.00     0.000 C 
ENDROOT
BRANCH   1   2
ATOM      2  C   UNL     1      63.313 -26.498  -2.265  1.00  0.00     0.000 C 
BRANCH   2   3
ATOM      3  C   UNL     1      63.359 -28.037  -2.276  1.00  0.00     0.000 C 
BRANCH   3   4
ATOM      4  C   UNL     1      63.342 -28.699  -0.884  1.00  0.00     0.000 C 
BRANCH   4   5
ATOM      5  C   UNL     1      61.941 -28.900  -0.275  1.00  0.00     0.000 C 
BRANCH   5   6
ATOM      6  C   UNL     1      60.791 -28.992  -1.298  1.00  0.00     0.000 C 
BRANCH   6   7
ATOM      7  C   UNL     1      59.376 -28.966  -0.689  1.00  0.00     0.000 C 
BRANCH   7   8
ATOM      8  C   UNL     1      59.221 -29.927   0.502  1.00  0.00     0.000 C 
BRANCH   8   9
ATOM      9  C   UNL     1      58.229 -29.393   1.558  1.00  0.00     0.000 C 
BRANCH   9  10
ATOM     10  C   UNL     1      58.911 -28.630   2.711  1.00  0.00     0.006 C 
BRANCH  10  11
ATOM     11  C   UNL     1      60.355 -29.076   2.986  1.00  0.00     0.053 C 
BRANCH  11  12
ATOM     12  C   UNL     1      60.506 -29.661   4.358  1.00  0.00     0.041 C 
ATOM     13  O   UNL     1      60.620 -28.907   5.361  1.00  0.00    -0.550 OA
ATOM     14  O   UNL     1      60.515 -31.039   4.531  1.00  0.00    -0.550 OA
ENDBRANCH  11  12
ENDBRANCH  10  11
ENDBRANCH   9  10
ENDBRANCH   8   9
ENDBRANCH   7   8
ENDBRANCH   6   7
ENDBRANCH   5   6
ENDBRANCH   4   5
ENDBRANCH   3   4
ENDBRANCH   2   3
ENDBRANCH   1   2
BRANCH   1  15
ATOM     15  C   UNL     1      61.416 -25.722  -3.841  1.00  0.00     0.000 C 
BRANCH  15  16
ATOM     16  C   UNL     1      60.637 -25.504  -2.530  1.00  0.00     0.000 C 
BRANCH  16  17
ATOM     17  C   UNL     1      59.137 -25.802  -2.675  1.00  0.00     0.000 C 
BRANCH  17  18
ATOM     18  C   UNL     1      58.849 -26.888  -3.724  1.00  0.00    -0.000 C 
BRANCH  18  19
ATOM     19  C   UNL     1      57.930 -26.350  -4.832  1.00  0.00    -0.000 C 
BRANCH  19  20
ATOM     20  C   UNL     1      57.872 -24.814  -4.867  1.00  0.00    -0.000 C 
BRANCH  20  21
ATOM     21  C   UNL     1      58.641 -24.220  -6.061  1.00  0.00    -0.000 C 
BRANCH  21  22
ATOM     22  C   UNL     1      59.163 -25.295  -7.033  1.00  0.00    -0.000 C 
BRANCH  22  23
ATOM     23  C   UNL     1      60.651 -25.167  -7.411  1.00  0.00    -0.000 C 
BRANCH  23  24
ATOM     24  C   UNL     1      61.037 -26.034  -8.621  1.00  0.00    -0.000 C 
BRANCH  24  25
ATOM     25  C   UNL     1      61.462 -25.193  -9.834  1.00  0.00    -0.003 C 
ATOM     26  C   UNL     1      60.876 -23.780  -9.807  1.00  0.00     0.004 C 
ENDBRANCH  24  25
ENDBRANCH  23  24
ENDBRANCH  22  23
ENDBRANCH  21  22
ENDBRANCH  20  21
ENDBRANCH  19  20
ENDBRANCH  18  19
ENDBRANCH  17  18
ENDBRANCH  16  17
ENDBRANCH  15  16
ENDBRANCH   1  15
TORSDOF 22
ENDMDL
MODEL 8
REMARK VINA RESULT:    -4.467      1.419      5.766
REMARK INTER + INTRA:         -13.543
REMARK INTER:                 -10.123
REMARK INTRA:                  -3.420
REMARK UNBOUND:                -3.331
REMARK SMILES CCCCCCCCCCCCCCCCCCCCCCCC(=O)[O-]
REMARK SMILES IDX 13 1 14 2 15 3 16 4 17 5 18 6 19 7 20 8 21 9 22 10 23 11
REMARK SMILES IDX 24 12 25 13 26 14 12 15 11 16 10 17 9 18 8 19 7 20 6 21 5 22
REMARK SMILES IDX 4 23 3 24 2 25 1 26
REMARK H PARENT
REMARK Flexibility Score: inf
ROOT
ATOM      1  C   UNL     1      60.071 -29.545   0.168  1.00  0.00     0.000 C 
ENDROOT
BRANCH   1   2
ATOM      2  C   UNL     1      60.891 -28.657  -0.789  1.00  0.00     0.000 C 
BRANCH   2   3
ATOM      3  C   UNL     1      62.416 -28.857  -0.713  1.00  0.00     0.000 C 
BRANCH   3   4
ATOM      4  C   UNL     1      63.194 -28.419  -1.970  1.00  0.00     0.000 C 
BRANCH   4   5
ATOM      5  C   UNL     1      63.548 -26.920  -2.028  1.00  0.00     0.000 C 
BRANCH   5   6
ATOM      6  C   UNL     1      62.862 -26.130  -3.161  1.00  0.00     0.000 C 
BRANCH   6   7
ATOM      7  C   UNL     1      61.411 -25.703  -2.868  1.00  0.00     0.000 C 
BRANCH   7   8
ATOM      8  C   UNL     1      60.470 -25.926  -4.063  1.00  0.00     0.000 C 
BRANCH   8   9
ATOM      9  C   UNL     1      61.012 -25.287  -5.361  1.00  0.00     0.000 C 
BRANCH   9  10
ATOM     10  C   UNL     1      60.139 -24.131  -5.887  1.00  0.00     0.006 C 
BRANCH  10  11
ATOM     11  C   UNL     1      58.867 -23.883  -5.063  1.00  0.00     0.053 C 
BRANCH  11  12
ATOM     12  C   UNL     1      57.651 -23.780  -5.932  1.00  0.00     0.041 C 
ATOM     13  O   UNL     1      56.908 -22.764  -5.869  1.00  0.00    -0.550 OA
ATOM     14  O   UNL     1      57.337 -24.805  -6.818  1.00  0.00    -0.550 OA
ENDBRANCH  11  12
ENDBRANCH  10  11
ENDBRANCH   9  10
ENDBRANCH   8   9
ENDBRANCH   7   8
ENDBRANCH   6   7
ENDBRANCH   5   6
ENDBRANCH   4   5
ENDBRANCH   3   4
ENDBRANCH   2   3
ENDBRANCH   1   2
BRANCH   1  15
ATOM     15  C   UNL     1      60.390 -29.313   1.661  1.00  0.00     0.000 C 
BRANCH  15  16
ATOM     16  C   UNL     1      59.121 -29.164   2.521  1.00  0.00     0.000 C 
BRANCH  16  17
ATOM     17  C   UNL     1      58.059 -28.269   1.862  1.00  0.00     0.000 C 
BRANCH  17  18
ATOM     18  C   UNL     1      56.641 -28.847   1.984  1.00  0.00    -0.000 C 
BRANCH  18  19
ATOM     19  C   UNL     1      56.202 -29.507   0.668  1.00  0.00    -0.000 C 
BRANCH  19  20
ATOM     20  C   UNL     1      55.982 -28.492  -0.466  1.00  0.00    -0.000 C 
BRANCH  20  21
ATOM     21  C   UNL     1      56.779 -28.840  -1.736  1.00  0.00    -0.000 C 
BRANCH  21  22
ATOM     22  C   UNL     1      57.650 -27.672  -2.236  1.00  0.00    -0.000 C 
BRANCH  22  23
ATOM     23  C   UNL     1      57.791 -26.495  -1.252  1.00  0.00    -0.000 C 
BRANCH  23  24
ATOM     24  C   UNL     1      57.348 -25.152  -1.858  1.00  0.00    -0.000 C 
BRANCH  24  25
ATOM     25  C   UNL     1      55.967 -25.235  -2.524  1.00  0.00    -0.003 C 
ATOM     26  C   UNL     1      55.336 -23.860  -2.746  1.00  0.00     0.004 C 
ENDBRANCH  24  25
ENDBRANCH  23  24
ENDBRANCH  22  23
ENDBRANCH  21  22
ENDBRANCH  20  21
ENDBRANCH  19  20
ENDBRANCH  18  19
ENDBRANCH  17  18
ENDBRANCH  16  17
ENDBRANCH  15  16
ENDBRANCH   1  15
TORSDOF 22
ENDMDL
MODEL 9
REMARK VINA RESULT:    -4.453      1.101      4.042
REMARK INTER + INTRA:         -13.512
REMARK INTER:                  -9.616
REMARK INTRA:                  -3.895
REMARK UNBOUND:                -3.331
REMARK SMILES CCCCCCCCCCCCCCCCCCCCCCCC(=O)[O-]
REMARK SMILES IDX 13 1 14 2 15 3 16 4 17 5 18 6 19 7 20 8 21 9 22 10 23 11
REMARK SMILES IDX 24 12 25 13 26 14 12 15 11 16 10 17 9 18 8 19 7 20 6 21 5 22
REMARK SMILES IDX 4 23 3 24 2 25 1 26
REMARK H PARENT
REMARK Flexibility Score: inf
ROOT
ATOM      1  C   UNL     1      57.865 -28.479   3.089  1.00  0.00     0.000 C 
ENDROOT
BRANCH   1   2
ATOM      2  C   UNL     1      56.726 -27.990   2.173  1.00  0.00     0.000 C 
BRANCH   2   3
ATOM      3  C   UNL     1      57.006 -26.666   1.438  1.00  0.00     0.000 C 
BRANCH   3   4
ATOM      4  C   UNL     1      56.999 -26.761  -0.101  1.00  0.00     0.000 C 
BRANCH   4   5
ATOM      5  C   UNL     1      56.188 -27.938  -0.678  1.00  0.00     0.000 C 
BRANCH   5   6
ATOM      6  C   UNL     1      55.416 -27.626  -1.976  1.00  0.00     0.000 C 
BRANCH   6   7
ATOM      7  C   UNL     1      55.307 -26.128  -2.322  1.00  0.00     0.000 C 
BRANCH   7   8
ATOM      8  C   UNL     1      55.978 -25.774  -3.659  1.00  0.00     0.000 C 
BRANCH   8   9
ATOM      9  C   UNL     1      56.944 -24.576  -3.528  1.00  0.00     0.000 C 
BRANCH   9  10
ATOM     10  C   UNL     1      57.150 -23.806  -4.847  1.00  0.00     0.006 C 
BRANCH  10  11
ATOM     11  C   UNL     1      58.601 -23.811  -5.353  1.00  0.00     0.053 C 
BRANCH  11  12
ATOM     12  C   UNL     1      58.819 -24.849  -6.411  1.00  0.00     0.041 C 
ATOM     13  O   UNL     1      59.378 -24.542  -7.498  1.00  0.00    -0.550 OA
ATOM     14  O   UNL     1      58.409 -26.160  -6.198  1.00  0.00    -0.550 OA
ENDBRANCH  11  12
ENDBRANCH  10  11
ENDBRANCH   9  10
ENDBRANCH   8   9
ENDBRANCH   7   8
ENDBRANCH   6   7
ENDBRANCH   5   6
ENDBRANCH   4   5
ENDBRANCH   3   4
ENDBRANCH   2   3
ENDBRANCH   1   2
BRANCH   1  15
ATOM     15  C   UNL     1      59.105 -28.991   2.324  1.00  0.00     0.000 C 
BRANCH  15  16
ATOM     16  C   UNL     1      58.740 -29.982   1.203  1.00  0.00     0.000 C 
BRANCH  16  17
ATOM     17  C   UNL     1      59.457 -29.671  -0.120  1.00  0.00     0.000 C 
BRANCH  17  18
ATOM     18  C   UNL     1      60.767 -28.894   0.085  1.00  0.00    -0.000 C 
BRANCH  18  19
ATOM     19  C   UNL     1      61.768 -29.199  -1.039  1.00  0.00    -0.000 C 
BRANCH  19  20
ATOM     20  C   UNL     1      63.209 -28.802  -0.681  1.00  0.00    -0.000 C 
BRANCH  20  21
ATOM     21  C   UNL     1      63.638 -27.476  -1.333  1.00  0.00    -0.000 C 
BRANCH  21  22
ATOM     22  C   UNL     1      62.990 -27.250  -2.713  1.00  0.00    -0.000 C 
BRANCH  22  23
ATOM     23  C   UNL     1      62.458 -25.825  -2.959  1.00  0.00    -0.000 C 
BRANCH  23  24
ATOM     24  C   UNL     1      61.027 -25.811  -3.524  1.00  0.00    -0.000 C 
BRANCH  24  25
ATOM     25  C   UNL     1      59.992 -26.336  -2.518  1.00  0.00    -0.003 C 
ATOM     26  C   UNL     1      59.193 -27.522  -3.059  1.00  0.00     0.004 C 
ENDBRANCH  24  25
ENDBRANCH  23  24
ENDBRANCH  22  23
ENDBRANCH  21  22
ENDBRANCH  20  21
ENDBRANCH  19  20
ENDBRANCH  18  19
ENDBRANCH  17  18
ENDBRANCH  16  17
ENDBRANCH  15  16
ENDBRANCH   1  15
TORSDOF 22
ENDMDL
