MODEL 1
REMARK VINA RESULT:    -5.916      0.000      0.000
REMARK INTER + INTRA:          -6.203
REMARK INTER:                  -6.435
REMARK INTRA:                   0.232
REMARK UNBOUND:                 0.232
REMARK SMILES C[C@@H]1[C@H](C)CC[C@]2(C(=O)[O-])CC[C@]3(C)C(=CC[C@@H]4[C@]5(C)CC[C@@H](O)C(C)(C)[C@H]5CC[C@@]43C)[C@@H]12
REMARK SMILES IDX 7 1 6 2 11 3 33 4 5 5 12 6 15 7 2 8 3 9 13 10 16 11 1 12
REMARK SMILES IDX 4 13 14 14 31 15 17 16 18 17 30 18 32 19 19 20 29 21 28 22
REMARK SMILES IDX 21 23 20 24 25 25 22 26 23 27 26 28 27 29 8 30 9 31 10 32
REMARK SMILES IDX 24 33
REMARK H PARENT 24 34
REMARK Flexibility Score: inf
ROOT
ATOM      1  C   UNL     1     103.474  85.168  18.004  1.00  0.00     0.017 C 
ATOM      2  C   UNL     1     103.980  85.634  16.611  1.00  0.00     0.014 C 
ATOM      3  C   UNL     1     104.492  85.663  19.082  1.00  0.00     0.014 C 
ATOM      4  C   UNL     1     103.472  83.613  18.090  1.00  0.00     0.030 C 
ATOM      5  C   UNL     1     103.222  84.968  15.461  1.00  0.00     0.004 C 
ATOM      6  C   UNL     1     104.106  85.224  20.504  1.00  0.00     0.013 C 
ATOM      7  C   UNL     1     103.041  83.201  19.519  1.00  0.00    -0.063 C 
ATOM      8  C   UNL     1     102.826  82.863  16.873  1.00  0.00    -0.003 C 
ATOM      9  C   UNL     1     103.328  83.433  15.510  1.00  0.00    -0.011 C 
ATOM     10  C   UNL     1     103.907  83.675  20.698  1.00  0.00    -0.006 C 
ATOM     11  C   UNL     1     101.926  82.502  19.717  1.00  0.00    -0.027 C 
ATOM     12  C   UNL     1     103.087  81.337  16.951  1.00  0.00     0.008 C 
ATOM     13  C   UNL     1     104.750  82.968  15.119  1.00  0.00     0.008 C 
ATOM     14  C   UNL     1     105.279  82.917  20.534  1.00  0.00     0.017 C 
ATOM     15  C   UNL     1     103.288  83.388  22.185  1.00  0.00    -0.020 C 
ATOM     16  C   UNL     1     101.525  81.874  21.013  1.00  0.00     0.032 C 
ATOM     17  C   UNL     1     102.541  81.959  22.215  1.00  0.00     0.006 C 
ATOM     18  C   UNL     1     102.220  84.432  22.634  1.00  0.00     0.008 C 
ATOM     19  C   UNL     1     104.470  83.561  23.228  1.00  0.00     0.012 C 
ATOM     20  C   UNL     1     101.765  81.570  23.582  1.00  0.00    -0.025 C 
ATOM     21  C   UNL     1     101.641  84.129  24.035  1.00  0.00     0.005 C 
ATOM     22  C   UNL     1     100.873  82.797  24.032  1.00  0.00     0.003 C 
ATOM     23  C   UNL     1     100.832  80.282  23.420  1.00  0.00     0.010 C 
ATOM     24  C   UNL     1     102.812  81.175  24.676  1.00  0.00     0.012 C 
ATOM     25  C   UNL     1      99.935  82.523  25.283  1.00  0.00    -0.006 C 
ATOM     26  C   UNL     1      99.348  80.526  23.700  1.00  0.00     0.033 C 
ATOM     27  C   UNL     1      99.132  81.160  25.081  1.00  0.00     0.120 C 
ATOM     28  C   UNL     1     100.728  82.527  26.621  1.00  0.00     0.014 C 
ATOM     29  C   UNL     1      98.876  83.669  25.388  1.00  0.00     0.014 C 
ENDROOT
BRANCH   1  30
ATOM     30  C   UNL     1     102.082  85.771  18.226  1.00  0.00     0.048 C 
ATOM     31  O   UNL     1     101.068  85.188  17.792  1.00  0.00    -0.550 OA
ATOM     32  O   UNL     1     101.963  87.093  18.663  1.00  0.00    -0.550 OA
ENDBRANCH   1  30
BRANCH  27  33
ATOM     33  O   UNL     1      99.435  80.199  26.054  1.00  0.00    -0.393 OA
ATOM     34  H   UNL     1      99.176  79.317  25.674  1.00  0.00     0.210 HD
ENDBRANCH  27  33
TORSDOF 2
ENDMDL
MODEL 2
REMARK VINA RESULT:    -5.880      2.298      3.827
REMARK INTER + INTRA:          -6.164
REMARK INTER:                  -6.388
REMARK INTRA:                   0.224
REMARK UNBOUND:                 0.232
REMARK SMILES C[C@@H]1[C@H](C)CC[C@]2(C(=O)[O-])CC[C@]3(C)C(=CC[C@@H]4[C@]5(C)CC[C@@H](O)C(C)(C)[C@H]5CC[C@@]43C)[C@@H]12
REMARK SMILES IDX 7 1 6 2 11 3 33 4 5 5 12 6 15 7 2 8 3 9 13 10 16 11 1 12
REMARK SMILES IDX 4 13 14 14 31 15 17 16 18 17 30 18 32 19 19 20 29 21 28 22
REMARK SMILES IDX 21 23 20 24 25 25 22 26 23 27 26 28 27 29 8 30 9 31 10 32
REMARK SMILES IDX 24 33
REMARK H PARENT 24 34
REMARK Flexibility Score: inf
ROOT
ATOM      1  C   UNL     1     103.284  86.028  16.205  1.00  0.00     0.017 C 
ATOM      2  C   UNL     1     103.345  86.822  14.872  1.00  0.00     0.014 C 
ATOM      3  C   UNL     1     102.544  86.909  17.264  1.00  0.00     0.014 C 
ATOM      4  C   UNL     1     104.718  85.791  16.763  1.00  0.00     0.030 C 
ATOM      5  C   UNL     1     104.290  86.183  13.853  1.00  0.00     0.004 C 
ATOM      6  C   UNL     1     102.458  86.230  18.640  1.00  0.00     0.013 C 
ATOM      7  C   UNL     1     104.600  85.070  18.130  1.00  0.00    -0.063 C 
ATOM      8  C   UNL     1     105.773  85.259  15.731  1.00  0.00    -0.003 C 
ATOM      9  C   UNL     1     105.726  86.060  14.392  1.00  0.00    -0.011 C 
ATOM     10  C   UNL     1     103.835  85.784  19.257  1.00  0.00    -0.006 C 
ATOM     11  C   UNL     1     105.104  83.851  18.300  1.00  0.00    -0.027 C 
ATOM     12  C   UNL     1     107.204  85.285  16.327  1.00  0.00     0.008 C 
ATOM     13  C   UNL     1     106.405  87.447  14.465  1.00  0.00     0.008 C 
ATOM     14  C   UNL     1     104.711  87.042  19.620  1.00  0.00     0.017 C 
ATOM     15  C   UNL     1     103.566  84.888  20.599  1.00  0.00    -0.020 C 
ATOM     16  C   UNL     1     105.236  83.152  19.615  1.00  0.00     0.032 C 
ATOM     17  C   UNL     1     104.840  83.953  20.914  1.00  0.00     0.006 C 
ATOM     18  C   UNL     1     102.350  83.919  20.476  1.00  0.00     0.008 C 
ATOM     19  C   UNL     1     103.154  85.890  21.758  1.00  0.00     0.012 C 
ATOM     20  C   UNL     1     104.694  82.909  22.145  1.00  0.00    -0.025 C 
ATOM     21  C   UNL     1     102.127  83.075  21.752  1.00  0.00     0.005 C 
ATOM     22  C   UNL     1     103.321  82.137  22.001  1.00  0.00     0.003 C 
ATOM     23  C   UNL     1     105.885  81.845  22.199  1.00  0.00     0.010 C 
ATOM     24  C   UNL     1     104.789  83.690  23.497  1.00  0.00     0.012 C 
ATOM     25  C   UNL     1     103.091  80.973  23.055  1.00  0.00    -0.006 C 
ATOM     26  C   UNL     1     105.445  80.385  22.079  1.00  0.00     0.033 C 
ATOM     27  C   UNL     1     104.376  80.031  23.122  1.00  0.00     0.120 C 
ATOM     28  C   UNL     1     102.710  81.522  24.460  1.00  0.00     0.014 C 
ATOM     29  C   UNL     1     101.894  80.085  22.582  1.00  0.00     0.014 C 
ENDROOT
BRANCH   1  30
ATOM     30  C   UNL     1     102.533  84.718  15.940  1.00  0.00     0.048 C 
ATOM     31  O   UNL     1     103.153  83.703  15.563  1.00  0.00    -0.550 OA
ATOM     32  O   UNL     1     101.138  84.726  15.850  1.00  0.00    -0.550 OA
ENDBRANCH   1  30
BRANCH  27  33
ATOM     33  O   UNL     1     104.984  80.025  24.384  1.00  0.00    -0.393 OA
ATOM     34  H   UNL     1     105.572  80.827  24.421  1.00  0.00     0.210 HD
ENDBRANCH  27  33
TORSDOF 2
ENDMDL
MODEL 3
REMARK VINA RESULT:    -5.689      2.302      8.056
REMARK INTER + INTRA:          -5.956
REMARK INTER:                  -6.199
REMARK INTRA:                   0.243
REMARK UNBOUND:                 0.232
REMARK SMILES C[C@@H]1[C@H](C)CC[C@]2(C(=O)[O-])CC[C@]3(C)C(=CC[C@@H]4[C@]5(C)CC[C@@H](O)C(C)(C)[C@H]5CC[C@@]43C)[C@@H]12
REMARK SMILES IDX 7 1 6 2 11 3 33 4 5 5 12 6 15 7 2 8 3 9 13 10 16 11 1 12
REMARK SMILES IDX 4 13 14 14 31 15 17 16 18 17 30 18 32 19 19 20 29 21 28 22
REMARK SMILES IDX 21 23 20 24 25 25 22 26 23 27 26 28 27 29 8 30 9 31 10 32
REMARK SMILES IDX 24 33
REMARK H PARENT 24 34
REMARK Flexibility Score: inf
ROOT
ATOM      1  C   UNL     1     102.309  81.932  22.732  1.00  0.00     0.017 C 
ATOM      2  C   UNL     1     102.038  81.343  24.144  1.00  0.00     0.014 C 
ATOM      3  C   UNL     1     101.429  81.154  21.702  1.00  0.00     0.014 C 
ATOM      4  C   UNL     1     103.789  81.685  22.315  1.00  0.00     0.030 C 
ATOM      5  C   UNL     1     103.048  81.829  25.185  1.00  0.00     0.004 C 
ATOM      6  C   UNL     1     101.646  81.634  20.258  1.00  0.00     0.013 C 
ATOM      7  C   UNL     1     103.987  82.215  20.873  1.00  0.00    -0.063 C 
ATOM      8  C   UNL     1     104.871  82.040  23.393  1.00  0.00    -0.003 C 
ATOM      9  C   UNL     1     104.495  81.475  24.798  1.00  0.00    -0.011 C 
ATOM     10  C   UNL     1     103.136  81.593  19.753  1.00  0.00    -0.006 C 
ATOM     11  C   UNL     1     104.833  83.212  20.626  1.00  0.00    -0.027 C 
ATOM     12  C   UNL     1     106.275  81.538  22.966  1.00  0.00     0.008 C 
ATOM     13  C   UNL     1     104.748  79.958  24.955  1.00  0.00     0.008 C 
ATOM     14  C   UNL     1     103.637  80.104  19.630  1.00  0.00     0.017 C 
ATOM     15  C   UNL     1     103.239  82.335  18.298  1.00  0.00    -0.020 C 
ATOM     16  C   UNL     1     105.259  83.660  19.265  1.00  0.00     0.032 C 
ATOM     17  C   UNL     1     104.749  82.829  18.027  1.00  0.00     0.006 C 
ATOM     18  C   UNL     1     102.348  83.610  18.178  1.00  0.00     0.008 C 
ATOM     19  C   UNL     1     102.644  81.338  17.219  1.00  0.00     0.012 C 
ATOM     20  C   UNL     1     105.003  83.694  16.680  1.00  0.00    -0.025 C 
ATOM     21  C   UNL     1     102.475  84.300  16.801  1.00  0.00     0.005 C 
ATOM     22  C   UNL     1     103.904  84.827  16.584  1.00  0.00     0.003 C 
ATOM     23  C   UNL     1     106.450  84.369  16.642  1.00  0.00     0.010 C 
ATOM     24  C   UNL     1     104.970  82.739  15.440  1.00  0.00     0.012 C 
ATOM     25  C   UNL     1     104.100  85.854  15.389  1.00  0.00    -0.006 C 
ATOM     26  C   UNL     1     106.442  85.897  16.551  1.00  0.00     0.033 C 
ATOM     27  C   UNL     1     105.603  86.386  15.362  1.00  0.00     0.120 C 
ATOM     28  C   UNL     1     103.683  85.245  14.020  1.00  0.00     0.014 C 
ATOM     29  C   UNL     1     103.177  87.095  15.625  1.00  0.00     0.014 C 
ENDROOT
BRANCH   1  30
ATOM     30  C   UNL     1     101.950  83.422  22.767  1.00  0.00     0.048 C 
ATOM     31  O   UNL     1     102.831  84.276  22.990  1.00  0.00    -0.550 OA
ATOM     32  O   UNL     1     100.609  83.809  22.824  1.00  0.00    -0.550 OA
ENDBRANCH   1  30
BRANCH  27  33
ATOM     33  O   UNL     1     106.280  86.050  14.182  1.00  0.00    -0.393 OA
ATOM     34  H   UNL     1     105.583  85.824  13.508  1.00  0.00     0.210 HD
ENDBRANCH  27  33
TORSDOF 2
ENDMDL
MODEL 4
REMARK VINA RESULT:    -5.632      3.757      8.591
REMARK INTER + INTRA:          -5.894
REMARK INTER:                  -6.118
REMARK INTRA:                   0.224
REMARK UNBOUND:                 0.232
REMARK SMILES C[C@@H]1[C@H](C)CC[C@]2(C(=O)[O-])CC[C@]3(C)C(=CC[C@@H]4[C@]5(C)CC[C@@H](O)C(C)(C)[C@H]5CC[C@@]43C)[C@@H]12
REMARK SMILES IDX 7 1 6 2 11 3 33 4 5 5 12 6 15 7 2 8 3 9 13 10 16 11 1 12
REMARK SMILES IDX 4 13 14 14 31 15 17 16 18 17 30 18 32 19 19 20 29 21 28 22
REMARK SMILES IDX 21 23 20 24 25 25 22 26 23 27 26 28 27 29 8 30 9 31 10 32
REMARK SMILES IDX 24 33
REMARK H PARENT 24 34
REMARK Flexibility Score: inf
ROOT
ATOM      1  C   UNL     1     103.200  83.072  19.419  1.00  0.00     0.017 C 
ATOM      2  C   UNL     1     102.431  81.757  19.726  1.00  0.00     0.014 C 
ATOM      3  C   UNL     1     102.151  84.201  19.160  1.00  0.00     0.014 C 
ATOM      4  C   UNL     1     104.018  82.928  18.102  1.00  0.00     0.030 C 
ATOM      5  C   UNL     1     103.343  80.530  19.715  1.00  0.00     0.004 C 
ATOM      6  C   UNL     1     102.807  85.546  18.808  1.00  0.00     0.013 C 
ATOM      7  C   UNL     1     104.699  84.285  17.796  1.00  0.00    -0.063 C 
ATOM      8  C   UNL     1     104.875  81.620  17.970  1.00  0.00    -0.003 C 
ATOM      9  C   UNL     1     104.056  80.351  18.363  1.00  0.00    -0.011 C 
ATOM     10  C   UNL     1     103.796  85.512  17.585  1.00  0.00    -0.006 C 
ATOM     11  C   UNL     1     106.025  84.389  17.767  1.00  0.00    -0.027 C 
ATOM     12  C   UNL     1     105.453  81.469  16.540  1.00  0.00     0.008 C 
ATOM     13  C   UNL     1     103.062  79.882  17.276  1.00  0.00     0.008 C 
ATOM     14  C   UNL     1     103.013  85.225  16.248  1.00  0.00     0.017 C 
ATOM     15  C   UNL     1     104.576  86.946  17.475  1.00  0.00    -0.020 C 
ATOM     16  C   UNL     1     106.783  85.582  17.282  1.00  0.00     0.032 C 
ATOM     17  C   UNL     1     105.957  86.773  16.663  1.00  0.00     0.006 C 
ATOM     18  C   UNL     1     104.971  87.556  18.855  1.00  0.00     0.008 C 
ATOM     19  C   UNL     1     103.553  87.992  16.863  1.00  0.00     0.012 C 
ATOM     20  C   UNL     1     106.916  88.076  16.565  1.00  0.00    -0.025 C 
ATOM     21  C   UNL     1     105.719  88.902  18.722  1.00  0.00     0.005 C 
ATOM     22  C   UNL     1     107.066  88.709  18.007  1.00  0.00     0.003 C 
ATOM     23  C   UNL     1     108.369  87.734  15.994  1.00  0.00     0.010 C 
ATOM     24  C   UNL     1     106.306  89.089  15.540  1.00  0.00     0.012 C 
ATOM     25  C   UNL     1     108.093  89.916  18.106  1.00  0.00    -0.006 C 
ATOM     26  C   UNL     1     109.523  88.061  16.942  1.00  0.00     0.033 C 
ATOM     27  C   UNL     1     109.472  89.524  17.409  1.00  0.00     0.120 C 
ATOM     28  C   UNL     1     107.508  91.232  17.518  1.00  0.00     0.014 C 
ATOM     29  C   UNL     1     108.404  90.199  19.612  1.00  0.00     0.014 C 
ENDROOT
BRANCH   1  30
ATOM     30  C   UNL     1     104.086  83.394  20.629  1.00  0.00     0.048 C 
ATOM     31  O   UNL     1     105.242  82.933  20.701  1.00  0.00    -0.550 OA
ATOM     32  O   UNL     1     103.517  83.966  21.769  1.00  0.00    -0.550 OA
ENDBRANCH   1  30
BRANCH  27  33
ATOM     33  O   UNL     1     109.783  90.341  16.315  1.00  0.00    -0.393 OA
ATOM     34  H   UNL     1     109.263  89.993  15.541  1.00  0.00     0.210 HD
ENDBRANCH  27  33
TORSDOF 2
ENDMDL
MODEL 5
REMARK VINA RESULT:    -5.508      2.165      4.199
REMARK INTER + INTRA:          -5.759
REMARK INTER:                  -5.984
REMARK INTRA:                   0.225
REMARK UNBOUND:                 0.232
REMARK SMILES C[C@@H]1[C@H](C)CC[C@]2(C(=O)[O-])CC[C@]3(C)C(=CC[C@@H]4[C@]5(C)CC[C@@H](O)C(C)(C)[C@H]5CC[C@@]43C)[C@@H]12
REMARK SMILES IDX 7 1 6 2 11 3 33 4 5 5 12 6 15 7 2 8 3 9 13 10 16 11 1 12
REMARK SMILES IDX 4 13 14 14 31 15 17 16 18 17 30 18 32 19 19 20 29 21 28 22
REMARK SMILES IDX 21 23 20 24 25 25 22 26 23 27 26 28 27 29 8 30 9 31 10 32
REMARK SMILES IDX 24 33
REMARK H PARENT 24 34
REMARK Flexibility Score: inf
ROOT
ATOM      1  C   UNL     1     105.153  86.032  15.446  1.00  0.00     0.017 C 
ATOM      2  C   UNL     1     105.377  86.867  14.156  1.00  0.00     0.014 C 
ATOM      3  C   UNL     1     106.060  84.761  15.369  1.00  0.00     0.014 C 
ATOM      4  C   UNL     1     103.685  85.515  15.512  1.00  0.00     0.030 C 
ATOM      5  C   UNL     1     104.340  87.978  13.990  1.00  0.00     0.004 C 
ATOM      6  C   UNL     1     105.889  83.838  16.587  1.00  0.00     0.013 C 
ATOM      7  C   UNL     1     103.534  84.623  16.769  1.00  0.00    -0.063 C 
ATOM      8  C   UNL     1     102.573  86.582  15.218  1.00  0.00    -0.003 C 
ATOM      9  C   UNL     1     102.903  87.428  13.949  1.00  0.00    -0.011 C 
ATOM     10  C   UNL     1     104.415  83.367  16.871  1.00  0.00    -0.006 C 
ATOM     11  C   UNL     1     102.702  84.967  17.749  1.00  0.00    -0.027 C 
ATOM     12  C   UNL     1     101.180  85.916  15.077  1.00  0.00     0.008 C 
ATOM     13  C   UNL     1     102.636  86.692  12.615  1.00  0.00     0.008 C 
ATOM     14  C   UNL     1     103.909  82.412  15.725  1.00  0.00     0.017 C 
ATOM     15  C   UNL     1     104.361  82.587  18.309  1.00  0.00    -0.020 C 
ATOM     16  C   UNL     1     102.320  84.090  18.898  1.00  0.00     0.032 C 
ATOM     17  C   UNL     1     102.863  82.610  18.903  1.00  0.00     0.006 C 
ATOM     18  C   UNL     1     105.262  83.229  19.407  1.00  0.00     0.008 C 
ATOM     19  C   UNL     1     104.982  81.145  18.084  1.00  0.00     0.012 C 
ATOM     20  C   UNL     1     102.655  81.985  20.383  1.00  0.00    -0.025 C 
ATOM     21  C   UNL     1     105.181  82.482  20.759  1.00  0.00     0.005 C 
ATOM     22  C   UNL     1     103.763  82.572  21.347  1.00  0.00     0.003 C 
ATOM     23  C   UNL     1     101.213  82.305  20.994  1.00  0.00     0.010 C 
ATOM     24  C   UNL     1     102.720  80.424  20.297  1.00  0.00     0.012 C 
ATOM     25  C   UNL     1     103.609  82.164  22.874  1.00  0.00    -0.006 C 
ATOM     26  C   UNL     1     101.233  83.095  22.304  1.00  0.00     0.033 C 
ATOM     27  C   UNL     1     102.111  82.410  23.361  1.00  0.00     0.120 C 
ATOM     28  C   UNL     1     104.064  80.700  23.138  1.00  0.00     0.014 C 
ATOM     29  C   UNL     1     104.532  83.081  23.743  1.00  0.00     0.014 C 
ENDROOT
BRANCH   1  30
ATOM     30  C   UNL     1     105.520  86.912  16.647  1.00  0.00     0.048 C 
ATOM     31  O   UNL     1     104.665  87.660  17.162  1.00  0.00    -0.550 OA
ATOM     32  O   UNL     1     106.863  87.087  16.991  1.00  0.00    -0.550 OA
ENDBRANCH   1  30
BRANCH  27  33
ATOM     33  O   UNL     1     101.468  81.234  23.766  1.00  0.00    -0.393 OA
ATOM     34  H   UNL     1     100.613  81.186  23.260  1.00  0.00     0.210 HD
ENDBRANCH  27  33
TORSDOF 2
ENDMDL
MODEL 6
REMARK VINA RESULT:    -5.453     12.600     15.570
REMARK INTER + INTRA:          -5.700
REMARK INTER:                  -6.327
REMARK INTRA:                   0.627
REMARK UNBOUND:                 0.232
REMARK SMILES C[C@@H]1[C@H](C)CC[C@]2(C(=O)[O-])CC[C@]3(C)C(=CC[C@@H]4[C@]5(C)CC[C@@H](O)C(C)(C)[C@H]5CC[C@@]43C)[C@@H]12
REMARK SMILES IDX 7 1 6 2 11 3 33 4 5 5 12 6 15 7 2 8 3 9 13 10 16 11 1 12
REMARK SMILES IDX 4 13 14 14 31 15 17 16 18 17 30 18 32 19 19 20 29 21 28 22
REMARK SMILES IDX 21 23 20 24 25 25 22 26 23 27 26 28 27 29 8 30 9 31 10 32
REMARK SMILES IDX 24 33
REMARK H PARENT 24 34
REMARK Flexibility Score: inf
ROOT
ATOM      1  C   UNL     1     108.430  95.388  24.621  1.00  0.00     0.017 C 
ATOM      2  C   UNL     1     107.448  95.767  25.763  1.00  0.00     0.014 C 
ATOM      3  C   UNL     1     109.606  96.418  24.626  1.00  0.00     0.014 C 
ATOM      4  C   UNL     1     107.734  95.530  23.235  1.00  0.00     0.030 C 
ATOM      5  C   UNL     1     106.124  95.006  25.672  1.00  0.00     0.004 C 
ATOM      6  C   UNL     1     110.625  96.157  23.506  1.00  0.00     0.013 C 
ATOM      7  C   UNL     1     108.774  95.222  22.129  1.00  0.00    -0.063 C 
ATOM      8  C   UNL     1     106.309  94.884  23.117  1.00  0.00    -0.003 C 
ATOM      9  C   UNL     1     105.405  95.251  24.334  1.00  0.00    -0.011 C 
ATOM     10  C   UNL     1     110.027  96.111  22.051  1.00  0.00    -0.006 C 
ATOM     11  C   UNL     1     108.607  94.189  21.308  1.00  0.00    -0.027 C 
ATOM     12  C   UNL     1     105.619  95.285  21.788  1.00  0.00     0.008 C 
ATOM     13  C   UNL     1     104.826  96.684  24.277  1.00  0.00     0.008 C 
ATOM     14  C   UNL     1     109.500  97.533  21.624  1.00  0.00     0.017 C 
ATOM     15  C   UNL     1     111.180  95.608  21.004  1.00  0.00    -0.020 C 
ATOM     16  C   UNL     1     109.424  93.923  20.085  1.00  0.00     0.032 C 
ATOM     17  C   UNL     1     110.503  94.996  19.676  1.00  0.00     0.006 C 
ATOM     18  C   UNL     1     112.095  94.479  21.571  1.00  0.00     0.008 C 
ATOM     19  C   UNL     1     112.164  96.829  20.767  1.00  0.00     0.012 C 
ATOM     20  C   UNL     1     111.502  94.339  18.583  1.00  0.00    -0.025 C 
ATOM     21  C   UNL     1     113.165  94.012  20.558  1.00  0.00     0.005 C 
ATOM     22  C   UNL     1     112.506  93.368  19.326  1.00  0.00     0.003 C 
ATOM     23  C   UNL     1     110.729  93.518  17.451  1.00  0.00     0.010 C 
ATOM     24  C   UNL     1     112.250  95.480  17.816  1.00  0.00     0.012 C 
ATOM     25  C   UNL     1     113.464  92.534  18.373  1.00  0.00    -0.006 C 
ATOM     26  C   UNL     1     111.103  92.037  17.365  1.00  0.00     0.033 C 
ATOM     27  C   UNL     1     112.618  91.847  17.209  1.00  0.00     0.120 C 
ATOM     28  C   UNL     1     114.623  93.401  17.803  1.00  0.00     0.014 C 
ATOM     29  C   UNL     1     114.130  91.385  19.198  1.00  0.00     0.014 C 
ENDROOT
BRANCH   1  30
ATOM     30  C   UNL     1     108.931  93.963  24.883  1.00  0.00     0.048 C 
ATOM     31  O   UNL     1     108.122  93.052  25.155  1.00  0.00    -0.550 OA
ATOM     32  O   UNL     1     110.294  93.736  25.090  1.00  0.00    -0.550 OA
ENDBRANCH   1  30
BRANCH  27  33
ATOM     33  O   UNL     1     112.985  92.291  15.932  1.00  0.00    -0.393 OA
ATOM     34  H   UNL     1     113.123  93.274  16.001  1.00  0.00     0.210 HD
ENDBRANCH  27  33
TORSDOF 2
ENDMDL
MODEL 7
REMARK VINA RESULT:    -5.392      2.168      7.919
REMARK INTER + INTRA:          -5.633
REMARK INTER:                  -5.857
REMARK INTRA:                   0.224
REMARK UNBOUND:                 0.232
REMARK SMILES C[C@@H]1[C@H](C)CC[C@]2(C(=O)[O-])CC[C@]3(C)C(=CC[C@@H]4[C@]5(C)CC[C@@H](O)C(C)(C)[C@H]5CC[C@@]43C)[C@@H]12
REMARK SMILES IDX 7 1 6 2 11 3 33 4 5 5 12 6 15 7 2 8 3 9 13 10 16 11 1 12
REMARK SMILES IDX 4 13 14 14 31 15 17 16 18 17 30 18 32 19 19 20 29 21 28 22
REMARK SMILES IDX 21 23 20 24 25 25 22 26 23 27 26 28 27 29 8 30 9 31 10 32
REMARK SMILES IDX 24 33
REMARK H PARENT 24 34
REMARK Flexibility Score: inf
ROOT
ATOM      1  C   UNL     1     103.111  83.060  23.290  1.00  0.00     0.017 C 
ATOM      2  C   UNL     1     103.074  82.520  24.745  1.00  0.00     0.014 C 
ATOM      3  C   UNL     1     104.393  83.941  23.128  1.00  0.00     0.014 C 
ATOM      4  C   UNL     1     101.900  84.004  23.029  1.00  0.00     0.030 C 
ATOM      5  C   UNL     1     101.729  81.885  25.100  1.00  0.00     0.004 C 
ATOM      6  C   UNL     1     104.511  84.560  21.727  1.00  0.00     0.013 C 
ATOM      7  C   UNL     1     102.026  84.581  21.597  1.00  0.00    -0.063 C 
ATOM      8  C   UNL     1     100.502  83.465  23.494  1.00  0.00    -0.003 C 
ATOM      9  C   UNL     1     100.561  82.874  24.937  1.00  0.00    -0.011 C 
ATOM     10  C   UNL     1     103.274  85.415  21.263  1.00  0.00    -0.006 C 
ATOM     11  C   UNL     1     101.103  84.317  20.675  1.00  0.00    -0.027 C 
ATOM     12  C   UNL     1      99.417  84.569  23.405  1.00  0.00     0.008 C 
ATOM     13  C   UNL     1     100.588  83.943  26.054  1.00  0.00     0.008 C 
ATOM     14  C   UNL     1     103.146  86.720  22.135  1.00  0.00     0.017 C 
ATOM     15  C   UNL     1     103.449  85.815  19.686  1.00  0.00    -0.020 C 
ATOM     16  C   UNL     1     101.009  84.980  19.339  1.00  0.00     0.032 C 
ATOM     17  C   UNL     1     102.016  86.153  19.031  1.00  0.00     0.006 C 
ATOM     18  C   UNL     1     104.057  84.675  18.811  1.00  0.00     0.008 C 
ATOM     19  C   UNL     1     104.523  86.980  19.614  1.00  0.00     0.012 C 
ATOM     20  C   UNL     1     101.993  86.453  17.439  1.00  0.00    -0.025 C 
ATOM     21  C   UNL     1     104.197  85.074  17.324  1.00  0.00     0.005 C 
ATOM     22  C   UNL     1     102.817  85.327  16.694  1.00  0.00     0.003 C 
ATOM     23  C   UNL     1     100.513  86.498  16.838  1.00  0.00     0.010 C 
ATOM     24  C   UNL     1     102.580  87.880  17.175  1.00  0.00     0.012 C 
ATOM     25  C   UNL     1     102.771  85.398  15.108  1.00  0.00    -0.006 C 
ATOM     26  C   UNL     1     100.235  85.466  15.743  1.00  0.00     0.033 C 
ATOM     27  C   UNL     1     101.266  85.558  14.608  1.00  0.00     0.120 C 
ATOM     28  C   UNL     1     103.684  86.527  14.547  1.00  0.00     0.014 C 
ATOM     29  C   UNL     1     103.312  84.053  14.521  1.00  0.00     0.014 C 
ENDROOT
BRANCH   1  30
ATOM     30  C   UNL     1     103.133  81.857  22.340  1.00  0.00     0.048 C 
ATOM     31  O   UNL     1     102.064  81.351  21.942  1.00  0.00    -0.550 OA
ATOM     32  O   UNL     1     104.325  81.157  22.138  1.00  0.00    -0.550 OA
ENDBRANCH   1  30
BRANCH  27  33
ATOM     33  O   UNL     1     101.045  86.754  13.914  1.00  0.00    -0.393 OA
ATOM     34  H   UNL     1     100.064  86.817  13.759  1.00  0.00     0.210 HD
ENDBRANCH  27  33
TORSDOF 2
ENDMDL
MODEL 8
REMARK VINA RESULT:    -5.353      3.328      6.017
REMARK INTER + INTRA:          -5.590
REMARK INTER:                  -5.821
REMARK INTRA:                   0.231
REMARK UNBOUND:                 0.232
REMARK SMILES C[C@@H]1[C@H](C)CC[C@]2(C(=O)[O-])CC[C@]3(C)C(=CC[C@@H]4[C@]5(C)CC[C@@H](O)C(C)(C)[C@H]5CC[C@@]43C)[C@@H]12
REMARK SMILES IDX 7 1 6 2 11 3 33 4 5 5 12 6 15 7 2 8 3 9 13 10 16 11 1 12
REMARK SMILES IDX 4 13 14 14 31 15 17 16 18 17 30 18 32 19 19 20 29 21 28 22
REMARK SMILES IDX 21 23 20 24 25 25 22 26 23 27 26 28 27 29 8 30 9 31 10 32
REMARK SMILES IDX 24 33
REMARK H PARENT 24 34
REMARK Flexibility Score: inf
ROOT
ATOM      1  C   UNL     1     105.555  88.920  17.308  1.00  0.00     0.017 C 
ATOM      2  C   UNL     1     105.725  90.314  16.646  1.00  0.00     0.014 C 
ATOM      3  C   UNL     1     105.073  87.915  16.211  1.00  0.00     0.014 C 
ATOM      4  C   UNL     1     104.429  88.962  18.383  1.00  0.00     0.030 C 
ATOM      5  C   UNL     1     105.915  91.431  17.674  1.00  0.00     0.004 C 
ATOM      6  C   UNL     1     104.836  86.502  16.769  1.00  0.00     0.013 C 
ATOM      7  C   UNL     1     104.242  87.534  18.954  1.00  0.00    -0.063 C 
ATOM      8  C   UNL     1     104.492  90.163  19.390  1.00  0.00    -0.003 C 
ATOM      9  C   UNL     1     104.736  91.519  18.658  1.00  0.00    -0.011 C 
ATOM     10  C   UNL     1     103.835  86.416  17.980  1.00  0.00    -0.006 C 
ATOM     11  C   UNL     1     104.476  87.280  20.239  1.00  0.00    -0.027 C 
ATOM     12  C   UNL     1     103.208  90.238  20.256  1.00  0.00     0.008 C 
ATOM     13  C   UNL     1     103.480  92.091  17.959  1.00  0.00     0.008 C 
ATOM     14  C   UNL     1     102.374  86.782  17.516  1.00  0.00     0.017 C 
ATOM     15  C   UNL     1     103.859  84.902  18.599  1.00  0.00    -0.020 C 
ATOM     16  C   UNL     1     104.131  86.006  20.940  1.00  0.00     0.032 C 
ATOM     17  C   UNL     1     103.340  84.912  20.125  1.00  0.00     0.006 C 
ATOM     18  C   UNL     1     105.280  84.260  18.639  1.00  0.00     0.008 C 
ATOM     19  C   UNL     1     103.038  83.976  17.607  1.00  0.00     0.012 C 
ATOM     20  C   UNL     1     103.413  83.509  20.931  1.00  0.00    -0.025 C 
ATOM     21  C   UNL     1     105.276  82.837  19.243  1.00  0.00     0.005 C 
ATOM     22  C   UNL     1     104.845  82.871  20.719  1.00  0.00     0.003 C 
ATOM     23  C   UNL     1     103.148  83.679  22.498  1.00  0.00     0.010 C 
ATOM     24  C   UNL     1     102.271  82.565  20.428  1.00  0.00     0.012 C 
ATOM     25  C   UNL     1     105.127  81.556  21.563  1.00  0.00    -0.006 C 
ATOM     26  C   UNL     1     104.302  83.229  23.396  1.00  0.00     0.033 C 
ATOM     27  C   UNL     1     104.724  81.785  23.089  1.00  0.00     0.120 C 
ATOM     28  C   UNL     1     104.412  80.311  20.963  1.00  0.00     0.014 C 
ATOM     29  C   UNL     1     106.660  81.249  21.533  1.00  0.00     0.014 C 
ENDROOT
BRANCH   1  30
ATOM     30  C   UNL     1     106.910  88.507  17.892  1.00  0.00     0.048 C 
ATOM     31  O   UNL     1     107.249  88.894  19.029  1.00  0.00    -0.550 OA
ATOM     32  O   UNL     1     107.877  87.935  17.061  1.00  0.00    -0.550 OA
ENDBRANCH   1  30
BRANCH  27  33
ATOM     33  O   UNL     1     103.701  80.931  23.518  1.00  0.00    -0.393 OA
ATOM     34  H   UNL     1     104.143  80.130  23.909  1.00  0.00     0.210 HD
ENDBRANCH  27  33
TORSDOF 2
ENDMDL
MODEL 9
REMARK VINA RESULT:    -5.294      4.007      9.361
REMARK INTER + INTRA:          -5.527
REMARK INTER:                  -5.751
REMARK INTRA:                   0.224
REMARK UNBOUND:                 0.232
REMARK SMILES C[C@@H]1[C@H](C)CC[C@]2(C(=O)[O-])CC[C@]3(C)C(=CC[C@@H]4[C@]5(C)CC[C@@H](O)C(C)(C)[C@H]5CC[C@@]43C)[C@@H]12
REMARK SMILES IDX 7 1 6 2 11 3 33 4 5 5 12 6 15 7 2 8 3 9 13 10 16 11 1 12
REMARK SMILES IDX 4 13 14 14 31 15 17 16 18 17 30 18 32 19 19 20 29 21 28 22
REMARK SMILES IDX 21 23 20 24 25 25 22 26 23 27 26 28 27 29 8 30 9 31 10 32
REMARK SMILES IDX 24 33
REMARK H PARENT 24 34
REMARK Flexibility Score: inf
ROOT
ATOM      1  C   UNL     1     104.948  83.359  17.358  1.00  0.00     0.017 C 
ATOM      2  C   UNL     1     105.611  82.431  18.413  1.00  0.00     0.014 C 
ATOM      3  C   UNL     1     106.077  84.166  16.639  1.00  0.00     0.014 C 
ATOM      4  C   UNL     1     104.037  84.412  18.055  1.00  0.00     0.030 C 
ATOM      5  C   UNL     1     104.591  81.808  19.367  1.00  0.00     0.004 C 
ATOM      6  C   UNL     1     105.526  85.149  15.593  1.00  0.00     0.013 C 
ATOM      7  C   UNL     1     103.466  85.361  16.972  1.00  0.00    -0.063 C 
ATOM      8  C   UNL     1     103.058  83.852  19.146  1.00  0.00    -0.003 C 
ATOM      9  C   UNL     1     103.779  82.874  20.124  1.00  0.00    -0.011 C 
ATOM     10  C   UNL     1     104.462  86.175  16.130  1.00  0.00    -0.006 C 
ATOM     11  C   UNL     1     102.156  85.427  16.750  1.00  0.00    -0.027 C 
ATOM     12  C   UNL     1     102.377  85.002  19.932  1.00  0.00     0.008 C 
ATOM     13  C   UNL     1     104.655  83.579  21.186  1.00  0.00     0.008 C 
ATOM     14  C   UNL     1     105.128  87.186  17.139  1.00  0.00     0.017 C 
ATOM     15  C   UNL     1     103.812  86.994  14.871  1.00  0.00    -0.020 C 
ATOM     16  C   UNL     1     101.481  86.447  15.890  1.00  0.00     0.032 C 
ATOM     17  C   UNL     1     102.371  87.593  15.276  1.00  0.00     0.006 C 
ATOM     18  C   UNL     1     103.564  86.113  13.608  1.00  0.00     0.008 C 
ATOM     19  C   UNL     1     104.886  88.061  14.400  1.00  0.00     0.012 C 
ATOM     20  C   UNL     1     101.532  88.333  14.104  1.00  0.00    -0.025 C 
ATOM     21  C   UNL     1     102.936  86.907  12.440  1.00  0.00     0.005 C 
ATOM     22  C   UNL     1     101.533  87.414  12.816  1.00  0.00     0.003 C 
ATOM     23  C   UNL     1     100.021  88.638  14.523  1.00  0.00     0.010 C 
ATOM     24  C   UNL     1     102.166  89.736  13.823  1.00  0.00     0.012 C 
ATOM     25  C   UNL     1     100.630  87.934  11.619  1.00  0.00    -0.006 C 
ATOM     26  C   UNL     1      98.964  87.979  13.634  1.00  0.00     0.033 C 
ATOM     27  C   UNL     1      99.179  88.323  12.153  1.00  0.00     0.120 C 
ATOM     28  C   UNL     1     101.294  89.116  10.855  1.00  0.00     0.014 C 
ATOM     29  C   UNL     1     100.444  86.779  10.580  1.00  0.00     0.014 C 
ENDROOT
BRANCH   1  30
ATOM     30  C   UNL     1     104.175  82.475  16.372  1.00  0.00     0.048 C 
ATOM     31  O   UNL     1     102.983  82.179  16.594  1.00  0.00    -0.550 OA
ATOM     32  O   UNL     1     104.867  81.776  15.380  1.00  0.00    -0.550 OA
ENDBRANCH   1  30
BRANCH  27  33
ATOM     33  O   UNL     1      98.875  89.678  11.972  1.00  0.00    -0.393 OA
ATOM     34  H   UNL     1      97.936  89.803  12.275  1.00  0.00     0.210 HD
ENDBRANCH  27  33
TORSDOF 2
ENDMDL
