MODEL 1
REMARK VINA RESULT:     3.509      0.000      0.000
REMARK INTER + INTRA:           8.298
REMARK INTER:                   8.022
REMARK INTRA:                   0.276
REMARK UNBOUND:                 0.276
REMARK SMILES CCCCCCCCCCCCCCCCCCCCCCCC(=O)[O-]
REMARK SMILES IDX 13 1 14 2 15 3 16 4 17 5 18 6 19 7 20 8 21 9 22 10 23 11
REMARK SMILES IDX 24 12 25 13 26 14 12 15 11 16 10 17 9 18 8 19 7 20 6 21 5 22
REMARK SMILES IDX 4 23 3 24 2 25 1 26
REMARK H PARENT
REMARK Flexibility Score: inf
ROOT
ATOM      1  C   UNL     1       5.959 -10.114   6.289  1.00  0.00     0.000 C 
ENDROOT
BRANCH   1   2
ATOM      2  C   UNL     1       6.556 -10.110   4.874  1.00  0.00     0.000 C 
BRANCH   2   3
ATOM      3  C   UNL     1       7.501  -8.918   4.681  1.00  0.00     0.000 C 
BRANCH   3   4
ATOM      4  C   UNL     1       8.356  -8.685   5.932  1.00  0.00     0.000 C 
BRANCH   4   5
ATOM      5  C   UNL     1       8.804 -10.018   6.549  1.00  0.00     0.000 C 
BRANCH   5   6
ATOM      6  C   UNL     1       8.595 -10.073   8.073  1.00  0.00     0.000 C 
BRANCH   6   7
ATOM      7  C   UNL     1       9.713  -9.422   8.914  1.00  0.00     0.000 C 
BRANCH   7   8
ATOM      8  C   UNL     1       9.747  -7.884   8.877  1.00  0.00     0.000 C 
BRANCH   8   9
ATOM      9  C   UNL     1       8.347  -7.257   8.804  1.00  0.00     0.000 C 
BRANCH   9  10
ATOM     10  C   UNL     1       7.579  -7.484  10.114  1.00  0.00     0.006 C 
BRANCH  10  11
ATOM     11  C   UNL     1       6.061  -7.537   9.895  1.00  0.00     0.053 C 
BRANCH  11  12
ATOM     12  C   UNL     1       5.561  -8.946   9.797  1.00  0.00     0.041 C 
ATOM     13  O   UNL     1       4.356  -9.172   9.514  1.00  0.00    -0.550 OA
ATOM     14  O   UNL     1       6.419 -10.008  10.055  1.00  0.00    -0.550 OA
ENDBRANCH  11  12
ENDBRANCH  10  11
ENDBRANCH   9  10
ENDBRANCH   8   9
ENDBRANCH   7   8
ENDBRANCH   6   7
ENDBRANCH   5   6
ENDBRANCH   4   5
ENDBRANCH   3   4
ENDBRANCH   2   3
ENDBRANCH   1   2
BRANCH   1  15
ATOM     15  C   UNL     1       4.635  -9.337   6.373  1.00  0.00     0.000 C 
BRANCH  15  16
ATOM     16  C   UNL     1       4.643  -8.067   5.504  1.00  0.00     0.000 C 
BRANCH  16  17
ATOM     17  C   UNL     1       5.174  -6.841   6.265  1.00  0.00     0.000 C 
BRANCH  17  18
ATOM     18  C   UNL     1       6.006  -5.905   5.369  1.00  0.00    -0.000 C 
BRANCH  18  19
ATOM     19  C   UNL     1       5.710  -4.416   5.649  1.00  0.00    -0.000 C 
BRANCH  19  20
ATOM     20  C   UNL     1       5.741  -3.535   4.388  1.00  0.00    -0.000 C 
BRANCH  20  21
ATOM     21  C   UNL     1       4.696  -3.955   3.341  1.00  0.00    -0.000 C 
BRANCH  21  22
ATOM     22  C   UNL     1       3.460  -3.042   3.337  1.00  0.00    -0.000 C 
BRANCH  22  23
ATOM     23  C   UNL     1       2.142  -3.833   3.307  1.00  0.00    -0.000 C 
BRANCH  23  24
ATOM     24  C   UNL     1       1.219  -3.416   2.148  1.00  0.00    -0.000 C 
BRANCH  24  25
ATOM     25  C   UNL     1       1.272  -1.923   1.778  1.00  0.00    -0.003 C 
ATOM     26  C   UNL     1       2.468  -1.565   0.897  1.00  0.00     0.004 C 
ENDBRANCH  24  25
ENDBRANCH  23  24
ENDBRANCH  22  23
ENDBRANCH  21  22
ENDBRANCH  20  21
ENDBRANCH  19  20
ENDBRANCH  18  19
ENDBRANCH  17  18
ENDBRANCH  16  17
ENDBRANCH  15  16
ENDBRANCH   1  15
TORSDOF 22
ENDMDL
MODEL 2
REMARK VINA RESULT:     4.019      3.394      8.060
REMARK INTER + INTRA:           9.464
REMARK INTER:                   7.796
REMARK INTRA:                   1.668
REMARK UNBOUND:                 0.276
REMARK SMILES CCCCCCCCCCCCCCCCCCCCCCCC(=O)[O-]
REMARK SMILES IDX 13 1 14 2 15 3 16 4 17 5 18 6 19 7 20 8 21 9 22 10 23 11
REMARK SMILES IDX 24 12 25 13 26 14 12 15 11 16 10 17 9 18 8 19 7 20 6 21 5 22
REMARK SMILES IDX 4 23 3 24 2 25 1 26
REMARK H PARENT
REMARK Flexibility Score: inf
ROOT
ATOM      1  C   UNL     1       7.394  -9.234   5.411  1.00  0.00     0.000 C 
ENDROOT
BRANCH   1   2
ATOM      2  C   UNL     1       6.176 -10.117   5.718  1.00  0.00     0.000 C 
BRANCH   2   3
ATOM      3  C   UNL     1       4.955  -9.262   6.079  1.00  0.00     0.000 C 
BRANCH   3   4
ATOM      4  C   UNL     1       4.985  -7.920   5.339  1.00  0.00     0.000 C 
BRANCH   4   5
ATOM      5  C   UNL     1       4.786  -6.749   6.312  1.00  0.00     0.000 C 
BRANCH   5   6
ATOM      6  C   UNL     1       5.614  -5.508   5.933  1.00  0.00     0.000 C 
BRANCH   6   7
ATOM      7  C   UNL     1       5.722  -5.227   4.419  1.00  0.00     0.000 C 
BRANCH   7   8
ATOM      8  C   UNL     1       5.688  -3.740   4.027  1.00  0.00     0.000 C 
BRANCH   8   9
ATOM      9  C   UNL     1       4.401  -3.032   4.474  1.00  0.00     0.000 C 
BRANCH   9  10
ATOM     10  C   UNL     1       3.627  -2.491   3.264  1.00  0.00     0.006 C 
BRANCH  10  11
ATOM     11  C   UNL     1       2.394  -3.343   2.935  1.00  0.00     0.053 C 
BRANCH  11  12
ATOM     12  C   UNL     1       1.670  -2.832   1.728  1.00  0.00     0.041 C 
ATOM     13  O   UNL     1       2.306  -2.269   0.799  1.00  0.00    -0.550 OA
ATOM     14  O   UNL     1       0.288  -2.946   1.645  1.00  0.00    -0.550 OA
ENDBRANCH  11  12
ENDBRANCH  10  11
ENDBRANCH   9  10
ENDBRANCH   8   9
ENDBRANCH   7   8
ENDBRANCH   6   7
ENDBRANCH   5   6
ENDBRANCH   4   5
ENDBRANCH   3   4
ENDBRANCH   2   3
ENDBRANCH   1   2
BRANCH   1  15
ATOM     15  C   UNL     1       8.694 -10.045   5.286  1.00  0.00     0.000 C 
BRANCH  15  16
ATOM     16  C   UNL     1       9.919  -9.276   5.812  1.00  0.00     0.000 C 
BRANCH  16  17
ATOM     17  C   UNL     1       9.937  -9.182   7.346  1.00  0.00     0.000 C 
BRANCH  17  18
ATOM     18  C   UNL     1       9.495  -7.800   7.860  1.00  0.00    -0.000 C 
BRANCH  18  19
ATOM     19  C   UNL     1       9.600  -7.687   9.395  1.00  0.00    -0.000 C 
BRANCH  19  20
ATOM     20  C   UNL     1      10.116  -8.970  10.072  1.00  0.00    -0.000 C 
BRANCH  20  21
ATOM     21  C   UNL     1       9.100 -10.123  10.019  1.00  0.00    -0.000 C 
BRANCH  21  22
ATOM     22  C   UNL     1       7.645  -9.636  10.109  1.00  0.00    -0.000 C 
BRANCH  22  23
ATOM     23  C   UNL     1       7.457  -8.226   9.524  1.00  0.00    -0.000 C 
BRANCH  23  24
ATOM     24  C   UNL     1       5.993  -7.919   9.158  1.00  0.00    -0.000 C 
BRANCH  24  25
ATOM     25  C   UNL     1       5.040  -9.126   9.222  1.00  0.00    -0.003 C 
ATOM     26  C   UNL     1       3.830  -8.888  10.125  1.00  0.00     0.004 C 
ENDBRANCH  24  25
ENDBRANCH  23  24
ENDBRANCH  22  23
ENDBRANCH  21  22
ENDBRANCH  20  21
ENDBRANCH  19  20
ENDBRANCH  18  19
ENDBRANCH  17  18
ENDBRANCH  16  17
ENDBRANCH  15  16
ENDBRANCH   1  15
TORSDOF 22
ENDMDL
MODEL 3
REMARK VINA RESULT:     4.219      3.615      8.042
REMARK INTER + INTRA:           9.921
REMARK INTER:                  11.277
REMARK INTRA:                  -1.357
REMARK UNBOUND:                 0.276
REMARK SMILES CCCCCCCCCCCCCCCCCCCCCCCC(=O)[O-]
REMARK SMILES IDX 13 1 14 2 15 3 16 4 17 5 18 6 19 7 20 8 21 9 22 10 23 11
REMARK SMILES IDX 24 12 25 13 26 14 12 15 11 16 10 17 9 18 8 19 7 20 6 21 5 22
REMARK SMILES IDX 4 23 3 24 2 25 1 26
REMARK H PARENT
REMARK Flexibility Score: inf
ROOT
ATOM      1  C   UNL     1       6.991  -8.660   8.961  1.00  0.00     0.000 C 
ENDROOT
BRANCH   1   2
ATOM      2  C   UNL     1       7.526  -7.262   9.304  1.00  0.00     0.000 C 
BRANCH   2   3
ATOM      3  C   UNL     1       6.535  -6.174   8.869  1.00  0.00     0.000 C 
BRANCH   3   4
ATOM      4  C   UNL     1       6.836  -5.695   7.444  1.00  0.00     0.000 C 
BRANCH   4   5
ATOM      5  C   UNL     1       5.558  -5.207   6.746  1.00  0.00     0.000 C 
BRANCH   5   6
ATOM      6  C   UNL     1       5.618  -5.350   5.215  1.00  0.00     0.000 C 
BRANCH   6   7
ATOM      7  C   UNL     1       5.758  -4.025   4.436  1.00  0.00     0.000 C 
BRANCH   7   8
ATOM      8  C   UNL     1       4.659  -3.762   3.393  1.00  0.00     0.000 C 
BRANCH   8   9
ATOM      9  C   UNL     1       3.364  -3.216   4.013  1.00  0.00     0.000 C 
BRANCH   9  10
ATOM     10  C   UNL     1       2.152  -3.561   3.137  1.00  0.00     0.006 C 
BRANCH  10  11
ATOM     11  C   UNL     1       2.411  -3.280   1.650  1.00  0.00     0.053 C 
BRANCH  11  12
ATOM     12  C   UNL     1       1.587  -2.135   1.147  1.00  0.00     0.041 C 
ATOM     13  O   UNL     1       2.080  -1.308   0.336  1.00  0.00    -0.550 OA
ATOM     14  O   UNL     1       0.286  -1.960   1.603  1.00  0.00    -0.550 OA
ENDBRANCH  11  12
ENDBRANCH  10  11
ENDBRANCH   9  10
ENDBRANCH   8   9
ENDBRANCH   7   8
ENDBRANCH   6   7
ENDBRANCH   5   6
ENDBRANCH   4   5
ENDBRANCH   3   4
ENDBRANCH   2   3
ENDBRANCH   1   2
BRANCH   1  15
ATOM     15  C   UNL     1       7.936  -9.782   9.420  1.00  0.00     0.000 C 
BRANCH  15  16
ATOM     16  C   UNL     1       9.004 -10.119   8.364  1.00  0.00     0.000 C 
BRANCH  16  17
ATOM     17  C   UNL     1       9.202  -8.982   7.348  1.00  0.00     0.000 C 
BRANCH  17  18
ATOM     18  C   UNL     1       9.027  -9.453   5.893  1.00  0.00    -0.000 C 
BRANCH  18  19
ATOM     19  C   UNL     1       7.546  -9.703   5.536  1.00  0.00    -0.000 C 
BRANCH  19  20
ATOM     20  C   UNL     1       6.626  -8.514   5.862  1.00  0.00    -0.000 C 
BRANCH  20  21
ATOM     21  C   UNL     1       5.134  -8.884   5.820  1.00  0.00    -0.000 C 
BRANCH  21  22
ATOM     22  C   UNL     1       4.807 -10.124   6.669  1.00  0.00    -0.000 C 
BRANCH  22  23
ATOM     23  C   UNL     1       3.641  -9.881   7.642  1.00  0.00    -0.000 C 
BRANCH  23  24
ATOM     24  C   UNL     1       4.100  -9.746   9.105  1.00  0.00    -0.000 C 
BRANCH  24  25
ATOM     25  C   UNL     1       2.969  -9.520  10.124  1.00  0.00    -0.003 C 
ATOM     26  C   UNL     1       1.575  -9.618   9.504  1.00  0.00     0.004 C 
ENDBRANCH  24  25
ENDBRANCH  23  24
ENDBRANCH  22  23
ENDBRANCH  21  22
ENDBRANCH  20  21
ENDBRANCH  19  20
ENDBRANCH  18  19
ENDBRANCH  17  18
ENDBRANCH  16  17
ENDBRANCH  15  16
ENDBRANCH   1  15
TORSDOF 22
ENDMDL
MODEL 4
REMARK VINA RESULT:     4.425      3.416      8.161
REMARK INTER + INTRA:          10.392
REMARK INTER:                   9.358
REMARK INTRA:                   1.034
REMARK UNBOUND:                 0.276
REMARK SMILES CCCCCCCCCCCCCCCCCCCCCCCC(=O)[O-]
REMARK SMILES IDX 13 1 14 2 15 3 16 4 17 5 18 6 19 7 20 8 21 9 22 10 23 11
REMARK SMILES IDX 24 12 25 13 26 14 12 15 11 16 10 17 9 18 8 19 7 20 6 21 5 22
REMARK SMILES IDX 4 23 3 24 2 25 1 26
REMARK H PARENT
REMARK Flexibility Score: inf
ROOT
ATOM      1  C   UNL     1       7.409  -9.405   6.016  1.00  0.00     0.000 C 
ENDROOT
BRANCH   1   2
ATOM      2  C   UNL     1       7.151  -7.904   6.209  1.00  0.00     0.000 C 
BRANCH   2   3
ATOM      3  C   UNL     1       7.018  -7.557   7.698  1.00  0.00     0.000 C 
BRANCH   3   4
ATOM      4  C   UNL     1       5.831  -6.620   7.941  1.00  0.00     0.000 C 
BRANCH   4   5
ATOM      5  C   UNL     1       5.945  -5.352   7.083  1.00  0.00     0.000 C 
BRANCH   5   6
ATOM      6  C   UNL     1       5.379  -5.536   5.663  1.00  0.00     0.000 C 
BRANCH   6   7
ATOM      7  C   UNL     1       6.330  -5.126   4.519  1.00  0.00     0.000 C 
BRANCH   7   8
ATOM      8  C   UNL     1       5.828  -3.974   3.633  1.00  0.00     0.000 C 
BRANCH   8   9
ATOM      9  C   UNL     1       4.514  -3.360   4.138  1.00  0.00     0.000 C 
BRANCH   9  10
ATOM     10  C   UNL     1       3.567  -3.057   2.967  1.00  0.00     0.006 C 
BRANCH  10  11
ATOM     11  C   UNL     1       2.092  -3.219   3.358  1.00  0.00     0.053 C 
BRANCH  11  12
ATOM     12  C   UNL     1       1.175  -2.644   2.321  1.00  0.00     0.041 C 
ATOM     13  O   UNL     1       0.802  -3.347   1.346  1.00  0.00    -0.550 OA
ATOM     14  O   UNL     1       0.763  -1.320   2.414  1.00  0.00    -0.550 OA
ENDBRANCH  11  12
ENDBRANCH  10  11
ENDBRANCH   9  10
ENDBRANCH   8   9
ENDBRANCH   7   8
ENDBRANCH   6   7
ENDBRANCH   5   6
ENDBRANCH   4   5
ENDBRANCH   3   4
ENDBRANCH   2   3
ENDBRANCH   1   2
BRANCH   1  15
ATOM     15  C   UNL     1       6.541 -10.015   4.904  1.00  0.00     0.000 C 
BRANCH  15  16
ATOM     16  C   UNL     1       5.051 -10.071   5.286  1.00  0.00     0.000 C 
BRANCH  16  17
ATOM     17  C   UNL     1       4.494  -8.693   5.677  1.00  0.00     0.000 C 
BRANCH  17  18
ATOM     18  C   UNL     1       3.986  -8.651   7.129  1.00  0.00    -0.000 C 
BRANCH  18  19
ATOM     19  C   UNL     1       3.262  -9.953   7.532  1.00  0.00    -0.000 C 
BRANCH  19  20
ATOM     20  C   UNL     1       2.922 -10.030   9.030  1.00  0.00    -0.000 C 
BRANCH  20  21
ATOM     21  C   UNL     1       3.929  -9.270   9.910  1.00  0.00    -0.000 C 
BRANCH  21  22
ATOM     22  C   UNL     1       5.236 -10.049  10.124  1.00  0.00    -0.000 C 
BRANCH  22  23
ATOM     23  C   UNL     1       6.476  -9.140  10.098  1.00  0.00    -0.000 C 
BRANCH  23  24
ATOM     24  C   UNL     1       7.794  -9.928   9.982  1.00  0.00    -0.000 C 
BRANCH  24  25
ATOM     25  C   UNL     1       8.981  -9.129   9.414  1.00  0.00    -0.003 C 
ATOM     26  C   UNL     1      10.046 -10.016   8.769  1.00  0.00     0.004 C 
ENDBRANCH  24  25
ENDBRANCH  23  24
ENDBRANCH  22  23
ENDBRANCH  21  22
ENDBRANCH  20  21
ENDBRANCH  19  20
ENDBRANCH  18  19
ENDBRANCH  17  18
ENDBRANCH  16  17
ENDBRANCH  15  16
ENDBRANCH   1  15
TORSDOF 22
ENDMDL
MODEL 5
REMARK VINA RESULT:     4.664      5.802      8.207
REMARK INTER + INTRA:          10.939
REMARK INTER:                  11.350
REMARK INTRA:                  -0.411
REMARK UNBOUND:                 0.276
REMARK SMILES CCCCCCCCCCCCCCCCCCCCCCCC(=O)[O-]
REMARK SMILES IDX 13 1 14 2 15 3 16 4 17 5 18 6 19 7 20 8 21 9 22 10 23 11
REMARK SMILES IDX 24 12 25 13 26 14 12 15 11 16 10 17 9 18 8 19 7 20 6 21 5 22
REMARK SMILES IDX 4 23 3 24 2 25 1 26
REMARK H PARENT
REMARK Flexibility Score: inf
ROOT
ATOM      1  C   UNL     1       3.710  -9.290   7.102  1.00  0.00     0.000 C 
ENDROOT
BRANCH   1   2
ATOM      2  C   UNL     1       4.635  -9.438   5.884  1.00  0.00     0.000 C 
BRANCH   2   3
ATOM      3  C   UNL     1       5.928  -8.637   6.078  1.00  0.00     0.000 C 
BRANCH   3   4
ATOM      4  C   UNL     1       6.000  -8.040   7.488  1.00  0.00     0.000 C 
BRANCH   4   5
ATOM      5  C   UNL     1       6.759  -6.705   7.483  1.00  0.00     0.000 C 
BRANCH   5   6
ATOM      6  C   UNL     1       6.771  -6.028   6.101  1.00  0.00     0.000 C 
BRANCH   6   7
ATOM      7  C   UNL     1       5.892  -4.765   5.981  1.00  0.00     0.000 C 
BRANCH   7   8
ATOM      8  C   UNL     1       4.931  -4.750   4.780  1.00  0.00     0.000 C 
BRANCH   8   9
ATOM      9  C   UNL     1       4.926  -3.408   4.034  1.00  0.00     0.000 C 
BRANCH   9  10
ATOM     10  C   UNL     1       4.031  -3.480   2.788  1.00  0.00     0.006 C 
BRANCH  10  11
ATOM     11  C   UNL     1       2.858  -2.492   2.860  1.00  0.00     0.053 C 
BRANCH  11  12
ATOM     12  C   UNL     1       1.693  -2.950   2.038  1.00  0.00     0.041 C 
ATOM     13  O   UNL     1       1.089  -2.139   1.288  1.00  0.00    -0.550 OA
ATOM     14  O   UNL     1       1.252  -4.265   2.127  1.00  0.00    -0.550 OA
ENDBRANCH  11  12
ENDBRANCH  10  11
ENDBRANCH   9  10
ENDBRANCH   8   9
ENDBRANCH   7   8
ENDBRANCH   6   7
ENDBRANCH   5   6
ENDBRANCH   4   5
ENDBRANCH   3   4
ENDBRANCH   2   3
ENDBRANCH   1   2
BRANCH   1  15
ATOM     15  C   UNL     1       4.258 -10.005   8.348  1.00  0.00     0.000 C 
BRANCH  15  16
ATOM     16  C   UNL     1       3.212 -10.111   9.472  1.00  0.00     0.000 C 
BRANCH  16  17
ATOM     17  C   UNL     1       1.784  -9.846   8.970  1.00  0.00     0.000 C 
BRANCH  17  18
ATOM     18  C   UNL     1       0.784  -9.626  10.119  1.00  0.00    -0.000 C 
BRANCH  18  19
ATOM     19  C   UNL     1      -0.677  -9.842   9.670  1.00  0.00    -0.000 C 
BRANCH  19  20
ATOM     20  C   UNL     1      -0.833 -10.019   8.150  1.00  0.00    -0.000 C 
BRANCH  20  21
ATOM     21  C   UNL     1      -2.303 -10.125   7.709  1.00  0.00    -0.000 C 
BRANCH  21  22
ATOM     22  C   UNL     1      -2.482  -9.940   6.194  1.00  0.00    -0.000 C 
BRANCH  22  23
ATOM     23  C   UNL     1      -3.817  -9.264   5.837  1.00  0.00    -0.000 C 
BRANCH  23  24
ATOM     24  C   UNL     1      -5.036  -9.999   6.426  1.00  0.00    -0.000 C 
BRANCH  24  25
ATOM     25  C   UNL     1      -6.368  -9.732   5.702  1.00  0.00    -0.003 C 
ATOM     26  C   UNL     1      -7.590 -10.125   6.531  1.00  0.00     0.004 C 
ENDBRANCH  24  25
ENDBRANCH  23  24
ENDBRANCH  22  23
ENDBRANCH  21  22
ENDBRANCH  20  21
ENDBRANCH  19  20
ENDBRANCH  18  19
ENDBRANCH  17  18
ENDBRANCH  16  17
ENDBRANCH  15  16
ENDBRANCH   1  15
TORSDOF 22
ENDMDL
MODEL 6
REMARK VINA RESULT:     5.760      1.361      3.446
REMARK INTER + INTRA:          13.444
REMARK INTER:                  13.779
REMARK INTRA:                  -0.335
REMARK UNBOUND:                 0.276
REMARK SMILES CCCCCCCCCCCCCCCCCCCCCCCC(=O)[O-]
REMARK SMILES IDX 13 1 14 2 15 3 16 4 17 5 18 6 19 7 20 8 21 9 22 10 23 11
REMARK SMILES IDX 24 12 25 13 26 14 12 15 11 16 10 17 9 18 8 19 7 20 6 21 5 22
REMARK SMILES IDX 4 23 3 24 2 25 1 26
REMARK H PARENT
REMARK Flexibility Score: inf
ROOT
ATOM      1  C   UNL     1       7.112  -6.854   7.801  1.00  0.00     0.000 C 
ENDROOT
BRANCH   1   2
ATOM      2  C   UNL     1       6.718  -7.774   8.966  1.00  0.00     0.000 C 
BRANCH   2   3
ATOM      3  C   UNL     1       7.793  -7.765  10.060  1.00  0.00     0.000 C 
BRANCH   3   4
ATOM      4  C   UNL     1       9.140  -7.290   9.503  1.00  0.00     0.000 C 
BRANCH   4   5
ATOM      5  C   UNL     1      10.058  -8.481   9.191  1.00  0.00     0.000 C 
BRANCH   5   6
ATOM      6  C   UNL     1       9.753  -9.132   7.830  1.00  0.00     0.000 C 
BRANCH   6   7
ATOM      7  C   UNL     1       8.481 -10.004   7.789  1.00  0.00     0.000 C 
BRANCH   7   8
ATOM      8  C   UNL     1       7.783 -10.077   6.420  1.00  0.00     0.000 C 
BRANCH   8   9
ATOM      9  C   UNL     1       6.252 -10.124   6.531  1.00  0.00     0.000 C 
BRANCH   9  10
ATOM     10  C   UNL     1       5.598  -9.360   5.371  1.00  0.00     0.006 C 
BRANCH  10  11
ATOM     11  C   UNL     1       4.391  -8.530   5.831  1.00  0.00     0.053 C 
BRANCH  11  12
ATOM     12  C   UNL     1       3.673  -9.178   6.975  1.00  0.00     0.041 C 
ATOM     13  O   UNL     1       4.064  -8.988   8.157  1.00  0.00    -0.550 OA
ATOM     14  O   UNL     1       2.595 -10.020   6.734  1.00  0.00    -0.550 OA
ENDBRANCH  11  12
ENDBRANCH  10  11
ENDBRANCH   9  10
ENDBRANCH   8   9
ENDBRANCH   7   8
ENDBRANCH   6   7
ENDBRANCH   5   6
ENDBRANCH   4   5
ENDBRANCH   3   4
ENDBRANCH   2   3
ENDBRANCH   1   2
BRANCH   1  15
ATOM     15  C   UNL     1       5.951  -5.958   7.339  1.00  0.00     0.000 C 
BRANCH  15  16
ATOM     16  C   UNL     1       5.905  -5.800   5.809  1.00  0.00     0.000 C 
BRANCH  16  17
ATOM     17  C   UNL     1       5.169  -4.523   5.374  1.00  0.00     0.000 C 
BRANCH  17  18
ATOM     18  C   UNL     1       5.792  -3.879   4.122  1.00  0.00    -0.000 C 
BRANCH  18  19
ATOM     19  C   UNL     1       4.727  -3.495   3.072  1.00  0.00    -0.000 C 
BRANCH  19  20
ATOM     20  C   UNL     1       3.312  -3.349   3.658  1.00  0.00    -0.000 C 
BRANCH  20  21
ATOM     21  C   UNL     1       2.297  -4.308   3.014  1.00  0.00    -0.000 C 
BRANCH  21  22
ATOM     22  C   UNL     1       1.159  -3.570   2.291  1.00  0.00    -0.000 C 
BRANCH  22  23
ATOM     23  C   UNL     1       1.385  -2.050   2.233  1.00  0.00    -0.000 C 
BRANCH  23  24
ATOM     24  C   UNL     1       0.246  -1.249   2.891  1.00  0.00    -0.000 C 
BRANCH  24  25
ATOM     25  C   UNL     1       0.579   0.221   3.199  1.00  0.00    -0.003 C 
ATOM     26  C   UNL     1       1.016   1.009   1.964  1.00  0.00     0.004 C 
ENDBRANCH  24  25
ENDBRANCH  23  24
ENDBRANCH  22  23
ENDBRANCH  21  22
ENDBRANCH  20  21
ENDBRANCH  19  20
ENDBRANCH  18  19
ENDBRANCH  17  18
ENDBRANCH  16  17
ENDBRANCH  15  16
ENDBRANCH   1  15
TORSDOF 22
ENDMDL
MODEL 7
REMARK VINA RESULT:     5.832      3.807      8.648
REMARK INTER + INTRA:          13.609
REMARK INTER:                  12.880
REMARK INTRA:                   0.729
REMARK UNBOUND:                 0.276
REMARK SMILES CCCCCCCCCCCCCCCCCCCCCCCC(=O)[O-]
REMARK SMILES IDX 13 1 14 2 15 3 16 4 17 5 18 6 19 7 20 8 21 9 22 10 23 11
REMARK SMILES IDX 24 12 25 13 26 14 12 15 11 16 10 17 9 18 8 19 7 20 6 21 5 22
REMARK SMILES IDX 4 23 3 24 2 25 1 26
REMARK H PARENT
REMARK Flexibility Score: inf
ROOT
ATOM      1  C   UNL     1       6.004  -8.686   5.230  1.00  0.00     0.000 C 
ENDROOT
BRANCH   1   2
ATOM      2  C   UNL     1       5.198  -7.828   6.217  1.00  0.00     0.000 C 
BRANCH   2   3
ATOM      3  C   UNL     1       5.882  -6.477   6.454  1.00  0.00     0.000 C 
BRANCH   3   4
ATOM      4  C   UNL     1       5.004  -5.321   5.959  1.00  0.00     0.000 C 
BRANCH   4   5
ATOM      5  C   UNL     1       5.600  -4.677   4.699  1.00  0.00     0.000 C 
BRANCH   5   6
ATOM      6  C   UNL     1       4.889  -3.372   4.299  1.00  0.00     0.000 C 
BRANCH   6   7
ATOM      7  C   UNL     1       3.944  -3.485   3.084  1.00  0.00     0.000 C 
BRANCH   7   8
ATOM      8  C   UNL     1       2.501  -3.903   3.416  1.00  0.00     0.000 C 
BRANCH   8   9
ATOM      9  C   UNL     1       1.568  -3.852   2.197  1.00  0.00     0.000 C 
BRANCH   9  10
ATOM     10  C   UNL     1       1.308  -2.400   1.769  1.00  0.00     0.006 C 
BRANCH  10  11
ATOM     11  C   UNL     1       1.669  -1.397   2.873  1.00  0.00     0.053 C 
BRANCH  11  12
ATOM     12  C   UNL     1       0.903  -0.117   2.734  1.00  0.00     0.041 C 
ATOM     13  O   UNL     1      -0.052   0.137   3.514  1.00  0.00    -0.550 OA
ATOM     14  O   UNL     1       1.221   0.779   1.721  1.00  0.00    -0.550 OA
ENDBRANCH  11  12
ENDBRANCH  10  11
ENDBRANCH   9  10
ENDBRANCH   8   9
ENDBRANCH   7   8
ENDBRANCH   6   7
ENDBRANCH   5   6
ENDBRANCH   4   5
ENDBRANCH   3   4
ENDBRANCH   2   3
ENDBRANCH   1   2
BRANCH   1  15
ATOM     15  C   UNL     1       6.370 -10.063   5.809  1.00  0.00     0.000 C 
BRANCH  15  16
ATOM     16  C   UNL     1       7.390  -9.965   6.957  1.00  0.00     0.000 C 
BRANCH  16  17
ATOM     17  C   UNL     1       8.794  -9.583   6.463  1.00  0.00     0.000 C 
BRANCH  17  18
ATOM     18  C   UNL     1       9.435  -8.467   7.308  1.00  0.00    -0.000 C 
BRANCH  18  19
ATOM     19  C   UNL     1       8.462  -7.904   8.365  1.00  0.00    -0.000 C 
BRANCH  19  20
ATOM     20  C   UNL     1       8.030  -8.942   9.417  1.00  0.00    -0.000 C 
BRANCH  20  21
ATOM     21  C   UNL     1       6.613  -9.486   9.172  1.00  0.00    -0.000 C 
BRANCH  21  22
ATOM     22  C   UNL     1       5.567  -8.860  10.108  1.00  0.00    -0.000 C 
BRANCH  22  23
ATOM     23  C   UNL     1       4.242  -9.640  10.118  1.00  0.00    -0.000 C 
BRANCH  23  24
ATOM     24  C   UNL     1       3.514  -9.602   8.761  1.00  0.00    -0.000 C 
BRANCH  24  25
ATOM     25  C   UNL     1       2.067 -10.125   8.784  1.00  0.00    -0.003 C 
ATOM     26  C   UNL     1       1.251  -9.579   9.956  1.00  0.00     0.004 C 
ENDBRANCH  24  25
ENDBRANCH  23  24
ENDBRANCH  22  23
ENDBRANCH  21  22
ENDBRANCH  20  21
ENDBRANCH  19  20
ENDBRANCH  18  19
ENDBRANCH  17  18
ENDBRANCH  16  17
ENDBRANCH  15  16
ENDBRANCH   1  15
TORSDOF 22
ENDMDL
