MODEL 1
REMARK VINA RESULT:    -2.975      0.000      0.000
REMARK INTER + INTRA:         -12.006
REMARK INTER:                  -7.844
REMARK INTRA:                  -4.163
REMARK UNBOUND:                -4.163
REMARK SMILES CCCCCCCCCCCCCCCCCCCCCCCCCCCCCC(=O)[O-]
REMARK SMILES IDX 16 1 17 2 18 3 19 4 20 5 21 6 22 7 23 8 24 9 25 10 26 11
REMARK SMILES IDX 27 12 28 13 29 14 30 15 31 16 32 17 15 18 14 19 13 20 12 21
REMARK SMILES IDX 11 22 10 23 9 24 8 25 7 26 6 27 5 28 4 29 3 30 2 31 1 32
REMARK H PARENT
REMARK Flexibility Score: inf
ROOT
ATOM      1  C   UNL     1       9.447   6.502   3.197  1.00  0.00     0.000 C 
ENDROOT
BRANCH   1   2
ATOM      2  C   UNL     1       8.310   7.531   3.141  1.00  0.00     0.000 C 
BRANCH   2   3
ATOM      3  C   UNL     1       6.937   6.920   3.477  1.00  0.00     0.000 C 
BRANCH   3   4
ATOM      4  C   UNL     1       5.938   6.883   2.303  1.00  0.00     0.000 C 
BRANCH   4   5
ATOM      5  C   UNL     1       6.068   5.661   1.370  1.00  0.00     0.000 C 
BRANCH   5   6
ATOM      6  C   UNL     1       5.957   5.980  -0.132  1.00  0.00     0.000 C 
BRANCH   6   7
ATOM      7  C   UNL     1       6.439   4.823  -1.023  1.00  0.00     0.000 C 
BRANCH   7   8
ATOM      8  C   UNL     1       7.883   4.400  -0.711  1.00  0.00     0.000 C 
BRANCH   8   9
ATOM      9  C   UNL     1       8.668   4.003  -1.975  1.00  0.00     0.000 C 
BRANCH   9  10
ATOM     10  C   UNL     1       9.070   2.513  -1.977  1.00  0.00     0.000 C 
BRANCH  10  11
ATOM     11  C   UNL     1       9.775   2.054  -0.687  1.00  0.00     0.000 C 
BRANCH  11  12
ATOM     12  C   UNL     1      11.303   1.916  -0.790  1.00  0.00     0.000 C 
BRANCH  12  13
ATOM     13  C   UNL     1      11.912   2.333  -2.144  1.00  0.00     0.006 C 
BRANCH  13  14
ATOM     14  C   UNL     1      12.221   1.153  -3.085  1.00  0.00     0.053 C 
BRANCH  14  15
ATOM     15  C   UNL     1      11.641   1.339  -4.455  1.00  0.00     0.041 C 
ATOM     16  O   UNL     1      11.484   0.349  -5.219  1.00  0.00    -0.550 OA
ATOM     17  O   UNL     1      11.250   2.601  -4.879  1.00  0.00    -0.550 OA
ENDBRANCH  14  15
ENDBRANCH  13  14
ENDBRANCH  12  13
ENDBRANCH  11  12
ENDBRANCH  10  11
ENDBRANCH   9  10
ENDBRANCH   8   9
ENDBRANCH   7   8
ENDBRANCH   6   7
ENDBRANCH   5   6
ENDBRANCH   4   5
ENDBRANCH   3   4
ENDBRANCH   2   3
ENDBRANCH   1   2
BRANCH   1  18
ATOM     18  C   UNL     1      10.323   6.582   1.938  1.00  0.00     0.000 C 
BRANCH  18  19
ATOM     19  C   UNL     1       9.521   6.927   0.671  1.00  0.00     0.000 C 
BRANCH  19  20
ATOM     20  C   UNL     1       9.592   8.401   0.234  1.00  0.00     0.000 C 
BRANCH  20  21
ATOM     21  C   UNL     1       9.265   8.599  -1.257  1.00  0.00     0.000 C 
BRANCH  21  22
ATOM     22  C   UNL     1       7.771   8.862  -1.516  1.00  0.00     0.000 C 
BRANCH  22  23
ATOM     23  C   UNL     1       7.348   8.887  -2.999  1.00  0.00     0.000 C 
BRANCH  23  24
ATOM     24  C   UNL     1       6.090   8.047  -3.316  1.00  0.00    -0.000 C 
BRANCH  24  25
ATOM     25  C   UNL     1       6.389   6.599  -3.751  1.00  0.00    -0.000 C 
BRANCH  25  26
ATOM     26  C   UNL     1       5.947   6.304  -5.194  1.00  0.00    -0.000 C 
BRANCH  26  27
ATOM     27  C   UNL     1       6.967   5.448  -5.959  1.00  0.00    -0.000 C 
BRANCH  27  28
ATOM     28  C   UNL     1       8.328   6.150  -6.125  1.00  0.00    -0.000 C 
BRANCH  28  29
ATOM     29  C   UNL     1       9.498   5.286  -5.610  1.00  0.00    -0.000 C 
BRANCH  29  30
ATOM     30  C   UNL     1      10.427   6.017  -4.621  1.00  0.00    -0.000 C 
BRANCH  30  31
ATOM     31  C   UNL     1      10.234   7.546  -4.584  1.00  0.00    -0.003 C 
ATOM     32  C   UNL     1      11.524   8.299  -4.254  1.00  0.00     0.004 C 
ENDBRANCH  30  31
ENDBRANCH  29  30
ENDBRANCH  28  29
ENDBRANCH  27  28
ENDBRANCH  26  27
ENDBRANCH  25  26
ENDBRANCH  24  25
ENDBRANCH  23  24
ENDBRANCH  22  23
ENDBRANCH  21  22
ENDBRANCH  20  21
ENDBRANCH  19  20
ENDBRANCH  18  19
ENDBRANCH   1  18
TORSDOF 28
ENDMDL
MODEL 2
REMARK VINA RESULT:    -2.842      2.130      7.186
REMARK INTER + INTRA:         -11.657
REMARK INTER:                  -7.824
REMARK INTRA:                  -3.833
REMARK UNBOUND:                -4.163
REMARK SMILES CCCCCCCCCCCCCCCCCCCCCCCCCCCCCC(=O)[O-]
REMARK SMILES IDX 16 1 17 2 18 3 19 4 20 5 21 6 22 7 23 8 24 9 25 10 26 11
REMARK SMILES IDX 27 12 28 13 29 14 30 15 31 16 32 17 15 18 14 19 13 20 12 21
REMARK SMILES IDX 11 22 10 23 9 24 8 25 7 26 6 27 5 28 4 29 3 30 2 31 1 32
REMARK H PARENT
REMARK Flexibility Score: inf
ROOT
ATOM      1  C   UNL     1      11.992   1.558  -1.009  1.00  0.00     0.000 C 
ENDROOT
BRANCH   1   2
ATOM      2  C   UNL     1      11.182   1.384  -2.300  1.00  0.00     0.000 C 
BRANCH   2   3
ATOM      3  C   UNL     1      11.878   1.999  -3.529  1.00  0.00     0.000 C 
BRANCH   3   4
ATOM      4  C   UNL     1      11.462   1.390  -4.883  1.00  0.00     0.000 C 
BRANCH   4   5
ATOM      5  C   UNL     1      11.508   2.361  -6.081  1.00  0.00     0.000 C 
BRANCH   5   6
ATOM      6  C   UNL     1      10.362   3.387  -6.125  1.00  0.00     0.000 C 
BRANCH   6   7
ATOM      7  C   UNL     1      10.827   4.813  -5.784  1.00  0.00     0.000 C 
BRANCH   7   8
ATOM      8  C   UNL     1       9.658   5.746  -5.431  1.00  0.00     0.000 C 
BRANCH   8   9
ATOM      9  C   UNL     1       8.316   5.257  -6.006  1.00  0.00     0.000 C 
BRANCH   9  10
ATOM     10  C   UNL     1       7.190   5.244  -4.950  1.00  0.00     0.000 C 
BRANCH  10  11
ATOM     11  C   UNL     1       7.279   6.394  -3.928  1.00  0.00     0.000 C 
BRANCH  11  12
ATOM     12  C   UNL     1       7.081   7.803  -4.510  1.00  0.00     0.000 C 
BRANCH  12  13
ATOM     13  C   UNL     1       7.877   8.923  -3.809  1.00  0.00     0.006 C 
BRANCH  13  14
ATOM     14  C   UNL     1       9.390   8.892  -4.092  1.00  0.00     0.053 C 
BRANCH  14  15
ATOM     15  C   UNL     1      10.194   8.498  -2.890  1.00  0.00     0.041 C 
ATOM     16  O   UNL     1       9.910   8.963  -1.753  1.00  0.00    -0.550 OA
ATOM     17  O   UNL     1      11.243   7.597  -3.019  1.00  0.00    -0.550 OA
ENDBRANCH  14  15
ENDBRANCH  13  14
ENDBRANCH  12  13
ENDBRANCH  11  12
ENDBRANCH  10  11
ENDBRANCH   9  10
ENDBRANCH   8   9
ENDBRANCH   7   8
ENDBRANCH   6   7
ENDBRANCH   5   6
ENDBRANCH   4   5
ENDBRANCH   3   4
ENDBRANCH   2   3
ENDBRANCH   1   2
BRANCH   1  18
ATOM     18  C   UNL     1      11.095   2.031   0.143  1.00  0.00     0.000 C 
BRANCH  18  19
ATOM     19  C   UNL     1       9.830   2.760  -0.341  1.00  0.00     0.000 C 
BRANCH  19  20
ATOM     20  C   UNL     1       9.435   3.999   0.482  1.00  0.00     0.000 C 
BRANCH  20  21
ATOM     21  C   UNL     1       8.402   4.888  -0.234  1.00  0.00     0.000 C 
BRANCH  21  22
ATOM     22  C   UNL     1       7.105   5.072   0.573  1.00  0.00     0.000 C 
BRANCH  22  23
ATOM     23  C   UNL     1       6.230   6.273   0.159  1.00  0.00     0.000 C 
BRANCH  23  24
ATOM     24  C   UNL     1       6.992   7.382  -0.603  1.00  0.00    -0.000 C 
BRANCH  24  25
ATOM     25  C   UNL     1       6.890   8.778   0.043  1.00  0.00    -0.000 C 
BRANCH  25  26
ATOM     26  C   UNL     1       6.075   8.776   1.348  1.00  0.00    -0.000 C 
BRANCH  26  27
ATOM     27  C   UNL     1       6.952   8.992   2.590  1.00  0.00    -0.000 C 
BRANCH  27  28
ATOM     28  C   UNL     1       6.832   7.844   3.610  1.00  0.00    -0.000 C 
BRANCH  28  29
ATOM     29  C   UNL     1       8.053   6.901   3.577  1.00  0.00    -0.000 C 
BRANCH  29  30
ATOM     30  C   UNL     1       9.245   7.450   2.768  1.00  0.00    -0.000 C 
BRANCH  30  31
ATOM     31  C   UNL     1      10.391   6.439   2.567  1.00  0.00    -0.003 C 
ATOM     32  C   UNL     1      11.211   6.213   3.838  1.00  0.00     0.004 C 
ENDBRANCH  30  31
ENDBRANCH  29  30
ENDBRANCH  28  29
ENDBRANCH  27  28
ENDBRANCH  26  27
ENDBRANCH  25  26
ENDBRANCH  24  25
ENDBRANCH  23  24
ENDBRANCH  22  23
ENDBRANCH  21  22
ENDBRANCH  20  21
ENDBRANCH  19  20
ENDBRANCH  18  19
ENDBRANCH   1  18
TORSDOF 28
ENDMDL
MODEL 3
REMARK VINA RESULT:    -2.820      2.214      3.541
REMARK INTER + INTRA:         -11.600
REMARK INTER:                  -7.806
REMARK INTRA:                  -3.793
REMARK UNBOUND:                -4.163
REMARK SMILES CCCCCCCCCCCCCCCCCCCCCCCCCCCCCC(=O)[O-]
REMARK SMILES IDX 16 1 17 2 18 3 19 4 20 5 21 6 22 7 23 8 24 9 25 10 26 11
REMARK SMILES IDX 27 12 28 13 29 14 30 15 31 16 32 17 15 18 14 19 13 20 12 21
REMARK SMILES IDX 11 22 10 23 9 24 8 25 7 26 6 27 5 28 4 29 3 30 2 31 1 32
REMARK H PARENT
REMARK Flexibility Score: inf
ROOT
ATOM      1  C   UNL     1       9.954   5.992   1.460  1.00  0.00     0.000 C 
ENDROOT
BRANCH   1   2
ATOM      2  C   UNL     1      10.207   4.481   1.369  1.00  0.00     0.000 C 
BRANCH   2   3
ATOM      3  C   UNL     1       9.147   3.749   0.526  1.00  0.00     0.000 C 
BRANCH   3   4
ATOM      4  C   UNL     1       8.280   4.663  -0.364  1.00  0.00     0.000 C 
BRANCH   4   5
ATOM      5  C   UNL     1       8.939   5.106  -1.686  1.00  0.00     0.000 C 
BRANCH   5   6
ATOM      6  C   UNL     1       8.517   4.291  -2.923  1.00  0.00     0.000 C 
BRANCH   6   7
ATOM      7  C   UNL     1       9.227   4.751  -4.207  1.00  0.00     0.000 C 
BRANCH   7   8
ATOM      8  C   UNL     1      10.698   4.307  -4.260  1.00  0.00     0.000 C 
BRANCH   8   9
ATOM      9  C   UNL     1      10.905   3.048  -5.121  1.00  0.00     0.000 C 
BRANCH   9  10
ATOM     10  C   UNL     1      11.269   1.808  -4.277  1.00  0.00     0.000 C 
BRANCH  10  11
ATOM     11  C   UNL     1      10.905   1.939  -2.785  1.00  0.00     0.000 C 
BRANCH  11  12
ATOM     12  C   UNL     1      11.959   2.644  -1.915  1.00  0.00     0.000 C 
BRANCH  12  13
ATOM     13  C   UNL     1      12.830   1.712  -1.050  1.00  0.00     0.006 C 
BRANCH  13  14
ATOM     14  C   UNL     1      12.034   0.853  -0.051  1.00  0.00     0.053 C 
BRANCH  14  15
ATOM     15  C   UNL     1      12.891  -0.148   0.664  1.00  0.00     0.041 C 
ATOM     16  O   UNL     1      14.098  -0.304   0.333  1.00  0.00    -0.550 OA
ATOM     17  O   UNL     1      12.366  -0.890   1.712  1.00  0.00    -0.550 OA
ENDBRANCH  14  15
ENDBRANCH  13  14
ENDBRANCH  12  13
ENDBRANCH  11  12
ENDBRANCH  10  11
ENDBRANCH   9  10
ENDBRANCH   8   9
ENDBRANCH   7   8
ENDBRANCH   6   7
ENDBRANCH   5   6
ENDBRANCH   4   5
ENDBRANCH   3   4
ENDBRANCH   2   3
ENDBRANCH   1   2
BRANCH   1  18
ATOM     18  C   UNL     1       9.508   6.390   2.874  1.00  0.00     0.000 C 
BRANCH  18  19
ATOM     19  C   UNL     1       7.981   6.527   3.005  1.00  0.00     0.000 C 
BRANCH  19  20
ATOM     20  C   UNL     1       7.423   7.929   2.703  1.00  0.00     0.000 C 
BRANCH  20  21
ATOM     21  C   UNL     1       6.302   7.911   1.648  1.00  0.00     0.000 C 
BRANCH  21  22
ATOM     22  C   UNL     1       6.347   9.125   0.702  1.00  0.00     0.000 C 
BRANCH  22  23
ATOM     23  C   UNL     1       5.924   8.847  -0.755  1.00  0.00     0.000 C 
BRANCH  23  24
ATOM     24  C   UNL     1       6.998   8.127  -1.603  1.00  0.00    -0.000 C 
BRANCH  24  25
ATOM     25  C   UNL     1       6.454   7.464  -2.883  1.00  0.00    -0.000 C 
BRANCH  25  26
ATOM     26  C   UNL     1       5.923   8.484  -3.905  1.00  0.00    -0.000 C 
BRANCH  26  27
ATOM     27  C   UNL     1       6.290   8.115  -5.350  1.00  0.00    -0.000 C 
BRANCH  27  28
ATOM     28  C   UNL     1       7.712   7.535  -5.473  1.00  0.00    -0.000 C 
BRANCH  28  29
ATOM     29  C   UNL     1       8.799   8.622  -5.342  1.00  0.00    -0.000 C 
BRANCH  29  30
ATOM     30  C   UNL     1      10.232   8.106  -5.583  1.00  0.00    -0.000 C 
BRANCH  30  31
ATOM     31  C   UNL     1      11.145   8.174  -4.343  1.00  0.00    -0.003 C 
ATOM     32  C   UNL     1      10.363   8.159  -3.029  1.00  0.00     0.004 C 
ENDBRANCH  30  31
ENDBRANCH  29  30
ENDBRANCH  28  29
ENDBRANCH  27  28
ENDBRANCH  26  27
ENDBRANCH  25  26
ENDBRANCH  24  25
ENDBRANCH  23  24
ENDBRANCH  22  23
ENDBRANCH  21  22
ENDBRANCH  20  21
ENDBRANCH  19  20
ENDBRANCH  18  19
ENDBRANCH   1  18
TORSDOF 28
ENDMDL
MODEL 4
REMARK VINA RESULT:    -2.699      1.830      5.232
REMARK INTER + INTRA:         -11.279
REMARK INTER:                  -7.634
REMARK INTRA:                  -3.644
REMARK UNBOUND:                -4.163
REMARK SMILES CCCCCCCCCCCCCCCCCCCCCCCCCCCCCC(=O)[O-]
REMARK SMILES IDX 16 1 17 2 18 3 19 4 20 5 21 6 22 7 23 8 24 9 25 10 26 11
REMARK SMILES IDX 27 12 28 13 29 14 30 15 31 16 32 17 15 18 14 19 13 20 12 21
REMARK SMILES IDX 11 22 10 23 9 24 8 25 7 26 6 27 5 28 4 29 3 30 2 31 1 32
REMARK H PARENT
REMARK Flexibility Score: inf
ROOT
ATOM      1  C   UNL     1       8.302   6.503   3.297  1.00  0.00     0.000 C 
ENDROOT
BRANCH   1   2
ATOM      2  C   UNL     1       6.821   6.717   3.634  1.00  0.00     0.000 C 
BRANCH   2   3
ATOM      3  C   UNL     1       5.878   5.931   2.704  1.00  0.00     0.000 C 
BRANCH   3   4
ATOM      4  C   UNL     1       6.036   6.246   1.202  1.00  0.00     0.000 C 
BRANCH   4   5
ATOM      5  C   UNL     1       6.183   7.743   0.859  1.00  0.00     0.000 C 
BRANCH   5   6
ATOM      6  C   UNL     1       5.875   8.104  -0.605  1.00  0.00     0.000 C 
BRANCH   6   7
ATOM      7  C   UNL     1       7.144   8.384  -1.428  1.00  0.00     0.000 C 
BRANCH   7   8
ATOM      8  C   UNL     1       6.970   8.040  -2.915  1.00  0.00     0.000 C 
BRANCH   8   9
ATOM      9  C   UNL     1       7.632   6.702  -3.293  1.00  0.00     0.000 C 
BRANCH   9  10
ATOM     10  C   UNL     1       8.725   6.868  -4.371  1.00  0.00     0.000 C 
BRANCH  10  11
ATOM     11  C   UNL     1      10.150   7.004  -3.800  1.00  0.00     0.000 C 
BRANCH  11  12
ATOM     12  C   UNL     1      10.738   5.718  -3.195  1.00  0.00     0.000 C 
BRANCH  12  13
ATOM     13  C   UNL     1      10.020   4.413  -3.596  1.00  0.00     0.006 C 
BRANCH  13  14
ATOM     14  C   UNL     1      10.544   3.781  -4.899  1.00  0.00     0.053 C 
BRANCH  14  15
ATOM     15  C   UNL     1      11.342   2.536  -4.657  1.00  0.00     0.041 C 
ATOM     16  O   UNL     1      12.223   2.508  -3.756  1.00  0.00    -0.550 OA
ATOM     17  O   UNL     1      11.096   1.395  -5.409  1.00  0.00    -0.550 OA
ENDBRANCH  14  15
ENDBRANCH  13  14
ENDBRANCH  12  13
ENDBRANCH  11  12
ENDBRANCH  10  11
ENDBRANCH   9  10
ENDBRANCH   8   9
ENDBRANCH   7   8
ENDBRANCH   6   7
ENDBRANCH   5   6
ENDBRANCH   4   5
ENDBRANCH   3   4
ENDBRANCH   2   3
ENDBRANCH   1   2
BRANCH   1  18
ATOM     18  C   UNL     1       9.117   7.775   3.568  1.00  0.00     0.000 C 
BRANCH  18  19
ATOM     19  C   UNL     1      10.200   8.031   2.506  1.00  0.00     0.000 C 
BRANCH  19  20
ATOM     20  C   UNL     1       9.672   8.449   1.122  1.00  0.00     0.000 C 
BRANCH  20  21
ATOM     21  C   UNL     1      10.216   7.567  -0.016  1.00  0.00     0.000 C 
BRANCH  21  22
ATOM     22  C   UNL     1      10.183   6.065   0.319  1.00  0.00     0.000 C 
BRANCH  22  23
ATOM     23  C   UNL     1       8.908   5.315  -0.118  1.00  0.00     0.000 C 
BRANCH  23  24
ATOM     24  C   UNL     1       8.499   4.157   0.820  1.00  0.00    -0.000 C 
BRANCH  24  25
ATOM     25  C   UNL     1       8.987   2.768   0.362  1.00  0.00    -0.000 C 
BRANCH  25  26
ATOM     26  C   UNL     1      10.504   2.579   0.541  1.00  0.00    -0.000 C 
BRANCH  26  27
ATOM     27  C   UNL     1      11.234   2.380  -0.795  1.00  0.00    -0.000 C 
BRANCH  27  28
ATOM     28  C   UNL     1      11.772   0.947  -0.971  1.00  0.00    -0.000 C 
BRANCH  28  29
ATOM     29  C   UNL     1      13.163   0.763  -0.330  1.00  0.00    -0.000 C 
BRANCH  29  30
ATOM     30  C   UNL     1      13.311  -0.541   0.479  1.00  0.00    -0.000 C 
BRANCH  30  31
ATOM     31  C   UNL     1      12.793  -0.449   1.928  1.00  0.00    -0.003 C 
ATOM     32  C   UNL     1      13.918  -0.266   2.948  1.00  0.00     0.004 C 
ENDBRANCH  30  31
ENDBRANCH  29  30
ENDBRANCH  28  29
ENDBRANCH  27  28
ENDBRANCH  26  27
ENDBRANCH  25  26
ENDBRANCH  24  25
ENDBRANCH  23  24
ENDBRANCH  22  23
ENDBRANCH  21  22
ENDBRANCH  20  21
ENDBRANCH  19  20
ENDBRANCH  18  19
ENDBRANCH   1  18
TORSDOF 28
ENDMDL
MODEL 5
REMARK VINA RESULT:    -2.697      3.225      6.183
REMARK INTER + INTRA:         -11.274
REMARK INTER:                  -6.776
REMARK INTRA:                  -4.498
REMARK UNBOUND:                -4.163
REMARK SMILES CCCCCCCCCCCCCCCCCCCCCCCCCCCCCC(=O)[O-]
REMARK SMILES IDX 16 1 17 2 18 3 19 4 20 5 21 6 22 7 23 8 24 9 25 10 26 11
REMARK SMILES IDX 27 12 28 13 29 14 30 15 31 16 32 17 15 18 14 19 13 20 12 21
REMARK SMILES IDX 11 22 10 23 9 24 8 25 7 26 6 27 5 28 4 29 3 30 2 31 1 32
REMARK H PARENT
REMARK Flexibility Score: inf
ROOT
ATOM      1  C   UNL     1      10.067   5.255   0.265  1.00  0.00     0.000 C 
ENDROOT
BRANCH   1   2
ATOM      2  C   UNL     1       9.045   4.123   0.103  1.00  0.00     0.000 C 
BRANCH   2   3
ATOM      3  C   UNL     1       7.592   4.631   0.076  1.00  0.00     0.000 C 
BRANCH   3   4
ATOM      4  C   UNL     1       6.960   4.716  -1.328  1.00  0.00     0.000 C 
BRANCH   4   5
ATOM      5  C   UNL     1       5.882   5.807  -1.497  1.00  0.00     0.000 C 
BRANCH   5   6
ATOM      6  C   UNL     1       6.229   6.906  -2.517  1.00  0.00     0.000 C 
BRANCH   6   7
ATOM      7  C   UNL     1       6.958   8.101  -1.879  1.00  0.00     0.000 C 
BRANCH   7   8
ATOM      8  C   UNL     1       6.007   9.023  -1.100  1.00  0.00     0.000 C 
BRANCH   8   9
ATOM      9  C   UNL     1       6.261   8.987   0.419  1.00  0.00     0.000 C 
BRANCH   9  10
ATOM     10  C   UNL     1       7.543   8.209   0.785  1.00  0.00     0.000 C 
BRANCH  10  11
ATOM     11  C   UNL     1       8.598   9.054   1.523  1.00  0.00     0.000 C 
BRANCH  11  12
ATOM     12  C   UNL     1       8.687   8.810   3.039  1.00  0.00     0.000 C 
BRANCH  12  13
ATOM     13  C   UNL     1       7.461   8.117   3.668  1.00  0.00     0.006 C 
BRANCH  13  14
ATOM     14  C   UNL     1       7.669   6.622   3.968  1.00  0.00     0.053 C 
BRANCH  14  15
ATOM     15  C   UNL     1       6.436   5.964   4.510  1.00  0.00     0.041 C 
ATOM     16  O   UNL     1       5.875   5.035   3.868  1.00  0.00    -0.550 OA
ATOM     17  O   UNL     1       5.920   6.357   5.737  1.00  0.00    -0.550 OA
ENDBRANCH  14  15
ENDBRANCH  13  14
ENDBRANCH  12  13
ENDBRANCH  11  12
ENDBRANCH  10  11
ENDBRANCH   9  10
ENDBRANCH   8   9
ENDBRANCH   7   8
ENDBRANCH   6   7
ENDBRANCH   5   6
ENDBRANCH   4   5
ENDBRANCH   3   4
ENDBRANCH   2   3
ENDBRANCH   1   2
BRANCH   1  18
ATOM     18  C   UNL     1      10.744   5.580  -1.073  1.00  0.00     0.000 C 
BRANCH  18  19
ATOM     19  C   UNL     1       9.989   6.648  -1.884  1.00  0.00     0.000 C 
BRANCH  19  20
ATOM     20  C   UNL     1      10.520   8.084  -1.726  1.00  0.00     0.000 C 
BRANCH  20  21
ATOM     21  C   UNL     1      10.821   8.762  -3.075  1.00  0.00     0.000 C 
BRANCH  21  22
ATOM     22  C   UNL     1       9.615   8.760  -4.031  1.00  0.00     0.000 C 
BRANCH  22  23
ATOM     23  C   UNL     1       9.887   8.202  -5.443  1.00  0.00     0.000 C 
BRANCH  23  24
ATOM     24  C   UNL     1      11.236   7.462  -5.585  1.00  0.00    -0.000 C 
BRANCH  24  25
ATOM     25  C   UNL     1      11.108   5.932  -5.723  1.00  0.00    -0.000 C 
BRANCH  25  26
ATOM     26  C   UNL     1       9.861   5.370  -5.020  1.00  0.00    -0.000 C 
BRANCH  26  27
ATOM     27  C   UNL     1       9.915   3.844  -4.855  1.00  0.00    -0.000 C 
BRANCH  27  28
ATOM     28  C   UNL     1      11.348   3.286  -4.953  1.00  0.00    -0.000 C 
BRANCH  28  29
ATOM     29  C   UNL     1      11.434   1.814  -4.499  1.00  0.00    -0.000 C 
BRANCH  29  30
ATOM     30  C   UNL     1      11.022   1.586  -3.031  1.00  0.00    -0.000 C 
BRANCH  30  31
ATOM     31  C   UNL     1      12.048   2.097  -2.000  1.00  0.00    -0.003 C 
ATOM     32  C   UNL     1      11.717   1.665  -0.571  1.00  0.00     0.004 C 
ENDBRANCH  30  31
ENDBRANCH  29  30
ENDBRANCH  28  29
ENDBRANCH  27  28
ENDBRANCH  26  27
ENDBRANCH  25  26
ENDBRANCH  24  25
ENDBRANCH  23  24
ENDBRANCH  22  23
ENDBRANCH  21  22
ENDBRANCH  20  21
ENDBRANCH  19  20
ENDBRANCH  18  19
ENDBRANCH   1  18
TORSDOF 28
ENDMDL
MODEL 6
REMARK VINA RESULT:    -2.636      2.106      5.160
REMARK INTER + INTRA:         -11.114
REMARK INTER:                  -7.252
REMARK INTRA:                  -3.862
REMARK UNBOUND:                -4.163
REMARK SMILES CCCCCCCCCCCCCCCCCCCCCCCCCCCCCC(=O)[O-]
REMARK SMILES IDX 16 1 17 2 18 3 19 4 20 5 21 6 22 7 23 8 24 9 25 10 26 11
REMARK SMILES IDX 27 12 28 13 29 14 30 15 31 16 32 17 15 18 14 19 13 20 12 21
REMARK SMILES IDX 11 22 10 23 9 24 8 25 7 26 6 27 5 28 4 29 3 30 2 31 1 32
REMARK H PARENT
REMARK Flexibility Score: inf
ROOT
ATOM      1  C   UNL     1       8.566   6.486   2.912  1.00  0.00     0.000 C 
ENDROOT
BRANCH   1   2
ATOM      2  C   UNL     1       7.038   6.368   2.974  1.00  0.00     0.000 C 
BRANCH   2   3
ATOM      3  C   UNL     1       6.437   5.740   1.702  1.00  0.00     0.000 C 
BRANCH   3   4
ATOM      4  C   UNL     1       6.408   6.668   0.471  1.00  0.00     0.000 C 
BRANCH   4   5
ATOM      5  C   UNL     1       6.389   8.177   0.788  1.00  0.00     0.000 C 
BRANCH   5   6
ATOM      6  C   UNL     1       5.875   9.071  -0.354  1.00  0.00     0.000 C 
BRANCH   6   7
ATOM      7  C   UNL     1       6.800   9.056  -1.583  1.00  0.00     0.000 C 
BRANCH   7   8
ATOM      8  C   UNL     1       6.026   8.921  -2.903  1.00  0.00     0.000 C 
BRANCH   8   9
ATOM      9  C   UNL     1       6.878   8.304  -4.028  1.00  0.00     0.000 C 
BRANCH   9  10
ATOM     10  C   UNL     1       6.924   6.763  -3.955  1.00  0.00     0.000 C 
BRANCH  10  11
ATOM     11  C   UNL     1       6.959   6.073  -5.332  1.00  0.00     0.000 C 
BRANCH  11  12
ATOM     12  C   UNL     1       8.319   6.112  -6.049  1.00  0.00     0.000 C 
BRANCH  12  13
ATOM     13  C   UNL     1       9.513   6.547  -5.174  1.00  0.00     0.006 C 
BRANCH  13  14
ATOM     14  C   UNL     1      10.584   7.356  -5.928  1.00  0.00     0.053 C 
BRANCH  14  15
ATOM     15  C   UNL     1      11.464   8.148  -5.010  1.00  0.00     0.041 C 
ATOM     16  O   UNL     1      11.050   8.490  -3.869  1.00  0.00    -0.550 OA
ATOM     17  O   UNL     1      12.752   8.488  -5.401  1.00  0.00    -0.550 OA
ENDBRANCH  14  15
ENDBRANCH  13  14
ENDBRANCH  12  13
ENDBRANCH  11  12
ENDBRANCH  10  11
ENDBRANCH   9  10
ENDBRANCH   8   9
ENDBRANCH   7   8
ENDBRANCH   6   7
ENDBRANCH   5   6
ENDBRANCH   4   5
ENDBRANCH   3   4
ENDBRANCH   2   3
ENDBRANCH   1   2
BRANCH   1  18
ATOM     18  C   UNL     1       9.008   7.953   3.003  1.00  0.00     0.000 C 
BRANCH  18  19
ATOM     19  C   UNL     1      10.049   8.334   1.936  1.00  0.00     0.000 C 
BRANCH  19  20
ATOM     20  C   UNL     1       9.476   8.610   0.535  1.00  0.00     0.000 C 
BRANCH  20  21
ATOM     21  C   UNL     1      10.274   7.917  -0.585  1.00  0.00     0.000 C 
BRANCH  21  22
ATOM     22  C   UNL     1      10.165   6.383  -0.540  1.00  0.00     0.000 C 
BRANCH  22  23
ATOM     23  C   UNL     1       9.748   5.708  -1.863  1.00  0.00     0.000 C 
BRANCH  23  24
ATOM     24  C   UNL     1       8.489   4.819  -1.754  1.00  0.00    -0.000 C 
BRANCH  24  25
ATOM     25  C   UNL     1       8.737   3.446  -1.100  1.00  0.00    -0.000 C 
BRANCH  25  26
ATOM     26  C   UNL     1       9.098   3.551   0.392  1.00  0.00    -0.000 C 
BRANCH  26  27
ATOM     27  C   UNL     1      10.445   2.889   0.720  1.00  0.00    -0.000 C 
BRANCH  27  28
ATOM     28  C   UNL     1      10.793   1.739  -0.244  1.00  0.00    -0.000 C 
BRANCH  28  29
ATOM     29  C   UNL     1      12.043   2.047  -1.094  1.00  0.00    -0.000 C 
BRANCH  29  30
ATOM     30  C   UNL     1      12.086   1.295  -2.439  1.00  0.00    -0.000 C 
BRANCH  30  31
ATOM     31  C   UNL     1      10.929   1.645  -3.396  1.00  0.00    -0.003 C 
ATOM     32  C   UNL     1      11.336   2.651  -4.474  1.00  0.00     0.004 C 
ENDBRANCH  30  31
ENDBRANCH  29  30
ENDBRANCH  28  29
ENDBRANCH  27  28
ENDBRANCH  26  27
ENDBRANCH  25  26
ENDBRANCH  24  25
ENDBRANCH  23  24
ENDBRANCH  22  23
ENDBRANCH  21  22
ENDBRANCH  20  21
ENDBRANCH  19  20
ENDBRANCH  18  19
ENDBRANCH   1  18
TORSDOF 28
ENDMDL
MODEL 7
REMARK VINA RESULT:    -2.491      1.902      6.530
REMARK INTER + INTRA:         -10.731
REMARK INTER:                  -7.096
REMARK INTRA:                  -3.635
REMARK UNBOUND:                -4.163
REMARK SMILES CCCCCCCCCCCCCCCCCCCCCCCCCCCCCC(=O)[O-]
REMARK SMILES IDX 16 1 17 2 18 3 19 4 20 5 21 6 22 7 23 8 24 9 25 10 26 11
REMARK SMILES IDX 27 12 28 13 29 14 30 15 31 16 32 17 15 18 14 19 13 20 12 21
REMARK SMILES IDX 11 22 10 23 9 24 8 25 7 26 6 27 5 28 4 29 3 30 2 31 1 32
REMARK H PARENT
REMARK Flexibility Score: inf
ROOT
ATOM      1  C   UNL     1      11.445   1.639   0.061  1.00  0.00     0.000 C 
ENDROOT
BRANCH   1   2
ATOM      2  C   UNL     1      12.267   1.312  -1.193  1.00  0.00     0.000 C 
BRANCH   2   3
ATOM      3  C   UNL     1      11.829   2.130  -2.422  1.00  0.00     0.000 C 
BRANCH   3   4
ATOM      4  C   UNL     1      11.122   1.317  -3.525  1.00  0.00     0.000 C 
BRANCH   4   5
ATOM      5  C   UNL     1      11.814   1.342  -4.904  1.00  0.00     0.000 C 
BRANCH   5   6
ATOM      6  C   UNL     1      11.084   2.168  -5.978  1.00  0.00     0.000 C 
BRANCH   6   7
ATOM      7  C   UNL     1      11.380   3.674  -5.874  1.00  0.00     0.000 C 
BRANCH   7   8
ATOM      8  C   UNL     1      10.105   4.530  -5.910  1.00  0.00     0.000 C 
BRANCH   8   9
ATOM      9  C   UNL     1      10.317   5.932  -5.308  1.00  0.00     0.000 C 
BRANCH   9  10
ATOM     10  C   UNL     1       9.503   7.019  -6.043  1.00  0.00     0.000 C 
BRANCH  10  11
ATOM     11  C   UNL     1       8.026   7.091  -5.613  1.00  0.00     0.000 C 
BRANCH  11  12
ATOM     12  C   UNL     1       7.139   5.943  -6.123  1.00  0.00     0.000 C 
BRANCH  12  13
ATOM     13  C   UNL     1       6.819   4.848  -5.087  1.00  0.00     0.006 C 
BRANCH  13  14
ATOM     14  C   UNL     1       6.302   5.387  -3.740  1.00  0.00     0.053 C 
BRANCH  14  15
ATOM     15  C   UNL     1       6.838   4.623  -2.567  1.00  0.00     0.041 C 
ATOM     16  O   UNL     1       6.052   4.015  -1.790  1.00  0.00    -0.550 OA
ATOM     17  O   UNL     1       8.206   4.559  -2.345  1.00  0.00    -0.550 OA
ENDBRANCH  14  15
ENDBRANCH  13  14
ENDBRANCH  12  13
ENDBRANCH  11  12
ENDBRANCH  10  11
ENDBRANCH   9  10
ENDBRANCH   8   9
ENDBRANCH   7   8
ENDBRANCH   6   7
ENDBRANCH   5   6
ENDBRANCH   4   5
ENDBRANCH   3   4
ENDBRANCH   2   3
ENDBRANCH   1   2
BRANCH   1  18
ATOM     18  C   UNL     1       9.942   1.639  -0.252  1.00  0.00     0.000 C 
BRANCH  18  19
ATOM     19  C   UNL     1       9.218   2.885   0.288  1.00  0.00     0.000 C 
BRANCH  19  20
ATOM     20  C   UNL     1      10.056   4.176   0.293  1.00  0.00     0.000 C 
BRANCH  20  21
ATOM     21  C   UNL     1      10.027   4.901   1.651  1.00  0.00     0.000 C 
BRANCH  21  22
ATOM     22  C   UNL     1       9.852   6.423   1.517  1.00  0.00     0.000 C 
BRANCH  22  23
ATOM     23  C   UNL     1      10.534   7.065   0.291  1.00  0.00     0.000 C 
BRANCH  23  24
ATOM     24  C   UNL     1       9.749   8.242  -0.331  1.00  0.00    -0.000 C 
BRANCH  24  25
ATOM     25  C   UNL     1       8.825   7.842  -1.497  1.00  0.00    -0.000 C 
BRANCH  25  26
ATOM     26  C   UNL     1       8.547   9.003  -2.466  1.00  0.00    -0.000 C 
BRANCH  26  27
ATOM     27  C   UNL     1       7.059   9.125  -2.829  1.00  0.00    -0.000 C 
BRANCH  27  28
ATOM     28  C   UNL     1       6.146   8.350  -1.860  1.00  0.00    -0.000 C 
BRANCH  28  29
ATOM     29  C   UNL     1       5.898   9.121  -0.547  1.00  0.00    -0.000 C 
BRANCH  29  30
ATOM     30  C   UNL     1       6.108   8.276   0.724  1.00  0.00    -0.000 C 
BRANCH  30  31
ATOM     31  C   UNL     1       5.990   6.755   0.499  1.00  0.00    -0.003 C 
ATOM     32  C   UNL     1       6.236   5.946   1.774  1.00  0.00     0.004 C 
ENDBRANCH  30  31
ENDBRANCH  29  30
ENDBRANCH  28  29
ENDBRANCH  27  28
ENDBRANCH  26  27
ENDBRANCH  25  26
ENDBRANCH  24  25
ENDBRANCH  23  24
ENDBRANCH  22  23
ENDBRANCH  21  22
ENDBRANCH  20  21
ENDBRANCH  19  20
ENDBRANCH  18  19
ENDBRANCH   1  18
TORSDOF 28
ENDMDL
MODEL 8
REMARK VINA RESULT:    -0.306      3.130      6.111
REMARK INTER + INTRA:          -4.969
REMARK INTER:                  -0.873
REMARK INTRA:                  -4.097
REMARK UNBOUND:                -4.163
REMARK SMILES CCCCCCCCCCCCCCCCCCCCCCCCCCCCCC(=O)[O-]
REMARK SMILES IDX 16 1 17 2 18 3 19 4 20 5 21 6 22 7 23 8 24 9 25 10 26 11
REMARK SMILES IDX 27 12 28 13 29 14 30 15 31 16 32 17 15 18 14 19 13 20 12 21
REMARK SMILES IDX 11 22 10 23 9 24 8 25 7 26 6 27 5 28 4 29 3 30 2 31 1 32
REMARK H PARENT
REMARK Flexibility Score: inf
ROOT
ATOM      1  C   UNL     1      10.201   4.117   0.394  1.00  0.00     0.000 C 
ENDROOT
BRANCH   1   2
ATOM      2  C   UNL     1       8.872   3.363   0.261  1.00  0.00     0.000 C 
BRANCH   2   3
ATOM      3  C   UNL     1       7.647   4.268   0.494  1.00  0.00     0.000 C 
BRANCH   3   4
ATOM      4  C   UNL     1       6.967   4.783  -0.791  1.00  0.00     0.000 C 
BRANCH   4   5
ATOM      5  C   UNL     1       5.985   5.955  -0.587  1.00  0.00     0.000 C 
BRANCH   5   6
ATOM      6  C   UNL     1       5.927   6.960  -1.752  1.00  0.00     0.000 C 
BRANCH   6   7
ATOM      7  C   UNL     1       6.473   8.346  -1.368  1.00  0.00     0.000 C 
BRANCH   7   8
ATOM      8  C   UNL     1       7.852   8.271  -0.694  1.00  0.00     0.000 C 
BRANCH   8   9
ATOM      9  C   UNL     1       7.870   8.940   0.692  1.00  0.00     0.000 C 
BRANCH   9  10
ATOM     10  C   UNL     1       6.935   8.237   1.699  1.00  0.00     0.000 C 
BRANCH  10  11
ATOM     11  C   UNL     1       7.674   7.372   2.739  1.00  0.00     0.000 C 
BRANCH  11  12
ATOM     12  C   UNL     1       9.049   6.846   2.294  1.00  0.00     0.000 C 
BRANCH  12  13
ATOM     13  C   UNL     1      10.193   7.052   3.307  1.00  0.00     0.006 C 
BRANCH  13  14
ATOM     14  C   UNL     1      11.282   5.965   3.256  1.00  0.00     0.053 C 
BRANCH  14  15
ATOM     15  C   UNL     1      12.246   6.058   4.400  1.00  0.00     0.041 C 
ATOM     16  O   UNL     1      12.998   5.085   4.680  1.00  0.00    -0.550 OA
ATOM     17  O   UNL     1      12.334   7.227   5.142  1.00  0.00    -0.550 OA
ENDBRANCH  14  15
ENDBRANCH  13  14
ENDBRANCH  12  13
ENDBRANCH  11  12
ENDBRANCH  10  11
ENDBRANCH   9  10
ENDBRANCH   8   9
ENDBRANCH   7   8
ENDBRANCH   6   7
ENDBRANCH   5   6
ENDBRANCH   4   5
ENDBRANCH   3   4
ENDBRANCH   2   3
ENDBRANCH   1   2
BRANCH   1  18
ATOM     18  C   UNL     1      10.762   4.490  -0.986  1.00  0.00     0.000 C 
BRANCH  18  19
ATOM     19  C   UNL     1      10.078   5.725  -1.597  1.00  0.00     0.000 C 
BRANCH  19  20
ATOM     20  C   UNL     1      11.036   6.781  -2.176  1.00  0.00     0.000 C 
BRANCH  20  21
ATOM     21  C   UNL     1      10.602   7.283  -3.566  1.00  0.00     0.000 C 
BRANCH  21  22
ATOM     22  C   UNL     1       9.189   6.818  -3.959  1.00  0.00     0.000 C 
BRANCH  22  23
ATOM     23  C   UNL     1       9.094   6.023  -5.277  1.00  0.00     0.000 C 
BRANCH  23  24
ATOM     24  C   UNL     1      10.433   5.889  -6.037  1.00  0.00    -0.000 C 
BRANCH  24  25
ATOM     25  C   UNL     1      10.969   4.446  -6.125  1.00  0.00    -0.000 C 
BRANCH  25  26
ATOM     26  C   UNL     1      10.420   3.535  -5.014  1.00  0.00    -0.000 C 
BRANCH  26  27
ATOM     27  C   UNL     1      11.482   3.185  -3.961  1.00  0.00    -0.000 C 
BRANCH  27  28
ATOM     28  C   UNL     1      11.606   1.668  -3.722  1.00  0.00    -0.000 C 
BRANCH  28  29
ATOM     29  C   UNL     1      11.234   1.271  -2.279  1.00  0.00    -0.000 C 
BRANCH  29  30
ATOM     30  C   UNL     1      12.320   1.604  -1.238  1.00  0.00    -0.000 C 
BRANCH  30  31
ATOM     31  C   UNL     1      12.271   0.729   0.030  1.00  0.00    -0.003 C 
ATOM     32  C   UNL     1      13.471  -0.211   0.148  1.00  0.00     0.004 C 
ENDBRANCH  30  31
ENDBRANCH  29  30
ENDBRANCH  28  29
ENDBRANCH  27  28
ENDBRANCH  26  27
ENDBRANCH  25  26
ENDBRANCH  24  25
ENDBRANCH  23  24
ENDBRANCH  22  23
ENDBRANCH  21  22
ENDBRANCH  20  21
ENDBRANCH  19  20
ENDBRANCH  18  19
ENDBRANCH   1  18
TORSDOF 28
ENDMDL
