MODEL 1
REMARK VINA RESULT:    -5.139      0.000      0.000
REMARK INTER + INTRA:          -6.175
REMARK INTER:                  -6.040
REMARK INTRA:                  -0.135
REMARK UNBOUND:                -0.135
REMARK SMILES O=C([O-])C=Cc1ccc(O)c(O)c1
REMARK SMILES IDX 6 1 13 2 7 3 11 4 8 5 9 6 5 7 4 8 2 9 1 10 3 11 12 12 10 14
REMARK H PARENT 12 13 10 15
REMARK Flexibility Score: inf
ROOT
ATOM      1  C   UNL     1       8.418  -7.335  -8.272  1.00  0.00    -0.022 A 
ATOM      2  C   UNL     1       7.713  -6.668  -7.256  1.00  0.00     0.058 A 
ATOM      3  C   UNL     1       9.813  -7.160  -8.361  1.00  0.00     0.012 A 
ATOM      4  C   UNL     1       8.380  -5.823  -6.359  1.00  0.00     0.157 A 
ATOM      5  C   UNL     1      10.477  -6.315  -7.466  1.00  0.00     0.051 A 
ATOM      6  C   UNL     1       9.764  -5.643  -6.466  1.00  0.00     0.157 A 
ENDROOT
BRANCH   1   7
ATOM      7  C   UNL     1       7.666  -8.228  -9.189  1.00  0.00     0.010 C 
ATOM      8  C   UNL     1       7.777  -8.188 -10.524  1.00  0.00     0.025 C 
BRANCH   8   9
ATOM      9  C   UNL     1       7.003  -9.086 -11.396  1.00  0.00     0.064 C 
ATOM     10  O   UNL     1       6.120  -9.830 -10.895  1.00  0.00    -0.545 OA
ATOM     11  O   UNL     1       7.229  -9.125 -12.767  1.00  0.00    -0.545 OA
ENDBRANCH   8   9
ENDBRANCH   1   7
BRANCH   4  12
ATOM     12  O   UNL     1       7.673  -5.156  -5.359  1.00  0.00    -0.504 OA
ATOM     13  H   UNL     1       8.109  -4.901  -4.481  1.00  0.00     0.293 HD
ENDBRANCH   4  12
BRANCH   6  14
ATOM     14  O   UNL     1      10.424  -4.800  -5.573  1.00  0.00    -0.504 OA
ATOM     15  H   UNL     1      10.596  -3.826  -5.794  1.00  0.00     0.293 HD
ENDBRANCH   6  14
TORSDOF 4
ENDMDL
MODEL 2
REMARK VINA RESULT:    -5.126      1.827      2.776
REMARK INTER + INTRA:          -6.159
REMARK INTER:                  -6.028
REMARK INTRA:                  -0.131
REMARK UNBOUND:                -0.135
REMARK SMILES O=C([O-])C=Cc1ccc(O)c(O)c1
REMARK SMILES IDX 6 1 13 2 7 3 11 4 8 5 9 6 5 7 4 8 2 9 1 10 3 11 12 12 10 14
REMARK H PARENT 12 13 10 15
REMARK Flexibility Score: inf
ROOT
ATOM      1  C   UNL     1       9.382  -6.822  -8.341  1.00  0.00    -0.022 A 
ATOM      2  C   UNL     1      10.211  -6.050  -7.509  1.00  0.00     0.058 A 
ATOM      3  C   UNL     1       8.031  -6.997  -7.982  1.00  0.00     0.012 A 
ATOM      4  C   UNL     1       9.711  -5.483  -6.329  1.00  0.00     0.157 A 
ATOM      5  C   UNL     1       7.534  -6.431  -6.804  1.00  0.00     0.051 A 
ATOM      6  C   UNL     1       8.372  -5.675  -5.974  1.00  0.00     0.157 A 
ENDROOT
BRANCH   1   7
ATOM      7  C   UNL     1       9.957  -7.391  -9.585  1.00  0.00     0.010 C 
ATOM      8  C   UNL     1       9.504  -7.105 -10.813  1.00  0.00     0.025 C 
BRANCH   8   9
ATOM      9  C   UNL     1      10.098  -7.701 -12.020  1.00  0.00     0.064 C 
ATOM     10  O   UNL     1       9.355  -8.028 -12.983  1.00  0.00    -0.545 OA
ATOM     11  O   UNL     1      11.469  -7.910 -12.117  1.00  0.00    -0.545 OA
ENDBRANCH   8   9
ENDBRANCH   1   7
BRANCH   4  12
ATOM     12  O   UNL     1      10.542  -4.726  -5.503  1.00  0.00    -0.504 OA
ATOM     13  H   UNL     1      11.551  -4.795  -5.559  1.00  0.00     0.293 HD
ENDBRANCH   4  12
BRANCH   6  14
ATOM     14  O   UNL     1       7.878  -5.112  -4.798  1.00  0.00    -0.504 OA
ATOM     15  H   UNL     1       8.475  -4.585  -4.172  1.00  0.00     0.293 HD
ENDBRANCH   6  14
TORSDOF 4
ENDMDL
MODEL 3
REMARK VINA RESULT:    -5.123      2.588      3.317
REMARK INTER + INTRA:          -6.156
REMARK INTER:                  -6.023
REMARK INTRA:                  -0.133
REMARK UNBOUND:                -0.135
REMARK SMILES O=C([O-])C=Cc1ccc(O)c(O)c1
REMARK SMILES IDX 6 1 13 2 7 3 11 4 8 5 9 6 5 7 4 8 2 9 1 10 3 11 12 12 10 14
REMARK H PARENT 12 13 10 15
REMARK Flexibility Score: inf
ROOT
ATOM      1  C   UNL     1       9.413  -7.137  -8.133  1.00  0.00    -0.022 A 
ATOM      2  C   UNL     1      10.230  -6.274  -7.383  1.00  0.00     0.058 A 
ATOM      3  C   UNL     1       8.054  -7.260  -7.787  1.00  0.00     0.012 A 
ATOM      4  C   UNL     1       9.709  -5.565  -6.292  1.00  0.00     0.157 A 
ATOM      5  C   UNL     1       7.535  -6.553  -6.698  1.00  0.00     0.051 A 
ATOM      6  C   UNL     1       8.360  -5.706  -5.947  1.00  0.00     0.157 A 
ENDROOT
BRANCH   1   7
ATOM      7  C   UNL     1      10.012  -7.857  -9.286  1.00  0.00     0.010 C 
ATOM      8  C   UNL     1      11.240  -7.607  -9.762  1.00  0.00     0.025 C 
BRANCH   8   9
ATOM      9  C   UNL     1      11.790  -8.337 -10.915  1.00  0.00     0.064 C 
ATOM     10  O   UNL     1      12.192  -9.521 -10.767  1.00  0.00    -0.545 OA
ATOM     11  O   UNL     1      11.871  -7.742 -12.169  1.00  0.00    -0.545 OA
ENDBRANCH   8   9
ENDBRANCH   1   7
BRANCH   4  12
ATOM     12  O   UNL     1      10.526  -4.717  -5.546  1.00  0.00    -0.504 OA
ATOM     13  H   UNL     1      11.498  -4.567  -5.790  1.00  0.00     0.293 HD
ENDBRANCH   4  12
BRANCH   6  14
ATOM     14  O   UNL     1       7.845  -5.001  -4.860  1.00  0.00    -0.504 OA
ATOM     15  H   UNL     1       7.262  -4.182  -4.988  1.00  0.00     0.293 HD
ENDBRANCH   6  14
TORSDOF 4
ENDMDL
MODEL 4
REMARK VINA RESULT:    -5.083     17.167     18.312
REMARK INTER + INTRA:          -6.109
REMARK INTER:                  -5.979
REMARK INTRA:                  -0.131
REMARK UNBOUND:                -0.135
REMARK SMILES O=C([O-])C=Cc1ccc(O)c(O)c1
REMARK SMILES IDX 6 1 13 2 7 3 11 4 8 5 9 6 5 7 4 8 2 9 1 10 3 11 12 12 10 14
REMARK H PARENT 12 13 10 15
REMARK Flexibility Score: inf
ROOT
ATOM      1  C   UNL     1      19.924  -0.614 -20.149  1.00  0.00    -0.022 A 
ATOM      2  C   UNL     1      20.421   0.696 -20.040  1.00  0.00     0.058 A 
ATOM      3  C   UNL     1      20.299  -1.394 -21.260  1.00  0.00     0.012 A 
ATOM      4  C   UNL     1      21.257   1.229 -21.032  1.00  0.00     0.157 A 
ATOM      5  C   UNL     1      21.132  -0.861 -22.249  1.00  0.00     0.051 A 
ATOM      6  C   UNL     1      21.611   0.450 -22.139  1.00  0.00     0.157 A 
ENDROOT
BRANCH   1   7
ATOM      7  C   UNL     1      19.052  -1.134 -19.067  1.00  0.00     0.010 C 
ATOM      8  C   UNL     1      19.099  -0.700 -17.800  1.00  0.00     0.025 C 
BRANCH   8   9
ATOM      9  C   UNL     1      18.223  -1.252 -16.755  1.00  0.00     0.064 C 
ATOM     10  O   UNL     1      17.433  -0.490 -16.139  1.00  0.00    -0.545 OA
ATOM     11  O   UNL     1      18.250  -2.605 -16.436  1.00  0.00    -0.545 OA
ENDBRANCH   8   9
ENDBRANCH   1   7
BRANCH   4  12
ATOM     12  O   UNL     1      21.739   2.532 -20.922  1.00  0.00    -0.504 OA
ATOM     13  H   UNL     1      22.584   2.744 -20.406  1.00  0.00     0.293 HD
ENDBRANCH   4  12
BRANCH   6  14
ATOM     14  O   UNL     1      22.440   0.984 -23.125  1.00  0.00    -0.504 OA
ATOM     15  H   UNL     1      22.593   1.982 -23.205  1.00  0.00     0.293 HD
ENDBRANCH   6  14
TORSDOF 4
ENDMDL
MODEL 5
REMARK VINA RESULT:    -5.026     16.722     17.704
REMARK INTER + INTRA:          -6.042
REMARK INTER:                  -5.905
REMARK INTRA:                  -0.136
REMARK UNBOUND:                -0.135
REMARK SMILES O=C([O-])C=Cc1ccc(O)c(O)c1
REMARK SMILES IDX 6 1 13 2 7 3 11 4 8 5 9 6 5 7 4 8 2 9 1 10 3 11 12 12 10 14
REMARK H PARENT 12 13 10 15
REMARK Flexibility Score: inf
ROOT
ATOM      1  C   UNL     1      20.010  -1.303 -19.597  1.00  0.00    -0.022 A 
ATOM      2  C   UNL     1      19.773  -0.250 -18.696  1.00  0.00     0.058 A 
ATOM      3  C   UNL     1      19.502  -2.582 -19.297  1.00  0.00     0.012 A 
ATOM      4  C   UNL     1      19.065  -0.472 -17.507  1.00  0.00     0.157 A 
ATOM      5  C   UNL     1      18.796  -2.802 -18.110  1.00  0.00     0.051 A 
ATOM      6  C   UNL     1      18.578  -1.750 -17.212  1.00  0.00     0.157 A 
ENDROOT
BRANCH   1   7
ATOM      7  C   UNL     1      20.755  -1.013 -20.847  1.00  0.00     0.010 C 
ATOM      8  C   UNL     1      21.103   0.221 -21.236  1.00  0.00     0.025 C 
BRANCH   8   9
ATOM      9  C   UNL     1      21.833   0.464 -22.491  1.00  0.00     0.064 C 
ATOM     10  O   UNL     1      22.321  -0.508 -23.125  1.00  0.00    -0.545 OA
ATOM     11  O   UNL     1      21.992   1.752 -22.991  1.00  0.00    -0.545 OA
ENDBRANCH   8   9
ENDBRANCH   1   7
BRANCH   4  12
ATOM     12  O   UNL     1      18.842   0.575 -16.613  1.00  0.00    -0.504 OA
ATOM     13  H   UNL     1      19.417   1.409 -16.620  1.00  0.00     0.293 HD
ENDBRANCH   4  12
BRANCH   6  14
ATOM     14  O   UNL     1      17.876  -1.967 -16.027  1.00  0.00    -0.504 OA
ATOM     15  H   UNL     1      18.154  -2.687 -15.371  1.00  0.00     0.293 HD
ENDBRANCH   6  14
TORSDOF 4
ENDMDL
MODEL 6
REMARK VINA RESULT:    -4.929      2.153      2.789
REMARK INTER + INTRA:          -5.928
REMARK INTER:                  -5.795
REMARK INTRA:                  -0.134
REMARK UNBOUND:                -0.135
REMARK SMILES O=C([O-])C=Cc1ccc(O)c(O)c1
REMARK SMILES IDX 6 1 13 2 7 3 11 4 8 5 9 6 5 7 4 8 2 9 1 10 3 11 12 12 10 14
REMARK H PARENT 12 13 10 15
REMARK Flexibility Score: inf
ROOT
ATOM      1  C   UNL     1       8.046  -6.967  -7.742  1.00  0.00    -0.022 A 
ATOM      2  C   UNL     1       8.407  -5.775  -7.092  1.00  0.00     0.058 A 
ATOM      3  C   UNL     1       7.626  -8.065  -6.967  1.00  0.00     0.012 A 
ATOM      4  C   UNL     1       8.376  -5.685  -5.693  1.00  0.00     0.157 A 
ATOM      5  C   UNL     1       7.596  -7.975  -5.572  1.00  0.00     0.051 A 
ATOM      6  C   UNL     1       7.972  -6.787  -4.931  1.00  0.00     0.157 A 
ENDROOT
BRANCH   1   7
ATOM      7  C   UNL     1       8.085  -7.006  -9.225  1.00  0.00     0.010 C 
ATOM      8  C   UNL     1       8.534  -5.996  -9.984  1.00  0.00     0.025 C 
BRANCH   8   9
ATOM      9  C   UNL     1       8.545  -6.073 -11.454  1.00  0.00     0.064 C 
ATOM     10  O   UNL     1       9.229  -6.962 -12.025  1.00  0.00    -0.545 OA
ATOM     11  O   UNL     1       7.809  -5.180 -12.225  1.00  0.00    -0.545 OA
ENDBRANCH   8   9
ENDBRANCH   1   7
BRANCH   4  12
ATOM     12  O   UNL     1       8.746  -4.503  -5.054  1.00  0.00    -0.504 OA
ATOM     13  H   UNL     1       9.135  -3.721  -5.567  1.00  0.00     0.293 HD
ENDBRANCH   4  12
BRANCH   6  14
ATOM     14  O   UNL     1       7.945  -6.696  -3.541  1.00  0.00    -0.504 OA
ATOM     15  H   UNL     1       7.072  -6.694  -3.027  1.00  0.00     0.293 HD
ENDBRANCH   6  14
TORSDOF 4
ENDMDL
MODEL 7
REMARK VINA RESULT:    -4.823      3.701      4.392
REMARK INTER + INTRA:          -5.803
REMARK INTER:                  -5.675
REMARK INTRA:                  -0.128
REMARK UNBOUND:                -0.135
REMARK SMILES O=C([O-])C=Cc1ccc(O)c(O)c1
REMARK SMILES IDX 6 1 13 2 7 3 11 4 8 5 9 6 5 7 4 8 2 9 1 10 3 11 12 12 10 14
REMARK H PARENT 12 13 10 15
REMARK Flexibility Score: inf
ROOT
ATOM      1  C   UNL     1       8.676  -5.466 -10.554  1.00  0.00    -0.022 A 
ATOM      2  C   UNL     1      10.060  -5.713 -10.540  1.00  0.00     0.058 A 
ATOM      3  C   UNL     1       7.978  -5.436  -9.331  1.00  0.00     0.012 A 
ATOM      4  C   UNL     1      10.732  -5.949  -9.334  1.00  0.00     0.157 A 
ATOM      5  C   UNL     1       8.650  -5.672  -8.128  1.00  0.00     0.051 A 
ATOM      6  C   UNL     1      10.027  -5.931  -8.126  1.00  0.00     0.157 A 
ENDROOT
BRANCH   1   7
ATOM      7  C   UNL     1       8.014  -5.212 -11.858  1.00  0.00     0.010 C 
ATOM      8  C   UNL     1       7.801  -3.986 -12.357  1.00  0.00     0.025 C 
BRANCH   8   9
ATOM      9  C   UNL     1       7.130  -3.780 -13.650  1.00  0.00     0.064 C 
ATOM     10  O   UNL     1       7.142  -4.698 -14.511  1.00  0.00    -0.545 OA
ATOM     11  O   UNL     1       6.479  -2.585 -13.938  1.00  0.00    -0.545 OA
ENDBRANCH   8   9
ENDBRANCH   1   7
BRANCH   4  12
ATOM     12  O   UNL     1      12.103  -6.202  -9.328  1.00  0.00    -0.504 OA
ATOM     13  H   UNL     1      12.734  -5.695  -8.719  1.00  0.00     0.293 HD
ENDBRANCH   4  12
BRANCH   6  14
ATOM     14  O   UNL     1      10.698  -6.168  -6.927  1.00  0.00    -0.504 OA
ATOM     15  H   UNL     1      10.230  -6.086  -6.032  1.00  0.00     0.293 HD
ENDBRANCH   6  14
TORSDOF 4
ENDMDL
MODEL 8
REMARK VINA RESULT:    -4.811      3.544      3.864
REMARK INTER + INTRA:          -5.789
REMARK INTER:                  -5.663
REMARK INTRA:                  -0.126
REMARK UNBOUND:                -0.135
REMARK SMILES O=C([O-])C=Cc1ccc(O)c(O)c1
REMARK SMILES IDX 6 1 13 2 7 3 11 4 8 5 9 6 5 7 4 8 2 9 1 10 3 11 12 12 10 14
REMARK H PARENT 12 13 10 15
REMARK Flexibility Score: inf
ROOT
ATOM      1  C   UNL     1       8.668  -5.441 -10.589  1.00  0.00    -0.022 A 
ATOM      2  C   UNL     1       7.946  -5.213  -9.404  1.00  0.00     0.058 A 
ATOM      3  C   UNL     1       9.976  -5.955 -10.501  1.00  0.00     0.012 A 
ATOM      4  C   UNL     1       8.526  -5.468  -8.154  1.00  0.00     0.157 A 
ATOM      5  C   UNL     1      10.553  -6.209  -9.253  1.00  0.00     0.051 A 
ATOM      6  C   UNL     1       9.832  -5.965  -8.077  1.00  0.00     0.157 A 
ENDROOT
BRANCH   1   7
ATOM      7  C   UNL     1       8.004  -5.165 -11.888  1.00  0.00     0.010 C 
ATOM      8  C   UNL     1       7.817  -3.933 -12.380  1.00  0.00     0.025 C 
BRANCH   8   9
ATOM      9  C   UNL     1       7.143  -3.704 -13.668  1.00  0.00     0.064 C 
ATOM     10  O   UNL     1       6.468  -2.656 -13.840  1.00  0.00    -0.545 OA
ATOM     11  O   UNL     1       7.240  -4.628 -14.703  1.00  0.00    -0.545 OA
ENDBRANCH   8   9
ENDBRANCH   1   7
BRANCH   4  12
ATOM     12  O   UNL     1       7.808  -5.231  -6.983  1.00  0.00    -0.504 OA
ATOM     13  H   UNL     1       7.575  -5.980  -6.342  1.00  0.00     0.293 HD
ENDBRANCH   4  12
BRANCH   6  14
ATOM     14  O   UNL     1      10.406  -6.215  -6.832  1.00  0.00    -0.504 OA
ATOM     15  H   UNL     1      10.516  -5.482  -6.142  1.00  0.00     0.293 HD
ENDBRANCH   6  14
TORSDOF 4
ENDMDL
