MODEL 1
REMARK VINA RESULT:    -6.746      0.000      0.000
REMARK INTER + INTRA:          -8.227
REMARK INTER:                  -8.127
REMARK INTRA:                  -0.100
REMARK UNBOUND:                -0.100
REMARK SMILES O=c1c(O)c(-c2ccc(O)c(O)c2)oc2cc(O)cc(O)c12
REMARK SMILES IDX 5 1 3 2 2 3 1 4 22 5 20 6 19 7 17 8 16 9 15 10 14 11 6 12
REMARK SMILES IDX 7 13 8 14 9 15 13 16 11 17 10 18 12 20 4 22 21 24 18 26
REMARK H PARENT 10 19 12 21 4 23 21 25 18 27
REMARK Flexibility Score: inf
ROOT
ATOM      1  C   UNL     1      -0.971  47.532  84.275  1.00  0.00     0.180 A 
ATOM      2  C   UNL     1      -0.280  46.315  84.115  1.00  0.00     0.208 A 
ATOM      3  C   UNL     1      -0.071  45.819  82.820  1.00  0.00     0.238 A 
ATOM      4  O   UNL     1       0.537  44.725  82.665  1.00  0.00    -0.285 OA
ATOM      5  C   UNL     1      -0.536  46.553  81.708  1.00  0.00     0.111 A 
ATOM      6  C   UNL     1      -0.364  46.123  80.370  1.00  0.00     0.134 A 
ATOM      7  C   UNL     1      -0.847  46.914  79.318  1.00  0.00     0.093 A 
ATOM      8  C   UNL     1      -1.498  48.123  79.576  1.00  0.00     0.123 A 
ATOM      9  C   UNL     1      -1.672  48.552  80.896  1.00  0.00     0.094 A 
ATOM     10  C   UNL     1      -1.199  47.776  81.959  1.00  0.00     0.146 A 
ATOM     11  O   UNL     1      -1.381  48.204  83.202  1.00  0.00    -0.452 OA
ENDROOT
BRANCH   1  12
ATOM     12  C   UNL     1      -1.246  48.112  85.609  1.00  0.00     0.025 A 
ATOM     13  C   UNL     1      -2.575  48.297  86.021  1.00  0.00     0.016 A 
ATOM     14  C   UNL     1      -2.858  48.823  87.284  1.00  0.00     0.051 A 
ATOM     15  C   UNL     1      -1.821  49.156  88.159  1.00  0.00     0.157 A 
ATOM     16  C   UNL     1      -0.204  48.428  86.499  1.00  0.00     0.062 A 
ATOM     17  C   UNL     1      -0.486  48.953  87.769  1.00  0.00     0.158 A 
BRANCH  15  18
ATOM     18  O   UNL     1      -2.134  49.681  89.413  1.00  0.00    -0.504 OA
ATOM     19  H   UNL     1      -3.083  49.700  89.767  1.00  0.00     0.293 HD
ENDBRANCH  15  18
BRANCH  17  20
ATOM     20  O   UNL     1       0.553  49.270  88.643  1.00  0.00    -0.504 OA
ATOM     21  H   UNL     1       0.590  48.893  89.583  1.00  0.00     0.293 HD
ENDBRANCH  17  20
ENDBRANCH   1  12
BRANCH   2  22
ATOM     22  O   UNL     1       0.214  45.633  85.229  1.00  0.00    -0.502 OA
ATOM     23  H   UNL     1       1.074  45.098  85.202  1.00  0.00     0.293 HD
ENDBRANCH   2  22
BRANCH   6  24
ATOM     24  O   UNL     1       0.284  44.921  80.079  1.00  0.00    -0.507 OA
ATOM     25  H   UNL     1      -0.222  44.116  79.725  1.00  0.00     0.293 HD
ENDBRANCH   6  24
BRANCH   8  26
ATOM     26  O   UNL     1      -1.969  48.890  78.513  1.00  0.00    -0.508 OA
ATOM     27  H   UNL     1      -2.548  49.708  78.666  1.00  0.00     0.293 HD
ENDBRANCH   8  26
TORSDOF 6
ENDMDL
MODEL 2
REMARK VINA RESULT:    -6.665      1.840      7.070
REMARK INTER + INTRA:          -8.129
REMARK INTER:                  -7.815
REMARK INTRA:                  -0.314
REMARK UNBOUND:                -0.100
REMARK SMILES O=c1c(O)c(-c2ccc(O)c(O)c2)oc2cc(O)cc(O)c12
REMARK SMILES IDX 5 1 3 2 2 3 1 4 22 5 20 6 19 7 17 8 16 9 15 10 14 11 6 12
REMARK SMILES IDX 7 13 8 14 9 15 13 16 11 17 10 18 12 20 4 22 21 24 18 26
REMARK H PARENT 10 19 12 21 4 23 21 25 18 27
REMARK Flexibility Score: inf
ROOT
ATOM      1  C   UNL     1      -1.655  48.045  83.111  1.00  0.00     0.180 A 
ATOM      2  C   UNL     1      -2.774  47.563  83.818  1.00  0.00     0.208 A 
ATOM      3  C   UNL     1      -2.838  47.764  85.205  1.00  0.00     0.238 A 
ATOM      4  O   UNL     1      -3.830  47.327  85.851  1.00  0.00    -0.285 OA
ATOM      5  C   UNL     1      -1.798  48.458  85.858  1.00  0.00     0.111 A 
ATOM      6  C   UNL     1      -1.788  48.706  87.253  1.00  0.00     0.134 A 
ATOM      7  C   UNL     1      -0.721  49.412  87.826  1.00  0.00     0.093 A 
ATOM      8  C   UNL     1       0.333  49.875  87.036  1.00  0.00     0.123 A 
ATOM      9  C   UNL     1       0.330  49.633  85.659  1.00  0.00     0.094 A 
ATOM     10  C   UNL     1      -0.724  48.929  85.068  1.00  0.00     0.146 A 
ATOM     11  O   UNL     1      -0.701  48.709  83.759  1.00  0.00    -0.452 OA
ENDROOT
BRANCH   1  12
ATOM     12  C   UNL     1      -1.506  47.856  81.651  1.00  0.00     0.025 A 
ATOM     13  C   UNL     1      -0.795  46.747  81.167  1.00  0.00     0.016 A 
ATOM     14  C   UNL     1      -0.659  46.538  79.792  1.00  0.00     0.051 A 
ATOM     15  C   UNL     1      -1.244  47.423  78.882  1.00  0.00     0.157 A 
ATOM     16  C   UNL     1      -2.112  48.734  80.733  1.00  0.00     0.062 A 
ATOM     17  C   UNL     1      -1.979  48.524  79.352  1.00  0.00     0.158 A 
BRANCH  15  18
ATOM     18  O   UNL     1      -1.091  47.189  77.516  1.00  0.00    -0.504 OA
ATOM     19  H   UNL     1      -0.674  47.874  76.896  1.00  0.00     0.293 HD
ENDBRANCH  15  18
BRANCH  17  20
ATOM     20  O   UNL     1      -2.577  49.402  78.450  1.00  0.00    -0.504 OA
ATOM     21  H   UNL     1      -2.309  50.378  78.401  1.00  0.00     0.293 HD
ENDBRANCH  17  20
ENDBRANCH   1  12
BRANCH   2  22
ATOM     22  O   UNL     1      -3.814  46.922  83.141  1.00  0.00    -0.502 OA
ATOM     23  H   UNL     1      -4.590  46.486  83.624  1.00  0.00     0.293 HD
ENDBRANCH   2  22
BRANCH   6  24
ATOM     24  O   UNL     1      -2.828  48.257  88.069  1.00  0.00    -0.507 OA
ATOM     25  H   UNL     1      -3.800  48.391  87.815  1.00  0.00     0.293 HD
ENDBRANCH   6  24
BRANCH   8  26
ATOM     26  O   UNL     1       1.381  50.574  87.631  1.00  0.00    -0.508 OA
ATOM     27  H   UNL     1       2.131  50.093  88.116  1.00  0.00     0.293 HD
ENDBRANCH   8  26
TORSDOF 6
ENDMDL
MODEL 3
REMARK VINA RESULT:    -6.492      4.284      7.129
REMARK INTER + INTRA:          -7.920
REMARK INTER:                  -7.780
REMARK INTRA:                  -0.140
REMARK UNBOUND:                -0.100
REMARK SMILES O=c1c(O)c(-c2ccc(O)c(O)c2)oc2cc(O)cc(O)c12
REMARK SMILES IDX 5 1 3 2 2 3 1 4 22 5 20 6 19 7 17 8 16 9 15 10 14 11 6 12
REMARK SMILES IDX 7 13 8 14 9 15 13 16 11 17 10 18 12 20 4 22 21 24 18 26
REMARK H PARENT 10 19 12 21 4 23 21 25 18 27
REMARK Flexibility Score: inf
ROOT
ATOM      1  C   UNL     1       0.365  44.812  81.136  1.00  0.00     0.180 A 
ATOM      2  C   UNL     1       0.285  43.472  80.707  1.00  0.00     0.208 A 
ATOM      3  C   UNL     1       0.982  42.488  81.424  1.00  0.00     0.238 A 
ATOM      4  O   UNL     1       0.926  41.286  81.044  1.00  0.00    -0.285 OA
ATOM      5  C   UNL     1       1.729  42.853  82.563  1.00  0.00     0.111 A 
ATOM      6  C   UNL     1       2.458  41.922  83.343  1.00  0.00     0.134 A 
ATOM      7  C   UNL     1       3.169  42.362  84.468  1.00  0.00     0.093 A 
ATOM      8  C   UNL     1       3.166  43.712  84.830  1.00  0.00     0.123 A 
ATOM      9  C   UNL     1       2.450  44.636  84.063  1.00  0.00     0.094 A 
ATOM     10  C   UNL     1       1.736  44.217  82.937  1.00  0.00     0.146 A 
ATOM     11  O   UNL     1       1.067  45.116  82.224  1.00  0.00    -0.452 OA
ENDROOT
BRANCH   1  12
ATOM     12  C   UNL     1      -0.327  45.908  80.422  1.00  0.00     0.025 A 
ATOM     13  C   UNL     1      -1.237  46.719  81.117  1.00  0.00     0.016 A 
ATOM     14  C   UNL     1      -1.887  47.773  80.469  1.00  0.00     0.051 A 
ATOM     15  C   UNL     1      -1.624  48.043  79.124  1.00  0.00     0.157 A 
ATOM     16  C   UNL     1      -0.048  46.195  79.073  1.00  0.00     0.062 A 
ATOM     17  C   UNL     1      -0.697  47.255  78.421  1.00  0.00     0.158 A 
BRANCH  15  18
ATOM     18  O   UNL     1      -2.289  49.100  78.502  1.00  0.00    -0.504 OA
ATOM     19  H   UNL     1      -2.603  49.915  79.016  1.00  0.00     0.293 HD
ENDBRANCH  15  18
BRANCH  17  20
ATOM     20  O   UNL     1      -0.420  47.528  77.083  1.00  0.00    -0.504 OA
ATOM     21  H   UNL     1      -0.916  47.062  76.332  1.00  0.00     0.293 HD
ENDBRANCH  17  20
ENDBRANCH   1  12
BRANCH   2  22
ATOM     22  O   UNL     1      -0.502  43.130  79.605  1.00  0.00    -0.502 OA
ATOM     23  H   UNL     1      -0.158  43.185  78.654  1.00  0.00     0.293 HD
ENDBRANCH   2  22
BRANCH   6  24
ATOM     24  O   UNL     1       2.479  40.566  83.009  1.00  0.00    -0.507 OA
ATOM     25  H   UNL     1       2.881  39.872  83.628  1.00  0.00     0.293 HD
ENDBRANCH   6  24
BRANCH   8  26
ATOM     26  O   UNL     1       3.881  44.123  85.952  1.00  0.00    -0.508 OA
ATOM     27  H   UNL     1       3.446  44.182  86.866  1.00  0.00     0.293 HD
ENDBRANCH   8  26
TORSDOF 6
ENDMDL
MODEL 4
REMARK VINA RESULT:    -6.488      7.006      9.761
REMARK INTER + INTRA:          -7.916
REMARK INTER:                  -7.595
REMARK INTRA:                  -0.321
REMARK UNBOUND:                -0.100
REMARK SMILES O=c1c(O)c(-c2ccc(O)c(O)c2)oc2cc(O)cc(O)c12
REMARK SMILES IDX 5 1 3 2 2 3 1 4 22 5 20 6 19 7 17 8 16 9 15 10 14 11 6 12
REMARK SMILES IDX 7 13 8 14 9 15 13 16 11 17 10 18 12 20 4 22 21 24 18 26
REMARK H PARENT 10 19 12 21 4 23 21 25 18 27
REMARK Flexibility Score: inf
ROOT
ATOM      1  C   UNL     1       4.113  42.269  84.588  1.00  0.00     0.180 A 
ATOM      2  C   UNL     1       4.021  41.953  85.958  1.00  0.00     0.208 A 
ATOM      3  C   UNL     1       4.994  42.455  86.836  1.00  0.00     0.238 A 
ATOM      4  O   UNL     1       4.928  42.170  88.063  1.00  0.00    -0.285 OA
ATOM      5  C   UNL     1       6.026  43.276  86.337  1.00  0.00     0.111 A 
ATOM      6  C   UNL     1       7.043  43.825  87.156  1.00  0.00     0.134 A 
ATOM      7  C   UNL     1       8.031  44.641  86.586  1.00  0.00     0.093 A 
ATOM      8  C   UNL     1       8.022  44.920  85.217  1.00  0.00     0.123 A 
ATOM      9  C   UNL     1       7.021  44.380  84.403  1.00  0.00     0.094 A 
ATOM     10  C   UNL     1       6.029  43.562  84.953  1.00  0.00     0.146 A 
ATOM     11  O   UNL     1       5.092  43.059  84.157  1.00  0.00    -0.452 OA
ENDROOT
BRANCH   1  12
ATOM     12  C   UNL     1       3.137  41.763  83.597  1.00  0.00     0.025 A 
ATOM     13  C   UNL     1       2.108  42.605  83.148  1.00  0.00     0.016 A 
ATOM     14  C   UNL     1       1.188  42.156  82.198  1.00  0.00     0.051 A 
ATOM     15  C   UNL     1       1.291  40.866  81.670  1.00  0.00     0.157 A 
ATOM     16  C   UNL     1       3.251  40.472  83.049  1.00  0.00     0.062 A 
ATOM     17  C   UNL     1       2.330  40.019  82.093  1.00  0.00     0.158 A 
BRANCH  15  18
ATOM     18  O   UNL     1       0.357  40.444  80.725  1.00  0.00    -0.504 OA
ATOM     19  H   UNL     1       0.106  41.012  79.924  1.00  0.00     0.293 HD
ENDBRANCH  15  18
BRANCH  17  20
ATOM     20  O   UNL     1       2.446  38.737  81.560  1.00  0.00    -0.504 OA
ATOM     21  H   UNL     1       1.890  37.964  81.908  1.00  0.00     0.293 HD
ENDBRANCH  17  20
ENDBRANCH   1  12
BRANCH   2  22
ATOM     22  O   UNL     1       2.961  41.178  86.434  1.00  0.00    -0.502 OA
ATOM     23  H   UNL     1       3.042  40.179  86.582  1.00  0.00     0.293 HD
ENDBRANCH   2  22
BRANCH   6  24
ATOM     24  O   UNL     1       7.078  43.567  88.528  1.00  0.00    -0.507 OA
ATOM     25  H   UNL     1       7.910  43.203  88.979  1.00  0.00     0.293 HD
ENDBRANCH   6  24
BRANCH   8  26
ATOM     26  O   UNL     1       9.015  45.733  84.676  1.00  0.00    -0.508 OA
ATOM     27  H   UNL     1       9.101  46.709  84.936  1.00  0.00     0.293 HD
ENDBRANCH   8  26
TORSDOF 6
ENDMDL
MODEL 5
REMARK VINA RESULT:    -6.405      2.505      7.490
REMARK INTER + INTRA:          -7.816
REMARK INTER:                  -7.540
REMARK INTRA:                  -0.276
REMARK UNBOUND:                -0.100
REMARK SMILES O=c1c(O)c(-c2ccc(O)c(O)c2)oc2cc(O)cc(O)c12
REMARK SMILES IDX 5 1 3 2 2 3 1 4 22 5 20 6 19 7 17 8 16 9 15 10 14 11 6 12
REMARK SMILES IDX 7 13 8 14 9 15 13 16 11 17 10 18 12 20 4 22 21 24 18 26
REMARK H PARENT 10 19 12 21 4 23 21 25 18 27
REMARK Flexibility Score: inf
ROOT
ATOM      1  C   UNL     1      -0.423  46.122  81.464  1.00  0.00     0.180 A 
ATOM      2  C   UNL     1      -1.030  47.100  82.276  1.00  0.00     0.208 A 
ATOM      3  C   UNL     1      -0.645  47.198  83.622  1.00  0.00     0.238 A 
ATOM      4  O   UNL     1      -1.189  48.062  84.362  1.00  0.00    -0.285 OA
ATOM      5  C   UNL     1       0.350  46.335  84.127  1.00  0.00     0.111 A 
ATOM      6  C   UNL     1       0.797  46.371  85.470  1.00  0.00     0.134 A 
ATOM      7  C   UNL     1       1.798  45.485  85.894  1.00  0.00     0.093 A 
ATOM      8  C   UNL     1       2.360  44.567  85.005  1.00  0.00     0.123 A 
ATOM      9  C   UNL     1       1.922  44.525  83.677  1.00  0.00     0.094 A 
ATOM     10  C   UNL     1       0.923  45.399  83.236  1.00  0.00     0.146 A 
ATOM     11  O   UNL     1       0.523  45.336  81.971  1.00  0.00    -0.452 OA
ENDROOT
BRANCH   1  12
ATOM     12  C   UNL     1      -0.788  45.944  80.041  1.00  0.00     0.025 A 
ATOM     13  C   UNL     1      -1.659  44.906  79.675  1.00  0.00     0.016 A 
ATOM     14  C   UNL     1      -2.034  44.732  78.340  1.00  0.00     0.051 A 
ATOM     15  C   UNL     1      -1.559  45.601  77.354  1.00  0.00     0.157 A 
ATOM     16  C   UNL     1      -0.329  46.831  79.050  1.00  0.00     0.062 A 
ATOM     17  C   UNL     1      -0.706  46.660  77.709  1.00  0.00     0.158 A 
BRANCH  15  18
ATOM     18  O   UNL     1      -1.948  45.403  76.030  1.00  0.00    -0.504 OA
ATOM     19  H   UNL     1      -1.818  46.112  75.318  1.00  0.00     0.293 HD
ENDBRANCH  15  18
BRANCH  17  20
ATOM     20  O   UNL     1      -0.240  47.539  76.733  1.00  0.00    -0.504 OA
ATOM     21  H   UNL     1      -0.637  48.465  76.618  1.00  0.00     0.293 HD
ENDBRANCH  17  20
ENDBRANCH   1  12
BRANCH   2  22
ATOM     22  O   UNL     1      -1.977  47.974  81.739  1.00  0.00    -0.502 OA
ATOM     23  H   UNL     1      -2.864  47.654  81.367  1.00  0.00     0.293 HD
ENDBRANCH   2  22
BRANCH   6  24
ATOM     24  O   UNL     1       0.256  47.279  86.383  1.00  0.00    -0.507 OA
ATOM     25  H   UNL     1      -0.256  48.099  86.078  1.00  0.00     0.293 HD
ENDBRANCH   6  24
BRANCH   8  26
ATOM     26  O   UNL     1       3.353  43.697  85.452  1.00  0.00    -0.508 OA
ATOM     27  H   UNL     1       4.336  43.889  85.294  1.00  0.00     0.293 HD
ENDBRANCH   8  26
TORSDOF 6
ENDMDL
MODEL 6
REMARK VINA RESULT:    -6.396      2.123      6.987
REMARK INTER + INTRA:          -7.806
REMARK INTER:                  -7.677
REMARK INTRA:                  -0.129
REMARK UNBOUND:                -0.100
REMARK SMILES O=c1c(O)c(-c2ccc(O)c(O)c2)oc2cc(O)cc(O)c12
REMARK SMILES IDX 5 1 3 2 2 3 1 4 22 5 20 6 19 7 17 8 16 9 15 10 14 11 6 12
REMARK SMILES IDX 7 13 8 14 9 15 13 16 11 17 10 18 12 20 4 22 21 24 18 26
REMARK H PARENT 10 19 12 21 4 23 21 25 18 27
REMARK Flexibility Score: inf
ROOT
ATOM      1  C   UNL     1      -0.327  45.892  81.629  1.00  0.00     0.180 A 
ATOM      2  C   UNL     1       0.314  44.810  82.265  1.00  0.00     0.208 A 
ATOM      3  C   UNL     1       0.749  44.964  83.590  1.00  0.00     0.238 A 
ATOM      4  O   UNL     1       1.334  44.006  84.166  1.00  0.00    -0.285 OA
ATOM      5  C   UNL     1       0.521  46.183  84.262  1.00  0.00     0.111 A 
ATOM      6  C   UNL     1       0.925  46.417  85.599  1.00  0.00     0.134 A 
ATOM      7  C   UNL     1       0.653  47.654  86.201  1.00  0.00     0.093 A 
ATOM      8  C   UNL     1      -0.014  48.659  85.496  1.00  0.00     0.123 A 
ATOM      9  C   UNL     1      -0.414  48.434  84.176  1.00  0.00     0.094 A 
ATOM     10  C   UNL     1      -0.151  47.207  83.557  1.00  0.00     0.146 A 
ATOM     11  O   UNL     1      -0.538  47.021  82.300  1.00  0.00    -0.452 OA
ENDROOT
BRANCH   1  12
ATOM     12  C   UNL     1      -0.798  45.814  80.229  1.00  0.00     0.025 A 
ATOM     13  C   UNL     1      -1.805  44.897  79.888  1.00  0.00     0.016 A 
ATOM     14  C   UNL     1      -2.279  44.821  78.576  1.00  0.00     0.051 A 
ATOM     15  C   UNL     1      -1.768  45.669  77.590  1.00  0.00     0.157 A 
ATOM     16  C   UNL     1      -0.300  46.681  79.239  1.00  0.00     0.062 A 
ATOM     17  C   UNL     1      -0.777  46.608  77.921  1.00  0.00     0.158 A 
BRANCH  15  18
ATOM     18  O   UNL     1      -2.260  45.568  76.289  1.00  0.00    -0.504 OA
ATOM     19  H   UNL     1      -2.220  46.343  75.637  1.00  0.00     0.293 HD
ENDBRANCH  15  18
BRANCH  17  20
ATOM     20  O   UNL     1      -0.274  47.466  76.945  1.00  0.00    -0.504 OA
ATOM     21  H   UNL     1       0.679  47.387  76.608  1.00  0.00     0.293 HD
ENDBRANCH  17  20
ENDBRANCH   1  12
BRANCH   2  22
ATOM     22  O   UNL     1       0.483  43.598  81.594  1.00  0.00    -0.502 OA
ATOM     23  H   UNL     1      -0.279  42.946  81.447  1.00  0.00     0.293 HD
ENDBRANCH   2  22
BRANCH   6  24
ATOM     24  O   UNL     1       1.592  45.433  86.331  1.00  0.00    -0.507 OA
ATOM     25  H   UNL     1       2.322  44.864  85.916  1.00  0.00     0.293 HD
ENDBRANCH   6  24
BRANCH   8  26
ATOM     26  O   UNL     1      -0.271  49.878  86.118  1.00  0.00    -0.508 OA
ATOM     27  H   UNL     1      -0.631  50.672  85.599  1.00  0.00     0.293 HD
ENDBRANCH   8  26
TORSDOF 6
ENDMDL
MODEL 7
REMARK VINA RESULT:    -6.315      2.920      6.677
REMARK INTER + INTRA:          -7.707
REMARK INTER:                  -7.625
REMARK INTRA:                  -0.082
REMARK UNBOUND:                -0.100
REMARK SMILES O=c1c(O)c(-c2ccc(O)c(O)c2)oc2cc(O)cc(O)c12
REMARK SMILES IDX 5 1 3 2 2 3 1 4 22 5 20 6 19 7 17 8 16 9 15 10 14 11 6 12
REMARK SMILES IDX 7 13 8 14 9 15 13 16 11 17 10 18 12 20 4 22 21 24 18 26
REMARK H PARENT 10 19 12 21 4 23 21 25 18 27
REMARK Flexibility Score: inf
ROOT
ATOM      1  C   UNL     1       1.123  45.434  83.726  1.00  0.00     0.180 A 
ATOM      2  C   UNL     1       0.460  45.976  82.608  1.00  0.00     0.208 A 
ATOM      3  C   UNL     1      -0.299  47.145  82.770  1.00  0.00     0.238 A 
ATOM      4  O   UNL     1      -0.907  47.633  81.778  1.00  0.00    -0.285 OA
ATOM      5  C   UNL     1      -0.368  47.761  84.037  1.00  0.00     0.111 A 
ATOM      6  C   UNL     1      -1.109  48.943  84.284  1.00  0.00     0.134 A 
ATOM      7  C   UNL     1      -1.120  49.501  85.570  1.00  0.00     0.093 A 
ATOM      8  C   UNL     1      -0.406  48.904  86.612  1.00  0.00     0.123 A 
ATOM      9  C   UNL     1       0.326  47.736  86.375  1.00  0.00     0.094 A 
ATOM     10  C   UNL     1       0.348  47.164  85.099  1.00  0.00     0.146 A 
ATOM     11  O   UNL     1       1.048  46.052  84.902  1.00  0.00    -0.452 OA
ENDROOT
BRANCH   1  12
ATOM     12  C   UNL     1       1.928  44.195  83.640  1.00  0.00     0.025 A 
ATOM     13  C   UNL     1       1.328  43.012  83.179  1.00  0.00     0.016 A 
ATOM     14  C   UNL     1       2.074  41.836  83.070  1.00  0.00     0.051 A 
ATOM     15  C   UNL     1       3.431  41.827  83.402  1.00  0.00     0.157 A 
ATOM     16  C   UNL     1       3.299  44.189  83.953  1.00  0.00     0.062 A 
ATOM     17  C   UNL     1       4.051  43.009  83.841  1.00  0.00     0.158 A 
BRANCH  15  18
ATOM     18  O   UNL     1       4.150  40.638  83.284  1.00  0.00    -0.504 OA
ATOM     19  H   UNL     1       5.050  40.596  82.820  1.00  0.00     0.293 HD
ENDBRANCH  15  18
BRANCH  17  20
ATOM     20  O   UNL     1       5.408  43.010  84.160  1.00  0.00    -0.504 OA
ATOM     21  H   UNL     1       5.999  43.810  83.964  1.00  0.00     0.293 HD
ENDBRANCH  17  20
ENDBRANCH   1  12
BRANCH   2  22
ATOM     22  O   UNL     1       0.584  45.373  81.354  1.00  0.00    -0.502 OA
ATOM     23  H   UNL     1       1.390  45.520  80.758  1.00  0.00     0.293 HD
ENDBRANCH   2  22
BRANCH   6  24
ATOM     24  O   UNL     1      -1.831  49.564  83.263  1.00  0.00    -0.507 OA
ATOM     25  H   UNL     1      -1.420  50.290  82.686  1.00  0.00     0.293 HD
ENDBRANCH   6  24
BRANCH   8  26
ATOM     26  O   UNL     1      -0.434  49.478  87.881  1.00  0.00    -0.508 OA
ATOM     27  H   UNL     1      -0.649  48.930  88.706  1.00  0.00     0.293 HD
ENDBRANCH   8  26
TORSDOF 6
ENDMDL
MODEL 8
REMARK VINA RESULT:    -6.267      2.170      7.784
REMARK INTER + INTRA:          -7.649
REMARK INTER:                  -7.341
REMARK INTRA:                  -0.309
REMARK UNBOUND:                -0.100
REMARK SMILES O=c1c(O)c(-c2ccc(O)c(O)c2)oc2cc(O)cc(O)c12
REMARK SMILES IDX 5 1 3 2 2 3 1 4 22 5 20 6 19 7 17 8 16 9 15 10 14 11 6 12
REMARK SMILES IDX 7 13 8 14 9 15 13 16 11 17 10 18 12 20 4 22 21 24 18 26
REMARK H PARENT 10 19 12 21 4 23 21 25 18 27
REMARK Flexibility Score: inf
ROOT
ATOM      1  C   UNL     1      -1.189  47.034  80.624  1.00  0.00     0.180 A 
ATOM      2  C   UNL     1      -1.998  48.072  81.128  1.00  0.00     0.208 A 
ATOM      3  C   UNL     1      -1.931  48.380  82.495  1.00  0.00     0.238 A 
ATOM      4  O   UNL     1      -2.658  49.299  82.961  1.00  0.00    -0.285 OA
ATOM      5  C   UNL     1      -1.047  47.663  83.329  1.00  0.00     0.111 A 
ATOM      6  C   UNL     1      -0.916  47.914  84.717  1.00  0.00     0.134 A 
ATOM      7  C   UNL     1      -0.008  47.165  85.477  1.00  0.00     0.093 A 
ATOM      8  C   UNL     1       0.773  46.172  84.880  1.00  0.00     0.123 A 
ATOM      9  C   UNL     1       0.648  45.919  83.510  1.00  0.00     0.094 A 
ATOM     10  C   UNL     1      -0.255  46.655  82.735  1.00  0.00     0.146 A 
ATOM     11  O   UNL     1      -0.356  46.391  81.437  1.00  0.00    -0.452 OA
ENDROOT
BRANCH   1  12
ATOM     12  C   UNL     1      -1.217  46.638  79.198  1.00  0.00     0.025 A 
ATOM     13  C   UNL     1      -0.434  47.342  78.270  1.00  0.00     0.016 A 
ATOM     14  C   UNL     1      -0.428  46.972  76.922  1.00  0.00     0.051 A 
ATOM     15  C   UNL     1      -1.191  45.886  76.485  1.00  0.00     0.157 A 
ATOM     16  C   UNL     1      -1.967  45.532  78.759  1.00  0.00     0.062 A 
ATOM     17  C   UNL     1      -1.961  45.158  77.407  1.00  0.00     0.158 A 
BRANCH  15  18
ATOM     18  O   UNL     1      -1.167  45.542  75.134  1.00  0.00    -0.504 OA
ATOM     19  H   UNL     1      -0.896  44.618  74.818  1.00  0.00     0.293 HD
ENDBRANCH  15  18
BRANCH  17  20
ATOM     20  O   UNL     1      -2.713  44.065  76.979  1.00  0.00    -0.504 OA
ATOM     21  H   UNL     1      -3.654  44.176  76.617  1.00  0.00     0.293 HD
ENDBRANCH  17  20
ENDBRANCH   1  12
BRANCH   2  22
ATOM     22  O   UNL     1      -2.829  48.798  80.273  1.00  0.00    -0.502 OA
ATOM     23  H   UNL     1      -2.497  49.198  79.402  1.00  0.00     0.293 HD
ENDBRANCH   2  22
BRANCH   6  24
ATOM     24  O   UNL     1      -1.681  48.901  85.343  1.00  0.00    -0.507 OA
ATOM     25  H   UNL     1      -2.138  48.735  86.233  1.00  0.00     0.293 HD
ENDBRANCH   6  24
BRANCH   8  26
ATOM     26  O   UNL     1       1.668  45.441  85.657  1.00  0.00    -0.508 OA
ATOM     27  H   UNL     1       1.485  45.248  86.635  1.00  0.00     0.293 HD
ENDBRANCH   8  26
TORSDOF 6
ENDMDL
MODEL 9
REMARK VINA RESULT:    -6.142      2.027      2.651
REMARK INTER + INTRA:          -7.499
REMARK INTER:                  -7.168
REMARK INTRA:                  -0.331
REMARK UNBOUND:                -0.100
REMARK SMILES O=c1c(O)c(-c2ccc(O)c(O)c2)oc2cc(O)cc(O)c12
REMARK SMILES IDX 5 1 3 2 2 3 1 4 22 5 20 6 19 7 17 8 16 9 15 10 14 11 6 12
REMARK SMILES IDX 7 13 8 14 9 15 13 16 11 17 10 18 12 20 4 22 21 24 18 26
REMARK H PARENT 10 19 12 21 4 23 21 25 18 27
REMARK Flexibility Score: inf
ROOT
ATOM      1  C   UNL     1      -1.489  46.795  82.827  1.00  0.00     0.180 A 
ATOM      2  C   UNL     1      -2.181  45.568  82.786  1.00  0.00     0.208 A 
ATOM      3  C   UNL     1      -2.402  44.956  81.543  1.00  0.00     0.238 A 
ATOM      4  O   UNL     1      -3.030  43.863  81.492  1.00  0.00    -0.285 OA
ATOM      5  C   UNL     1      -1.914  45.566  80.368  1.00  0.00     0.111 A 
ATOM      6  C   UNL     1      -2.092  45.012  79.076  1.00  0.00     0.134 A 
ATOM      7  C   UNL     1      -1.568  45.675  77.958  1.00  0.00     0.093 A 
ATOM      8  C   UNL     1      -0.870  46.876  78.103  1.00  0.00     0.123 A 
ATOM      9  C   UNL     1      -0.692  47.429  79.375  1.00  0.00     0.094 A 
ATOM     10  C   UNL     1      -1.209  46.784  80.503  1.00  0.00     0.146 A 
ATOM     11  O   UNL     1      -1.029  47.332  81.700  1.00  0.00    -0.452 OA
ENDROOT
BRANCH   1  12
ATOM     12  C   UNL     1      -1.232  47.510  84.096  1.00  0.00     0.025 A 
ATOM     13  C   UNL     1       0.006  47.355  84.739  1.00  0.00     0.016 A 
ATOM     14  C   UNL     1       0.278  48.037  85.928  1.00  0.00     0.051 A 
ATOM     15  C   UNL     1      -0.675  48.896  86.483  1.00  0.00     0.157 A 
ATOM     16  C   UNL     1      -2.181  48.392  84.645  1.00  0.00     0.062 A 
ATOM     17  C   UNL     1      -1.909  49.080  85.837  1.00  0.00     0.158 A 
BRANCH  15  18
ATOM     18  O   UNL     1      -0.376  49.562  87.671  1.00  0.00    -0.504 OA
ATOM     19  H   UNL     1       0.484  49.396  88.181  1.00  0.00     0.293 HD
ENDBRANCH  15  18
BRANCH  17  20
ATOM     20  O   UNL     1      -2.858  49.947  86.378  1.00  0.00    -0.504 OA
ATOM     21  H   UNL     1      -2.780  50.295  87.327  1.00  0.00     0.293 HD
ENDBRANCH  17  20
ENDBRANCH   1  12
BRANCH   2  22
ATOM     22  O   UNL     1      -2.611  44.961  83.967  1.00  0.00    -0.502 OA
ATOM     23  H   UNL     1      -3.182  44.124  83.972  1.00  0.00     0.293 HD
ENDBRANCH   2  22
BRANCH   6  24
ATOM     24  O   UNL     1      -2.783  43.812  78.899  1.00  0.00    -0.507 OA
ATOM     25  H   UNL     1      -2.668  43.251  78.062  1.00  0.00     0.293 HD
ENDBRANCH   6  24
BRANCH   8  26
ATOM     26  O   UNL     1      -0.360  47.515  76.975  1.00  0.00    -0.508 OA
ATOM     27  H   UNL     1       0.277  48.300  77.053  1.00  0.00     0.293 HD
ENDBRANCH   8  26
TORSDOF 6
ENDMDL
