MODEL 1
REMARK VINA RESULT:    -4.210      0.000      0.000
REMARK INTER + INTRA:         -10.595
REMARK INTER:                  -8.149
REMARK INTRA:                  -2.446
REMARK UNBOUND:                -2.446
REMARK SMILES CCCCCCCCCCCCCCCCCC(=O)[O-]
REMARK SMILES IDX 10 1 11 2 12 3 13 4 14 5 15 6 16 7 17 8 18 9 19 10 20 11
REMARK SMILES IDX 9 12 8 13 7 14 6 15 5 16 4 17 3 18 2 19 1 20
REMARK H PARENT
REMARK Flexibility Score: inf
ROOT
ATOM      1  C   UNL     1     163.490 162.107 182.638  1.00  0.00     0.000 C 
ENDROOT
BRANCH   1   2
ATOM      2  C   UNL     1     163.526 160.655 183.152  1.00  0.00     0.000 C 
BRANCH   2   3
ATOM      3  C   UNL     1     164.811 159.875 182.807  1.00  0.00     0.000 C 
BRANCH   3   4
ATOM      4  C   UNL     1     165.902 160.698 182.092  1.00  0.00     0.000 C 
BRANCH   4   5
ATOM      5  C   UNL     1     167.248 160.776 182.835  1.00  0.00     0.000 C 
BRANCH   5   6
ATOM      6  C   UNL     1     167.094 160.705 184.360  1.00  0.00     0.000 C 
BRANCH   6   7
ATOM      7  C   UNL     1     167.455 162.048 185.012  1.00  0.00     0.006 C 
BRANCH   7   8
ATOM      8  C   UNL     1     166.497 163.172 184.597  1.00  0.00     0.053 C 
BRANCH   8   9
ATOM      9  C   UNL     1     167.232 164.343 184.022  1.00  0.00     0.041 C 
ATOM     10  O   UNL     1     166.598 165.282 183.473  1.00  0.00    -0.550 OA
ATOM     11  O   UNL     1     168.615 164.413 184.123  1.00  0.00    -0.550 OA
ENDBRANCH   8   9
ENDBRANCH   7   8
ENDBRANCH   6   7
ENDBRANCH   5   6
ENDBRANCH   4   5
ENDBRANCH   3   4
ENDBRANCH   2   3
ENDBRANCH   1   2
BRANCH   1  12
ATOM     12  C   UNL     1     162.410 163.000 183.281  1.00  0.00     0.000 C 
BRANCH  12  13
ATOM     13  C   UNL     1     161.085 162.289 183.611  1.00  0.00    -0.000 C 
BRANCH  13  14
ATOM     14  C   UNL     1     160.208 162.057 182.368  1.00  0.00    -0.000 C 
BRANCH  14  15
ATOM     15  C   UNL     1     159.968 160.563 182.088  1.00  0.00    -0.000 C 
BRANCH  15  16
ATOM     16  C   UNL     1     160.288 160.179 180.633  1.00  0.00    -0.000 C 
BRANCH  16  17
ATOM     17  C   UNL     1     160.318 161.396 179.695  1.00  0.00    -0.000 C 
BRANCH  17  18
ATOM     18  C   UNL     1     161.616 161.483 178.874  1.00  0.00    -0.000 C 
BRANCH  18  19
ATOM     19  C   UNL     1     162.724 160.574 179.428  1.00  0.00    -0.003 C 
ATOM     20  C   UNL     1     164.112 160.958 178.917  1.00  0.00     0.004 C 
ENDBRANCH  18  19
ENDBRANCH  17  18
ENDBRANCH  16  17
ENDBRANCH  15  16
ENDBRANCH  14  15
ENDBRANCH  13  14
ENDBRANCH  12  13
ENDBRANCH   1  12
TORSDOF 16
ENDMDL
MODEL 2
REMARK VINA RESULT:    -4.049      2.311      3.123
REMARK INTER + INTRA:         -10.282
REMARK INTER:                  -7.596
REMARK INTRA:                  -2.686
REMARK UNBOUND:                -2.446
REMARK SMILES CCCCCCCCCCCCCCCCCC(=O)[O-]
REMARK SMILES IDX 10 1 11 2 12 3 13 4 14 5 15 6 16 7 17 8 18 9 19 10 20 11
REMARK SMILES IDX 9 12 8 13 7 14 6 15 5 16 4 17 3 18 2 19 1 20
REMARK H PARENT
REMARK Flexibility Score: inf
ROOT
ATOM      1  C   UNL     1     164.290 162.480 181.867  1.00  0.00     0.000 C 
ENDROOT
BRANCH   1   2
ATOM      2  C   UNL     1     163.986 161.002 182.176  1.00  0.00     0.000 C 
BRANCH   2   3
ATOM      3  C   UNL     1     164.887 160.364 183.252  1.00  0.00     0.000 C 
BRANCH   3   4
ATOM      4  C   UNL     1     166.158 161.166 183.598  1.00  0.00     0.000 C 
BRANCH   4   5
ATOM      5  C   UNL     1     167.388 160.311 183.956  1.00  0.00     0.000 C 
BRANCH   5   6
ATOM      6  C   UNL     1     168.483 160.361 182.882  1.00  0.00     0.000 C 
BRANCH   6   7
ATOM      7  C   UNL     1     168.087 161.306 181.737  1.00  0.00     0.006 C 
BRANCH   7   8
ATOM      8  C   UNL     1     168.047 160.590 180.381  1.00  0.00     0.053 C 
BRANCH   8   9
ATOM      9  C   UNL     1     166.739 160.801 179.681  1.00  0.00     0.041 C 
ATOM     10  O   UNL     1     165.886 159.876 179.639  1.00  0.00    -0.550 OA
ATOM     11  O   UNL     1     166.449 162.031 179.104  1.00  0.00    -0.550 OA
ENDBRANCH   8   9
ENDBRANCH   7   8
ENDBRANCH   6   7
ENDBRANCH   5   6
ENDBRANCH   4   5
ENDBRANCH   3   4
ENDBRANCH   2   3
ENDBRANCH   1   2
BRANCH   1  12
ATOM     12  C   UNL     1     163.114 163.451 182.094  1.00  0.00     0.000 C 
BRANCH  12  13
ATOM     13  C   UNL     1     162.322 163.226 183.395  1.00  0.00    -0.000 C 
BRANCH  13  14
ATOM     14  C   UNL     1     160.873 162.775 183.140  1.00  0.00    -0.000 C 
BRANCH  14  15
ATOM     15  C   UNL     1     160.607 161.342 183.631  1.00  0.00    -0.000 C 
BRANCH  15  16
ATOM     16  C   UNL     1     160.043 160.436 182.523  1.00  0.00    -0.000 C 
BRANCH  16  17
ATOM     17  C   UNL     1     160.100 161.096 181.136  1.00  0.00    -0.000 C 
BRANCH  17  18
ATOM     18  C   UNL     1     161.137 160.440 180.207  1.00  0.00    -0.000 C 
BRANCH  18  19
ATOM     19  C   UNL     1     161.663 161.408 179.136  1.00  0.00    -0.003 C 
ATOM     20  C   UNL     1     160.991 162.779 179.198  1.00  0.00     0.004 C 
ENDBRANCH  18  19
ENDBRANCH  17  18
ENDBRANCH  16  17
ENDBRANCH  15  16
ENDBRANCH  14  15
ENDBRANCH  13  14
ENDBRANCH  12  13
ENDBRANCH   1  12
TORSDOF 16
ENDMDL
MODEL 3
REMARK VINA RESULT:    -3.996      1.076      2.507
REMARK INTER + INTRA:         -10.181
REMARK INTER:                  -7.568
REMARK INTRA:                  -2.613
REMARK UNBOUND:                -2.446
REMARK SMILES CCCCCCCCCCCCCCCCCC(=O)[O-]
REMARK SMILES IDX 10 1 11 2 12 3 13 4 14 5 15 6 16 7 17 8 18 9 19 10 20 11
REMARK SMILES IDX 9 12 8 13 7 14 6 15 5 16 4 17 3 18 2 19 1 20
REMARK H PARENT
REMARK Flexibility Score: inf
ROOT
ATOM      1  C   UNL     1     160.459 163.200 182.739  1.00  0.00     0.000 C 
ENDROOT
BRANCH   1   2
ATOM      2  C   UNL     1     161.799 163.871 182.378  1.00  0.00     0.000 C 
BRANCH   2   3
ATOM      3  C   UNL     1     163.037 163.260 183.063  1.00  0.00     0.000 C 
BRANCH   3   4
ATOM      4  C   UNL     1     163.828 162.253 182.204  1.00  0.00     0.000 C 
BRANCH   4   5
ATOM      5  C   UNL     1     164.118 160.903 182.886  1.00  0.00     0.000 C 
BRANCH   5   6
ATOM      6  C   UNL     1     165.534 160.383 182.604  1.00  0.00     0.000 C 
BRANCH   6   7
ATOM      7  C   UNL     1     166.436 160.551 183.836  1.00  0.00     0.006 C 
BRANCH   7   8
ATOM      8  C   UNL     1     167.672 161.411 183.538  1.00  0.00     0.053 C 
BRANCH   8   9
ATOM      9  C   UNL     1     167.523 162.801 184.074  1.00  0.00     0.041 C 
ATOM     10  O   UNL     1     168.495 163.602 184.040  1.00  0.00    -0.550 OA
ATOM     11  O   UNL     1     166.301 163.224 184.580  1.00  0.00    -0.550 OA
ENDBRANCH   8   9
ENDBRANCH   7   8
ENDBRANCH   6   7
ENDBRANCH   5   6
ENDBRANCH   4   5
ENDBRANCH   3   4
ENDBRANCH   2   3
ENDBRANCH   1   2
BRANCH   1  12
ATOM     12  C   UNL     1     160.576 161.942 183.622  1.00  0.00     0.000 C 
BRANCH  12  13
ATOM     13  C   UNL     1     160.212 160.618 182.925  1.00  0.00    -0.000 C 
BRANCH  13  14
ATOM     14  C   UNL     1     159.875 160.802 181.435  1.00  0.00    -0.000 C 
BRANCH  14  15
ATOM     15  C   UNL     1     161.097 160.593 180.525  1.00  0.00    -0.000 C 
BRANCH  15  16
ATOM     16  C   UNL     1     161.163 161.623 179.383  1.00  0.00    -0.000 C 
BRANCH  16  17
ATOM     17  C   UNL     1     162.536 161.649 178.692  1.00  0.00    -0.000 C 
BRANCH  17  18
ATOM     18  C   UNL     1     163.442 160.483 179.126  1.00  0.00    -0.000 C 
BRANCH  18  19
ATOM     19  C   UNL     1     164.817 160.520 178.442  1.00  0.00    -0.003 C 
ATOM     20  C   UNL     1     165.686 161.680 178.927  1.00  0.00     0.004 C 
ENDBRANCH  18  19
ENDBRANCH  17  18
ENDBRANCH  16  17
ENDBRANCH  15  16
ENDBRANCH  14  15
ENDBRANCH  13  14
ENDBRANCH  12  13
ENDBRANCH   1  12
TORSDOF 16
ENDMDL
MODEL 4
REMARK VINA RESULT:    -3.936      3.484      5.995
REMARK INTER + INTRA:         -10.063
REMARK INTER:                  -7.637
REMARK INTRA:                  -2.426
REMARK UNBOUND:                -2.446
REMARK SMILES CCCCCCCCCCCCCCCCCC(=O)[O-]
REMARK SMILES IDX 10 1 11 2 12 3 13 4 14 5 15 6 16 7 17 8 18 9 19 10 20 11
REMARK SMILES IDX 9 12 8 13 7 14 6 15 5 16 4 17 3 18 2 19 1 20
REMARK H PARENT
REMARK Flexibility Score: inf
ROOT
ATOM      1  C   UNL     1     162.149 162.116 179.380  1.00  0.00     0.000 C 
ENDROOT
BRANCH   1   2
ATOM      2  C   UNL     1     161.614 160.721 179.759  1.00  0.00     0.000 C 
BRANCH   2   3
ATOM      3  C   UNL     1     160.181 160.708 180.325  1.00  0.00     0.000 C 
BRANCH   3   4
ATOM      4  C   UNL     1     160.086 160.701 181.865  1.00  0.00     0.000 C 
BRANCH   4   5
ATOM      5  C   UNL     1     160.135 162.090 182.525  1.00  0.00     0.000 C 
BRANCH   5   6
ATOM      6  C   UNL     1     161.357 162.277 183.436  1.00  0.00     0.000 C 
BRANCH   6   7
ATOM      7  C   UNL     1     162.405 161.184 183.179  1.00  0.00     0.006 C 
BRANCH   7   8
ATOM      8  C   UNL     1     163.761 161.767 182.759  1.00  0.00     0.053 C 
BRANCH   8   9
ATOM      9  C   UNL     1     164.774 160.692 182.512  1.00  0.00     0.041 C 
ATOM     10  O   UNL     1     164.691 159.967 181.486  1.00  0.00    -0.550 OA
ATOM     11  O   UNL     1     165.829 160.514 183.397  1.00  0.00    -0.550 OA
ENDBRANCH   8   9
ENDBRANCH   7   8
ENDBRANCH   6   7
ENDBRANCH   5   6
ENDBRANCH   4   5
ENDBRANCH   3   4
ENDBRANCH   2   3
ENDBRANCH   1   2
BRANCH   1  12
ATOM     12  C   UNL     1     161.076 163.126 178.927  1.00  0.00     0.000 C 
BRANCH  12  13
ATOM     13  C   UNL     1     160.979 164.403 179.781  1.00  0.00    -0.000 C 
BRANCH  13  14
ATOM     14  C   UNL     1     162.245 164.659 180.618  1.00  0.00    -0.000 C 
BRANCH  14  15
ATOM     15  C   UNL     1     161.944 165.408 181.927  1.00  0.00    -0.000 C 
BRANCH  15  16
ATOM     16  C   UNL     1     160.544 166.047 181.930  1.00  0.00    -0.000 C 
BRANCH  16  17
ATOM     17  C   UNL     1     160.484 167.330 182.775  1.00  0.00    -0.000 C 
BRANCH  17  18
ATOM     18  C   UNL     1     161.672 168.272 182.510  1.00  0.00    -0.000 C 
BRANCH  18  19
ATOM     19  C   UNL     1     161.794 169.378 183.570  1.00  0.00    -0.003 C 
ATOM     20  C   UNL     1     163.052 169.237 184.426  1.00  0.00     0.004 C 
ENDBRANCH  18  19
ENDBRANCH  17  18
ENDBRANCH  16  17
ENDBRANCH  15  16
ENDBRANCH  14  15
ENDBRANCH  13  14
ENDBRANCH  12  13
ENDBRANCH   1  12
TORSDOF 16
ENDMDL
MODEL 5
REMARK VINA RESULT:    -3.921      2.164      3.692
REMARK INTER + INTRA:         -10.034
REMARK INTER:                  -7.359
REMARK INTRA:                  -2.675
REMARK UNBOUND:                -2.446
REMARK SMILES CCCCCCCCCCCCCCCCCC(=O)[O-]
REMARK SMILES IDX 10 1 11 2 12 3 13 4 14 5 15 6 16 7 17 8 18 9 19 10 20 11
REMARK SMILES IDX 9 12 8 13 7 14 6 15 5 16 4 17 3 18 2 19 1 20
REMARK H PARENT
REMARK Flexibility Score: inf
ROOT
ATOM      1  C   UNL     1     164.448 161.350 180.669  1.00  0.00     0.000 C 
ENDROOT
BRANCH   1   2
ATOM      2  C   UNL     1     163.995 160.471 181.851  1.00  0.00     0.000 C 
BRANCH   2   3
ATOM      3  C   UNL     1     164.890 160.555 183.103  1.00  0.00     0.000 C 
BRANCH   3   4
ATOM      4  C   UNL     1     165.596 161.911 183.312  1.00  0.00     0.000 C 
BRANCH   4   5
ATOM      5  C   UNL     1     167.032 161.817 183.860  1.00  0.00     0.000 C 
BRANCH   5   6
ATOM      6  C   UNL     1     167.670 160.440 183.633  1.00  0.00     0.000 C 
BRANCH   6   7
ATOM      7  C   UNL     1     168.688 160.488 182.485  1.00  0.00     0.006 C 
BRANCH   7   8
ATOM      8  C   UNL     1     168.022 160.346 181.111  1.00  0.00     0.053 C 
BRANCH   8   9
ATOM      9  C   UNL     1     168.698 161.191 180.076  1.00  0.00     0.041 C 
ATOM     10  O   UNL     1     169.917 161.014 179.810  1.00  0.00    -0.550 OA
ATOM     11  O   UNL     1     167.976 162.152 179.380  1.00  0.00    -0.550 OA
ENDBRANCH   8   9
ENDBRANCH   7   8
ENDBRANCH   6   7
ENDBRANCH   5   6
ENDBRANCH   4   5
ENDBRANCH   3   4
ENDBRANCH   2   3
ENDBRANCH   1   2
BRANCH   1  12
ATOM     12  C   UNL     1     163.320 161.802 179.720  1.00  0.00     0.000 C 
BRANCH  12  13
ATOM     13  C   UNL     1     162.230 160.747 179.452  1.00  0.00    -0.000 C 
BRANCH  13  14
ATOM     14  C   UNL     1     160.814 161.261 179.766  1.00  0.00    -0.000 C 
BRANCH  14  15
ATOM     15  C   UNL     1     159.993 160.255 180.589  1.00  0.00    -0.000 C 
BRANCH  15  16
ATOM     16  C   UNL     1     160.237 160.395 182.103  1.00  0.00    -0.000 C 
BRANCH  16  17
ATOM     17  C   UNL     1     160.184 161.857 182.575  1.00  0.00    -0.000 C 
BRANCH  17  18
ATOM     18  C   UNL     1     161.270 162.185 183.615  1.00  0.00    -0.000 C 
BRANCH  18  19
ATOM     19  C   UNL     1     162.193 163.326 183.161  1.00  0.00    -0.003 C 
ATOM     20  C   UNL     1     161.609 164.131 182.000  1.00  0.00     0.004 C 
ENDBRANCH  18  19
ENDBRANCH  17  18
ENDBRANCH  16  17
ENDBRANCH  15  16
ENDBRANCH  14  15
ENDBRANCH  13  14
ENDBRANCH  12  13
ENDBRANCH   1  12
TORSDOF 16
ENDMDL
MODEL 6
REMARK VINA RESULT:    -3.891      2.625      6.036
REMARK INTER + INTRA:          -9.977
REMARK INTER:                  -7.863
REMARK INTRA:                  -2.114
REMARK UNBOUND:                -2.446
REMARK SMILES CCCCCCCCCCCCCCCCCC(=O)[O-]
REMARK SMILES IDX 10 1 11 2 12 3 13 4 14 5 15 6 16 7 17 8 18 9 19 10 20 11
REMARK SMILES IDX 9 12 8 13 7 14 6 15 5 16 4 17 3 18 2 19 1 20
REMARK H PARENT
REMARK Flexibility Score: inf
ROOT
ATOM      1  C   UNL     1     160.244 161.540 180.691  1.00  0.00     0.000 C 
ENDROOT
BRANCH   1   2
ATOM      2  C   UNL     1     160.364 160.464 181.787  1.00  0.00     0.000 C 
BRANCH   2   3
ATOM      3  C   UNL     1     160.605 161.008 183.209  1.00  0.00     0.000 C 
BRANCH   3   4
ATOM      4  C   UNL     1     160.610 162.546 183.327  1.00  0.00     0.000 C 
BRANCH   4   5
ATOM      5  C   UNL     1     162.002 163.199 183.258  1.00  0.00     0.000 C 
BRANCH   5   6
ATOM      6  C   UNL     1     162.059 164.384 182.285  1.00  0.00     0.000 C 
BRANCH   6   7
ATOM      7  C   UNL     1     160.653 164.938 182.011  1.00  0.00     0.006 C 
BRANCH   7   8
ATOM      8  C   UNL     1     160.691 166.324 181.354  1.00  0.00     0.053 C 
BRANCH   8   9
ATOM      9  C   UNL     1     161.110 167.386 182.324  1.00  0.00     0.041 C 
ATOM     10  O   UNL     1     160.321 167.762 183.232  1.00  0.00    -0.550 OA
ATOM     11  O   UNL     1     162.382 167.936 182.246  1.00  0.00    -0.550 OA
ENDBRANCH   8   9
ENDBRANCH   7   8
ENDBRANCH   6   7
ENDBRANCH   5   6
ENDBRANCH   4   5
ENDBRANCH   3   4
ENDBRANCH   2   3
ENDBRANCH   1   2
BRANCH   1  12
ATOM     12  C   UNL     1     161.438 161.619 179.718  1.00  0.00     0.000 C 
BRANCH  12  13
ATOM     13  C   UNL     1     162.564 160.603 179.983  1.00  0.00    -0.000 C 
BRANCH  13  14
ATOM     14  C   UNL     1     163.797 161.241 180.649  1.00  0.00    -0.000 C 
BRANCH  14  15
ATOM     15  C   UNL     1     164.143 160.585 181.996  1.00  0.00    -0.000 C 
BRANCH  15  16
ATOM     16  C   UNL     1     165.417 161.174 182.627  1.00  0.00    -0.000 C 
BRANCH  16  17
ATOM     17  C   UNL     1     166.133 160.175 183.550  1.00  0.00    -0.000 C 
BRANCH  17  18
ATOM     18  C   UNL     1     167.182 160.848 184.453  1.00  0.00    -0.000 C 
BRANCH  18  19
ATOM     19  C   UNL     1     166.968 162.365 184.575  1.00  0.00    -0.003 C 
ATOM     20  C   UNL     1     168.099 163.172 183.939  1.00  0.00     0.004 C 
ENDBRANCH  18  19
ENDBRANCH  17  18
ENDBRANCH  16  17
ENDBRANCH  15  16
ENDBRANCH  14  15
ENDBRANCH  13  14
ENDBRANCH  12  13
ENDBRANCH   1  12
TORSDOF 16
ENDMDL
MODEL 7
REMARK VINA RESULT:    -3.883      2.438      6.146
REMARK INTER + INTRA:          -9.961
REMARK INTER:                  -7.371
REMARK INTRA:                  -2.590
REMARK UNBOUND:                -2.446
REMARK SMILES CCCCCCCCCCCCCCCCCC(=O)[O-]
REMARK SMILES IDX 10 1 11 2 12 3 13 4 14 5 15 6 16 7 17 8 18 9 19 10 20 11
REMARK SMILES IDX 9 12 8 13 7 14 6 15 5 16 4 17 3 18 2 19 1 20
REMARK H PARENT
REMARK Flexibility Score: inf
ROOT
ATOM      1  C   UNL     1     163.560 161.624 180.712  1.00  0.00     0.000 C 
ENDROOT
BRANCH   1   2
ATOM      2  C   UNL     1     162.446 161.232 179.722  1.00  0.00     0.000 C 
BRANCH   2   3
ATOM      3  C   UNL     1     161.360 160.304 180.300  1.00  0.00     0.000 C 
BRANCH   3   4
ATOM      4  C   UNL     1     160.223 161.020 181.058  1.00  0.00     0.000 C 
BRANCH   4   5
ATOM      5  C   UNL     1     160.251 160.845 182.587  1.00  0.00     0.000 C 
BRANCH   5   6
ATOM      6  C   UNL     1     160.695 162.114 183.326  1.00  0.00     0.000 C 
BRANCH   6   7
ATOM      7  C   UNL     1     160.326 163.373 182.527  1.00  0.00     0.006 C 
BRANCH   7   8
ATOM      8  C   UNL     1     161.542 164.269 182.259  1.00  0.00     0.053 C 
BRANCH   8   9
ATOM      9  C   UNL     1     161.515 164.841 180.875  1.00  0.00     0.041 C 
ATOM     10  O   UNL     1     162.234 165.834 180.585  1.00  0.00    -0.550 OA
ATOM     11  O   UNL     1     160.720 164.258 179.896  1.00  0.00    -0.550 OA
ENDBRANCH   8   9
ENDBRANCH   7   8
ENDBRANCH   6   7
ENDBRANCH   5   6
ENDBRANCH   4   5
ENDBRANCH   3   4
ENDBRANCH   2   3
ENDBRANCH   1   2
BRANCH   1  12
ATOM     12  C   UNL     1     163.825 160.601 181.835  1.00  0.00     0.000 C 
BRANCH  12  13
ATOM     13  C   UNL     1     164.720 161.106 182.981  1.00  0.00    -0.000 C 
BRANCH  13  14
ATOM     14  C   UNL     1     164.638 162.631 183.173  1.00  0.00    -0.000 C 
BRANCH  14  15
ATOM     15  C   UNL     1     165.817 163.185 183.990  1.00  0.00    -0.000 C 
BRANCH  15  16
ATOM     16  C   UNL     1     167.005 162.209 184.045  1.00  0.00    -0.000 C 
BRANCH  16  17
ATOM     17  C   UNL     1     168.286 162.806 183.442  1.00  0.00    -0.000 C 
BRANCH  17  18
ATOM     18  C   UNL     1     168.942 161.880 182.402  1.00  0.00    -0.000 C 
BRANCH  18  19
ATOM     19  C   UNL     1     168.246 160.513 182.310  1.00  0.00    -0.003 C 
ATOM     20  C   UNL     1     167.670 160.237 180.921  1.00  0.00     0.004 C 
ENDBRANCH  18  19
ENDBRANCH  17  18
ENDBRANCH  16  17
ENDBRANCH  15  16
ENDBRANCH  14  15
ENDBRANCH  13  14
ENDBRANCH  12  13
ENDBRANCH   1  12
TORSDOF 16
ENDMDL
MODEL 8
REMARK VINA RESULT:    -3.883      3.060      6.638
REMARK INTER + INTRA:          -9.960
REMARK INTER:                  -7.726
REMARK INTRA:                  -2.234
REMARK UNBOUND:                -2.446
REMARK SMILES CCCCCCCCCCCCCCCCCC(=O)[O-]
REMARK SMILES IDX 10 1 11 2 12 3 13 4 14 5 15 6 16 7 17 8 18 9 19 10 20 11
REMARK SMILES IDX 9 12 8 13 7 14 6 15 5 16 4 17 3 18 2 19 1 20
REMARK H PARENT
REMARK Flexibility Score: inf
ROOT
ATOM      1  C   UNL     1     163.922 162.211 182.832  1.00  0.00     0.000 C 
ENDROOT
BRANCH   1   2
ATOM      2  C   UNL     1     162.564 162.934 182.915  1.00  0.00     0.000 C 
BRANCH   2   3
ATOM      3  C   UNL     1     161.443 162.135 183.610  1.00  0.00     0.000 C 
BRANCH   3   4
ATOM      4  C   UNL     1     160.230 161.801 182.718  1.00  0.00     0.000 C 
BRANCH   4   5
ATOM      5  C   UNL     1     160.218 160.372 182.145  1.00  0.00     0.000 C 
BRANCH   5   6
ATOM      6  C   UNL     1     160.205 160.343 180.611  1.00  0.00     0.000 C 
BRANCH   6   7
ATOM      7  C   UNL     1     161.635 160.311 180.051  1.00  0.00     0.006 C 
BRANCH   7   8
ATOM      8  C   UNL     1     162.062 161.666 179.471  1.00  0.00     0.053 C 
BRANCH   8   9
ATOM      9  C   UNL     1     160.914 162.381 178.828  1.00  0.00     0.041 C 
ATOM     10  O   UNL     1     160.509 162.032 177.687  1.00  0.00    -0.550 OA
ATOM     11  O   UNL     1     160.271 163.410 179.501  1.00  0.00    -0.550 OA
ENDBRANCH   8   9
ENDBRANCH   7   8
ENDBRANCH   6   7
ENDBRANCH   5   6
ENDBRANCH   4   5
ENDBRANCH   3   4
ENDBRANCH   2   3
ENDBRANCH   1   2
BRANCH   1  12
ATOM     12  C   UNL     1     163.861 160.682 183.026  1.00  0.00     0.000 C 
BRANCH  12  13
ATOM     13  C   UNL     1     165.185 159.938 182.778  1.00  0.00    -0.000 C 
BRANCH  13  14
ATOM     14  C   UNL     1     166.077 159.875 184.031  1.00  0.00    -0.000 C 
BRANCH  14  15
ATOM     15  C   UNL     1     167.325 160.765 183.910  1.00  0.00    -0.000 C 
BRANCH  15  16
ATOM     16  C   UNL     1     168.214 160.372 182.716  1.00  0.00    -0.000 C 
BRANCH  16  17
ATOM     17  C   UNL     1     169.007 161.564 182.155  1.00  0.00    -0.000 C 
BRANCH  17  18
ATOM     18  C   UNL     1     168.427 162.094 180.832  1.00  0.00    -0.000 C 
BRANCH  18  19
ATOM     19  C   UNL     1     167.559 161.052 180.111  1.00  0.00    -0.003 C 
ATOM     20  C   UNL     1     166.137 161.549 179.848  1.00  0.00     0.004 C 
ENDBRANCH  18  19
ENDBRANCH  17  18
ENDBRANCH  16  17
ENDBRANCH  15  16
ENDBRANCH  14  15
ENDBRANCH  13  14
ENDBRANCH  12  13
ENDBRANCH   1  12
TORSDOF 16
ENDMDL
