MODEL 1
REMARK VINA RESULT:    -3.196      0.000      0.000
REMARK INTER + INTRA:          -7.600
REMARK INTER:                  -6.186
REMARK INTRA:                  -1.414
REMARK UNBOUND:                -1.414
REMARK SMILES CCCCCCCCCCCCCCCCCC(=O)[O-]
REMARK SMILES IDX 10 1 11 2 12 3 13 4 14 5 15 6 16 7 17 8 18 9 19 10 20 11
REMARK SMILES IDX 9 12 8 13 7 14 6 15 5 16 4 17 3 18 2 19 1 20
REMARK H PARENT
REMARK Flexibility Score: inf
ROOT
ATOM      1  C   UNL     1      -4.647   8.156  -1.903  1.00  0.00     0.000 C 
ENDROOT
BRANCH   1   2
ATOM      2  C   UNL     1      -5.072   9.470  -2.594  1.00  0.00     0.000 C 
BRANCH   2   3
ATOM      3  C   UNL     1      -4.280  10.682  -2.068  1.00  0.00     0.000 C 
BRANCH   3   4
ATOM      4  C   UNL     1      -3.011  10.963  -2.887  1.00  0.00     0.000 C 
BRANCH   4   5
ATOM      5  C   UNL     1      -1.726  10.801  -2.062  1.00  0.00     0.000 C 
BRANCH   5   6
ATOM      6  C   UNL     1      -1.991  11.058  -0.571  1.00  0.00     0.000 C 
BRANCH   6   7
ATOM      7  C   UNL     1      -1.557   9.887   0.328  1.00  0.00     0.006 C 
BRANCH   7   8
ATOM      8  C   UNL     1      -1.884  10.089   1.819  1.00  0.00     0.053 C 
BRANCH   8   9
ATOM      9  C   UNL     1      -3.356  10.214   2.072  1.00  0.00     0.041 C 
ATOM     10  O   UNL     1      -3.773  10.729   3.144  1.00  0.00    -0.550 OA
ATOM     11  O   UNL     1      -4.269   9.796   1.112  1.00  0.00    -0.550 OA
ENDBRANCH   8   9
ENDBRANCH   7   8
ENDBRANCH   6   7
ENDBRANCH   5   6
ENDBRANCH   4   5
ENDBRANCH   3   4
ENDBRANCH   2   3
ENDBRANCH   1   2
BRANCH   1  12
ATOM     12  C   UNL     1      -3.641   7.327  -2.721  1.00  0.00     0.000 C 
BRANCH  12  13
ATOM     13  C   UNL     1      -2.214   7.394  -2.156  1.00  0.00    -0.000 C 
BRANCH  13  14
ATOM     14  C   UNL     1      -1.161   7.669  -3.241  1.00  0.00    -0.000 C 
BRANCH  14  15
ATOM     15  C   UNL     1      -0.909   6.452  -4.144  1.00  0.00    -0.000 C 
BRANCH  15  16
ATOM     16  C   UNL     1      -1.159   6.800  -5.616  1.00  0.00    -0.000 C 
BRANCH  16  17
ATOM     17  C   UNL     1      -1.141   5.538  -6.491  1.00  0.00    -0.000 C 
BRANCH  17  18
ATOM     18  C   UNL     1      -1.987   4.392  -5.907  1.00  0.00    -0.000 C 
BRANCH  18  19
ATOM     19  C   UNL     1      -1.393   2.986  -6.099  1.00  0.00    -0.003 C 
ATOM     20  C   UNL     1      -1.035   2.303  -4.780  1.00  0.00     0.004 C 
ENDBRANCH  18  19
ENDBRANCH  17  18
ENDBRANCH  16  17
ENDBRANCH  15  16
ENDBRANCH  14  15
ENDBRANCH  13  14
ENDBRANCH  12  13
ENDBRANCH   1  12
TORSDOF 16
ENDMDL
MODEL 2
REMARK VINA RESULT:    -3.042      3.706      8.272
REMARK INTER + INTRA:          -7.301
REMARK INTER:                  -6.362
REMARK INTRA:                  -0.939
REMARK UNBOUND:                -1.414
REMARK SMILES CCCCCCCCCCCCCCCCCC(=O)[O-]
REMARK SMILES IDX 10 1 11 2 12 3 13 4 14 5 15 6 16 7 17 8 18 9 19 10 20 11
REMARK SMILES IDX 9 12 8 13 7 14 6 15 5 16 4 17 3 18 2 19 1 20
REMARK H PARENT
REMARK Flexibility Score: inf
ROOT
ATOM      1  C   UNL     1      -4.851   9.196  -1.078  1.00  0.00     0.000 C 
ENDROOT
BRANCH   1   2
ATOM      2  C   UNL     1      -4.492   7.806  -1.646  1.00  0.00     0.000 C 
BRANCH   2   3
ATOM      3  C   UNL     1      -4.518   7.785  -3.185  1.00  0.00     0.000 C 
BRANCH   3   4
ATOM      4  C   UNL     1      -3.123   7.957  -3.804  1.00  0.00     0.000 C 
BRANCH   4   5
ATOM      5  C   UNL     1      -2.937   7.130  -5.085  1.00  0.00     0.000 C 
BRANCH   5   6
ATOM      6  C   UNL     1      -1.508   7.269  -5.630  1.00  0.00     0.000 C 
BRANCH   6   7
ATOM      7  C   UNL     1      -0.905   5.929  -6.088  1.00  0.00     0.006 C 
BRANCH   7   8
ATOM      8  C   UNL     1      -0.965   4.819  -5.024  1.00  0.00     0.053 C 
BRANCH   8   9
ATOM      9  C   UNL     1      -1.405   3.503  -5.589  1.00  0.00     0.041 C 
ATOM     10  O   UNL     1      -1.740   3.414  -6.800  1.00  0.00    -0.550 OA
ATOM     11  O   UNL     1      -1.412   2.367  -4.791  1.00  0.00    -0.550 OA
ENDBRANCH   8   9
ENDBRANCH   7   8
ENDBRANCH   6   7
ENDBRANCH   5   6
ENDBRANCH   4   5
ENDBRANCH   3   4
ENDBRANCH   2   3
ENDBRANCH   1   2
BRANCH   1  12
ATOM     12  C   UNL     1      -3.635  10.121  -0.896  1.00  0.00     0.000 C 
BRANCH  12  13
ATOM     13  C   UNL     1      -2.372   9.365  -0.450  1.00  0.00    -0.000 C 
BRANCH  13  14
ATOM     14  C   UNL     1      -2.372   9.050   1.054  1.00  0.00    -0.000 C 
BRANCH  14  15
ATOM     15  C   UNL     1      -1.304   9.841   1.825  1.00  0.00    -0.000 C 
BRANCH  15  16
ATOM     16  C   UNL     1      -1.896  11.124   2.421  1.00  0.00    -0.000 C 
BRANCH  16  17
ATOM     17  C   UNL     1      -3.429  11.125   2.313  1.00  0.00    -0.000 C 
BRANCH  17  18
ATOM     18  C   UNL     1      -4.125  11.069   3.685  1.00  0.00    -0.000 C 
BRANCH  18  19
ATOM     19  C   UNL     1      -5.444  10.277   3.709  1.00  0.00    -0.003 C 
ATOM     20  C   UNL     1      -6.467  10.849   4.689  1.00  0.00     0.004 C 
ENDBRANCH  18  19
ENDBRANCH  17  18
ENDBRANCH  16  17
ENDBRANCH  15  16
ENDBRANCH  14  15
ENDBRANCH  13  14
ENDBRANCH  12  13
ENDBRANCH   1  12
TORSDOF 16
ENDMDL
MODEL 3
REMARK VINA RESULT:    -2.976      2.021      3.464
REMARK INTER + INTRA:          -7.174
REMARK INTER:                  -6.309
REMARK INTRA:                  -0.865
REMARK UNBOUND:                -1.414
REMARK SMILES CCCCCCCCCCCCCCCCCC(=O)[O-]
REMARK SMILES IDX 10 1 11 2 12 3 13 4 14 5 15 6 16 7 17 8 18 9 19 10 20 11
REMARK SMILES IDX 9 12 8 13 7 14 6 15 5 16 4 17 3 18 2 19 1 20
REMARK H PARENT
REMARK Flexibility Score: inf
ROOT
ATOM      1  C   UNL     1      -1.865   7.931  -0.515  1.00  0.00     0.000 C 
ENDROOT
BRANCH   1   2
ATOM      2  C   UNL     1      -1.278   8.457   0.812  1.00  0.00     0.000 C 
BRANCH   2   3
ATOM      3  C   UNL     1      -1.367   9.990   0.916  1.00  0.00     0.000 C 
BRANCH   3   4
ATOM      4  C   UNL     1      -1.986  10.461   2.240  1.00  0.00     0.000 C 
BRANCH   4   5
ATOM      5  C   UNL     1      -3.483  10.781   2.114  1.00  0.00     0.000 C 
BRANCH   5   6
ATOM      6  C   UNL     1      -4.137   9.935   1.012  1.00  0.00     0.000 C 
BRANCH   6   7
ATOM      7  C   UNL     1      -4.604  10.770  -0.193  1.00  0.00     0.006 C 
BRANCH   7   8
ATOM      8  C   UNL     1      -4.106  10.243  -1.551  1.00  0.00     0.053 C 
BRANCH   8   9
ATOM      9  C   UNL     1      -5.146   9.442  -2.274  1.00  0.00     0.041 C 
ATOM     10  O   UNL     1      -5.990  10.019  -3.010  1.00  0.00    -0.550 OA
ATOM     11  O   UNL     1      -5.163   8.058  -2.165  1.00  0.00    -0.550 OA
ENDBRANCH   8   9
ENDBRANCH   7   8
ENDBRANCH   6   7
ENDBRANCH   5   6
ENDBRANCH   4   5
ENDBRANCH   3   4
ENDBRANCH   2   3
ENDBRANCH   1   2
BRANCH   1  12
ATOM     12  C   UNL     1      -0.876   7.988  -1.693  1.00  0.00     0.000 C 
BRANCH  12  13
ATOM     13  C   UNL     1      -1.096   9.212  -2.597  1.00  0.00    -0.000 C 
BRANCH  13  14
ATOM     14  C   UNL     1      -1.088   8.852  -4.091  1.00  0.00    -0.000 C 
BRANCH  14  15
ATOM     15  C   UNL     1      -0.875   7.350  -4.337  1.00  0.00    -0.000 C 
BRANCH  15  16
ATOM     16  C   UNL     1      -2.180   6.677  -4.782  1.00  0.00    -0.000 C 
BRANCH  16  17
ATOM     17  C   UNL     1      -2.000   5.968  -6.133  1.00  0.00    -0.000 C 
BRANCH  17  18
ATOM     18  C   UNL     1      -0.942   4.851  -6.086  1.00  0.00    -0.000 C 
BRANCH  18  19
ATOM     19  C   UNL     1      -1.485   3.434  -6.339  1.00  0.00    -0.003 C 
ATOM     20  C   UNL     1      -1.547   2.582  -5.073  1.00  0.00     0.004 C 
ENDBRANCH  18  19
ENDBRANCH  17  18
ENDBRANCH  16  17
ENDBRANCH  15  16
ENDBRANCH  14  15
ENDBRANCH  13  14
ENDBRANCH  12  13
ENDBRANCH   1  12
TORSDOF 16
ENDMDL
MODEL 4
REMARK VINA RESULT:    -2.434      1.779      2.436
REMARK INTER + INTRA:          -6.126
REMARK INTER:                  -5.215
REMARK INTRA:                  -0.911
REMARK UNBOUND:                -1.414
REMARK SMILES CCCCCCCCCCCCCCCCCC(=O)[O-]
REMARK SMILES IDX 10 1 11 2 12 3 13 4 14 5 15 6 16 7 17 8 18 9 19 10 20 11
REMARK SMILES IDX 9 12 8 13 7 14 6 15 5 16 4 17 3 18 2 19 1 20
REMARK H PARENT
REMARK Flexibility Score: inf
ROOT
ATOM      1  C   UNL     1      -4.506   8.163  -2.428  1.00  0.00     0.000 C 
ENDROOT
BRANCH   1   2
ATOM      2  C   UNL     1      -3.481   7.560  -1.445  1.00  0.00     0.000 C 
BRANCH   2   3
ATOM      3  C   UNL     1      -3.100   8.547  -0.327  1.00  0.00     0.000 C 
BRANCH   3   4
ATOM      4  C   UNL     1      -1.749   8.215   0.324  1.00  0.00     0.000 C 
BRANCH   4   5
ATOM      5  C   UNL     1      -1.240   9.339   1.238  1.00  0.00     0.000 C 
BRANCH   5   6
ATOM      6  C   UNL     1      -2.206  10.533   1.236  1.00  0.00     0.000 C 
BRANCH   6   7
ATOM      7  C   UNL     1      -2.740  10.878   2.638  1.00  0.00     0.006 C 
BRANCH   7   8
ATOM      8  C   UNL     1      -4.268  11.051   2.699  1.00  0.00     0.053 C 
BRANCH   8   9
ATOM      9  C   UNL     1      -4.810  10.887   4.086  1.00  0.00     0.041 C 
ATOM     10  O   UNL     1      -4.079  11.125   5.084  1.00  0.00    -0.550 OA
ATOM     11  O   UNL     1      -6.132  10.507   4.281  1.00  0.00    -0.550 OA
ENDBRANCH   8   9
ENDBRANCH   7   8
ENDBRANCH   6   7
ENDBRANCH   5   6
ENDBRANCH   4   5
ENDBRANCH   3   4
ENDBRANCH   2   3
ENDBRANCH   1   2
BRANCH   1  12
ATOM     12  C   UNL     1      -4.489   7.506  -3.820  1.00  0.00     0.000 C 
BRANCH  12  13
ATOM     13  C   UNL     1      -3.757   8.356  -4.871  1.00  0.00    -0.000 C 
BRANCH  13  14
ATOM     14  C   UNL     1      -2.349   8.773  -4.418  1.00  0.00    -0.000 C 
BRANCH  14  15
ATOM     15  C   UNL     1      -1.241   7.953  -5.099  1.00  0.00    -0.000 C 
BRANCH  15  16
ATOM     16  C   UNL     1      -1.244   6.504  -4.596  1.00  0.00    -0.000 C 
BRANCH  16  17
ATOM     17  C   UNL     1      -1.780   5.549  -5.673  1.00  0.00    -0.000 C 
BRANCH  17  18
ATOM     18  C   UNL     1      -0.886   4.312  -5.875  1.00  0.00    -0.000 C 
BRANCH  18  19
ATOM     19  C   UNL     1      -1.428   3.014  -5.252  1.00  0.00    -0.003 C 
ATOM     20  C   UNL     1      -0.976   1.759  -5.996  1.00  0.00     0.004 C 
ENDBRANCH  18  19
ENDBRANCH  17  18
ENDBRANCH  16  17
ENDBRANCH  15  16
ENDBRANCH  14  15
ENDBRANCH  13  14
ENDBRANCH  12  13
ENDBRANCH   1  12
TORSDOF 16
ENDMDL
MODEL 5
REMARK VINA RESULT:    -2.208      5.139      8.762
REMARK INTER + INTRA:          -5.687
REMARK INTER:                  -4.676
REMARK INTRA:                  -1.011
REMARK UNBOUND:                -1.414
REMARK SMILES CCCCCCCCCCCCCCCCCC(=O)[O-]
REMARK SMILES IDX 10 1 11 2 12 3 13 4 14 5 15 6 16 7 17 8 18 9 19 10 20 11
REMARK SMILES IDX 9 12 8 13 7 14 6 15 5 16 4 17 3 18 2 19 1 20
REMARK H PARENT
REMARK Flexibility Score: inf
ROOT
ATOM      1  C   UNL     1      -3.205   9.426  -3.931  1.00  0.00     0.000 C 
ENDROOT
BRANCH   1   2
ATOM      2  C   UNL     1      -2.727   8.169  -4.688  1.00  0.00     0.000 C 
BRANCH   2   3
ATOM      3  C   UNL     1      -1.254   8.278  -5.119  1.00  0.00     0.000 C 
BRANCH   3   4
ATOM      4  C   UNL     1      -1.086   8.921  -6.504  1.00  0.00     0.000 C 
BRANCH   4   5
ATOM      5  C   UNL     1      -0.875  10.441  -6.430  1.00  0.00     0.000 C 
BRANCH   5   6
ATOM      6  C   UNL     1      -1.285  11.120  -7.745  1.00  0.00     0.000 C 
BRANCH   6   7
ATOM      7  C   UNL     1      -1.098  10.214  -8.975  1.00  0.00     0.006 C 
BRANCH   7   8
ATOM      8  C   UNL     1      -1.442  10.895 -10.311  1.00  0.00     0.053 C 
BRANCH   8   9
ATOM      9  C   UNL     1      -1.693   9.910 -11.412  1.00  0.00     0.041 C 
ATOM     10  O   UNL     1      -1.196   8.754 -11.352  1.00  0.00    -0.550 OA
ATOM     11  O   UNL     1      -2.503  10.253 -12.487  1.00  0.00    -0.550 OA
ENDBRANCH   8   9
ENDBRANCH   7   8
ENDBRANCH   6   7
ENDBRANCH   5   6
ENDBRANCH   4   5
ENDBRANCH   3   4
ENDBRANCH   2   3
ENDBRANCH   1   2
BRANCH   1  12
ATOM     12  C   UNL     1      -3.109   9.299  -2.400  1.00  0.00     0.000 C 
BRANCH  12  13
ATOM     13  C   UNL     1      -2.975   7.842  -1.930  1.00  0.00    -0.000 C 
BRANCH  13  14
ATOM     14  C   UNL     1      -2.366   7.728  -0.524  1.00  0.00    -0.000 C 
BRANCH  14  15
ATOM     15  C   UNL     1      -1.547   8.967  -0.131  1.00  0.00    -0.000 C 
BRANCH  15  16
ATOM     16  C   UNL     1      -1.207   8.949   1.365  1.00  0.00    -0.000 C 
BRANCH  16  17
ATOM     17  C   UNL     1      -1.206  10.371   1.946  1.00  0.00    -0.000 C 
BRANCH  17  18
ATOM     18  C   UNL     1      -2.557  11.089   1.775  1.00  0.00    -0.000 C 
BRANCH  18  19
ATOM     19  C   UNL     1      -3.782  10.278   2.231  1.00  0.00    -0.003 C 
ATOM     20  C   UNL     1      -4.491  10.893   3.437  1.00  0.00     0.004 C 
ENDBRANCH  18  19
ENDBRANCH  17  18
ENDBRANCH  16  17
ENDBRANCH  15  16
ENDBRANCH  14  15
ENDBRANCH  13  14
ENDBRANCH  12  13
ENDBRANCH   1  12
TORSDOF 16
ENDMDL
MODEL 6
REMARK VINA RESULT:    -2.066      6.168      9.294
REMARK INTER + INTRA:          -5.414
REMARK INTER:                  -4.192
REMARK INTRA:                  -1.222
REMARK UNBOUND:                -1.414
REMARK SMILES CCCCCCCCCCCCCCCCCC(=O)[O-]
REMARK SMILES IDX 10 1 11 2 12 3 13 4 14 5 15 6 16 7 17 8 18 9 19 10 20 11
REMARK SMILES IDX 9 12 8 13 7 14 6 15 5 16 4 17 3 18 2 19 1 20
REMARK H PARENT
REMARK Flexibility Score: inf
ROOT
ATOM      1  C   UNL     1      -2.003  10.440  -5.531  1.00  0.00     0.000 C 
ENDROOT
BRANCH   1   2
ATOM      2  C   UNL     1      -1.211  11.043  -6.711  1.00  0.00     0.000 C 
BRANCH   2   3
ATOM      3  C   UNL     1      -1.615  10.418  -8.059  1.00  0.00     0.000 C 
BRANCH   3   4
ATOM      4  C   UNL     1      -0.968  11.124  -9.259  1.00  0.00     0.000 C 
BRANCH   4   5
ATOM      5  C   UNL     1      -0.932  10.244 -10.517  1.00  0.00     0.000 C 
BRANCH   5   6
ATOM      6  C   UNL     1      -1.145  11.083 -11.785  1.00  0.00     0.000 C 
BRANCH   6   7
ATOM      7  C   UNL     1      -1.991  10.363 -12.850  1.00  0.00     0.006 C 
BRANCH   7   8
ATOM      8  C   UNL     1      -3.012   9.368 -12.269  1.00  0.00     0.053 C 
BRANCH   8   9
ATOM      9  C   UNL     1      -2.717   7.950 -12.657  1.00  0.00     0.041 C 
ATOM     10  O   UNL     1      -1.586   7.642 -13.118  1.00  0.00    -0.550 OA
ATOM     11  O   UNL     1      -3.677   6.962 -12.477  1.00  0.00    -0.550 OA
ENDBRANCH   8   9
ENDBRANCH   7   8
ENDBRANCH   6   7
ENDBRANCH   5   6
ENDBRANCH   4   5
ENDBRANCH   3   4
ENDBRANCH   2   3
ENDBRANCH   1   2
BRANCH   1  12
ATOM     12  C   UNL     1      -1.414   9.120  -5.004  1.00  0.00     0.000 C 
BRANCH  12  13
ATOM     13  C   UNL     1      -2.492   8.069  -4.689  1.00  0.00    -0.000 C 
BRANCH  13  14
ATOM     14  C   UNL     1      -2.172   7.255  -3.426  1.00  0.00    -0.000 C 
BRANCH  14  15
ATOM     15  C   UNL     1      -1.022   7.861  -2.606  1.00  0.00    -0.000 C 
BRANCH  15  16
ATOM     16  C   UNL     1      -1.370   7.890  -1.112  1.00  0.00    -0.000 C 
BRANCH  16  17
ATOM     17  C   UNL     1      -1.827   9.292  -0.681  1.00  0.00    -0.000 C 
BRANCH  17  18
ATOM     18  C   UNL     1      -3.019   9.260   0.292  1.00  0.00    -0.000 C 
BRANCH  18  19
ATOM     19  C   UNL     1      -4.395   9.089  -0.376  1.00  0.00    -0.003 C 
ATOM     20  C   UNL     1      -4.443   9.646  -1.798  1.00  0.00     0.004 C 
ENDBRANCH  18  19
ENDBRANCH  17  18
ENDBRANCH  16  17
ENDBRANCH  15  16
ENDBRANCH  14  15
ENDBRANCH  13  14
ENDBRANCH  12  13
ENDBRANCH   1  12
TORSDOF 16
ENDMDL
MODEL 7
REMARK VINA RESULT:    -1.967      2.033      3.174
REMARK INTER + INTRA:          -5.221
REMARK INTER:                  -4.226
REMARK INTRA:                  -0.994
REMARK UNBOUND:                -1.414
REMARK SMILES CCCCCCCCCCCCCCCCCC(=O)[O-]
REMARK SMILES IDX 10 1 11 2 12 3 13 4 14 5 15 6 16 7 17 8 18 9 19 10 20 11
REMARK SMILES IDX 9 12 8 13 7 14 6 15 5 16 4 17 3 18 2 19 1 20
REMARK H PARENT
REMARK Flexibility Score: inf
ROOT
ATOM      1  C   UNL     1      -3.506   7.858  -2.417  1.00  0.00     0.000 C 
ENDROOT
BRANCH   1   2
ATOM      2  C   UNL     1      -4.981   8.294  -2.275  1.00  0.00     0.000 C 
BRANCH   2   3
ATOM      3  C   UNL     1      -5.198   9.216  -1.062  1.00  0.00     0.000 C 
BRANCH   3   4
ATOM      4  C   UNL     1      -4.345   8.813   0.150  1.00  0.00     0.000 C 
BRANCH   4   5
ATOM      5  C   UNL     1      -3.319   9.888   0.537  1.00  0.00     0.000 C 
BRANCH   5   6
ATOM      6  C   UNL     1      -2.061   9.791  -0.337  1.00  0.00     0.000 C 
BRANCH   6   7
ATOM      7  C   UNL     1      -1.695  11.123  -1.017  1.00  0.00     0.006 C 
BRANCH   7   8
ATOM      8  C   UNL     1      -1.130  10.964  -2.440  1.00  0.00     0.053 C 
BRANCH   8   9
ATOM      9  C   UNL     1      -2.188  11.081  -3.495  1.00  0.00     0.041 C 
ATOM     10  O   UNL     1      -1.868  11.111  -4.713  1.00  0.00    -0.550 OA
ATOM     11  O   UNL     1      -3.530  11.122  -3.138  1.00  0.00    -0.550 OA
ENDBRANCH   8   9
ENDBRANCH   7   8
ENDBRANCH   6   7
ENDBRANCH   5   6
ENDBRANCH   4   5
ENDBRANCH   3   4
ENDBRANCH   2   3
ENDBRANCH   1   2
BRANCH   1  12
ATOM     12  C   UNL     1      -2.961   7.980  -3.850  1.00  0.00     0.000 C 
BRANCH  12  13
ATOM     13  C   UNL     1      -1.484   7.570  -3.964  1.00  0.00    -0.000 C 
BRANCH  13  14
ATOM     14  C   UNL     1      -0.995   7.522  -5.420  1.00  0.00    -0.000 C 
BRANCH  14  15
ATOM     15  C   UNL     1      -1.804   6.543  -6.285  1.00  0.00    -0.000 C 
BRANCH  15  16
ATOM     16  C   UNL     1      -0.876   5.629  -7.093  1.00  0.00    -0.000 C 
BRANCH  16  17
ATOM     17  C   UNL     1      -0.938   4.184  -6.574  1.00  0.00    -0.000 C 
BRANCH  17  18
ATOM     18  C   UNL     1      -2.055   3.968  -5.538  1.00  0.00    -0.000 C 
BRANCH  18  19
ATOM     19  C   UNL     1      -1.764   2.880  -4.490  1.00  0.00    -0.003 C 
ATOM     20  C   UNL     1      -0.908   1.738  -5.035  1.00  0.00     0.004 C 
ENDBRANCH  18  19
ENDBRANCH  17  18
ENDBRANCH  16  17
ENDBRANCH  15  16
ENDBRANCH  14  15
ENDBRANCH  13  14
ENDBRANCH  12  13
ENDBRANCH   1  12
TORSDOF 16
ENDMDL
