MODEL 1
REMARK VINA RESULT:     6.969      0.000      0.000
REMARK INTER + INTRA:          16.693
REMARK INTER:                  18.377
REMARK INTRA:                  -1.685
REMARK UNBOUND:                -1.685
REMARK SMILES CCCCCCCCCCCCCCCCCCCCCCCCCCCCCC(=O)[O-]
REMARK SMILES IDX 16 1 17 2 18 3 19 4 20 5 21 6 22 7 23 8 24 9 25 10 26 11
REMARK SMILES IDX 27 12 28 13 29 14 30 15 31 16 32 17 15 18 14 19 13 20 12 21
REMARK SMILES IDX 11 22 10 23 9 24 8 25 7 26 6 27 5 28 4 29 3 30 2 31 1 32
REMARK H PARENT
REMARK Flexibility Score: inf
ROOT
ATOM      1  C   UNL     1      15.471  25.939   9.994  1.00  0.00     0.000 C 
ENDROOT
BRANCH   1   2
ATOM      2  C   UNL     1      15.076  25.281   8.662  1.00  0.00     0.000 C 
BRANCH   2   3
ATOM      3  C   UNL     1      14.875  26.303   7.528  1.00  0.00     0.000 C 
BRANCH   3   4
ATOM      4  C   UNL     1      15.162  25.698   6.142  1.00  0.00     0.000 C 
BRANCH   4   5
ATOM      5  C   UNL     1      16.449  26.263   5.514  1.00  0.00     0.000 C 
BRANCH   5   6
ATOM      6  C   UNL     1      16.809  25.589   4.178  1.00  0.00     0.000 C 
BRANCH   6   7
ATOM      7  C   UNL     1      18.153  26.028   3.568  1.00  0.00     0.000 C 
BRANCH   7   8
ATOM      8  C   UNL     1      19.333  26.063   4.554  1.00  0.00     0.000 C 
BRANCH   8   9
ATOM      9  C   UNL     1      20.425  25.034   4.215  1.00  0.00     0.000 C 
BRANCH   9  10
ATOM     10  C   UNL     1      21.245  24.628   5.450  1.00  0.00     0.000 C 
BRANCH  10  11
ATOM     11  C   UNL     1      22.728  25.009   5.315  1.00  0.00     0.000 C 
BRANCH  11  12
ATOM     12  C   UNL     1      22.940  26.389   4.668  1.00  0.00     0.000 C 
BRANCH  12  13
ATOM     13  C   UNL     1      24.102  26.429   3.654  1.00  0.00     0.006 C 
BRANCH  13  14
ATOM     14  C   UNL     1      25.307  25.601   4.121  1.00  0.00     0.053 C 
BRANCH  14  15
ATOM     15  C   UNL     1      26.219  25.299   2.972  1.00  0.00     0.041 C 
ATOM     16  O   UNL     1      25.988  25.790   1.836  1.00  0.00    -0.550 OA
ATOM     17  O   UNL     1      27.326  24.483   3.157  1.00  0.00    -0.550 OA
ENDBRANCH  14  15
ENDBRANCH  13  14
ENDBRANCH  12  13
ENDBRANCH  11  12
ENDBRANCH  10  11
ENDBRANCH   9  10
ENDBRANCH   8   9
ENDBRANCH   7   8
ENDBRANCH   6   7
ENDBRANCH   5   6
ENDBRANCH   4   5
ENDBRANCH   3   4
ENDBRANCH   2   3
ENDBRANCH   1   2
BRANCH   1  18
ATOM     18  C   UNL     1      14.971  27.388  10.118  1.00  0.00     0.000 C 
BRANCH  18  19
ATOM     19  C   UNL     1      15.204  27.976  11.523  1.00  0.00     0.000 C 
BRANCH  19  20
ATOM     20  C   UNL     1      15.415  26.934  12.641  1.00  0.00     0.000 C 
BRANCH  20  21
ATOM     21  C   UNL     1      16.737  27.061  13.429  1.00  0.00     0.000 C 
BRANCH  21  22
ATOM     22  C   UNL     1      17.969  26.480  12.713  1.00  0.00     0.000 C 
BRANCH  22  23
ATOM     23  C   UNL     1      18.605  27.477  11.731  1.00  0.00     0.000 C 
BRANCH  23  24
ATOM     24  C   UNL     1      19.897  26.927  11.106  1.00  0.00    -0.000 C 
BRANCH  24  25
ATOM     25  C   UNL     1      20.901  28.047  10.778  1.00  0.00    -0.000 C 
BRANCH  25  26
ATOM     26  C   UNL     1      21.863  28.332  11.942  1.00  0.00    -0.000 C 
BRANCH  26  27
ATOM     27  C   UNL     1      23.339  28.290  11.509  1.00  0.00    -0.000 C 
BRANCH  27  28
ATOM     28  C   UNL     1      24.200  29.322  12.254  1.00  0.00    -0.000 C 
BRANCH  28  29
ATOM     29  C   UNL     1      24.997  30.227  11.299  1.00  0.00    -0.000 C 
BRANCH  29  30
ATOM     30  C   UNL     1      26.515  30.030  11.433  1.00  0.00    -0.000 C 
BRANCH  30  31
ATOM     31  C   UNL     1      27.118  29.222  10.274  1.00  0.00    -0.003 C 
ATOM     32  C   UNL     1      28.105  30.066   9.472  1.00  0.00     0.004 C 
ENDBRANCH  30  31
ENDBRANCH  29  30
ENDBRANCH  28  29
ENDBRANCH  27  28
ENDBRANCH  26  27
ENDBRANCH  25  26
ENDBRANCH  24  25
ENDBRANCH  23  24
ENDBRANCH  22  23
ENDBRANCH  21  22
ENDBRANCH  20  21
ENDBRANCH  19  20
ENDBRANCH  18  19
ENDBRANCH   1  18
TORSDOF 28
ENDMDL
MODEL 2
REMARK VINA RESULT:     7.589      2.864      7.750
REMARK INTER + INTRA:          18.326
REMARK INTER:                  19.026
REMARK INTRA:                  -0.700
REMARK UNBOUND:                -1.685
REMARK SMILES CCCCCCCCCCCCCCCCCCCCCCCCCCCCCC(=O)[O-]
REMARK SMILES IDX 16 1 17 2 18 3 19 4 20 5 21 6 22 7 23 8 24 9 25 10 26 11
REMARK SMILES IDX 27 12 28 13 29 14 30 15 31 16 32 17 15 18 14 19 13 20 12 21
REMARK SMILES IDX 11 22 10 23 9 24 8 25 7 26 6 27 5 28 4 29 3 30 2 31 1 32
REMARK H PARENT
REMARK Flexibility Score: inf
ROOT
ATOM      1  C   UNL     1      15.868  26.128   9.452  1.00  0.00     0.000 C 
ENDROOT
BRANCH   1   2
ATOM      2  C   UNL     1      15.083  27.388   9.849  1.00  0.00     0.000 C 
BRANCH   2   3
ATOM      3  C   UNL     1      14.915  27.531  11.373  1.00  0.00     0.000 C 
BRANCH   3   4
ATOM      4  C   UNL     1      14.878  26.167  12.085  1.00  0.00     0.000 C 
BRANCH   4   5
ATOM      5  C   UNL     1      15.898  26.081  13.235  1.00  0.00     0.000 C 
BRANCH   5   6
ATOM      6  C   UNL     1      16.951  27.203  13.186  1.00  0.00     0.000 C 
BRANCH   6   7
ATOM      7  C   UNL     1      18.402  26.726  12.985  1.00  0.00     0.000 C 
BRANCH   7   8
ATOM      8  C   UNL     1      18.973  26.962  11.576  1.00  0.00     0.000 C 
BRANCH   8   9
ATOM      9  C   UNL     1      20.033  28.075  11.540  1.00  0.00     0.000 C 
BRANCH   9  10
ATOM     10  C   UNL     1      21.445  27.526  11.281  1.00  0.00     0.000 C 
BRANCH  10  11
ATOM     11  C   UNL     1      22.380  27.737  12.484  1.00  0.00     0.000 C 
BRANCH  11  12
ATOM     12  C   UNL     1      23.571  28.657  12.168  1.00  0.00     0.000 C 
BRANCH  12  13
ATOM     13  C   UNL     1      24.153  28.456  10.753  1.00  0.00     0.006 C 
BRANCH  13  14
ATOM     14  C   UNL     1      25.092  29.601  10.344  1.00  0.00     0.053 C 
BRANCH  14  15
ATOM     15  C   UNL     1      25.691  30.250  11.552  1.00  0.00     0.041 C 
ATOM     16  O   UNL     1      26.923  30.507  11.587  1.00  0.00    -0.550 OA
ATOM     17  O   UNL     1      24.889  30.578  12.637  1.00  0.00    -0.550 OA
ENDBRANCH  14  15
ENDBRANCH  13  14
ENDBRANCH  12  13
ENDBRANCH  11  12
ENDBRANCH  10  11
ENDBRANCH   9  10
ENDBRANCH   8   9
ENDBRANCH   7   8
ENDBRANCH   6   7
ENDBRANCH   5   6
ENDBRANCH   4   5
ENDBRANCH   3   4
ENDBRANCH   2   3
ENDBRANCH   1   2
BRANCH   1  18
ATOM     18  C   UNL     1      15.182  25.322   8.336  1.00  0.00     0.000 C 
BRANCH  18  19
ATOM     19  C   UNL     1      15.064  26.115   7.020  1.00  0.00     0.000 C 
BRANCH  19  20
ATOM     20  C   UNL     1      15.780  25.482   5.809  1.00  0.00     0.000 C 
BRANCH  20  21
ATOM     21  C   UNL     1      16.617  26.454   4.948  1.00  0.00     0.000 C 
BRANCH  21  22
ATOM     22  C   UNL     1      17.574  25.770   3.956  1.00  0.00     0.000 C 
BRANCH  22  23
ATOM     23  C   UNL     1      19.052  26.022   4.293  1.00  0.00     0.000 C 
BRANCH  23  24
ATOM     24  C   UNL     1      19.952  24.858   3.847  1.00  0.00    -0.000 C 
BRANCH  24  25
ATOM     25  C   UNL     1      21.033  24.532   4.895  1.00  0.00    -0.000 C 
BRANCH  25  26
ATOM     26  C   UNL     1      21.788  25.783   5.369  1.00  0.00    -0.000 C 
BRANCH  26  27
ATOM     27  C   UNL     1      23.313  25.579   5.385  1.00  0.00    -0.000 C 
BRANCH  27  28
ATOM     28  C   UNL     1      23.976  25.995   4.063  1.00  0.00    -0.000 C 
BRANCH  28  29
ATOM     29  C   UNL     1      25.482  25.685   4.035  1.00  0.00    -0.000 C 
BRANCH  29  30
ATOM     30  C   UNL     1      26.103  25.913   2.647  1.00  0.00    -0.000 C 
BRANCH  30  31
ATOM     31  C   UNL     1      27.012  24.758   2.201  1.00  0.00    -0.003 C 
ATOM     32  C   UNL     1      27.234  23.764   3.338  1.00  0.00     0.004 C 
ENDBRANCH  30  31
ENDBRANCH  29  30
ENDBRANCH  28  29
ENDBRANCH  27  28
ENDBRANCH  26  27
ENDBRANCH  25  26
ENDBRANCH  24  25
ENDBRANCH  23  24
ENDBRANCH  22  23
ENDBRANCH  21  22
ENDBRANCH  20  21
ENDBRANCH  19  20
ENDBRANCH  18  19
ENDBRANCH   1  18
TORSDOF 28
ENDMDL
MODEL 3
REMARK VINA RESULT:     9.378      2.162      7.346
REMARK INTER + INTRA:          23.045
REMARK INTER:                  24.616
REMARK INTRA:                  -1.571
REMARK UNBOUND:                -1.685
REMARK SMILES CCCCCCCCCCCCCCCCCCCCCCCCCCCCCC(=O)[O-]
REMARK SMILES IDX 16 1 17 2 18 3 19 4 20 5 21 6 22 7 23 8 24 9 25 10 26 11
REMARK SMILES IDX 27 12 28 13 29 14 30 15 31 16 32 17 15 18 14 19 13 20 12 21
REMARK SMILES IDX 11 22 10 23 9 24 8 25 7 26 6 27 5 28 4 29 3 30 2 31 1 32
REMARK H PARENT
REMARK Flexibility Score: inf
ROOT
ATOM      1  C   UNL     1      15.738  27.620  10.190  1.00  0.00     0.000 C 
ENDROOT
BRANCH   1   2
ATOM      2  C   UNL     1      15.090  27.561  11.583  1.00  0.00     0.000 C 
BRANCH   2   3
ATOM      3  C   UNL     1      15.839  26.626  12.551  1.00  0.00     0.000 C 
BRANCH   3   4
ATOM      4  C   UNL     1      17.059  27.310  13.193  1.00  0.00     0.000 C 
BRANCH   4   5
ATOM      5  C   UNL     1      18.376  26.585  12.862  1.00  0.00     0.000 C 
BRANCH   5   6
ATOM      6  C   UNL     1      18.908  26.923  11.458  1.00  0.00     0.000 C 
BRANCH   6   7
ATOM      7  C   UNL     1      19.868  28.126  11.397  1.00  0.00     0.000 C 
BRANCH   7   8
ATOM      8  C   UNL     1      21.307  27.787  10.971  1.00  0.00     0.000 C 
BRANCH   8   9
ATOM      9  C   UNL     1      22.350  28.172  12.034  1.00  0.00     0.000 C 
BRANCH   9  10
ATOM     10  C   UNL     1      23.705  28.544  11.411  1.00  0.00     0.000 C 
BRANCH  10  11
ATOM     11  C   UNL     1      24.129  29.981  11.758  1.00  0.00     0.000 C 
BRANCH  11  12
ATOM     12  C   UNL     1      25.646  30.130  11.962  1.00  0.00     0.000 C 
BRANCH  12  13
ATOM     13  C   UNL     1      26.452  30.142  10.646  1.00  0.00     0.006 C 
BRANCH  13  14
ATOM     14  C   UNL     1      27.581  29.100  10.648  1.00  0.00     0.053 C 
BRANCH  14  15
ATOM     15  C   UNL     1      28.504  29.320   9.490  1.00  0.00     0.041 C 
ATOM     16  O   UNL     1      28.322  30.291   8.710  1.00  0.00    -0.550 OA
ATOM     17  O   UNL     1      29.570  28.456   9.276  1.00  0.00    -0.550 OA
ENDBRANCH  14  15
ENDBRANCH  13  14
ENDBRANCH  12  13
ENDBRANCH  11  12
ENDBRANCH  10  11
ENDBRANCH   9  10
ENDBRANCH   8   9
ENDBRANCH   7   8
ENDBRANCH   6   7
ENDBRANCH   5   6
ENDBRANCH   4   5
ENDBRANCH   3   4
ENDBRANCH   2   3
ENDBRANCH   1   2
BRANCH   1  18
ATOM     18  C   UNL     1      14.875  26.962   9.100  1.00  0.00     0.000 C 
BRANCH  18  19
ATOM     19  C   UNL     1      15.627  25.851   8.341  1.00  0.00     0.000 C 
BRANCH  19  20
ATOM     20  C   UNL     1      14.875  25.265   7.128  1.00  0.00     0.000 C 
BRANCH  20  21
ATOM     21  C   UNL     1      15.165  25.948   5.772  1.00  0.00     0.000 C 
BRANCH  21  22
ATOM     22  C   UNL     1      16.636  26.339   5.552  1.00  0.00     0.000 C 
BRANCH  22  23
ATOM     23  C   UNL     1      17.195  25.810   4.222  1.00  0.00     0.000 C 
BRANCH  23  24
ATOM     24  C   UNL     1      18.622  26.313   3.954  1.00  0.00    -0.000 C 
BRANCH  24  25
ATOM     25  C   UNL     1      19.641  25.706   4.937  1.00  0.00    -0.000 C 
BRANCH  25  26
ATOM     26  C   UNL     1      21.066  26.230   4.703  1.00  0.00    -0.000 C 
BRANCH  26  27
ATOM     27  C   UNL     1      22.136  25.150   4.942  1.00  0.00    -0.000 C 
BRANCH  27  28
ATOM     28  C   UNL     1      23.561  25.725   4.945  1.00  0.00    -0.000 C 
BRANCH  28  29
ATOM     29  C   UNL     1      23.847  26.600   3.713  1.00  0.00    -0.000 C 
BRANCH  29  30
ATOM     30  C   UNL     1      25.010  26.058   2.865  1.00  0.00    -0.000 C 
BRANCH  30  31
ATOM     31  C   UNL     1      25.984  25.188   3.673  1.00  0.00    -0.003 C 
ATOM     32  C   UNL     1      27.185  24.777   2.826  1.00  0.00     0.004 C 
ENDBRANCH  30  31
ENDBRANCH  29  30
ENDBRANCH  28  29
ENDBRANCH  27  28
ENDBRANCH  26  27
ENDBRANCH  25  26
ENDBRANCH  24  25
ENDBRANCH  23  24
ENDBRANCH  22  23
ENDBRANCH  21  22
ENDBRANCH  20  21
ENDBRANCH  19  20
ENDBRANCH  18  19
ENDBRANCH   1  18
TORSDOF 28
ENDMDL
MODEL 4
REMARK VINA RESULT:     9.823      1.053      2.103
REMARK INTER + INTRA:          24.217
REMARK INTER:                  25.366
REMARK INTRA:                  -1.149
REMARK UNBOUND:                -1.685
REMARK SMILES CCCCCCCCCCCCCCCCCCCCCCCCCCCCCC(=O)[O-]
REMARK SMILES IDX 16 1 17 2 18 3 19 4 20 5 21 6 22 7 23 8 24 9 25 10 26 11
REMARK SMILES IDX 27 12 28 13 29 14 30 15 31 16 32 17 15 18 14 19 13 20 12 21
REMARK SMILES IDX 11 22 10 23 9 24 8 25 7 26 6 27 5 28 4 29 3 30 2 31 1 32
REMARK H PARENT
REMARK Flexibility Score: inf
ROOT
ATOM      1  C   UNL     1      15.822  26.787  11.323  1.00  0.00     0.000 C 
ENDROOT
BRANCH   1   2
ATOM      2  C   UNL     1      15.585  27.807  10.197  1.00  0.00     0.000 C 
BRANCH   2   3
ATOM      3  C   UNL     1      15.055  27.157   8.906  1.00  0.00     0.000 C 
BRANCH   3   4
ATOM      4  C   UNL     1      14.875  25.636   9.051  1.00  0.00     0.000 C 
BRANCH   4   5
ATOM      5  C   UNL     1      14.913  24.912   7.692  1.00  0.00     0.000 C 
BRANCH   5   6
ATOM      6  C   UNL     1      14.986  25.882   6.499  1.00  0.00     0.000 C 
BRANCH   6   7
ATOM      7  C   UNL     1      15.843  25.396   5.315  1.00  0.00     0.000 C 
BRANCH   7   8
ATOM      8  C   UNL     1      16.912  26.393   4.836  1.00  0.00     0.000 C 
BRANCH   8   9
ATOM      9  C   UNL     1      18.116  25.704   4.173  1.00  0.00     0.000 C 
BRANCH   9  10
ATOM     10  C   UNL     1      19.414  26.510   4.344  1.00  0.00     0.000 C 
BRANCH  10  11
ATOM     11  C   UNL     1      20.641  25.757   3.802  1.00  0.00     0.000 C 
BRANCH  11  12
ATOM     12  C   UNL     1      21.736  25.545   4.862  1.00  0.00     0.000 C 
BRANCH  12  13
ATOM     13  C   UNL     1      22.944  26.492   4.705  1.00  0.00     0.006 C 
BRANCH  13  14
ATOM     14  C   UNL     1      23.790  26.153   3.469  1.00  0.00     0.053 C 
BRANCH  14  15
ATOM     15  C   UNL     1      25.208  25.877   3.858  1.00  0.00     0.041 C 
ATOM     16  O   UNL     1      25.605  26.133   5.025  1.00  0.00    -0.550 OA
ATOM     17  O   UNL     1      26.091  25.331   2.936  1.00  0.00    -0.550 OA
ENDBRANCH  14  15
ENDBRANCH  13  14
ENDBRANCH  12  13
ENDBRANCH  11  12
ENDBRANCH  10  11
ENDBRANCH   9  10
ENDBRANCH   8   9
ENDBRANCH   7   8
ENDBRANCH   6   7
ENDBRANCH   5   6
ENDBRANCH   4   5
ENDBRANCH   3   4
ENDBRANCH   2   3
ENDBRANCH   1   2
BRANCH   1  18
ATOM     18  C   UNL     1      15.151  27.190  12.647  1.00  0.00     0.000 C 
BRANCH  18  19
ATOM     19  C   UNL     1      15.592  26.303  13.827  1.00  0.00     0.000 C 
BRANCH  19  20
ATOM     20  C   UNL     1      17.091  26.387  14.184  1.00  0.00     0.000 C 
BRANCH  20  21
ATOM     21  C   UNL     1      17.912  27.414  13.373  1.00  0.00     0.000 C 
BRANCH  21  22
ATOM     22  C   UNL     1      19.265  26.893  12.861  1.00  0.00     0.000 C 
BRANCH  22  23
ATOM     23  C   UNL     1      19.822  27.735  11.701  1.00  0.00     0.000 C 
BRANCH  23  24
ATOM     24  C   UNL     1      21.215  27.259  11.259  1.00  0.00    -0.000 C 
BRANCH  24  25
ATOM     25  C   UNL     1      22.113  28.432  10.824  1.00  0.00    -0.000 C 
BRANCH  25  26
ATOM     26  C   UNL     1      23.393  28.535  11.669  1.00  0.00    -0.000 C 
BRANCH  26  27
ATOM     27  C   UNL     1      24.199  29.810  11.362  1.00  0.00    -0.000 C 
BRANCH  27  28
ATOM     28  C   UNL     1      25.177  30.172  12.490  1.00  0.00    -0.000 C 
BRANCH  28  29
ATOM     29  C   UNL     1      26.643  30.169  12.024  1.00  0.00    -0.000 C 
BRANCH  29  30
ATOM     30  C   UNL     1      26.785  29.816  10.535  1.00  0.00    -0.000 C 
BRANCH  30  31
ATOM     31  C   UNL     1      28.248  29.742  10.074  1.00  0.00    -0.003 C 
ATOM     32  C   UNL     1      28.360  29.948   8.566  1.00  0.00     0.004 C 
ENDBRANCH  30  31
ENDBRANCH  29  30
ENDBRANCH  28  29
ENDBRANCH  27  28
ENDBRANCH  26  27
ENDBRANCH  25  26
ENDBRANCH  24  25
ENDBRANCH  23  24
ENDBRANCH  22  23
ENDBRANCH  21  22
ENDBRANCH  20  21
ENDBRANCH  19  20
ENDBRANCH  18  19
ENDBRANCH   1  18
TORSDOF 28
ENDMDL
