MODEL 1
REMARK VINA RESULT:    -7.982      0.000      0.000
REMARK INTER + INTRA:         -16.064
REMARK INTER:                 -13.115
REMARK INTRA:                  -2.948
REMARK UNBOUND:                -2.948
REMARK SMILES C[C@H]1O[C@@H](OC[C@@H]2O[C@@H](Oc3c(-c4ccc(O)c(O)c4)oc4cc(O)cc(O)c4c3=O)[C@H](O)[C@@H](O)[C@@H]2O)[C@H](O)[C@@H](O)[C@H]1O
REMARK SMILES IDX 7 1 36 2 34 3 32 4 9 5 8 6 6 7 5 8 4 9 1 10 2 11 42 12 3 13
REMARK SMILES IDX 40 14 38 15 43 16 41 18 39 20 37 22 35 24 10 26 11 27 12 28
REMARK SMILES IDX 30 29 21 30 29 31 31 32 22 33 27 34 23 35 26 36 24 37 13 38
REMARK SMILES IDX 20 39 14 40 18 41 15 42 16 43 19 44 17 46 28 48 25 50 33 52
REMARK H PARENT 43 17 41 19 39 21 37 23 35 25 19 45 17 47 28 49 25 51 33 53
REMARK Flexibility Score: inf
ROOT
ATOM      1  C   UNL     1      13.639  -5.692  24.209  1.00  0.00     0.180 C 
ATOM      2  C   UNL     1      13.265  -4.213  23.790  1.00  0.00     0.177 C 
ATOM      3  C   UNL     1      12.133  -3.484  24.587  1.00  0.00     0.180 C 
ATOM      4  C   UNL     1      11.476  -4.408  25.606  1.00  0.00     0.214 C 
ATOM      5  C   UNL     1      12.514  -5.361  26.293  1.00  0.00     0.339 C 
ATOM      6  O   UNL     1      12.936  -6.283  25.324  1.00  0.00    -0.332 OA
ENDROOT
BRANCH   1   7
ATOM      7  C   UNL     1      13.560  -6.725  23.015  1.00  0.00     0.198 C 
BRANCH   7   8
ATOM      8  O   UNL     1      14.609  -6.461  22.068  1.00  0.00    -0.347 OA
BRANCH   8   9
ATOM      9  C   UNL     1      14.500  -7.150  20.834  1.00  0.00     0.281 C 
ATOM     10  C   UNL     1      16.183  -5.909  17.735  1.00  0.00     0.041 C 
ATOM     11  C   UNL     1      14.974  -6.305  18.620  1.00  0.00     0.150 C 
ATOM     12  C   UNL     1      13.915  -5.203  18.818  1.00  0.00     0.174 C 
ATOM     13  O   UNL     1      15.485  -6.713  19.880  1.00  0.00    -0.344 OA
ATOM     14  C   UNL     1      12.653  -5.880  19.437  1.00  0.00     0.179 C 
ATOM     15  C   UNL     1      12.990  -7.089  20.411  1.00  0.00     0.202 C 
BRANCH  12  16
ATOM     16  O   UNL     1      14.373  -4.115  19.618  1.00  0.00    -0.388 OA
ATOM     17  H   UNL     1      15.160  -4.401  20.145  1.00  0.00     0.211 HD
ENDBRANCH  12  16
BRANCH  14  18
ATOM     18  O   UNL     1      11.812  -4.894  20.016  1.00  0.00    -0.387 OA
ATOM     19  H   UNL     1      10.901  -5.044  19.737  1.00  0.00     0.211 HD
ENDBRANCH  14  18
BRANCH  15  20
ATOM     20  O   UNL     1      12.569  -8.318  19.832  1.00  0.00    -0.385 OA
ATOM     21  H   UNL     1      12.485  -8.149  18.853  1.00  0.00     0.211 HD
ENDBRANCH  15  20
ENDBRANCH   8   9
ENDBRANCH   7   8
ENDBRANCH   1   7
BRANCH   2  22
ATOM     22  O   UNL     1      13.027  -4.123  22.372  1.00  0.00    -0.387 OA
ATOM     23  H   UNL     1      13.186  -3.157  22.164  1.00  0.00     0.211 HD
ENDBRANCH   2  22
BRANCH   3  24
ATOM     24  O   UNL     1      12.563  -2.297  25.254  1.00  0.00    -0.387 OA
ATOM     25  H   UNL     1      13.181  -2.551  26.067  1.00  0.00     0.211 HD
ENDBRANCH   3  24
BRANCH   5  26
ATOM     26  O   UNL     1      13.679  -4.635  26.908  1.00  0.00    -0.454 OA
BRANCH  26  27
ATOM     27  C   UNL     1      14.247  -5.014  28.097  1.00  0.00     0.214 A 
ATOM     28  C   UNL     1      15.689  -5.173  28.031  1.00  0.00     0.180 A 
ATOM     29  C   UNL     1      13.737  -4.518  29.329  1.00  0.00     0.239 A 
ATOM     30  O   UNL     1      16.452  -4.696  29.014  1.00  0.00    -0.452 OA
ATOM     31  C   UNL     1      14.652  -3.995  30.306  1.00  0.00     0.111 A 
ATOM     32  O   UNL     1      12.523  -4.216  29.427  1.00  0.00    -0.285 OA
ATOM     33  C   UNL     1      15.961  -3.780  29.829  1.00  0.00     0.146 A 
ATOM     34  C   UNL     1      14.350  -3.130  31.340  1.00  0.00     0.134 A 
ATOM     35  C   UNL     1      16.438  -2.416  29.789  1.00  0.00     0.094 A 
ATOM     36  C   UNL     1      14.419  -1.746  30.998  1.00  0.00     0.093 A 
ATOM     37  C   UNL     1      15.544  -1.385  30.205  1.00  0.00     0.123 A 
BRANCH  28  38
ATOM     38  C   UNL     1      16.421  -5.390  26.724  1.00  0.00     0.025 A 
ATOM     39  C   UNL     1      16.830  -6.733  26.455  1.00  0.00     0.062 A 
ATOM     40  C   UNL     1      16.833  -4.357  25.841  1.00  0.00     0.016 A 
ATOM     41  C   UNL     1      17.493  -7.048  25.260  1.00  0.00     0.158 A 
ATOM     42  C   UNL     1      17.583  -4.686  24.668  1.00  0.00     0.051 A 
ATOM     43  C   UNL     1      17.907  -6.028  24.373  1.00  0.00     0.157 A 
BRANCH  41  44
ATOM     44  O   UNL     1      17.851  -8.383  24.967  1.00  0.00    -0.504 OA
ATOM     45  H   UNL     1      17.568  -9.161  25.597  1.00  0.00     0.293 HD
ENDBRANCH  41  44
BRANCH  43  46
ATOM     46  O   UNL     1      18.654  -6.379  23.234  1.00  0.00    -0.504 OA
ATOM     47  H   UNL     1      19.438  -7.035  23.314  1.00  0.00     0.293 HD
ENDBRANCH  43  46
ENDBRANCH  28  38
BRANCH  34  48
ATOM     48  O   UNL     1      15.051  -3.511  32.542  1.00  0.00    -0.507 OA
ATOM     49  H   UNL     1      15.805  -2.974  32.926  1.00  0.00     0.293 HD
ENDBRANCH  34  48
BRANCH  37  50
ATOM     50  O   UNL     1      15.724  -0.083  29.760  1.00  0.00    -0.508 OA
ATOM     51  H   UNL     1      15.977   0.155  28.800  1.00  0.00     0.293 HD
ENDBRANCH  37  50
ENDBRANCH  26  27
ENDBRANCH   5  26
BRANCH   4  52
ATOM     52  O   UNL     1      10.425  -5.170  25.007  1.00  0.00    -0.384 OA
ATOM     53  H   UNL     1       9.795  -4.563  24.579  1.00  0.00     0.211 HD
ENDBRANCH   4  52
TORSDOF 16
ENDMDL
MODEL 2
REMARK VINA RESULT:    -7.967      9.178     12.271
REMARK INTER + INTRA:         -16.038
REMARK INTER:                 -13.053
REMARK INTRA:                  -2.985
REMARK UNBOUND:                -2.948
REMARK SMILES C[C@H]1O[C@@H](OC[C@@H]2O[C@@H](Oc3c(-c4ccc(O)c(O)c4)oc4cc(O)cc(O)c4c3=O)[C@H](O)[C@@H](O)[C@@H]2O)[C@H](O)[C@@H](O)[C@H]1O
REMARK SMILES IDX 7 1 36 2 34 3 32 4 9 5 8 6 6 7 5 8 4 9 1 10 2 11 42 12 3 13
REMARK SMILES IDX 40 14 38 15 43 16 41 18 39 20 37 22 35 24 10 26 11 27 12 28
REMARK SMILES IDX 30 29 21 30 29 31 31 32 22 33 27 34 23 35 26 36 24 37 13 38
REMARK SMILES IDX 20 39 14 40 18 41 15 42 16 43 19 44 17 46 28 48 25 50 33 52
REMARK H PARENT 43 17 41 19 39 21 37 23 35 25 19 45 17 47 28 49 25 51 33 53
REMARK Flexibility Score: inf
ROOT
ATOM      1  C   UNL     1       2.220  -1.539  23.416  1.00  0.00     0.180 C 
ATOM      2  C   UNL     1       0.999  -1.734  24.404  1.00  0.00     0.177 C 
ATOM      3  C   UNL     1       0.104  -3.005  24.229  1.00  0.00     0.180 C 
ATOM      4  C   UNL     1       0.513  -3.820  23.007  1.00  0.00     0.214 C 
ATOM      5  C   UNL     1       2.069  -3.848  22.812  1.00  0.00     0.339 C 
ATOM      6  O   UNL     1       2.462  -2.560  22.423  1.00  0.00    -0.332 OA
ENDROOT
BRANCH   1   7
ATOM      7  C   UNL     1       2.203  -0.152  22.657  1.00  0.00     0.198 C 
BRANCH   7   8
ATOM      8  O   UNL     1       2.711  -0.317  21.323  1.00  0.00    -0.347 OA
BRANCH   8   9
ATOM      9  C   UNL     1       3.583   0.707  20.875  1.00  0.00     0.281 C 
ATOM     10  C   UNL     1       2.502   3.240  18.347  1.00  0.00     0.041 C 
ATOM     11  C   UNL     1       3.365   2.075  18.895  1.00  0.00     0.150 C 
ATOM     12  C   UNL     1       3.387   0.807  18.020  1.00  0.00     0.174 C 
ATOM     13  O   UNL     1       2.877   1.758  20.190  1.00  0.00    -0.344 OA
ATOM     14  C   UNL     1       4.542  -0.100  18.550  1.00  0.00     0.179 C 
ATOM     15  C   UNL     1       4.764   0.002  20.120  1.00  0.00     0.202 C 
BRANCH  12  16
ATOM     16  O   UNL     1       2.143   0.112  17.998  1.00  0.00    -0.388 OA
ATOM     17  H   UNL     1       2.303  -0.846  17.809  1.00  0.00     0.211 HD
ENDBRANCH  12  16
BRANCH  14  18
ATOM     18  O   UNL     1       4.366  -1.428  18.080  1.00  0.00    -0.387 OA
ATOM     19  H   UNL     1       4.000  -1.973  18.787  1.00  0.00     0.211 HD
ENDBRANCH  14  18
BRANCH  15  20
ATOM     20  O   UNL     1       6.005   0.637  20.400  1.00  0.00    -0.385 OA
ATOM     21  H   UNL     1       6.708   0.073  19.976  1.00  0.00     0.211 HD
ENDBRANCH  15  20
ENDBRANCH   8   9
ENDBRANCH   7   8
ENDBRANCH   1   7
BRANCH   2  22
ATOM     22  O   UNL     1       0.188  -0.545  24.462  1.00  0.00    -0.387 OA
ATOM     23  H   UNL     1      -0.329  -0.566  23.606  1.00  0.00     0.211 HD
ENDBRANCH   2  22
BRANCH   3  24
ATOM     24  O   UNL     1       0.085  -3.865  25.369  1.00  0.00    -0.387 OA
ATOM     25  H   UNL     1       0.537  -3.380  26.186  1.00  0.00     0.211 HD
ENDBRANCH   3  24
BRANCH   5  26
ATOM     26  O   UNL     1       2.818  -4.308  24.033  1.00  0.00    -0.454 OA
BRANCH  26  27
ATOM     27  C   UNL     1       3.348  -5.567  24.148  1.00  0.00     0.214 A 
ATOM     28  C   UNL     1       4.793  -5.606  24.013  1.00  0.00     0.180 A 
ATOM     29  C   UNL     1       2.789  -6.503  25.062  1.00  0.00     0.239 A 
ATOM     30  O   UNL     1       5.515  -6.355  24.847  1.00  0.00    -0.452 OA
ATOM     31  C   UNL     1       3.662  -7.233  25.940  1.00  0.00     0.111 A 
ATOM     32  O   UNL     1       1.568  -6.445  25.347  1.00  0.00    -0.285 OA
ATOM     33  C   UNL     1       4.984  -6.747  25.991  1.00  0.00     0.146 A 
ATOM     34  C   UNL     1       3.313  -7.852  27.125  1.00  0.00     0.134 A 
ATOM     35  C   UNL     1       5.444  -6.204  27.249  1.00  0.00     0.094 A 
ATOM     36  C   UNL     1       3.375  -7.011  28.276  1.00  0.00     0.093 A 
ATOM     37  C   UNL     1       4.522  -6.171  28.338  1.00  0.00     0.123 A 
BRANCH  28  38
ATOM     38  C   UNL     1       5.574  -4.501  23.335  1.00  0.00     0.025 A 
ATOM     39  C   UNL     1       5.377  -4.376  21.924  1.00  0.00     0.062 A 
ATOM     40  C   UNL     1       6.558  -3.695  23.964  1.00  0.00     0.016 A 
ATOM     41  C   UNL     1       6.033  -3.368  21.202  1.00  0.00     0.158 A 
ATOM     42  C   UNL     1       7.280  -2.728  23.196  1.00  0.00     0.051 A 
ATOM     43  C   UNL     1       7.014  -2.559  21.819  1.00  0.00     0.157 A 
BRANCH  41  44
ATOM     44  O   UNL     1       5.800  -3.208  19.818  1.00  0.00    -0.504 OA
ATOM     45  H   UNL     1       6.275  -3.819  19.123  1.00  0.00     0.293 HD
ENDBRANCH  41  44
BRANCH  43  46
ATOM     46  O   UNL     1       7.717  -1.626  21.037  1.00  0.00    -0.504 OA
ATOM     47  H   UNL     1       7.609  -1.623  20.018  1.00  0.00     0.293 HD
ENDBRANCH  43  46
ENDBRANCH  28  38
BRANCH  34  48
ATOM     48  O   UNL     1       3.976  -9.127  27.247  1.00  0.00    -0.507 OA
ATOM     49  H   UNL     1       4.879  -9.233  27.668  1.00  0.00     0.293 HD
ENDBRANCH  34  48
BRANCH  37  50
ATOM     50  O   UNL     1       4.702  -5.269  29.377  1.00  0.00    -0.508 OA
ATOM     51  H   UNL     1       3.970  -4.642  29.712  1.00  0.00     0.293 HD
ENDBRANCH  37  50
ENDBRANCH  26  27
ENDBRANCH   5  26
BRANCH   4  52
ATOM     52  O   UNL     1      -0.125  -3.331  21.825  1.00  0.00    -0.384 OA
ATOM     53  H   UNL     1       0.138  -3.886  21.068  1.00  0.00     0.211 HD
ENDBRANCH   4  52
TORSDOF 16
ENDMDL
MODEL 3
REMARK VINA RESULT:    -7.936      9.355     12.134
REMARK INTER + INTRA:         -15.988
REMARK INTER:                 -13.180
REMARK INTRA:                  -2.808
REMARK UNBOUND:                -2.948
REMARK SMILES C[C@H]1O[C@@H](OC[C@@H]2O[C@@H](Oc3c(-c4ccc(O)c(O)c4)oc4cc(O)cc(O)c4c3=O)[C@H](O)[C@@H](O)[C@@H]2O)[C@H](O)[C@@H](O)[C@H]1O
REMARK SMILES IDX 7 1 36 2 34 3 32 4 9 5 8 6 6 7 5 8 4 9 1 10 2 11 42 12 3 13
REMARK SMILES IDX 40 14 38 15 43 16 41 18 39 20 37 22 35 24 10 26 11 27 12 28
REMARK SMILES IDX 30 29 21 30 29 31 31 32 22 33 27 34 23 35 26 36 24 37 13 38
REMARK SMILES IDX 20 39 14 40 18 41 15 42 16 43 19 44 17 46 28 48 25 50 33 52
REMARK H PARENT 43 17 41 19 39 21 37 23 35 25 19 45 17 47 28 49 25 51 33 53
REMARK Flexibility Score: inf
ROOT
ATOM      1  C   UNL     1       2.256  -2.460  23.008  1.00  0.00     0.180 C 
ATOM      2  C   UNL     1       1.102  -2.404  24.089  1.00  0.00     0.177 C 
ATOM      3  C   UNL     1       0.235  -3.688  24.310  1.00  0.00     0.180 C 
ATOM      4  C   UNL     1       0.596  -4.790  23.320  1.00  0.00     0.214 C 
ATOM      5  C   UNL     1       2.137  -4.848  23.039  1.00  0.00     0.339 C 
ATOM      6  O   UNL     1       2.469  -3.702  22.302  1.00  0.00    -0.332 OA
ENDROOT
BRANCH   1   7
ATOM      7  C   UNL     1       2.154  -1.321  21.917  1.00  0.00     0.198 C 
BRANCH   7   8
ATOM      8  O   UNL     1       2.906  -0.170  22.337  1.00  0.00    -0.347 OA
BRANCH   8   9
ATOM      9  C   UNL     1       2.759   0.981  21.523  1.00  0.00     0.281 C 
ATOM     10  C   UNL     1       2.034   0.721  17.865  1.00  0.00     0.041 C 
ATOM     11  C   UNL     1       2.866   1.112  19.113  1.00  0.00     0.150 C 
ATOM     12  C   UNL     1       4.300   0.550  19.149  1.00  0.00     0.174 C 
ATOM     13  O   UNL     1       2.148   0.675  20.256  1.00  0.00    -0.344 OA
ATOM     14  C   UNL     1       5.065   1.308  20.278  1.00  0.00     0.179 C 
ATOM     15  C   UNL     1       4.148   1.711  21.511  1.00  0.00     0.202 C 
BRANCH  12  16
ATOM     16  O   UNL     1       4.350  -0.862  19.337  1.00  0.00    -0.388 OA
ATOM     17  H   UNL     1       3.445  -1.243  19.219  1.00  0.00     0.211 HD
ENDBRANCH  12  16
BRANCH  14  18
ATOM     18  O   UNL     1       6.230   0.582  20.642  1.00  0.00    -0.387 OA
ATOM     19  H   UNL     1       6.016  -0.357  20.707  1.00  0.00     0.211 HD
ENDBRANCH  14  18
BRANCH  15  20
ATOM     20  O   UNL     1       3.987   3.122  21.563  1.00  0.00    -0.385 OA
ATOM     21  H   UNL     1       3.557   3.384  20.703  1.00  0.00     0.211 HD
ENDBRANCH  15  20
ENDBRANCH   8   9
ENDBRANCH   7   8
ENDBRANCH   1   7
BRANCH   2  22
ATOM     22  O   UNL     1       0.261  -1.252  23.887  1.00  0.00    -0.387 OA
ATOM     23  H   UNL     1       0.555  -0.613  24.599  1.00  0.00     0.211 HD
ENDBRANCH   2  22
BRANCH   3  24
ATOM     24  O   UNL     1       0.308  -4.219  25.634  1.00  0.00    -0.387 OA
ATOM     25  H   UNL     1       1.089  -4.921  25.691  1.00  0.00     0.211 HD
ENDBRANCH   3  24
BRANCH   5  26
ATOM     26  O   UNL     1       2.970  -4.962  24.287  1.00  0.00    -0.454 OA
BRANCH  26  27
ATOM     27  C   UNL     1       3.781  -6.037  24.542  1.00  0.00     0.214 A 
ATOM     28  C   UNL     1       5.187  -5.692  24.662  1.00  0.00     0.180 A 
ATOM     29  C   UNL     1       3.333  -7.095  25.382  1.00  0.00     0.239 A 
ATOM     30  O   UNL     1       5.919  -6.230  25.638  1.00  0.00    -0.452 OA
ATOM     31  C   UNL     1       4.195  -7.575  26.426  1.00  0.00     0.111 A 
ATOM     32  O   UNL     1       2.109  -7.364  25.448  1.00  0.00    -0.285 OA
ATOM     33  C   UNL     1       5.313  -6.757  26.687  1.00  0.00     0.146 A 
ATOM     34  C   UNL     1       3.815  -8.273  27.556  1.00  0.00     0.134 A 
ATOM     35  C   UNL     1       5.383  -6.121  27.983  1.00  0.00     0.094 A 
ATOM     36  C   UNL     1       3.449  -7.454  28.666  1.00  0.00     0.093 A 
ATOM     37  C   UNL     1       4.307  -6.342  28.893  1.00  0.00     0.123 A 
BRANCH  28  38
ATOM     38  C   UNL     1       5.759  -4.414  24.086  1.00  0.00     0.025 A 
ATOM     39  C   UNL     1       6.079  -3.393  25.034  1.00  0.00     0.062 A 
ATOM     40  C   UNL     1       5.867  -4.122  22.701  1.00  0.00     0.016 A 
ATOM     41  C   UNL     1       6.638  -2.179  24.609  1.00  0.00     0.158 A 
ATOM     42  C   UNL     1       6.360  -2.847  22.282  1.00  0.00     0.051 A 
ATOM     43  C   UNL     1       6.751  -1.879  23.232  1.00  0.00     0.157 A 
BRANCH  41  44
ATOM     44  O   UNL     1       7.005  -1.189  25.548  1.00  0.00    -0.504 OA
ATOM     45  H   UNL     1       7.156  -0.203  25.253  1.00  0.00     0.293 HD
ENDBRANCH  41  44
BRANCH  43  46
ATOM     46  O   UNL     1       7.227  -0.612  22.849  1.00  0.00    -0.504 OA
ATOM     47  H   UNL     1       8.119  -0.527  22.350  1.00  0.00     0.293 HD
ENDBRANCH  43  46
ENDBRANCH  28  38
BRANCH  34  48
ATOM     48  O   UNL     1       4.755  -9.328  27.841  1.00  0.00    -0.507 OA
ATOM     49  H   UNL     1       4.485 -10.202  28.252  1.00  0.00     0.293 HD
ENDBRANCH  34  48
BRANCH  37  50
ATOM     50  O   UNL     1       4.056  -5.433  29.911  1.00  0.00    -0.508 OA
ATOM     51  H   UNL     1       4.203  -4.427  29.819  1.00  0.00     0.293 HD
ENDBRANCH  37  50
ENDBRANCH  26  27
ENDBRANCH   5  26
BRANCH   4  52
ATOM     52  O   UNL     1      -0.125  -4.636  22.095  1.00  0.00    -0.384 OA
ATOM     53  H   UNL     1       0.463  -4.237  21.427  1.00  0.00     0.211 HD
ENDBRANCH   4  52
TORSDOF 16
ENDMDL
MODEL 4
REMARK VINA RESULT:    -7.817     10.633     13.339
REMARK INTER + INTRA:         -15.793
REMARK INTER:                 -12.789
REMARK INTRA:                  -3.004
REMARK UNBOUND:                -2.948
REMARK SMILES C[C@H]1O[C@@H](OC[C@@H]2O[C@@H](Oc3c(-c4ccc(O)c(O)c4)oc4cc(O)cc(O)c4c3=O)[C@H](O)[C@@H](O)[C@@H]2O)[C@H](O)[C@@H](O)[C@H]1O
REMARK SMILES IDX 7 1 36 2 34 3 32 4 9 5 8 6 6 7 5 8 4 9 1 10 2 11 42 12 3 13
REMARK SMILES IDX 40 14 38 15 43 16 41 18 39 20 37 22 35 24 10 26 11 27 12 28
REMARK SMILES IDX 30 29 21 30 29 31 31 32 22 33 27 34 23 35 26 36 24 37 13 38
REMARK SMILES IDX 20 39 14 40 18 41 15 42 16 43 19 44 17 46 28 48 25 50 33 52
REMARK H PARENT 43 17 41 19 39 21 37 23 35 25 19 45 17 47 28 49 25 51 33 53
REMARK Flexibility Score: inf
ROOT
ATOM      1  C   UNL     1       3.164  -0.527  22.378  1.00  0.00     0.180 C 
ATOM      2  C   UNL     1       4.550  -1.179  21.981  1.00  0.00     0.177 C 
ATOM      3  C   UNL     1       5.619  -1.383  23.105  1.00  0.00     0.180 C 
ATOM      4  C   UNL     1       5.163  -0.787  24.432  1.00  0.00     0.214 C 
ATOM      5  C   UNL     1       3.628  -0.998  24.677  1.00  0.00     0.339 C 
ATOM      6  O   UNL     1       2.946  -0.181  23.763  1.00  0.00    -0.332 OA
ENDROOT
BRANCH   1   7
ATOM      7  C   UNL     1       2.798   0.750  21.520  1.00  0.00     0.198 C 
BRANCH   7   8
ATOM      8  O   UNL     1       2.624   0.381  20.142  1.00  0.00    -0.347 OA
BRANCH   8   9
ATOM      9  C   UNL     1       2.538   1.463  19.231  1.00  0.00     0.281 C 
ATOM     10  C   UNL     1       3.653   1.133  15.678  1.00  0.00     0.041 C 
ATOM     11  C   UNL     1       3.680   1.711  17.116  1.00  0.00     0.150 C 
ATOM     12  C   UNL     1       5.036   1.608  17.840  1.00  0.00     0.174 C 
ATOM     13  O   UNL     1       2.682   1.034  17.864  1.00  0.00    -0.344 OA
ATOM     14  C   UNL     1       4.956   2.518  19.104  1.00  0.00     0.179 C 
ATOM     15  C   UNL     1       3.509   2.579  19.757  1.00  0.00     0.202 C 
BRANCH  12  16
ATOM     16  O   UNL     1       5.397   0.271  18.178  1.00  0.00    -0.388 OA
ATOM     17  H   UNL     1       4.989   0.029  19.047  1.00  0.00     0.211 HD
ENDBRANCH  12  16
BRANCH  14  18
ATOM     18  O   UNL     1       5.983   2.166  20.018  1.00  0.00    -0.387 OA
ATOM     19  H   UNL     1       6.047   2.841  20.705  1.00  0.00     0.211 HD
ENDBRANCH  14  18
BRANCH  15  20
ATOM     20  O   UNL     1       2.945   3.872  19.583  1.00  0.00    -0.385 OA
ATOM     21  H   UNL     1       3.202   4.397  20.390  1.00  0.00     0.211 HD
ENDBRANCH  15  20
ENDBRANCH   8   9
ENDBRANCH   7   8
ENDBRANCH   1   7
BRANCH   2  22
ATOM     22  O   UNL     1       5.129  -0.509  20.845  1.00  0.00    -0.387 OA
ATOM     23  H   UNL     1       5.538   0.317  21.237  1.00  0.00     0.211 HD
ENDBRANCH   2  22
BRANCH   3  24
ATOM     24  O   UNL     1       5.988  -2.746  23.317  1.00  0.00    -0.387 OA
ATOM     25  H   UNL     1       5.187  -3.375  23.054  1.00  0.00     0.211 HD
ENDBRANCH   3  24
BRANCH   5  26
ATOM     26  O   UNL     1       3.195  -2.435  24.561  1.00  0.00    -0.454 OA
BRANCH  26  27
ATOM     27  C   UNL     1       2.078  -2.925  25.186  1.00  0.00     0.214 A 
ATOM     28  C   UNL     1       1.230  -3.727  24.321  1.00  0.00     0.180 A 
ATOM     29  C   UNL     1       2.136  -3.337  26.546  1.00  0.00     0.239 A 
ATOM     30  O   UNL     1       0.713  -4.869  24.776  1.00  0.00    -0.452 OA
ATOM     31  C   UNL     1       1.574  -4.607  26.919  1.00  0.00     0.111 A 
ATOM     32  O   UNL     1       2.950  -2.792  27.330  1.00  0.00    -0.285 OA
ATOM     33  C   UNL     1       1.252  -5.447  25.834  1.00  0.00     0.146 A 
ATOM     34  C   UNL     1       1.876  -5.344  28.048  1.00  0.00     0.134 A 
ATOM     35  C   UNL     1       1.990  -6.684  25.710  1.00  0.00     0.094 A 
ATOM     36  C   UNL     1       2.983  -6.233  27.900  1.00  0.00     0.093 A 
ATOM     37  C   UNL     1       3.008  -6.953  26.673  1.00  0.00     0.123 A 
BRANCH  28  38
ATOM     38  C   UNL     1       1.288  -3.627  22.812  1.00  0.00     0.025 A 
ATOM     39  C   UNL     1       2.377  -4.307  22.184  1.00  0.00     0.062 A 
ATOM     40  C   UNL     1       0.436  -2.815  22.017  1.00  0.00     0.016 A 
ATOM     41  C   UNL     1       2.509  -4.299  20.788  1.00  0.00     0.158 A 
ATOM     42  C   UNL     1       0.637  -2.751  20.603  1.00  0.00     0.051 A 
ATOM     43  C   UNL     1       1.666  -3.496  19.987  1.00  0.00     0.157 A 
BRANCH  41  44
ATOM     44  O   UNL     1       3.554  -5.016  20.161  1.00  0.00    -0.504 OA
ATOM     45  H   UNL     1       4.447  -5.203  20.661  1.00  0.00     0.293 HD
ENDBRANCH  41  44
BRANCH  43  46
ATOM     46  O   UNL     1       1.895  -3.442  18.600  1.00  0.00    -0.504 OA
ATOM     47  H   UNL     1       2.555  -4.091  18.161  1.00  0.00     0.293 HD
ENDBRANCH  43  46
ENDBRANCH  28  38
BRANCH  34  48
ATOM     48  O   UNL     1       0.681  -5.924  28.610  1.00  0.00    -0.507 OA
ATOM     49  H   UNL     1       0.457  -5.870  29.585  1.00  0.00     0.293 HD
ENDBRANCH  34  48
BRANCH  37  50
ATOM     50  O   UNL     1       4.045  -7.824  26.369  1.00  0.00    -0.508 OA
ATOM     51  H   UNL     1       4.430  -7.936  25.431  1.00  0.00     0.293 HD
ENDBRANCH  37  50
ENDBRANCH  26  27
ENDBRANCH   5  26
BRANCH   4  52
ATOM     52  O   UNL     1       5.490   0.602  24.512  1.00  0.00    -0.384 OA
ATOM     53  H   UNL     1       4.829   1.054  25.068  1.00  0.00     0.211 HD
ENDBRANCH   4  52
TORSDOF 16
ENDMDL
MODEL 5
REMARK VINA RESULT:    -7.799     10.024     13.097
REMARK INTER + INTRA:         -15.763
REMARK INTER:                 -12.463
REMARK INTRA:                  -3.300
REMARK UNBOUND:                -2.948
REMARK SMILES C[C@H]1O[C@@H](OC[C@@H]2O[C@@H](Oc3c(-c4ccc(O)c(O)c4)oc4cc(O)cc(O)c4c3=O)[C@H](O)[C@@H](O)[C@@H]2O)[C@H](O)[C@@H](O)[C@H]1O
REMARK SMILES IDX 7 1 36 2 34 3 32 4 9 5 8 6 6 7 5 8 4 9 1 10 2 11 42 12 3 13
REMARK SMILES IDX 40 14 38 15 43 16 41 18 39 20 37 22 35 24 10 26 11 27 12 28
REMARK SMILES IDX 30 29 21 30 29 31 31 32 22 33 27 34 23 35 26 36 24 37 13 38
REMARK SMILES IDX 20 39 14 40 18 41 15 42 16 43 19 44 17 46 28 48 25 50 33 52
REMARK H PARENT 43 17 41 19 39 21 37 23 35 25 19 45 17 47 28 49 25 51 33 53
REMARK Flexibility Score: inf
ROOT
ATOM      1  C   UNL     1       4.993  -1.913  22.151  1.00  0.00     0.180 C 
ATOM      2  C   UNL     1       6.152  -1.675  23.203  1.00  0.00     0.177 C 
ATOM      3  C   UNL     1       5.856  -0.749  24.430  1.00  0.00     0.180 C 
ATOM      4  C   UNL     1       4.473  -0.115  24.337  1.00  0.00     0.214 C 
ATOM      5  C   UNL     1       3.408  -1.105  23.750  1.00  0.00     0.339 C 
ATOM      6  O   UNL     1       3.714  -1.287  22.393  1.00  0.00    -0.332 OA
ENDROOT
BRANCH   1   7
ATOM      7  C   UNL     1       5.407  -1.560  20.667  1.00  0.00     0.198 C 
BRANCH   7   8
ATOM      8  O   UNL     1       5.375  -0.136  20.475  1.00  0.00    -0.347 OA
BRANCH   8   9
ATOM      9  C   UNL     1       4.676   0.305  19.323  1.00  0.00     0.281 C 
ATOM     10  C   UNL     1       4.651   3.901  18.298  1.00  0.00     0.041 C 
ATOM     11  C   UNL     1       4.021   2.563  18.764  1.00  0.00     0.150 C 
ATOM     12  C   UNL     1       3.197   2.643  20.064  1.00  0.00     0.174 C 
ATOM     13  O   UNL     1       5.077   1.628  18.920  1.00  0.00    -0.344 OA
ATOM     14  C   UNL     1       2.391   1.313  20.182  1.00  0.00     0.179 C 
ATOM     15  C   UNL     1       3.151   0.050  19.590  1.00  0.00     0.202 C 
BRANCH  12  16
ATOM     16  O   UNL     1       3.992   2.879  21.224  1.00  0.00    -0.388 OA
ATOM     17  H   UNL     1       3.823   2.167  21.890  1.00  0.00     0.211 HD
ENDBRANCH  12  16
BRANCH  14  18
ATOM     18  O   UNL     1       1.942   1.137  21.518  1.00  0.00    -0.387 OA
ATOM     19  H   UNL     1       1.749   1.999  21.907  1.00  0.00     0.211 HD
ENDBRANCH  14  18
BRANCH  15  20
ATOM     20  O   UNL     1       2.495  -0.412  18.415  1.00  0.00    -0.385 OA
ATOM     21  H   UNL     1       2.788   0.192  17.679  1.00  0.00     0.211 HD
ENDBRANCH  15  20
ENDBRANCH   8   9
ENDBRANCH   7   8
ENDBRANCH   1   7
BRANCH   2  22
ATOM     22  O   UNL     1       7.370  -1.276  22.547  1.00  0.00    -0.387 OA
ATOM     23  H   UNL     1       7.168  -1.396  21.574  1.00  0.00     0.211 HD
ENDBRANCH   2  22
BRANCH   3  24
ATOM     24  O   UNL     1       5.979  -1.402  25.694  1.00  0.00    -0.387 OA
ATOM     25  H   UNL     1       5.263  -2.170  25.767  1.00  0.00     0.211 HD
ENDBRANCH   3  24
BRANCH   5  26
ATOM     26  O   UNL     1       3.343  -2.418  24.481  1.00  0.00    -0.454 OA
BRANCH  26  27
ATOM     27  C   UNL     1       2.216  -2.851  25.131  1.00  0.00     0.214 A 
ATOM     28  C   UNL     1       1.315  -3.617  24.288  1.00  0.00     0.180 A 
ATOM     29  C   UNL     1       2.281  -3.256  26.493  1.00  0.00     0.239 A 
ATOM     30  O   UNL     1       0.754  -4.729  24.762  1.00  0.00    -0.452 OA
ATOM     31  C   UNL     1       1.667  -4.495  26.886  1.00  0.00     0.111 A 
ATOM     32  O   UNL     1       3.135  -2.745  27.257  1.00  0.00    -0.285 OA
ATOM     33  C   UNL     1       1.285  -5.326  25.814  1.00  0.00     0.146 A 
ATOM     34  C   UNL     1       1.955  -5.238  28.014  1.00  0.00     0.134 A 
ATOM     35  C   UNL     1       1.960  -6.598  25.685  1.00  0.00     0.094 A 
ATOM     36  C   UNL     1       3.015  -6.179  27.853  1.00  0.00     0.093 A 
ATOM     37  C   UNL     1       2.983  -6.908  26.631  1.00  0.00     0.123 A 
BRANCH  28  38
ATOM     38  C   UNL     1       1.348  -3.530  22.778  1.00  0.00     0.025 A 
ATOM     39  C   UNL     1       2.348  -4.320  22.131  1.00  0.00     0.062 A 
ATOM     40  C   UNL     1       0.566  -2.639  21.996  1.00  0.00     0.016 A 
ATOM     41  C   UNL     1       2.449  -4.331  20.732  1.00  0.00     0.158 A 
ATOM     42  C   UNL     1       0.739  -2.602  20.577  1.00  0.00     0.051 A 
ATOM     43  C   UNL     1       1.674  -3.450  19.944  1.00  0.00     0.157 A 
BRANCH  41  44
ATOM     44  O   UNL     1       3.401  -5.153  20.087  1.00  0.00    -0.504 OA
ATOM     45  H   UNL     1       4.386  -5.190  20.419  1.00  0.00     0.293 HD
ENDBRANCH  41  44
BRANCH  43  46
ATOM     46  O   UNL     1       1.875  -3.425  18.553  1.00  0.00    -0.504 OA
ATOM     47  H   UNL     1       1.899  -4.301  18.020  1.00  0.00     0.293 HD
ENDBRANCH  43  46
ENDBRANCH  28  38
BRANCH  34  48
ATOM     48  O   UNL     1       0.744  -5.756  28.603  1.00  0.00    -0.507 OA
ATOM     49  H   UNL     1       0.717  -6.610  29.128  1.00  0.00     0.293 HD
ENDBRANCH  34  48
BRANCH  37  50
ATOM     50  O   UNL     1       3.970  -7.829  26.313  1.00  0.00    -0.508 OA
ATOM     51  H   UNL     1       4.963  -7.598  26.261  1.00  0.00     0.293 HD
ENDBRANCH  37  50
ENDBRANCH  26  27
ENDBRANCH   5  26
BRANCH   4  52
ATOM     52  O   UNL     1       4.509   1.088  23.565  1.00  0.00    -0.384 OA
ATOM     53  H   UNL     1       5.185   1.684  23.936  1.00  0.00     0.211 HD
ENDBRANCH   4  52
TORSDOF 16
ENDMDL
MODEL 6
REMARK VINA RESULT:    -7.764      1.624      4.293
REMARK INTER + INTRA:         -15.705
REMARK INTER:                 -12.755
REMARK INTRA:                  -2.949
REMARK UNBOUND:                -2.948
REMARK SMILES C[C@H]1O[C@@H](OC[C@@H]2O[C@@H](Oc3c(-c4ccc(O)c(O)c4)oc4cc(O)cc(O)c4c3=O)[C@H](O)[C@@H](O)[C@@H]2O)[C@H](O)[C@@H](O)[C@H]1O
REMARK SMILES IDX 7 1 36 2 34 3 32 4 9 5 8 6 6 7 5 8 4 9 1 10 2 11 42 12 3 13
REMARK SMILES IDX 40 14 38 15 43 16 41 18 39 20 37 22 35 24 10 26 11 27 12 28
REMARK SMILES IDX 30 29 21 30 29 31 31 32 22 33 27 34 23 35 26 36 24 37 13 38
REMARK SMILES IDX 20 39 14 40 18 41 15 42 16 43 19 44 17 46 28 48 25 50 33 52
REMARK H PARENT 43 17 41 19 39 21 37 23 35 25 19 45 17 47 28 49 25 51 33 53
REMARK Flexibility Score: inf
ROOT
ATOM      1  C   UNL     1      13.999  -7.090  25.227  1.00  0.00     0.180 C 
ATOM      2  C   UNL     1      14.051  -8.032  26.497  1.00  0.00     0.177 C 
ATOM      3  C   UNL     1      15.324  -7.977  27.406  1.00  0.00     0.180 C 
ATOM      4  C   UNL     1      16.396  -7.064  26.821  1.00  0.00     0.214 C 
ATOM      5  C   UNL     1      15.780  -5.787  26.150  1.00  0.00     0.339 C 
ATOM      6  O   UNL     1      15.117  -6.207  24.988  1.00  0.00    -0.332 OA
ENDROOT
BRANCH   1   7
ATOM      7  C   UNL     1      13.727  -7.866  23.877  1.00  0.00     0.198 C 
BRANCH   7   8
ATOM      8  O   UNL     1      13.518  -6.929  22.807  1.00  0.00    -0.347 OA
BRANCH   8   9
ATOM      9  C   UNL     1      13.927  -7.372  21.524  1.00  0.00     0.281 C 
ATOM     10  C   UNL     1      16.637  -5.640  19.618  1.00  0.00     0.041 C 
ATOM     11  C   UNL     1      15.194  -6.149  19.870  1.00  0.00     0.150 C 
ATOM     12  C   UNL     1      14.100  -5.064  19.838  1.00  0.00     0.174 C 
ATOM     13  O   UNL     1      15.188  -6.802  21.130  1.00  0.00    -0.344 OA
ATOM     14  C   UNL     1      12.724  -5.797  19.778  1.00  0.00     0.179 C 
ATOM     15  C   UNL     1      12.701  -7.178  20.563  1.00  0.00     0.202 C 
BRANCH  12  16
ATOM     16  O   UNL     1      14.165  -4.161  20.940  1.00  0.00    -0.388 OA
ATOM     17  H   UNL     1      13.249  -3.951  21.249  1.00  0.00     0.211 HD
ENDBRANCH  12  16
BRANCH  14  18
ATOM     18  O   UNL     1      11.686  -4.906  20.154  1.00  0.00    -0.387 OA
ATOM     19  H   UNL     1      12.053  -4.193  20.691  1.00  0.00     0.211 HD
ENDBRANCH  14  18
BRANCH  15  20
ATOM     20  O   UNL     1      12.589  -8.261  19.650  1.00  0.00    -0.385 OA
ATOM     21  H   UNL     1      11.696  -8.672  19.814  1.00  0.00     0.211 HD
ENDBRANCH  15  20
ENDBRANCH   8   9
ENDBRANCH   7   8
ENDBRANCH   1   7
BRANCH   2  22
ATOM     22  O   UNL     1      13.737  -9.392  26.144  1.00  0.00    -0.387 OA
ATOM     23  H   UNL     1      14.627  -9.850  26.142  1.00  0.00     0.211 HD
ENDBRANCH   2  22
BRANCH   3  24
ATOM     24  O   UNL     1      15.063  -7.575  28.750  1.00  0.00    -0.387 OA
ATOM     25  H   UNL     1      14.669  -8.386  29.293  1.00  0.00     0.211 HD
ENDBRANCH   3  24
BRANCH   5  26
ATOM     26  O   UNL     1      14.862  -5.016  27.060  1.00  0.00    -0.454 OA
BRANCH  26  27
ATOM     27  C   UNL     1      14.964  -3.660  27.240  1.00  0.00     0.214 A 
ATOM     28  C   UNL     1      13.697  -2.960  27.118  1.00  0.00     0.180 A 
ATOM     29  C   UNL     1      15.874  -3.127  28.194  1.00  0.00     0.239 A 
ATOM     30  O   UNL     1      13.384  -2.004  27.993  1.00  0.00    -0.452 OA
ATOM     31  C   UNL     1      15.417  -2.121  29.113  1.00  0.00     0.111 A 
ATOM     32  O   UNL     1      16.930  -3.749  28.466  1.00  0.00    -0.285 OA
ATOM     33  C   UNL     1      14.018  -1.952  29.151  1.00  0.00     0.146 A 
ATOM     34  C   UNL     1      15.992  -1.786  30.324  1.00  0.00     0.134 A 
ATOM     35  C   UNL     1      13.342  -2.283  30.385  1.00  0.00     0.094 A 
ATOM     36  C   UNL     1      15.536  -2.558  31.433  1.00  0.00     0.093 A 
ATOM     37  C   UNL     1      14.131  -2.784  31.463  1.00  0.00     0.123 A 
BRANCH  28  38
ATOM     38  C   UNL     1      12.509  -3.554  26.393  1.00  0.00     0.025 A 
ATOM     39  C   UNL     1      12.650  -3.693  24.978  1.00  0.00     0.062 A 
ATOM     40  C   UNL     1      11.254  -3.845  26.989  1.00  0.00     0.016 A 
ATOM     41  C   UNL     1      11.618  -4.256  24.213  1.00  0.00     0.158 A 
ATOM     42  C   UNL     1      10.183  -4.340  26.181  1.00  0.00     0.051 A 
ATOM     43  C   UNL     1      10.365  -4.551  24.797  1.00  0.00     0.157 A 
BRANCH  41  44
ATOM     44  O   UNL     1      11.776  -4.445  22.821  1.00  0.00    -0.504 OA
ATOM     45  H   UNL     1      10.948  -4.535  22.198  1.00  0.00     0.293 HD
ENDBRANCH  41  44
BRANCH  43  46
ATOM     46  O   UNL     1       9.326  -5.024  23.975  1.00  0.00    -0.504 OA
ATOM     47  H   UNL     1       9.490  -5.180  22.975  1.00  0.00     0.293 HD
ENDBRANCH  43  46
ENDBRANCH  28  38
BRANCH  34  48
ATOM     48  O   UNL     1      15.982  -0.356  30.512  1.00  0.00    -0.507 OA
ATOM     49  H   UNL     1      15.137   0.174  30.611  1.00  0.00     0.293 HD
ENDBRANCH  34  48
BRANCH  37  50
ATOM     50  O   UNL     1      13.544  -3.552  32.459  1.00  0.00    -0.508 OA
ATOM     51  H   UNL     1      12.726  -3.256  32.992  1.00  0.00     0.293 HD
ENDBRANCH  37  50
ENDBRANCH  26  27
ENDBRANCH   5  26
BRANCH   4  52
ATOM     52  O   UNL     1      17.216  -7.767  25.885  1.00  0.00    -0.384 OA
ATOM     53  H   UNL     1      16.883  -8.678  25.790  1.00  0.00     0.211 HD
ENDBRANCH   4  52
TORSDOF 16
ENDMDL
MODEL 7
REMARK VINA RESULT:    -7.744      9.554     13.457
REMARK INTER + INTRA:         -15.672
REMARK INTER:                 -11.875
REMARK INTRA:                  -3.798
REMARK UNBOUND:                -2.948
REMARK SMILES C[C@H]1O[C@@H](OC[C@@H]2O[C@@H](Oc3c(-c4ccc(O)c(O)c4)oc4cc(O)cc(O)c4c3=O)[C@H](O)[C@@H](O)[C@@H]2O)[C@H](O)[C@@H](O)[C@H]1O
REMARK SMILES IDX 7 1 36 2 34 3 32 4 9 5 8 6 6 7 5 8 4 9 1 10 2 11 42 12 3 13
REMARK SMILES IDX 40 14 38 15 43 16 41 18 39 20 37 22 35 24 10 26 11 27 12 28
REMARK SMILES IDX 30 29 21 30 29 31 31 32 22 33 27 34 23 35 26 36 24 37 13 38
REMARK SMILES IDX 20 39 14 40 18 41 15 42 16 43 19 44 17 46 28 48 25 50 33 52
REMARK H PARENT 43 17 41 19 39 21 37 23 35 25 19 45 17 47 28 49 25 51 33 53
REMARK Flexibility Score: inf
ROOT
ATOM      1  C   UNL     1       4.335  -3.524  21.569  1.00  0.00     0.180 C 
ATOM      2  C   UNL     1       3.497  -3.749  20.246  1.00  0.00     0.177 C 
ATOM      3  C   UNL     1       2.067  -3.118  20.161  1.00  0.00     0.180 C 
ATOM      4  C   UNL     1       1.663  -2.457  21.474  1.00  0.00     0.214 C 
ATOM      5  C   UNL     1       2.869  -1.730  22.164  1.00  0.00     0.339 C 
ATOM      6  O   UNL     1       3.749  -2.723  22.619  1.00  0.00    -0.332 OA
ENDROOT
BRANCH   1   7
ATOM      7  C   UNL     1       4.831  -4.868  22.238  1.00  0.00     0.198 C 
BRANCH   7   8
ATOM      8  O   UNL     1       3.703  -5.647  22.668  1.00  0.00    -0.347 OA
BRANCH   8   9
ATOM      9  C   UNL     1       3.868  -6.323  23.903  1.00  0.00     0.281 C 
ATOM     10  C   UNL     1       1.319  -6.085  26.628  1.00  0.00     0.041 C 
ATOM     11  C   UNL     1       2.718  -5.900  25.986  1.00  0.00     0.150 C 
ATOM     12  C   UNL     1       3.254  -4.456  25.985  1.00  0.00     0.174 C 
ATOM     13  O   UNL     1       2.642  -6.386  24.654  1.00  0.00    -0.344 OA
ATOM     14  C   UNL     1       4.768  -4.525  25.616  1.00  0.00     0.179 C 
ATOM     15  C   UNL     1       5.125  -5.694  24.601  1.00  0.00     0.202 C 
BRANCH  12  16
ATOM     16  O   UNL     1       2.540  -3.586  25.110  1.00  0.00    -0.388 OA
ATOM     17  H   UNL     1       1.980  -4.124  24.496  1.00  0.00     0.211 HD
ENDBRANCH  12  16
BRANCH  14  18
ATOM     18  O   UNL     1       5.222  -3.245  25.200  1.00  0.00    -0.387 OA
ATOM     19  H   UNL     1       5.215  -2.642  25.953  1.00  0.00     0.211 HD
ENDBRANCH  14  18
BRANCH  15  20
ATOM     20  O   UNL     1       5.902  -6.690  25.254  1.00  0.00    -0.385 OA
ATOM     21  H   UNL     1       6.796  -6.282  25.418  1.00  0.00     0.211 HD
ENDBRANCH  15  20
ENDBRANCH   8   9
ENDBRANCH   7   8
ENDBRANCH   1   7
BRANCH   2  22
ATOM     22  O   UNL     1       3.457  -5.144  19.891  1.00  0.00    -0.387 OA
ATOM     23  H   UNL     1       4.344  -5.306  19.455  1.00  0.00     0.211 HD
ENDBRANCH   2  22
BRANCH   3  24
ATOM     24  O   UNL     1       1.912  -2.171  19.104  1.00  0.00    -0.387 OA
ATOM     25  H   UNL     1       2.559  -1.356  19.260  1.00  0.00     0.211 HD
ENDBRANCH   3  24
BRANCH   5  26
ATOM     26  O   UNL     1       3.568  -0.745  21.265  1.00  0.00    -0.454 OA
BRANCH  26  27
ATOM     27  C   UNL     1       3.280   0.596  21.269  1.00  0.00     0.214 A 
ATOM     28  C   UNL     1       4.297   1.409  21.913  1.00  0.00     0.180 A 
ATOM     29  C   UNL     1       2.625   1.195  20.158  1.00  0.00     0.239 A 
ATOM     30  O   UNL     1       4.683   2.553  21.349  1.00  0.00    -0.452 OA
ATOM     31  C   UNL     1       3.150   2.415  19.608  1.00  0.00     0.111 A 
ATOM     32  O   UNL     1       1.837   0.516  19.457  1.00  0.00    -0.285 OA
ATOM     33  C   UNL     1       4.437   2.760  20.068  1.00  0.00     0.146 A 
ATOM     34  C   UNL     1       2.923   2.915  18.341  1.00  0.00     0.134 A 
ATOM     35  C   UNL     1       5.508   2.772  19.097  1.00  0.00     0.094 A 
ATOM     36  C   UNL     1       3.831   2.446  17.345  1.00  0.00     0.093 A 
ATOM     37  C   UNL     1       5.194   2.407  17.754  1.00  0.00     0.123 A 
BRANCH  28  38
ATOM     38  C   UNL     1       5.293   0.831  22.895  1.00  0.00     0.025 A 
ATOM     39  C   UNL     1       4.790   0.563  24.206  1.00  0.00     0.062 A 
ATOM     40  C   UNL     1       6.682   0.672  22.648  1.00  0.00     0.016 A 
ATOM     41  C   UNL     1       5.623   0.003  25.186  1.00  0.00     0.158 A 
ATOM     42  C   UNL     1       7.535   0.179  23.685  1.00  0.00     0.051 A 
ATOM     43  C   UNL     1       7.007  -0.161  24.950  1.00  0.00     0.157 A 
BRANCH  41  44
ATOM     44  O   UNL     1       5.115  -0.313  26.466  1.00  0.00    -0.504 OA
ATOM     45  H   UNL     1       5.519   0.117  27.322  1.00  0.00     0.293 HD
ENDBRANCH  41  44
BRANCH  43  46
ATOM     46  O   UNL     1       7.824  -0.635  25.992  1.00  0.00    -0.504 OA
ATOM     47  H   UNL     1       8.657  -0.108  26.273  1.00  0.00     0.293 HD
ENDBRANCH  43  46
ENDBRANCH  28  38
BRANCH  34  48
ATOM     48  O   UNL     1       2.728   4.343  18.385  1.00  0.00    -0.507 OA
ATOM     49  H   UNL     1       3.297   4.953  18.941  1.00  0.00     0.293 HD
ENDBRANCH  34  48
BRANCH  37  50
ATOM     50  O   UNL     1       6.188   1.935  16.908  1.00  0.00    -0.508 OA
ATOM     51  H   UNL     1       7.176   1.907  17.160  1.00  0.00     0.293 HD
ENDBRANCH  37  50
ENDBRANCH  26  27
ENDBRANCH   5  26
BRANCH   4  52
ATOM     52  O   UNL     1       1.081  -3.407  22.370  1.00  0.00    -0.384 OA
ATOM     53  H   UNL     1       0.803  -4.193  21.865  1.00  0.00     0.211 HD
ENDBRANCH   4  52
TORSDOF 16
ENDMDL
MODEL 8
REMARK VINA RESULT:    -7.633     10.073     13.040
REMARK INTER + INTRA:         -15.490
REMARK INTER:                 -12.935
REMARK INTRA:                  -2.555
REMARK UNBOUND:                -2.948
REMARK SMILES C[C@H]1O[C@@H](OC[C@@H]2O[C@@H](Oc3c(-c4ccc(O)c(O)c4)oc4cc(O)cc(O)c4c3=O)[C@H](O)[C@@H](O)[C@@H]2O)[C@H](O)[C@@H](O)[C@H]1O
REMARK SMILES IDX 7 1 36 2 34 3 32 4 9 5 8 6 6 7 5 8 4 9 1 10 2 11 42 12 3 13
REMARK SMILES IDX 40 14 38 15 43 16 41 18 39 20 37 22 35 24 10 26 11 27 12 28
REMARK SMILES IDX 30 29 21 30 29 31 31 32 22 33 27 34 23 35 26 36 24 37 13 38
REMARK SMILES IDX 20 39 14 40 18 41 15 42 16 43 19 44 17 46 28 48 25 50 33 52
REMARK H PARENT 43 17 41 19 39 21 37 23 35 25 19 45 17 47 28 49 25 51 33 53
REMARK Flexibility Score: inf
ROOT
ATOM      1  C   UNL     1      12.761   5.856  26.374  1.00  0.00     0.180 C 
ATOM      2  C   UNL     1      11.546   5.642  25.384  1.00  0.00     0.177 C 
ATOM      3  C   UNL     1      10.460   4.582  25.767  1.00  0.00     0.180 C 
ATOM      4  C   UNL     1      10.836   3.822  27.034  1.00  0.00     0.214 C 
ATOM      5  C   UNL     1      11.524   4.748  28.096  1.00  0.00     0.339 C 
ATOM      6  O   UNL     1      12.790   5.084  27.595  1.00  0.00    -0.332 OA
ENDROOT
BRANCH   1   7
ATOM      7  C   UNL     1      14.174   5.684  25.686  1.00  0.00     0.198 C 
BRANCH   7   8
ATOM      8  O   UNL     1      14.385   6.738  24.731  1.00  0.00    -0.347 OA
BRANCH   8   9
ATOM      9  C   UNL     1      15.624   6.692  24.043  1.00  0.00     0.281 C 
ATOM     10  C   UNL     1      15.890   7.567  20.418  1.00  0.00     0.041 C 
ATOM     11  C   UNL     1      15.989   6.638  21.655  1.00  0.00     0.150 C 
ATOM     12  C   UNL     1      15.174   5.334  21.563  1.00  0.00     0.174 C 
ATOM     13  O   UNL     1      15.570   7.389  22.784  1.00  0.00    -0.344 OA
ATOM     14  C   UNL     1      15.655   4.406  22.721  1.00  0.00     0.179 C 
ATOM     15  C   UNL     1      16.085   5.192  24.033  1.00  0.00     0.202 C 
BRANCH  12  16
ATOM     16  O   UNL     1      13.764   5.542  21.609  1.00  0.00    -0.388 OA
ATOM     17  H   UNL     1      13.577   6.493  21.809  1.00  0.00     0.211 HD
ENDBRANCH  12  16
BRANCH  14  18
ATOM     18  O   UNL     1      14.695   3.386  22.953  1.00  0.00    -0.387 OA
ATOM     19  H   UNL     1      14.909   2.615  22.414  1.00  0.00     0.211 HD
ENDBRANCH  14  18
BRANCH  15  20
ATOM     20  O   UNL     1      17.489   5.086  24.231  1.00  0.00    -0.385 OA
ATOM     21  H   UNL     1      17.622   4.956  25.210  1.00  0.00     0.211 HD
ENDBRANCH  15  20
ENDBRANCH   8   9
ENDBRANCH   7   8
ENDBRANCH   1   7
BRANCH   2  22
ATOM     22  O   UNL     1      12.009   5.430  24.037  1.00  0.00    -0.387 OA
ATOM     23  H   UNL     1      11.177   5.498  23.485  1.00  0.00     0.211 HD
ENDBRANCH   2  22
BRANCH   3  24
ATOM     24  O   UNL     1       9.149   5.125  25.929  1.00  0.00    -0.387 OA
ATOM     25  H   UNL     1       8.431   4.371  25.776  1.00  0.00     0.211 HD
ENDBRANCH   3  24
BRANCH   5  26
ATOM     26  O   UNL     1      10.721   5.976  28.430  1.00  0.00    -0.454 OA
BRANCH  26  27
ATOM     27  C   UNL     1      11.069   6.839  29.437  1.00  0.00     0.214 A 
ATOM     28  C   UNL     1      10.949   8.239  29.072  1.00  0.00     0.180 A 
ATOM     29  C   UNL     1      10.765   6.526  30.791  1.00  0.00     0.239 A 
ATOM     30  O   UNL     1      10.408   9.102  29.932  1.00  0.00    -0.452 OA
ATOM     31  C   UNL     1      10.149   7.526  31.620  1.00  0.00     0.111 A 
ATOM     32  O   UNL     1      10.705   5.327  31.157  1.00  0.00    -0.285 OA
ATOM     33  C   UNL     1       9.660   8.648  30.922  1.00  0.00     0.146 A 
ATOM     34  C   UNL     1       9.432   7.309  32.780  1.00  0.00     0.134 A 
ATOM     35  C   UNL     1       8.231   8.867  30.935  1.00  0.00     0.094 A 
ATOM     36  C   UNL     1       8.039   7.068  32.582  1.00  0.00     0.093 A 
ATOM     37  C   UNL     1       7.418   7.920  31.627  1.00  0.00     0.123 A 
BRANCH  28  38
ATOM     38  C   UNL     1      10.932   8.703  27.631  1.00  0.00     0.025 A 
ATOM     39  C   UNL     1       9.657   8.683  26.986  1.00  0.00     0.062 A 
ATOM     40  C   UNL     1      12.085   9.015  26.863  1.00  0.00     0.016 A 
ATOM     41  C   UNL     1       9.526   9.116  25.659  1.00  0.00     0.158 A 
ATOM     42  C   UNL     1      11.943   9.374  25.486  1.00  0.00     0.051 A 
ATOM     43  C   UNL     1      10.666   9.431  24.886  1.00  0.00     0.157 A 
BRANCH  41  44
ATOM     44  O   UNL     1       8.257   9.149  25.036  1.00  0.00    -0.504 OA
ATOM     45  H   UNL     1       7.815   8.278  24.681  1.00  0.00     0.293 HD
ENDBRANCH  41  44
BRANCH  43  46
ATOM     46  O   UNL     1      10.498   9.768  23.530  1.00  0.00    -0.504 OA
ATOM     47  H   UNL     1      11.211   9.505  22.843  1.00  0.00     0.293 HD
ENDBRANCH  43  46
ENDBRANCH  28  38
BRANCH  34  48
ATOM     48  O   UNL     1       9.758   8.303  33.773  1.00  0.00    -0.507 OA
ATOM     49  H   UNL     1      10.372   8.121  34.544  1.00  0.00     0.293 HD
ENDBRANCH  34  48
BRANCH  37  50
ATOM     50  O   UNL     1       6.077   7.779  31.298  1.00  0.00    -0.508 OA
ATOM     51  H   UNL     1       5.487   7.023  31.646  1.00  0.00     0.293 HD
ENDBRANCH  37  50
ENDBRANCH  26  27
ENDBRANCH   5  26
BRANCH   4  52
ATOM     52  O   UNL     1      11.675   2.705  26.734  1.00  0.00    -0.384 OA
ATOM     53  H   UNL     1      12.059   2.824  25.846  1.00  0.00     0.211 HD
ENDBRANCH   4  52
TORSDOF 16
ENDMDL
MODEL 9
REMARK VINA RESULT:    -7.566      1.910      4.653
REMARK INTER + INTRA:         -15.380
REMARK INTER:                 -11.839
REMARK INTRA:                  -3.541
REMARK UNBOUND:                -2.948
REMARK SMILES C[C@H]1O[C@@H](OC[C@@H]2O[C@@H](Oc3c(-c4ccc(O)c(O)c4)oc4cc(O)cc(O)c4c3=O)[C@H](O)[C@@H](O)[C@@H]2O)[C@H](O)[C@@H](O)[C@H]1O
REMARK SMILES IDX 7 1 36 2 34 3 32 4 9 5 8 6 6 7 5 8 4 9 1 10 2 11 42 12 3 13
REMARK SMILES IDX 40 14 38 15 43 16 41 18 39 20 37 22 35 24 10 26 11 27 12 28
REMARK SMILES IDX 30 29 21 30 29 31 31 32 22 33 27 34 23 35 26 36 24 37 13 38
REMARK SMILES IDX 20 39 14 40 18 41 15 42 16 43 19 44 17 46 28 48 25 50 33 52
REMARK H PARENT 43 17 41 19 39 21 37 23 35 25 19 45 17 47 28 49 25 51 33 53
REMARK Flexibility Score: inf
ROOT
ATOM      1  C   UNL     1      14.328  -6.418  25.913  1.00  0.00     0.180 C 
ATOM      2  C   UNL     1      15.844  -6.670  26.287  1.00  0.00     0.177 C 
ATOM      3  C   UNL     1      16.864  -5.503  26.063  1.00  0.00     0.180 C 
ATOM      4  C   UNL     1      16.209  -4.305  25.386  1.00  0.00     0.214 C 
ATOM      5  C   UNL     1      14.747  -4.063  25.898  1.00  0.00     0.339 C 
ATOM      6  O   UNL     1      13.957  -5.115  25.412  1.00  0.00    -0.332 OA
ENDROOT
BRANCH   1   7
ATOM      7  C   UNL     1      13.741  -7.484  24.904  1.00  0.00     0.198 C 
BRANCH   7   8
ATOM      8  O   UNL     1      14.475  -7.445  23.669  1.00  0.00    -0.347 OA
BRANCH   8   9
ATOM      9  C   UNL     1      13.690  -7.548  22.493  1.00  0.00     0.281 C 
ATOM     10  C   UNL     1      15.209  -7.292  19.087  1.00  0.00     0.041 C 
ATOM     11  C   UNL     1      14.283  -6.863  20.253  1.00  0.00     0.150 C 
ATOM     12  C   UNL     1      14.480  -5.418  20.751  1.00  0.00     0.174 C 
ATOM     13  O   UNL     1      14.495  -7.773  21.322  1.00  0.00    -0.344 OA
ATOM     14  C   UNL     1      13.266  -5.075  21.668  1.00  0.00     0.179 C 
ATOM     15  C   UNL     1      12.714  -6.318  22.489  1.00  0.00     0.202 C 
BRANCH  12  16
ATOM     16  O   UNL     1      15.720  -5.215  21.424  1.00  0.00    -0.388 OA
ATOM     17  H   UNL     1      16.277  -6.029  21.343  1.00  0.00     0.211 HD
ENDBRANCH  12  16
BRANCH  14  18
ATOM     18  O   UNL     1      13.573  -3.946  22.473  1.00  0.00    -0.387 OA
ATOM     19  H   UNL     1      14.374  -4.122  22.980  1.00  0.00     0.211 HD
ENDBRANCH  14  18
BRANCH  15  20
ATOM     20  O   UNL     1      11.426  -6.687  22.015  1.00  0.00    -0.385 OA
ATOM     21  H   UNL     1      11.418  -7.683  21.979  1.00  0.00     0.211 HD
ENDBRANCH  15  20
ENDBRANCH   8   9
ENDBRANCH   7   8
ENDBRANCH   1   7
BRANCH   2  22
ATOM     22  O   UNL     1      16.328  -7.888  25.690  1.00  0.00    -0.387 OA
ATOM     23  H   UNL     1      15.506  -8.306  25.300  1.00  0.00     0.211 HD
ENDBRANCH   2  22
BRANCH   3  24
ATOM     24  O   UNL     1      17.511  -5.059  27.256  1.00  0.00    -0.387 OA
ATOM     25  H   UNL     1      17.117  -5.573  28.086  1.00  0.00     0.211 HD
ENDBRANCH   3  24
BRANCH   5  26
ATOM     26  O   UNL     1      14.649  -3.947  27.396  1.00  0.00    -0.454 OA
BRANCH  26  27
ATOM     27  C   UNL     1      14.629  -2.741  28.046  1.00  0.00     0.214 A 
ATOM     28  C   UNL     1      13.339  -2.412  28.627  1.00  0.00     0.180 A 
ATOM     29  C   UNL     1      15.766  -2.299  28.779  1.00  0.00     0.239 A 
ATOM     30  O   UNL     1      13.280  -1.897  29.855  1.00  0.00    -0.452 OA
ATOM     31  C   UNL     1      15.587  -1.792  30.112  1.00  0.00     0.111 A 
ATOM     32  O   UNL     1      16.915  -2.660  28.428  1.00  0.00    -0.285 OA
ATOM     33  C   UNL     1      14.314  -2.033  30.666  1.00  0.00     0.146 A 
ATOM     34  C   UNL     1      16.550  -1.703  31.098  1.00  0.00     0.134 A 
ATOM     35  C   UNL     1      14.245  -2.902  31.820  1.00  0.00     0.094 A 
ATOM     36  C   UNL     1      16.690  -2.874  31.902  1.00  0.00     0.093 A 
ATOM     37  C   UNL     1      15.461  -3.474  32.297  1.00  0.00     0.123 A 
BRANCH  28  38
ATOM     38  C   UNL     1      12.052  -3.055  28.158  1.00  0.00     0.025 A 
ATOM     39  C   UNL     1      11.539  -4.099  28.989  1.00  0.00     0.062 A 
ATOM     40  C   UNL     1      11.416  -2.791  26.917  1.00  0.00     0.016 A 
ATOM     41  C   UNL     1      10.339  -4.744  28.659  1.00  0.00     0.158 A 
ATOM     42  C   UNL     1      10.238  -3.517  26.556  1.00  0.00     0.051 A 
ATOM     43  C   UNL     1       9.696  -4.488  27.427  1.00  0.00     0.157 A 
BRANCH  41  44
ATOM     44  O   UNL     1       9.801  -5.740  29.506  1.00  0.00    -0.504 OA
ATOM     45  H   UNL     1      10.386  -6.536  29.831  1.00  0.00     0.293 HD
ENDBRANCH  41  44
BRANCH  43  46
ATOM     46  O   UNL     1       8.547  -5.227  27.092  1.00  0.00    -0.504 OA
ATOM     47  H   UNL     1       7.622  -4.908  27.397  1.00  0.00     0.293 HD
ENDBRANCH  43  46
ENDBRANCH  28  38
BRANCH  34  48
ATOM     48  O   UNL     1      16.424  -0.462  31.821  1.00  0.00    -0.507 OA
ATOM     49  H   UNL     1      15.628  -0.242  32.390  1.00  0.00     0.293 HD
ENDBRANCH  34  48
BRANCH  37  50
ATOM     50  O   UNL     1      15.436  -4.642  33.046  1.00  0.00    -0.508 OA
ATOM     51  H   UNL     1      15.561  -4.666  34.058  1.00  0.00     0.293 HD
ENDBRANCH  37  50
ENDBRANCH  26  27
ENDBRANCH   5  26
BRANCH   4  52
ATOM     52  O   UNL     1      16.217  -4.450  23.964  1.00  0.00    -0.384 OA
ATOM     53  H   UNL     1      17.116  -4.276  23.630  1.00  0.00     0.211 HD
ENDBRANCH   4  52
TORSDOF 16
ENDMDL
