MODEL 1
REMARK VINA RESULT:    -6.031      0.000      0.000
REMARK INTER + INTRA:         -15.396
REMARK INTER:                 -13.787
REMARK INTRA:                  -1.609
REMARK UNBOUND:                -1.609
REMARK SMILES CCCCCCCCCCCCCCCCCCCCCCCC(=O)[O-]
REMARK SMILES IDX 13 1 14 2 15 3 16 4 17 5 18 6 19 7 20 8 21 9 22 10 23 11
REMARK SMILES IDX 24 12 25 13 26 14 12 15 11 16 10 17 9 18 8 19 7 20 6 21 5 22
REMARK SMILES IDX 4 23 3 24 2 25 1 26
REMARK H PARENT
REMARK Flexibility Score: inf
ROOT
ATOM      1  C   UNL     1     -18.437  23.954  -0.084  1.00  0.00     0.000 C 
ENDROOT
BRANCH   1   2
ATOM      2  C   UNL     1     -18.860  23.512  -1.496  1.00  0.00     0.000 C 
BRANCH   2   3
ATOM      3  C   UNL     1     -20.184  22.723  -1.569  1.00  0.00     0.000 C 
BRANCH   3   4
ATOM      4  C   UNL     1     -20.960  22.626  -0.244  1.00  0.00     0.000 C 
BRANCH   4   5
ATOM      5  C   UNL     1     -22.217  23.507  -0.224  1.00  0.00     0.000 C 
BRANCH   5   6
ATOM      6  C   UNL     1     -23.484  22.654  -0.067  1.00  0.00     0.000 C 
BRANCH   6   7
ATOM      7  C   UNL     1     -24.748  23.351  -0.600  1.00  0.00     0.000 C 
BRANCH   7   8
ATOM      8  C   UNL     1     -25.783  22.415  -1.251  1.00  0.00     0.000 C 
BRANCH   8   9
ATOM      9  C   UNL     1     -26.877  23.172  -2.017  1.00  0.00     0.000 C 
BRANCH   9  10
ATOM     10  C   UNL     1     -26.779  22.899  -3.526  1.00  0.00     0.006 C 
BRANCH  10  11
ATOM     11  C   UNL     1     -26.800  24.190  -4.353  1.00  0.00     0.053 C 
BRANCH  11  12
ATOM     12  C   UNL     1     -25.417  24.704  -4.613  1.00  0.00     0.041 C 
ATOM     13  O   UNL     1     -24.533  23.938  -5.079  1.00  0.00    -0.550 OA
ATOM     14  O   UNL     1     -25.097  26.021  -4.311  1.00  0.00    -0.550 OA
ENDBRANCH  11  12
ENDBRANCH  10  11
ENDBRANCH   9  10
ENDBRANCH   8   9
ENDBRANCH   7   8
ENDBRANCH   6   7
ENDBRANCH   5   6
ENDBRANCH   4   5
ENDBRANCH   3   4
ENDBRANCH   2   3
ENDBRANCH   1   2
BRANCH   1  15
ATOM     15  C   UNL     1     -18.612  25.464   0.145  1.00  0.00     0.000 C 
BRANCH  15  16
ATOM     16  C   UNL     1     -17.502  26.302  -0.516  1.00  0.00     0.000 C 
BRANCH  16  17
ATOM     17  C   UNL     1     -16.517  26.981   0.457  1.00  0.00     0.000 C 
BRANCH  17  18
ATOM     18  C   UNL     1     -16.205  28.456   0.147  1.00  0.00    -0.000 C 
BRANCH  18  19
ATOM     19  C   UNL     1     -16.256  29.350   1.398  1.00  0.00    -0.000 C 
BRANCH  19  20
ATOM     20  C   UNL     1     -15.614  30.728   1.168  1.00  0.00    -0.000 C 
BRANCH  20  21
ATOM     21  C   UNL     1     -16.606  31.882   1.384  1.00  0.00    -0.000 C 
BRANCH  21  22
ATOM     22  C   UNL     1     -16.240  33.142   0.583  1.00  0.00    -0.000 C 
BRANCH  22  23
ATOM     23  C   UNL     1     -17.040  33.295  -0.729  1.00  0.00    -0.000 C 
BRANCH  23  24
ATOM     24  C   UNL     1     -18.234  32.327  -0.794  1.00  0.00    -0.000 C 
BRANCH  24  25
ATOM     25  C   UNL     1     -18.178  31.401  -2.019  1.00  0.00    -0.003 C 
ATOM     26  C   UNL     1     -18.903  30.075  -1.793  1.00  0.00     0.004 C 
ENDBRANCH  24  25
ENDBRANCH  23  24
ENDBRANCH  22  23
ENDBRANCH  21  22
ENDBRANCH  20  21
ENDBRANCH  19  20
ENDBRANCH  18  19
ENDBRANCH  17  18
ENDBRANCH  16  17
ENDBRANCH  15  16
ENDBRANCH   1  15
TORSDOF 22
ENDMDL
MODEL 2
REMARK VINA RESULT:    -6.002      0.871      1.713
REMARK INTER + INTRA:         -15.330
REMARK INTER:                 -13.753
REMARK INTRA:                  -1.576
REMARK UNBOUND:                -1.609
REMARK SMILES CCCCCCCCCCCCCCCCCCCCCCCC(=O)[O-]
REMARK SMILES IDX 13 1 14 2 15 3 16 4 17 5 18 6 19 7 20 8 21 9 22 10 23 11
REMARK SMILES IDX 24 12 25 13 26 14 12 15 11 16 10 17 9 18 8 19 7 20 6 21 5 22
REMARK SMILES IDX 4 23 3 24 2 25 1 26
REMARK H PARENT
REMARK Flexibility Score: inf
ROOT
ATOM      1  C   UNL     1     -18.440  23.490  -0.646  1.00  0.00     0.000 C 
ENDROOT
BRANCH   1   2
ATOM      2  C   UNL     1     -19.168  23.071  -1.936  1.00  0.00     0.000 C 
BRANCH   2   3
ATOM      3  C   UNL     1     -20.544  22.405  -1.727  1.00  0.00     0.000 C 
BRANCH   3   4
ATOM      4  C   UNL     1     -20.614  21.402  -0.562  1.00  0.00     0.000 C 
BRANCH   4   5
ATOM      5  C   UNL     1     -21.879  21.569   0.292  1.00  0.00     0.000 C 
BRANCH   5   6
ATOM      6  C   UNL     1     -22.621  22.864  -0.069  1.00  0.00     0.000 C 
BRANCH   6   7
ATOM      7  C   UNL     1     -24.151  22.712  -0.026  1.00  0.00     0.000 C 
BRANCH   7   8
ATOM      8  C   UNL     1     -24.924  23.625  -0.995  1.00  0.00     0.000 C 
BRANCH   8   9
ATOM      9  C   UNL     1     -26.100  22.913  -1.679  1.00  0.00     0.000 C 
BRANCH   9  10
ATOM     10  C   UNL     1     -26.929  23.901  -2.513  1.00  0.00     0.006 C 
BRANCH  10  11
ATOM     11  C   UNL     1     -26.742  23.689  -4.020  1.00  0.00     0.053 C 
BRANCH  11  12
ATOM     12  C   UNL     1     -25.524  24.395  -4.533  1.00  0.00     0.041 C 
ATOM     13  O   UNL     1     -24.649  23.761  -5.179  1.00  0.00    -0.550 OA
ATOM     14  O   UNL     1     -25.341  25.745  -4.267  1.00  0.00    -0.550 OA
ENDBRANCH  11  12
ENDBRANCH  10  11
ENDBRANCH   9  10
ENDBRANCH   8   9
ENDBRANCH   7   8
ENDBRANCH   6   7
ENDBRANCH   5   6
ENDBRANCH   4   5
ENDBRANCH   3   4
ENDBRANCH   2   3
ENDBRANCH   1   2
BRANCH   1  15
ATOM     15  C   UNL     1     -19.252  24.484   0.199  1.00  0.00     0.000 C 
BRANCH  15  16
ATOM     16  C   UNL     1     -18.500  25.803   0.459  1.00  0.00     0.000 C 
BRANCH  16  17
ATOM     17  C   UNL     1     -17.395  25.733   1.533  1.00  0.00     0.000 C 
BRANCH  17  18
ATOM     18  C   UNL     1     -16.294  26.802   1.407  1.00  0.00    -0.000 C 
BRANCH  18  19
ATOM     19  C   UNL     1     -16.158  27.351  -0.024  1.00  0.00    -0.000 C 
BRANCH  19  20
ATOM     20  C   UNL     1     -16.406  28.866  -0.103  1.00  0.00    -0.000 C 
BRANCH  20  21
ATOM     21  C   UNL     1     -16.322  29.547   1.273  1.00  0.00    -0.000 C 
BRANCH  21  22
ATOM     22  C   UNL     1     -15.681  30.943   1.209  1.00  0.00    -0.000 C 
BRANCH  22  23
ATOM     23  C   UNL     1     -16.688  32.096   1.409  1.00  0.00    -0.000 C 
BRANCH  23  24
ATOM     24  C   UNL     1     -16.281  33.360   0.632  1.00  0.00    -0.000 C 
BRANCH  24  25
ATOM     25  C   UNL     1     -16.988  33.470  -0.728  1.00  0.00    -0.003 C 
ATOM     26  C   UNL     1     -18.060  32.400  -0.927  1.00  0.00     0.004 C 
ENDBRANCH  24  25
ENDBRANCH  23  24
ENDBRANCH  22  23
ENDBRANCH  21  22
ENDBRANCH  20  21
ENDBRANCH  19  20
ENDBRANCH  18  19
ENDBRANCH  17  18
ENDBRANCH  16  17
ENDBRANCH  15  16
ENDBRANCH   1  15
TORSDOF 22
ENDMDL
MODEL 3
REMARK VINA RESULT:    -5.989      0.886      2.071
REMARK INTER + INTRA:         -15.299
REMARK INTER:                 -13.671
REMARK INTRA:                  -1.628
REMARK UNBOUND:                -1.609
REMARK SMILES CCCCCCCCCCCCCCCCCCCCCCCC(=O)[O-]
REMARK SMILES IDX 13 1 14 2 15 3 16 4 17 5 18 6 19 7 20 8 21 9 22 10 23 11
REMARK SMILES IDX 24 12 25 13 26 14 12 15 11 16 10 17 9 18 8 19 7 20 6 21 5 22
REMARK SMILES IDX 4 23 3 24 2 25 1 26
REMARK H PARENT
REMARK Flexibility Score: inf
ROOT
ATOM      1  C   UNL     1     -17.691  25.779   1.239  1.00  0.00     0.000 C 
ENDROOT
BRANCH   1   2
ATOM      2  C   UNL     1     -18.753  24.892   0.565  1.00  0.00     0.000 C 
BRANCH   2   3
ATOM      3  C   UNL     1     -18.319  24.246  -0.767  1.00  0.00     0.000 C 
BRANCH   3   4
ATOM      4  C   UNL     1     -19.176  23.051  -1.223  1.00  0.00     0.000 C 
BRANCH   4   5
ATOM      5  C   UNL     1     -19.925  22.379  -0.063  1.00  0.00     0.000 C 
BRANCH   5   6
ATOM      6  C   UNL     1     -21.150  21.607  -0.573  1.00  0.00     0.000 C 
BRANCH   6   7
ATOM      7  C   UNL     1     -22.456  22.021   0.126  1.00  0.00     0.000 C 
BRANCH   7   8
ATOM      8  C   UNL     1     -23.105  23.307  -0.417  1.00  0.00     0.000 C 
BRANCH   8   9
ATOM      9  C   UNL     1     -24.614  23.160  -0.659  1.00  0.00     0.000 C 
BRANCH   9  10
ATOM     10  C   UNL     1     -25.184  24.408  -1.349  1.00  0.00     0.006 C 
BRANCH  10  11
ATOM     11  C   UNL     1     -26.215  24.055  -2.429  1.00  0.00     0.053 C 
BRANCH  11  12
ATOM     12  C   UNL     1     -25.684  24.308  -3.806  1.00  0.00     0.041 C 
ATOM     13  O   UNL     1     -25.528  23.352  -4.611  1.00  0.00    -0.550 OA
ATOM     14  O   UNL     1     -25.330  25.595  -4.189  1.00  0.00    -0.550 OA
ENDBRANCH  11  12
ENDBRANCH  10  11
ENDBRANCH   9  10
ENDBRANCH   8   9
ENDBRANCH   7   8
ENDBRANCH   6   7
ENDBRANCH   5   6
ENDBRANCH   4   5
ENDBRANCH   3   4
ENDBRANCH   2   3
ENDBRANCH   1   2
BRANCH   1  15
ATOM     15  C   UNL     1     -16.798  26.513   0.227  1.00  0.00     0.000 C 
BRANCH  15  16
ATOM     16  C   UNL     1     -16.558  27.989   0.599  1.00  0.00     0.000 C 
BRANCH  16  17
ATOM     17  C   UNL     1     -16.253  28.254   2.087  1.00  0.00     0.000 C 
BRANCH  17  18
ATOM     18  C   UNL     1     -16.096  29.737   2.467  1.00  0.00    -0.000 C 
BRANCH  18  19
ATOM     19  C   UNL     1     -15.897  30.647   1.243  1.00  0.00    -0.000 C 
BRANCH  19  20
ATOM     20  C   UNL     1     -16.600  32.006   1.394  1.00  0.00    -0.000 C 
BRANCH  20  21
ATOM     21  C   UNL     1     -16.010  33.079   0.465  1.00  0.00    -0.000 C 
BRANCH  21  22
ATOM     22  C   UNL     1     -16.983  33.508  -0.645  1.00  0.00    -0.000 C 
BRANCH  22  23
ATOM     23  C   UNL     1     -18.236  32.612  -0.749  1.00  0.00    -0.000 C 
BRANCH  23  24
ATOM     24  C   UNL     1     -18.211  31.727  -2.008  1.00  0.00    -0.000 C 
BRANCH  24  25
ATOM     25  C   UNL     1     -18.267  30.228  -1.677  1.00  0.00    -0.003 C 
ATOM     26  C   UNL     1     -19.618  29.598  -2.013  1.00  0.00     0.004 C 
ENDBRANCH  24  25
ENDBRANCH  23  24
ENDBRANCH  22  23
ENDBRANCH  21  22
ENDBRANCH  20  21
ENDBRANCH  19  20
ENDBRANCH  18  19
ENDBRANCH  17  18
ENDBRANCH  16  17
ENDBRANCH  15  16
ENDBRANCH   1  15
TORSDOF 22
ENDMDL
MODEL 4
REMARK VINA RESULT:    -5.742      3.234      6.300
REMARK INTER + INTRA:         -14.736
REMARK INTER:                 -12.637
REMARK INTRA:                  -2.099
REMARK UNBOUND:                -1.609
REMARK SMILES CCCCCCCCCCCCCCCCCCCCCCCC(=O)[O-]
REMARK SMILES IDX 13 1 14 2 15 3 16 4 17 5 18 6 19 7 20 8 21 9 22 10 23 11
REMARK SMILES IDX 24 12 25 13 26 14 12 15 11 16 10 17 9 18 8 19 7 20 6 21 5 22
REMARK SMILES IDX 4 23 3 24 2 25 1 26
REMARK H PARENT
REMARK Flexibility Score: inf
ROOT
ATOM      1  C   UNL     1     -18.607  29.998  -1.761  1.00  0.00     0.000 C 
ENDROOT
BRANCH   1   2
ATOM      2  C   UNL     1     -17.618  29.369  -0.764  1.00  0.00     0.000 C 
BRANCH   2   3
ATOM      3  C   UNL     1     -17.738  27.841  -0.594  1.00  0.00     0.000 C 
BRANCH   3   4
ATOM      4  C   UNL     1     -16.653  27.195   0.285  1.00  0.00     0.000 C 
BRANCH   4   5
ATOM      5  C   UNL     1     -16.928  25.713   0.579  1.00  0.00     0.000 C 
BRANCH   5   6
ATOM      6  C   UNL     1     -18.423  25.470   0.830  1.00  0.00     0.000 C 
BRANCH   6   7
ATOM      7  C   UNL     1     -18.882  24.063   0.409  1.00  0.00     0.000 C 
BRANCH   7   8
ATOM      8  C   UNL     1     -18.749  23.757  -1.093  1.00  0.00     0.000 C 
BRANCH   8   9
ATOM      9  C   UNL     1     -18.627  22.255  -1.390  1.00  0.00     0.000 C 
BRANCH   9  10
ATOM     10  C   UNL     1     -19.424  21.427  -0.372  1.00  0.00     0.006 C 
BRANCH  10  11
ATOM     11  C   UNL     1     -20.799  21.014  -0.908  1.00  0.00     0.053 C 
BRANCH  11  12
ATOM     12  C   UNL     1     -21.912  21.596  -0.092  1.00  0.00     0.041 C 
ATOM     13  O   UNL     1     -23.077  21.664  -0.564  1.00  0.00    -0.550 OA
ATOM     14  O   UNL     1     -21.654  22.095   1.178  1.00  0.00    -0.550 OA
ENDBRANCH  11  12
ENDBRANCH  10  11
ENDBRANCH   9  10
ENDBRANCH   8   9
ENDBRANCH   7   8
ENDBRANCH   6   7
ENDBRANCH   5   6
ENDBRANCH   4   5
ENDBRANCH   3   4
ENDBRANCH   2   3
ENDBRANCH   1   2
BRANCH   1  15
ATOM     15  C   UNL     1     -18.341  31.492  -2.002  1.00  0.00     0.000 C 
BRANCH  15  16
ATOM     16  C   UNL     1     -18.221  32.298  -0.695  1.00  0.00     0.000 C 
BRANCH  16  17
ATOM     17  C   UNL     1     -17.066  33.319  -0.651  1.00  0.00     0.000 C 
BRANCH  17  18
ATOM     18  C   UNL     1     -16.091  33.151   0.529  1.00  0.00    -0.000 C 
BRANCH  18  19
ATOM     19  C   UNL     1     -16.496  32.009   1.477  1.00  0.00    -0.000 C 
BRANCH  19  20
ATOM     20  C   UNL     1     -15.603  30.767   1.324  1.00  0.00    -0.000 C 
BRANCH  20  21
ATOM     21  C   UNL     1     -15.156  30.195   2.679  1.00  0.00    -0.000 C 
BRANCH  21  22
ATOM     22  C   UNL     1     -16.245  29.346   3.356  1.00  0.00    -0.000 C 
BRANCH  22  23
ATOM     23  C   UNL     1     -16.320  29.542   4.886  1.00  0.00    -0.000 C 
BRANCH  23  24
ATOM     24  C   UNL     1     -15.278  30.555   5.391  1.00  0.00    -0.000 C 
BRANCH  24  25
ATOM     25  C   UNL     1     -15.901  31.911   5.758  1.00  0.00    -0.003 C 
ATOM     26  C   UNL     1     -17.381  31.802   6.122  1.00  0.00     0.004 C 
ENDBRANCH  24  25
ENDBRANCH  23  24
ENDBRANCH  22  23
ENDBRANCH  21  22
ENDBRANCH  20  21
ENDBRANCH  19  20
ENDBRANCH  18  19
ENDBRANCH  17  18
ENDBRANCH  16  17
ENDBRANCH  15  16
ENDBRANCH   1  15
TORSDOF 22
ENDMDL
MODEL 5
REMARK VINA RESULT:    -5.682      4.076     10.522
REMARK INTER + INTRA:         -14.599
REMARK INTER:                 -12.858
REMARK INTRA:                  -1.741
REMARK UNBOUND:                -1.609
REMARK SMILES CCCCCCCCCCCCCCCCCCCCCCCC(=O)[O-]
REMARK SMILES IDX 13 1 14 2 15 3 16 4 17 5 18 6 19 7 20 8 21 9 22 10 23 11
REMARK SMILES IDX 24 12 25 13 26 14 12 15 11 16 10 17 9 18 8 19 7 20 6 21 5 22
REMARK SMILES IDX 4 23 3 24 2 25 1 26
REMARK H PARENT
REMARK Flexibility Score: inf
ROOT
ATOM      1  C   UNL     1     -18.486  28.835  -1.330  1.00  0.00     0.000 C 
ENDROOT
BRANCH   1   2
ATOM      2  C   UNL     1     -19.077  30.169  -1.820  1.00  0.00     0.000 C 
BRANCH   2   3
ATOM      3  C   UNL     1     -18.085  31.349  -1.869  1.00  0.00     0.000 C 
BRANCH   3   4
ATOM      4  C   UNL     1     -18.187  32.336  -0.692  1.00  0.00     0.000 C 
BRANCH   4   5
ATOM      5  C   UNL     1     -17.056  33.375  -0.687  1.00  0.00     0.000 C 
BRANCH   5   6
ATOM      6  C   UNL     1     -16.209  33.261   0.589  1.00  0.00     0.000 C 
BRANCH   6   7
ATOM      7  C   UNL     1     -16.571  32.032   1.442  1.00  0.00     0.000 C 
BRANCH   7   8
ATOM      8  C   UNL     1     -15.452  30.985   1.584  1.00  0.00     0.000 C 
BRANCH   8   9
ATOM      9  C   UNL     1     -15.777  29.897   2.617  1.00  0.00     0.000 C 
BRANCH   9  10
ATOM     10  C   UNL     1     -15.621  30.435   4.048  1.00  0.00     0.006 C 
BRANCH  10  11
ATOM     11  C   UNL     1     -16.424  29.617   5.066  1.00  0.00     0.053 C 
BRANCH  11  12
ATOM     12  C   UNL     1     -17.592  30.388   5.599  1.00  0.00     0.041 C 
ATOM     13  O   UNL     1     -18.722  29.841   5.697  1.00  0.00    -0.550 OA
ATOM     14  O   UNL     1     -17.440  31.722   5.955  1.00  0.00    -0.550 OA
ENDBRANCH  11  12
ENDBRANCH  10  11
ENDBRANCH   9  10
ENDBRANCH   8   9
ENDBRANCH   7   8
ENDBRANCH   6   7
ENDBRANCH   5   6
ENDBRANCH   4   5
ENDBRANCH   3   4
ENDBRANCH   2   3
ENDBRANCH   1   2
BRANCH   1  15
ATOM     15  C   UNL     1     -17.201  29.020  -0.507  1.00  0.00     0.000 C 
BRANCH  15  16
ATOM     16  C   UNL     1     -16.397  27.716  -0.349  1.00  0.00     0.000 C 
BRANCH  16  17
ATOM     17  C   UNL     1     -16.717  26.890   0.913  1.00  0.00     0.000 C 
BRANCH  17  18
ATOM     18  C   UNL     1     -17.175  25.444   0.649  1.00  0.00    -0.000 C 
BRANCH  18  19
ATOM     19  C   UNL     1     -18.707  25.300   0.628  1.00  0.00    -0.000 C 
BRANCH  19  20
ATOM     20  C   UNL     1     -19.163  23.848   0.415  1.00  0.00    -0.000 C 
BRANCH  20  21
ATOM     21  C   UNL     1     -18.889  23.350  -1.013  1.00  0.00    -0.000 C 
BRANCH  21  22
ATOM     22  C   UNL     1     -20.128  22.725  -1.675  1.00  0.00    -0.000 C 
BRANCH  22  23
ATOM     23  C   UNL     1     -20.679  21.496  -0.921  1.00  0.00    -0.000 C 
BRANCH  23  24
ATOM     24  C   UNL     1     -21.893  21.851  -0.046  1.00  0.00    -0.000 C 
BRANCH  24  25
ATOM     25  C   UNL     1     -22.603  23.132  -0.512  1.00  0.00    -0.003 C 
ATOM     26  C   UNL     1     -24.107  23.107  -0.243  1.00  0.00     0.004 C 
ENDBRANCH  24  25
ENDBRANCH  23  24
ENDBRANCH  22  23
ENDBRANCH  21  22
ENDBRANCH  20  21
ENDBRANCH  19  20
ENDBRANCH  18  19
ENDBRANCH  17  18
ENDBRANCH  16  17
ENDBRANCH  15  16
ENDBRANCH   1  15
TORSDOF 22
ENDMDL
MODEL 6
REMARK VINA RESULT:    -5.680      1.170      3.047
REMARK INTER + INTRA:         -14.595
REMARK INTER:                 -12.928
REMARK INTRA:                  -1.667
REMARK UNBOUND:                -1.609
REMARK SMILES CCCCCCCCCCCCCCCCCCCCCCCC(=O)[O-]
REMARK SMILES IDX 13 1 14 2 15 3 16 4 17 5 18 6 19 7 20 8 21 9 22 10 23 11
REMARK SMILES IDX 24 12 25 13 26 14 12 15 11 16 10 17 9 18 8 19 7 20 6 21 5 22
REMARK SMILES IDX 4 23 3 24 2 25 1 26
REMARK H PARENT
REMARK Flexibility Score: inf
ROOT
ATOM      1  C   UNL     1     -17.829  25.687   0.967  1.00  0.00     0.000 C 
ENDROOT
BRANCH   1   2
ATOM      2  C   UNL     1     -17.601  24.673  -0.169  1.00  0.00     0.000 C 
BRANCH   2   3
ATOM      3  C   UNL     1     -18.879  24.197  -0.890  1.00  0.00     0.000 C 
BRANCH   3   4
ATOM      4  C   UNL     1     -19.010  22.671  -1.044  1.00  0.00     0.000 C 
BRANCH   4   5
ATOM      5  C   UNL     1     -20.363  22.246  -1.633  1.00  0.00     0.000 C 
BRANCH   5   6
ATOM      6  C   UNL     1     -21.268  21.639  -0.552  1.00  0.00     0.000 C 
BRANCH   6   7
ATOM      7  C   UNL     1     -22.093  22.696   0.204  1.00  0.00     0.000 C 
BRANCH   7   8
ATOM      8  C   UNL     1     -23.215  23.356  -0.619  1.00  0.00     0.000 C 
BRANCH   8   9
ATOM      9  C   UNL     1     -24.620  22.948  -0.152  1.00  0.00     0.000 C 
BRANCH   9  10
ATOM     10  C   UNL     1     -25.646  23.127  -1.280  1.00  0.00     0.006 C 
BRANCH  10  11
ATOM     11  C   UNL     1     -25.274  24.272  -2.229  1.00  0.00     0.053 C 
BRANCH  11  12
ATOM     12  C   UNL     1     -25.855  24.071  -3.595  1.00  0.00     0.041 C 
ATOM     13  O   UNL     1     -26.218  25.062  -4.282  1.00  0.00    -0.550 OA
ATOM     14  O   UNL     1     -26.026  22.787  -4.095  1.00  0.00    -0.550 OA
ENDBRANCH  11  12
ENDBRANCH  10  11
ENDBRANCH   9  10
ENDBRANCH   8   9
ENDBRANCH   7   8
ENDBRANCH   6   7
ENDBRANCH   5   6
ENDBRANCH   4   5
ENDBRANCH   3   4
ENDBRANCH   2   3
ENDBRANCH   1   2
BRANCH   1  15
ATOM     15  C   UNL     1     -17.180  27.051   0.686  1.00  0.00     0.000 C 
BRANCH  15  16
ATOM     16  C   UNL     1     -17.680  27.695  -0.621  1.00  0.00     0.000 C 
BRANCH  16  17
ATOM     17  C   UNL     1     -17.620  29.235  -0.665  1.00  0.00     0.000 C 
BRANCH  17  18
ATOM     18  C   UNL     1     -18.600  29.899  -1.649  1.00  0.00    -0.000 C 
BRANCH  18  19
ATOM     19  C   UNL     1     -18.188  31.335  -2.020  1.00  0.00    -0.000 C 
BRANCH  19  20
ATOM     20  C   UNL     1     -18.226  32.291  -0.816  1.00  0.00    -0.000 C 
BRANCH  20  21
ATOM     21  C   UNL     1     -17.028  33.254  -0.793  1.00  0.00    -0.000 C 
BRANCH  21  22
ATOM     22  C   UNL     1     -16.306  33.275   0.565  1.00  0.00    -0.000 C 
BRANCH  22  23
ATOM     23  C   UNL     1     -16.627  32.056   1.456  1.00  0.00    -0.000 C 
BRANCH  23  24
ATOM     24  C   UNL     1     -15.506  31.003   1.421  1.00  0.00    -0.000 C 
BRANCH  24  25
ATOM     25  C   UNL     1     -15.703  29.895   2.467  1.00  0.00    -0.003 C 
ATOM     26  C   UNL     1     -15.974  30.443   3.866  1.00  0.00     0.004 C 
ENDBRANCH  24  25
ENDBRANCH  23  24
ENDBRANCH  22  23
ENDBRANCH  21  22
ENDBRANCH  20  21
ENDBRANCH  19  20
ENDBRANCH  18  19
ENDBRANCH  17  18
ENDBRANCH  16  17
ENDBRANCH  15  16
ENDBRANCH   1  15
TORSDOF 22
ENDMDL
MODEL 7
REMARK VINA RESULT:    -5.663      2.544     10.023
REMARK INTER + INTRA:         -14.554
REMARK INTER:                 -13.146
REMARK INTRA:                  -1.408
REMARK UNBOUND:                -1.609
REMARK SMILES CCCCCCCCCCCCCCCCCCCCCCCC(=O)[O-]
REMARK SMILES IDX 13 1 14 2 15 3 16 4 17 5 18 6 19 7 20 8 21 9 22 10 23 11
REMARK SMILES IDX 24 12 25 13 26 14 12 15 11 16 10 17 9 18 8 19 7 20 6 21 5 22
REMARK SMILES IDX 4 23 3 24 2 25 1 26
REMARK H PARENT
REMARK Flexibility Score: inf
ROOT
ATOM      1  C   UNL     1     -18.792  24.609   0.729  1.00  0.00     0.000 C 
ENDROOT
BRANCH   1   2
ATOM      2  C   UNL     1     -17.783  25.548   1.415  1.00  0.00     0.000 C 
BRANCH   2   3
ATOM      3  C   UNL     1     -16.702  26.141   0.488  1.00  0.00     0.000 C 
BRANCH   3   4
ATOM      4  C   UNL     1     -17.062  27.491  -0.156  1.00  0.00     0.000 C 
BRANCH   4   5
ATOM      5  C   UNL     1     -16.116  28.624   0.267  1.00  0.00     0.000 C 
BRANCH   5   6
ATOM      6  C   UNL     1     -16.146  28.827   1.789  1.00  0.00     0.000 C 
BRANCH   6   7
ATOM      7  C   UNL     1     -16.116  30.310   2.198  1.00  0.00     0.000 C 
BRANCH   7   8
ATOM      8  C   UNL     1     -15.783  31.292   1.061  1.00  0.00     0.000 C 
BRANCH   8   9
ATOM      9  C   UNL     1     -16.794  32.442   0.947  1.00  0.00     0.000 C 
BRANCH   9  10
ATOM     10  C   UNL     1     -16.984  32.863  -0.517  1.00  0.00     0.006 C 
BRANCH  10  11
ATOM     11  C   UNL     1     -18.390  32.539  -1.037  1.00  0.00     0.053 C 
BRANCH  11  12
ATOM     12  C   UNL     1     -18.403  31.285  -1.857  1.00  0.00     0.041 C 
ATOM     13  O   UNL     1     -18.677  30.179  -1.320  1.00  0.00    -0.550 OA
ATOM     14  O   UNL     1     -18.079  31.334  -3.206  1.00  0.00    -0.550 OA
ENDBRANCH  11  12
ENDBRANCH  10  11
ENDBRANCH   9  10
ENDBRANCH   8   9
ENDBRANCH   7   8
ENDBRANCH   6   7
ENDBRANCH   5   6
ENDBRANCH   4   5
ENDBRANCH   3   4
ENDBRANCH   2   3
ENDBRANCH   1   2
BRANCH   1  15
ATOM     15  C   UNL     1     -18.339  24.171  -0.673  1.00  0.00     0.000 C 
BRANCH  15  16
ATOM     16  C   UNL     1     -18.816  22.754  -1.042  1.00  0.00     0.000 C 
BRANCH  16  17
ATOM     17  C   UNL     1     -20.203  22.677  -1.712  1.00  0.00     0.000 C 
BRANCH  17  18
ATOM     18  C   UNL     1     -21.299  21.998  -0.871  1.00  0.00    -0.000 C 
BRANCH  18  19
ATOM     19  C   UNL     1     -22.125  23.003  -0.048  1.00  0.00    -0.000 C 
BRANCH  19  20
ATOM     20  C   UNL     1     -23.581  22.552   0.148  1.00  0.00    -0.000 C 
BRANCH  20  21
ATOM     21  C   UNL     1     -24.558  23.308  -0.768  1.00  0.00    -0.000 C 
BRANCH  21  22
ATOM     22  C   UNL     1     -25.925  22.614  -0.885  1.00  0.00    -0.000 C 
BRANCH  22  23
ATOM     23  C   UNL     1     -26.384  22.395  -2.343  1.00  0.00    -0.000 C 
BRANCH  23  24
ATOM     24  C   UNL     1     -26.724  23.719  -3.047  1.00  0.00    -0.000 C 
BRANCH  24  25
ATOM     25  C   UNL     1     -26.085  23.830  -4.440  1.00  0.00    -0.003 C 
ATOM     26  C   UNL     1     -25.259  25.103  -4.613  1.00  0.00     0.004 C 
ENDBRANCH  24  25
ENDBRANCH  23  24
ENDBRANCH  22  23
ENDBRANCH  21  22
ENDBRANCH  20  21
ENDBRANCH  19  20
ENDBRANCH  18  19
ENDBRANCH  17  18
ENDBRANCH  16  17
ENDBRANCH  15  16
ENDBRANCH   1  15
TORSDOF 22
ENDMDL
MODEL 8
REMARK VINA RESULT:    -5.506      2.090      5.007
REMARK INTER + INTRA:         -14.196
REMARK INTER:                 -12.380
REMARK INTRA:                  -1.817
REMARK UNBOUND:                -1.609
REMARK SMILES CCCCCCCCCCCCCCCCCCCCCCCC(=O)[O-]
REMARK SMILES IDX 13 1 14 2 15 3 16 4 17 5 18 6 19 7 20 8 21 9 22 10 23 11
REMARK SMILES IDX 24 12 25 13 26 14 12 15 11 16 10 17 9 18 8 19 7 20 6 21 5 22
REMARK SMILES IDX 4 23 3 24 2 25 1 26
REMARK H PARENT
REMARK Flexibility Score: inf
ROOT
ATOM      1  C   UNL     1     -17.883  27.815  -0.620  1.00  0.00     0.000 C 
ENDROOT
BRANCH   1   2
ATOM      2  C   UNL     1     -16.681  27.003  -0.105  1.00  0.00     0.000 C 
BRANCH   2   3
ATOM      3  C   UNL     1     -17.039  25.744   0.710  1.00  0.00     0.000 C 
BRANCH   3   4
ATOM      4  C   UNL     1     -18.402  25.113   0.372  1.00  0.00     0.000 C 
BRANCH   4   5
ATOM      5  C   UNL     1     -18.428  24.464  -1.020  1.00  0.00     0.000 C 
BRANCH   5   6
ATOM      6  C   UNL     1     -18.602  22.942  -0.915  1.00  0.00     0.000 C 
BRANCH   6   7
ATOM      7  C   UNL     1     -19.688  22.395  -1.857  1.00  0.00     0.000 C 
BRANCH   7   8
ATOM      8  C   UNL     1     -20.665  21.394  -1.213  1.00  0.00     0.000 C 
BRANCH   8   9
ATOM      9  C   UNL     1     -20.820  21.599   0.301  1.00  0.00     0.000 C 
BRANCH   9  10
ATOM     10  C   UNL     1     -22.218  22.136   0.641  1.00  0.00     0.006 C 
BRANCH  10  11
ATOM     11  C   UNL     1     -22.659  23.254  -0.312  1.00  0.00     0.053 C 
BRANCH  11  12
ATOM     12  C   UNL     1     -24.104  23.127  -0.684  1.00  0.00     0.041 C 
ATOM     13  O   UNL     1     -24.785  24.155  -0.940  1.00  0.00    -0.550 OA
ATOM     14  O   UNL     1     -24.707  21.876  -0.714  1.00  0.00    -0.550 OA
ENDBRANCH  11  12
ENDBRANCH  10  11
ENDBRANCH   9  10
ENDBRANCH   8   9
ENDBRANCH   7   8
ENDBRANCH   6   7
ENDBRANCH   5   6
ENDBRANCH   4   5
ENDBRANCH   3   4
ENDBRANCH   2   3
ENDBRANCH   1   2
BRANCH   1  15
ATOM     15  C   UNL     1     -17.563  29.308  -0.794  1.00  0.00     0.000 C 
BRANCH  15  16
ATOM     16  C   UNL     1     -18.548  30.027  -1.735  1.00  0.00     0.000 C 
BRANCH  16  17
ATOM     17  C   UNL     1     -18.255  31.520  -1.983  1.00  0.00     0.000 C 
BRANCH  17  18
ATOM     18  C   UNL     1     -18.225  32.399  -0.720  1.00  0.00    -0.000 C 
BRANCH  18  19
ATOM     19  C   UNL     1     -16.998  33.326  -0.669  1.00  0.00    -0.000 C 
BRANCH  19  20
ATOM     20  C   UNL     1     -16.092  33.043   0.540  1.00  0.00    -0.000 C 
BRANCH  20  21
ATOM     21  C   UNL     1     -16.590  31.857   1.381  1.00  0.00    -0.000 C 
BRANCH  21  22
ATOM     22  C   UNL     1     -15.448  30.945   1.862  1.00  0.00    -0.000 C 
BRANCH  22  23
ATOM     23  C   UNL     1     -15.922  29.549   2.319  1.00  0.00    -0.000 C 
BRANCH  23  24
ATOM     24  C   UNL     1     -16.237  29.510   3.825  1.00  0.00    -0.000 C 
BRANCH  24  25
ATOM     25  C   UNL     1     -15.532  30.630   4.605  1.00  0.00    -0.003 C 
ATOM     26  C   UNL     1     -14.400  30.112   5.491  1.00  0.00     0.004 C 
ENDBRANCH  24  25
ENDBRANCH  23  24
ENDBRANCH  22  23
ENDBRANCH  21  22
ENDBRANCH  20  21
ENDBRANCH  19  20
ENDBRANCH  18  19
ENDBRANCH  17  18
ENDBRANCH  16  17
ENDBRANCH  15  16
ENDBRANCH   1  15
TORSDOF 22
ENDMDL
MODEL 9
REMARK VINA RESULT:    -5.398      3.691     10.224
REMARK INTER + INTRA:         -13.949
REMARK INTER:                 -12.528
REMARK INTRA:                  -1.421
REMARK UNBOUND:                -1.609
REMARK SMILES CCCCCCCCCCCCCCCCCCCCCCCC(=O)[O-]
REMARK SMILES IDX 13 1 14 2 15 3 16 4 17 5 18 6 19 7 20 8 21 9 22 10 23 11
REMARK SMILES IDX 24 12 25 13 26 14 12 15 11 16 10 17 9 18 8 19 7 20 6 21 5 22
REMARK SMILES IDX 4 23 3 24 2 25 1 26
REMARK H PARENT
REMARK Flexibility Score: inf
ROOT
ATOM      1  C   UNL     1     -18.829  24.273   0.130  1.00  0.00     0.000 C 
ENDROOT
BRANCH   1   2
ATOM      2  C   UNL     1     -17.832  25.435  -0.032  1.00  0.00     0.000 C 
BRANCH   2   3
ATOM      3  C   UNL     1     -17.359  26.083   1.285  1.00  0.00     0.000 C 
BRANCH   3   4
ATOM      4  C   UNL     1     -16.277  27.166   1.128  1.00  0.00     0.000 C 
BRANCH   4   5
ATOM      5  C   UNL     1     -16.307  27.842  -0.251  1.00  0.00     0.000 C 
BRANCH   5   6
ATOM      6  C   UNL     1     -17.257  29.048  -0.252  1.00  0.00     0.000 C 
BRANCH   6   7
ATOM      7  C   UNL     1     -18.387  28.922  -1.288  1.00  0.00     0.000 C 
BRANCH   7   8
ATOM      8  C   UNL     1     -19.040  30.252  -1.705  1.00  0.00     0.000 C 
BRANCH   8   9
ATOM      9  C   UNL     1     -18.023  31.389  -1.880  1.00  0.00     0.000 C 
BRANCH   9  10
ATOM     10  C   UNL     1     -18.189  32.449  -0.781  1.00  0.00     0.006 C 
BRANCH  10  11
ATOM     11  C   UNL     1     -16.936  33.319  -0.619  1.00  0.00     0.053 C 
BRANCH  11  12
ATOM     12  C   UNL     1     -16.384  33.242   0.771  1.00  0.00     0.041 C 
ATOM     13  O   UNL     1     -15.908  34.269   1.322  1.00  0.00    -0.550 OA
ATOM     14  O   UNL     1     -16.366  32.028   1.445  1.00  0.00    -0.550 OA
ENDBRANCH  11  12
ENDBRANCH  10  11
ENDBRANCH   9  10
ENDBRANCH   8   9
ENDBRANCH   7   8
ENDBRANCH   6   7
ENDBRANCH   5   6
ENDBRANCH   4   5
ENDBRANCH   3   4
ENDBRANCH   2   3
ENDBRANCH   1   2
BRANCH   1  15
ATOM     15  C   UNL     1     -18.718  23.232  -0.995  1.00  0.00     0.000 C 
BRANCH  15  16
ATOM     16  C   UNL     1     -19.360  21.881  -0.628  1.00  0.00     0.000 C 
BRANCH  16  17
ATOM     17  C   UNL     1     -20.258  21.895   0.625  1.00  0.00     0.000 C 
BRANCH  17  18
ATOM     18  C   UNL     1     -21.589  21.135   0.483  1.00  0.00    -0.000 C 
BRANCH  18  19
ATOM     19  C   UNL     1     -22.730  22.026  -0.040  1.00  0.00    -0.000 C 
BRANCH  19  20
ATOM     20  C   UNL     1     -24.117  21.398   0.175  1.00  0.00    -0.000 C 
BRANCH  20  21
ATOM     21  C   UNL     1     -25.255  22.308  -0.317  1.00  0.00    -0.000 C 
BRANCH  21  22
ATOM     22  C   UNL     1     -24.764  23.702  -0.741  1.00  0.00    -0.000 C 
BRANCH  22  23
ATOM     23  C   UNL     1     -25.539  24.292  -1.939  1.00  0.00    -0.000 C 
BRANCH  23  24
ATOM     24  C   UNL     1     -26.260  23.205  -2.754  1.00  0.00    -0.000 C 
BRANCH  24  25
ATOM     25  C   UNL     1     -26.284  23.513  -4.259  1.00  0.00    -0.003 C 
ATOM     26  C   UNL     1     -25.574  24.820  -4.607  1.00  0.00     0.004 C 
ENDBRANCH  24  25
ENDBRANCH  23  24
ENDBRANCH  22  23
ENDBRANCH  21  22
ENDBRANCH  20  21
ENDBRANCH  19  20
ENDBRANCH  18  19
ENDBRANCH  17  18
ENDBRANCH  16  17
ENDBRANCH  15  16
ENDBRANCH   1  15
TORSDOF 22
ENDMDL
