MODEL 1
REMARK VINA RESULT:    -3.949      0.000      0.000
REMARK INTER + INTRA:          -9.711
REMARK INTER:                  -7.181
REMARK INTRA:                  -2.529
REMARK UNBOUND:                -2.529
REMARK SMILES CCCCCCCCCCCCCCCC(=O)[O-]
REMARK SMILES IDX 9 1 10 2 11 3 12 4 13 5 14 6 15 7 16 8 17 9 18 10 8 11 7 12
REMARK SMILES IDX 6 13 5 14 4 15 3 16 2 17 1 18
REMARK H PARENT
REMARK Flexibility Score: inf
ROOT
ATOM      1  C   UNL     1      -7.720 -14.219  17.638  1.00  0.00     0.000 C 
ENDROOT
BRANCH   1   2
ATOM      2  C   UNL     1      -6.642 -13.313  17.022  1.00  0.00     0.000 C 
BRANCH   2   3
ATOM      3  C   UNL     1      -6.623 -13.375  15.485  1.00  0.00     0.000 C 
BRANCH   3   4
ATOM      4  C   UNL     1      -7.952 -13.905  14.906  1.00  0.00     0.000 C 
BRANCH   4   5
ATOM      5  C   UNL     1      -8.959 -12.795  14.550  1.00  0.00     0.000 C 
BRANCH   5   6
ATOM      6  C   UNL     1     -10.347 -13.299  14.122  1.00  0.00     0.006 C 
BRANCH   6   7
ATOM      7  C   UNL     1     -11.443 -12.954  15.140  1.00  0.00     0.053 C 
BRANCH   7   8
ATOM      8  C   UNL     1     -11.507 -13.999  16.207  1.00  0.00     0.041 C 
ATOM      9  O   UNL     1     -12.019 -13.732  17.326  1.00  0.00    -0.550 OA
ATOM     10  O   UNL     1     -11.047 -15.284  15.951  1.00  0.00    -0.550 OA
ENDBRANCH   7   8
ENDBRANCH   6   7
ENDBRANCH   5   6
ENDBRANCH   4   5
ENDBRANCH   3   4
ENDBRANCH   2   3
ENDBRANCH   1   2
BRANCH   1  11
ATOM     11  C   UNL     1      -8.723 -13.439  18.507  1.00  0.00     0.000 C 
BRANCH  11  12
ATOM     12  C   UNL     1      -8.481 -11.922  18.475  1.00  0.00    -0.000 C 
BRANCH  12  13
ATOM     13  C   UNL     1      -9.690 -11.140  17.941  1.00  0.00    -0.000 C 
BRANCH  13  14
ATOM     14  C   UNL     1      -9.637  -9.674  18.395  1.00  0.00    -0.000 C 
BRANCH  14  15
ATOM     15  C   UNL     1      -9.137  -8.727  17.291  1.00  0.00    -0.000 C 
BRANCH  15  16
ATOM     16  C   UNL     1      -9.069  -9.348  15.882  1.00  0.00    -0.000 C 
BRANCH  16  17
ATOM     17  C   UNL     1      -7.678  -9.244  15.222  1.00  0.00    -0.003 C 
ATOM     18  C   UNL     1      -6.550  -9.656  16.168  1.00  0.00     0.004 C 
ENDBRANCH  16  17
ENDBRANCH  15  16
ENDBRANCH  14  15
ENDBRANCH  13  14
ENDBRANCH  12  13
ENDBRANCH  11  12
ENDBRANCH   1  11
TORSDOF 14
ENDMDL
MODEL 2
REMARK VINA RESULT:    -3.947      2.840      5.071
REMARK INTER + INTRA:          -9.707
REMARK INTER:                  -7.215
REMARK INTRA:                  -2.492
REMARK UNBOUND:                -2.529
REMARK SMILES CCCCCCCCCCCCCCCC(=O)[O-]
REMARK SMILES IDX 9 1 10 2 11 3 12 4 13 5 14 6 15 7 16 8 17 9 18 10 8 11 7 12
REMARK SMILES IDX 6 13 5 14 4 15 3 16 2 17 1 18
REMARK H PARENT
REMARK Flexibility Score: inf
ROOT
ATOM      1  C   UNL     1      -7.156 -12.556  16.755  1.00  0.00     0.000 C 
ENDROOT
BRANCH   1   2
ATOM      2  C   UNL     1      -7.214 -11.684  15.491  1.00  0.00     0.000 C 
BRANCH   2   3
ATOM      3  C   UNL     1      -7.380 -10.188  15.809  1.00  0.00     0.000 C 
BRANCH   3   4
ATOM      4  C   UNL     1      -8.859  -9.794  16.002  1.00  0.00     0.000 C 
BRANCH   4   5
ATOM      5  C   UNL     1      -9.069  -8.657  17.021  1.00  0.00     0.000 C 
BRANCH   5   6
ATOM      6  C   UNL     1      -9.650  -9.104  18.373  1.00  0.00     0.006 C 
BRANCH   6   7
ATOM      7  C   UNL     1      -8.579  -9.658  19.323  1.00  0.00     0.053 C 
BRANCH   7   8
ATOM      8  C   UNL     1      -8.571  -8.885  20.603  1.00  0.00     0.041 C 
ATOM      9  O   UNL     1      -8.370  -9.473  21.698  1.00  0.00    -0.550 OA
ATOM     10  O   UNL     1      -8.735  -7.506  20.583  1.00  0.00    -0.550 OA
ENDBRANCH   7   8
ENDBRANCH   6   7
ENDBRANCH   5   6
ENDBRANCH   4   5
ENDBRANCH   3   4
ENDBRANCH   2   3
ENDBRANCH   1   2
BRANCH   1  11
ATOM     11  C   UNL     1      -7.710 -13.973  16.523  1.00  0.00     0.000 C 
BRANCH  11  12
ATOM     12  C   UNL     1      -8.901 -14.300  17.437  1.00  0.00    -0.000 C 
BRANCH  12  13
ATOM     13  C   UNL     1      -9.430 -13.068  18.185  1.00  0.00    -0.000 C 
BRANCH  13  14
ATOM     14  C   UNL     1     -10.780 -12.616  17.609  1.00  0.00    -0.000 C 
BRANCH  14  15
ATOM     15  C   UNL     1     -11.521 -13.743  16.871  1.00  0.00    -0.000 C 
BRANCH  15  16
ATOM     16  C   UNL     1     -11.878 -13.435  15.404  1.00  0.00    -0.000 C 
BRANCH  16  17
ATOM     17  C   UNL     1     -10.825 -12.574  14.674  1.00  0.00    -0.003 C 
ATOM     18  C   UNL     1     -10.020 -13.378  13.652  1.00  0.00     0.004 C 
ENDBRANCH  16  17
ENDBRANCH  15  16
ENDBRANCH  14  15
ENDBRANCH  13  14
ENDBRANCH  12  13
ENDBRANCH  11  12
ENDBRANCH   1  11
TORSDOF 14
ENDMDL
MODEL 3
REMARK VINA RESULT:    -3.804      2.666      5.306
REMARK INTER + INTRA:          -9.446
REMARK INTER:                  -7.338
REMARK INTRA:                  -2.109
REMARK UNBOUND:                -2.529
REMARK SMILES CCCCCCCCCCCCCCCC(=O)[O-]
REMARK SMILES IDX 9 1 10 2 11 3 12 4 13 5 14 6 15 7 16 8 17 9 18 10 8 11 7 12
REMARK SMILES IDX 6 13 5 14 4 15 3 16 2 17 1 18
REMARK H PARENT
REMARK Flexibility Score: inf
ROOT
ATOM      1  C   UNL     1      -9.660 -10.651  16.024  1.00  0.00     0.000 C 
ENDROOT
BRANCH   1   2
ATOM      2  C   UNL     1      -8.227 -11.104  15.705  1.00  0.00     0.000 C 
BRANCH   2   3
ATOM      3  C   UNL     1      -7.212  -9.949  15.765  1.00  0.00     0.000 C 
BRANCH   3   4
ATOM      4  C   UNL     1      -7.750  -8.666  15.097  1.00  0.00     0.000 C 
BRANCH   4   5
ATOM      5  C   UNL     1      -7.944  -7.493  16.077  1.00  0.00     0.000 C 
BRANCH   5   6
ATOM      6  C   UNL     1      -7.677  -7.836  17.552  1.00  0.00     0.006 C 
BRANCH   6   7
ATOM      7  C   UNL     1      -8.968  -7.963  18.373  1.00  0.00     0.053 C 
BRANCH   7   8
ATOM      8  C   UNL     1      -8.780  -8.942  19.487  1.00  0.00     0.041 C 
ATOM      9  O   UNL     1      -9.400  -8.794  20.573  1.00  0.00    -0.550 OA
ATOM     10  O   UNL     1      -7.959 -10.048  19.310  1.00  0.00    -0.550 OA
ENDBRANCH   7   8
ENDBRANCH   6   7
ENDBRANCH   5   6
ENDBRANCH   4   5
ENDBRANCH   3   4
ENDBRANCH   2   3
ENDBRANCH   1   2
BRANCH   1  11
ATOM     11  C   UNL     1     -10.324 -11.511  17.114  1.00  0.00     0.000 C 
BRANCH  11  12
ATOM     12  C   UNL     1      -9.473 -12.726  17.511  1.00  0.00    -0.000 C 
BRANCH  12  13
ATOM     13  C   UNL     1     -10.122 -14.060  17.112  1.00  0.00    -0.000 C 
BRANCH  13  14
ATOM     14  C   UNL     1     -11.652 -13.938  17.088  1.00  0.00    -0.000 C 
BRANCH  14  15
ATOM     15  C   UNL     1     -12.261 -14.324  15.729  1.00  0.00    -0.000 C 
BRANCH  15  16
ATOM     16  C   UNL     1     -11.898 -13.381  14.564  1.00  0.00    -0.000 C 
BRANCH  16  17
ATOM     17  C   UNL     1     -11.056 -14.053  13.459  1.00  0.00    -0.003 C 
ATOM     18  C   UNL     1      -9.674 -13.416  13.310  1.00  0.00     0.004 C 
ENDBRANCH  16  17
ENDBRANCH  15  16
ENDBRANCH  14  15
ENDBRANCH  13  14
ENDBRANCH  12  13
ENDBRANCH  11  12
ENDBRANCH   1  11
TORSDOF 14
ENDMDL
MODEL 4
REMARK VINA RESULT:    -3.792      3.244      5.991
REMARK INTER + INTRA:          -9.424
REMARK INTER:                  -7.040
REMARK INTRA:                  -2.384
REMARK UNBOUND:                -2.529
REMARK SMILES CCCCCCCCCCCCCCCC(=O)[O-]
REMARK SMILES IDX 9 1 10 2 11 3 12 4 13 5 14 6 15 7 16 8 17 9 18 10 8 11 7 12
REMARK SMILES IDX 6 13 5 14 4 15 3 16 2 17 1 18
REMARK H PARENT
REMARK Flexibility Score: inf
ROOT
ATOM      1  C   UNL     1      -8.412 -10.926  15.512  1.00  0.00     0.000 C 
ENDROOT
BRANCH   1   2
ATOM      2  C   UNL     1      -9.806 -10.698  16.116  1.00  0.00     0.000 C 
BRANCH   2   3
ATOM      3  C   UNL     1      -9.780 -10.603  17.651  1.00  0.00     0.000 C 
BRANCH   3   4
ATOM      4  C   UNL     1      -9.542  -9.159  18.141  1.00  0.00     0.000 C 
BRANCH   4   5
ATOM      5  C   UNL     1      -8.132  -8.925  18.717  1.00  0.00     0.000 C 
BRANCH   5   6
ATOM      6  C   UNL     1      -7.215  -8.058  17.839  1.00  0.00     0.006 C 
BRANCH   6   7
ATOM      7  C   UNL     1      -7.988  -7.265  16.777  1.00  0.00     0.053 C 
BRANCH   7   8
ATOM      8  C   UNL     1      -7.156  -7.098  15.546  1.00  0.00     0.041 C 
ATOM      9  O   UNL     1      -6.177  -6.306  15.545  1.00  0.00    -0.550 OA
ATOM     10  O   UNL     1      -7.431  -7.854  14.413  1.00  0.00    -0.550 OA
ENDBRANCH   7   8
ENDBRANCH   6   7
ENDBRANCH   5   6
ENDBRANCH   4   5
ENDBRANCH   3   4
ENDBRANCH   2   3
ENDBRANCH   1   2
BRANCH   1  11
ATOM     11  C   UNL     1      -7.511 -11.792  16.410  1.00  0.00     0.000 C 
BRANCH  11  12
ATOM     12  C   UNL     1      -7.693 -13.296  16.159  1.00  0.00    -0.000 C 
BRANCH  12  13
ATOM     13  C   UNL     1      -7.857 -14.099  17.458  1.00  0.00    -0.000 C 
BRANCH  13  14
ATOM     14  C   UNL     1      -9.341 -14.351  17.762  1.00  0.00    -0.000 C 
BRANCH  14  15
ATOM     15  C   UNL     1     -10.151 -14.724  16.509  1.00  0.00    -0.000 C 
BRANCH  15  16
ATOM     16  C   UNL     1     -11.525 -14.035  16.395  1.00  0.00    -0.000 C 
BRANCH  16  17
ATOM     17  C   UNL     1     -11.947 -13.725  14.943  1.00  0.00    -0.003 C 
ATOM     18  C   UNL     1     -10.751 -13.614  13.997  1.00  0.00     0.004 C 
ENDBRANCH  16  17
ENDBRANCH  15  16
ENDBRANCH  14  15
ENDBRANCH  13  14
ENDBRANCH  12  13
ENDBRANCH  11  12
ENDBRANCH   1  11
TORSDOF 14
ENDMDL
MODEL 5
REMARK VINA RESULT:    -3.783      1.952      2.888
REMARK INTER + INTRA:          -9.408
REMARK INTER:                  -7.357
REMARK INTRA:                  -2.051
REMARK UNBOUND:                -2.529
REMARK SMILES CCCCCCCCCCCCCCCC(=O)[O-]
REMARK SMILES IDX 9 1 10 2 11 3 12 4 13 5 14 6 15 7 16 8 17 9 18 10 8 11 7 12
REMARK SMILES IDX 6 13 5 14 4 15 3 16 2 17 1 18
REMARK H PARENT
REMARK Flexibility Score: inf
ROOT
ATOM      1  C   UNL     1      -9.537 -10.492  15.687  1.00  0.00     0.000 C 
ENDROOT
BRANCH   1   2
ATOM      2  C   UNL     1      -8.258 -11.317  15.475  1.00  0.00     0.000 C 
BRANCH   2   3
ATOM      3  C   UNL     1      -8.549 -12.771  15.068  1.00  0.00     0.000 C 
BRANCH   3   4
ATOM      4  C   UNL     1      -9.763 -12.879  14.121  1.00  0.00     0.000 C 
BRANCH   4   5
ATOM      5  C   UNL     1     -10.818 -13.904  14.581  1.00  0.00     0.000 C 
BRANCH   5   6
ATOM      6  C   UNL     1     -11.939 -13.324  15.459  1.00  0.00     0.006 C 
BRANCH   6   7
ATOM      7  C   UNL     1     -11.901 -13.857  16.897  1.00  0.00     0.053 C 
BRANCH   7   8
ATOM      8  C   UNL     1     -11.240 -12.866  17.802  1.00  0.00     0.041 C 
ATOM      9  O   UNL     1     -11.901 -11.911  18.288  1.00  0.00    -0.550 OA
ATOM     10  O   UNL     1      -9.905 -13.025  18.150  1.00  0.00    -0.550 OA
ENDBRANCH   7   8
ENDBRANCH   6   7
ENDBRANCH   5   6
ENDBRANCH   4   5
ENDBRANCH   3   4
ENDBRANCH   2   3
ENDBRANCH   1   2
BRANCH   1  11
ATOM     11  C   UNL     1      -9.393  -9.454  16.814  1.00  0.00     0.000 C 
BRANCH  11  12
ATOM     12  C   UNL     1      -8.378  -9.880  17.886  1.00  0.00    -0.000 C 
BRANCH  12  13
ATOM     13  C   UNL     1      -7.680  -8.683  18.550  1.00  0.00    -0.000 C 
BRANCH  13  14
ATOM     14  C   UNL     1      -8.330  -7.362  18.116  1.00  0.00    -0.000 C 
BRANCH  14  15
ATOM     15  C   UNL     1      -7.299  -6.268  17.792  1.00  0.00    -0.000 C 
BRANCH  15  16
ATOM     16  C   UNL     1      -6.563  -6.445  16.449  1.00  0.00    -0.000 C 
BRANCH  16  17
ATOM     17  C   UNL     1      -7.496  -6.792  15.270  1.00  0.00    -0.003 C 
ATOM     18  C   UNL     1      -6.927  -7.899  14.381  1.00  0.00     0.004 C 
ENDBRANCH  16  17
ENDBRANCH  15  16
ENDBRANCH  14  15
ENDBRANCH  13  14
ENDBRANCH  12  13
ENDBRANCH  11  12
ENDBRANCH   1  11
TORSDOF 14
ENDMDL
MODEL 6
REMARK VINA RESULT:    -3.782      1.711      3.209
REMARK INTER + INTRA:          -9.406
REMARK INTER:                  -7.243
REMARK INTRA:                  -2.163
REMARK UNBOUND:                -2.529
REMARK SMILES CCCCCCCCCCCCCCCC(=O)[O-]
REMARK SMILES IDX 9 1 10 2 11 3 12 4 13 5 14 6 15 7 16 8 17 9 18 10 8 11 7 12
REMARK SMILES IDX 6 13 5 14 4 15 3 16 2 17 1 18
REMARK H PARENT
REMARK Flexibility Score: inf
ROOT
ATOM      1  C   UNL     1      -7.066 -13.898  17.748  1.00  0.00     0.000 C 
ENDROOT
BRANCH   1   2
ATOM      2  C   UNL     1      -8.586 -14.027  17.564  1.00  0.00     0.000 C 
BRANCH   2   3
ATOM      3  C   UNL     1      -9.363 -12.864  18.205  1.00  0.00     0.000 C 
BRANCH   3   4
ATOM      4  C   UNL     1     -10.782 -12.716  17.616  1.00  0.00     0.000 C 
BRANCH   4   5
ATOM      5  C   UNL     1     -11.270 -13.964  16.856  1.00  0.00     0.000 C 
BRANCH   5   6
ATOM      6  C   UNL     1     -11.841 -13.683  15.457  1.00  0.00     0.006 C 
BRANCH   6   7
ATOM      7  C   UNL     1     -10.981 -12.698  14.653  1.00  0.00     0.053 C 
BRANCH   7   8
ATOM      8  C   UNL     1     -10.040 -13.439  13.759  1.00  0.00     0.041 C 
ATOM      9  O   UNL     1     -10.433 -13.874  12.645  1.00  0.00    -0.550 OA
ATOM     10  O   UNL     1      -8.713 -13.607  14.134  1.00  0.00    -0.550 OA
ENDBRANCH   7   8
ENDBRANCH   6   7
ENDBRANCH   5   6
ENDBRANCH   4   5
ENDBRANCH   3   4
ENDBRANCH   2   3
ENDBRANCH   1   2
BRANCH   1  11
ATOM     11  C   UNL     1      -6.386 -13.178  16.571  1.00  0.00     0.000 C 
BRANCH  11  12
ATOM     12  C   UNL     1      -6.045 -11.714  16.889  1.00  0.00    -0.000 C 
BRANCH  12  13
ATOM     13  C   UNL     1      -5.808 -10.872  15.626  1.00  0.00    -0.000 C 
BRANCH  13  14
ATOM     14  C   UNL     1      -6.868  -9.769  15.498  1.00  0.00    -0.000 C 
BRANCH  14  15
ATOM     15  C   UNL     1      -8.304 -10.320  15.486  1.00  0.00    -0.000 C 
BRANCH  15  16
ATOM     16  C   UNL     1      -9.306  -9.541  16.361  1.00  0.00    -0.000 C 
BRANCH  16  17
ATOM     17  C   UNL     1      -8.767  -9.193  17.765  1.00  0.00    -0.003 C 
ATOM     18  C   UNL     1      -9.874  -9.139  18.819  1.00  0.00     0.004 C 
ENDBRANCH  16  17
ENDBRANCH  15  16
ENDBRANCH  14  15
ENDBRANCH  13  14
ENDBRANCH  12  13
ENDBRANCH  11  12
ENDBRANCH   1  11
TORSDOF 14
ENDMDL
MODEL 7
REMARK VINA RESULT:    -3.752      1.320      4.001
REMARK INTER + INTRA:          -9.351
REMARK INTER:                  -6.798
REMARK INTRA:                  -2.553
REMARK UNBOUND:                -2.529
REMARK SMILES CCCCCCCCCCCCCCCC(=O)[O-]
REMARK SMILES IDX 9 1 10 2 11 3 12 4 13 5 14 6 15 7 16 8 17 9 18 10 8 11 7 12
REMARK SMILES IDX 6 13 5 14 4 15 3 16 2 17 1 18
REMARK H PARENT
REMARK Flexibility Score: inf
ROOT
ATOM      1  C   UNL     1      -9.358  -8.084  18.434  1.00  0.00     0.000 C 
ENDROOT
BRANCH   1   2
ATOM      2  C   UNL     1      -9.995  -9.431  18.810  1.00  0.00     0.000 C 
BRANCH   2   3
ATOM      3  C   UNL     1      -9.103 -10.631  18.447  1.00  0.00     0.000 C 
BRANCH   3   4
ATOM      4  C   UNL     1      -9.835 -11.650  17.550  1.00  0.00     0.000 C 
BRANCH   4   5
ATOM      5  C   UNL     1     -10.079 -11.148  16.113  1.00  0.00     0.000 C 
BRANCH   5   6
ATOM      6  C   UNL     1      -9.903 -12.216  15.021  1.00  0.00     0.006 C 
BRANCH   6   7
ATOM      7  C   UNL     1     -10.180 -13.636  15.530  1.00  0.00     0.053 C 
BRANCH   7   8
ATOM      8  C   UNL     1     -11.650 -13.909  15.535  1.00  0.00     0.041 C 
ATOM      9  O   UNL     1     -12.178 -14.524  16.499  1.00  0.00    -0.550 OA
ATOM     10  O   UNL     1     -12.447 -13.441  14.498  1.00  0.00    -0.550 OA
ENDBRANCH   7   8
ENDBRANCH   6   7
ENDBRANCH   5   6
ENDBRANCH   4   5
ENDBRANCH   3   4
ENDBRANCH   2   3
ENDBRANCH   1   2
BRANCH   1  11
ATOM     11  C   UNL     1      -7.994  -8.246  17.740  1.00  0.00     0.000 C 
BRANCH  11  12
ATOM     12  C   UNL     1      -7.958  -7.604  16.344  1.00  0.00    -0.000 C 
BRANCH  12  13
ATOM     13  C   UNL     1      -7.499  -8.583  15.253  1.00  0.00    -0.000 C 
BRANCH  13  14
ATOM     14  C   UNL     1      -6.305  -9.419  15.737  1.00  0.00    -0.000 C 
BRANCH  14  15
ATOM     15  C   UNL     1      -6.492 -10.925  15.487  1.00  0.00    -0.000 C 
BRANCH  15  16
ATOM     16  C   UNL     1      -6.201 -11.827  16.703  1.00  0.00    -0.000 C 
BRANCH  16  17
ATOM     17  C   UNL     1      -6.567 -13.310  16.481  1.00  0.00    -0.003 C 
ATOM     18  C   UNL     1      -6.956 -14.016  17.780  1.00  0.00     0.004 C 
ENDBRANCH  16  17
ENDBRANCH  15  16
ENDBRANCH  14  15
ENDBRANCH  13  14
ENDBRANCH  12  13
ENDBRANCH  11  12
ENDBRANCH   1  11
TORSDOF 14
ENDMDL
MODEL 8
REMARK VINA RESULT:    -3.738      1.539      3.288
REMARK INTER + INTRA:          -9.327
REMARK INTER:                  -6.788
REMARK INTRA:                  -2.539
REMARK UNBOUND:                -2.529
REMARK SMILES CCCCCCCCCCCCCCCC(=O)[O-]
REMARK SMILES IDX 9 1 10 2 11 3 12 4 13 5 14 6 15 7 16 8 17 9 18 10 8 11 7 12
REMARK SMILES IDX 6 13 5 14 4 15 3 16 2 17 1 18
REMARK H PARENT
REMARK Flexibility Score: inf
ROOT
ATOM      1  C   UNL     1      -5.857 -10.299  17.861  1.00  0.00     0.000 C 
ENDROOT
BRANCH   1   2
ATOM      2  C   UNL     1      -6.146 -11.580  18.659  1.00  0.00     0.000 C 
BRANCH   2   3
ATOM      3  C   UNL     1      -5.658 -12.849  17.941  1.00  0.00     0.000 C 
BRANCH   3   4
ATOM      4  C   UNL     1      -6.790 -13.880  17.745  1.00  0.00     0.000 C 
BRANCH   4   5
ATOM      5  C   UNL     1      -8.162 -13.397  18.254  1.00  0.00     0.000 C 
BRANCH   5   6
ATOM      6  C   UNL     1      -9.293 -14.431  18.132  1.00  0.00     0.006 C 
BRANCH   6   7
ATOM      7  C   UNL     1      -9.955 -14.424  16.747  1.00  0.00     0.053 C 
BRANCH   7   8
ATOM      8  C   UNL     1     -11.392 -14.027  16.860  1.00  0.00     0.041 C 
ATOM      9  O   UNL     1     -12.282 -14.693  16.269  1.00  0.00    -0.550 OA
ATOM     10  O   UNL     1     -11.755 -12.951  17.660  1.00  0.00    -0.550 OA
ENDBRANCH   7   8
ENDBRANCH   6   7
ENDBRANCH   5   6
ENDBRANCH   4   5
ENDBRANCH   3   4
ENDBRANCH   2   3
ENDBRANCH   1   2
BRANCH   1  11
ATOM     11  C   UNL     1      -5.758 -10.554  16.346  1.00  0.00     0.000 C 
BRANCH  11  12
ATOM     12  C   UNL     1      -7.009 -10.092  15.584  1.00  0.00    -0.000 C 
BRANCH  12  13
ATOM     13  C   UNL     1      -7.987 -11.242  15.299  1.00  0.00    -0.000 C 
BRANCH  13  14
ATOM     14  C   UNL     1      -9.405 -10.883  15.766  1.00  0.00    -0.000 C 
BRANCH  14  15
ATOM     15  C   UNL     1      -9.428  -9.692  16.740  1.00  0.00    -0.000 C 
BRANCH  15  16
ATOM     16  C   UNL     1      -9.890 -10.031  18.171  1.00  0.00    -0.000 C 
BRANCH  16  17
ATOM     17  C   UNL     1      -9.730  -8.865  19.170  1.00  0.00    -0.003 C 
ATOM     18  C   UNL     1      -8.550  -9.068  20.120  1.00  0.00     0.004 C 
ENDBRANCH  16  17
ENDBRANCH  15  16
ENDBRANCH  14  15
ENDBRANCH  13  14
ENDBRANCH  12  13
ENDBRANCH  11  12
ENDBRANCH   1  11
TORSDOF 14
ENDMDL
MODEL 9
REMARK VINA RESULT:    -3.705     10.446     13.756
REMARK INTER + INTRA:          -9.266
REMARK INTER:                  -7.284
REMARK INTRA:                  -1.981
REMARK UNBOUND:                -2.529
REMARK SMILES CCCCCCCCCCCCCCCC(=O)[O-]
REMARK SMILES IDX 9 1 10 2 11 3 12 4 13 5 14 6 15 7 16 8 17 9 18 10 8 11 7 12
REMARK SMILES IDX 6 13 5 14 4 15 3 16 2 17 1 18
REMARK H PARENT
REMARK Flexibility Score: inf
ROOT
ATOM      1  C   UNL     1     -21.953 -18.906  20.385  1.00  0.00     0.000 C 
ENDROOT
BRANCH   1   2
ATOM      2  C   UNL     1     -20.661 -19.727  20.516  1.00  0.00     0.000 C 
BRANCH   2   3
ATOM      3  C   UNL     1     -19.661 -19.445  19.382  1.00  0.00     0.000 C 
BRANCH   3   4
ATOM      4  C   UNL     1     -18.258 -19.088  19.917  1.00  0.00     0.000 C 
BRANCH   4   5
ATOM      5  C   UNL     1     -17.225 -18.809  18.807  1.00  0.00     0.000 C 
BRANCH   5   6
ATOM      6  C   UNL     1     -17.606 -19.358  17.422  1.00  0.00     0.006 C 
BRANCH   6   7
ATOM      7  C   UNL     1     -17.758 -18.253  16.369  1.00  0.00     0.053 C 
BRANCH   7   8
ATOM      8  C   UNL     1     -16.511 -17.433  16.291  1.00  0.00     0.041 C 
ATOM      9  O   UNL     1     -16.536 -16.210  16.589  1.00  0.00    -0.550 OA
ATOM     10  O   UNL     1     -15.307 -18.030  15.938  1.00  0.00    -0.550 OA
ENDBRANCH   7   8
ENDBRANCH   6   7
ENDBRANCH   5   6
ENDBRANCH   4   5
ENDBRANCH   3   4
ENDBRANCH   2   3
ENDBRANCH   1   2
BRANCH   1  11
ATOM     11  C   UNL     1     -23.133 -19.740  19.856  1.00  0.00     0.000 C 
BRANCH  11  12
ATOM     12  C   UNL     1     -24.015 -18.959  18.870  1.00  0.00    -0.000 C 
BRANCH  12  13
ATOM     13  C   UNL     1     -23.557 -17.504  18.689  1.00  0.00    -0.000 C 
BRANCH  13  14
ATOM     14  C   UNL     1     -23.181 -17.227  17.227  1.00  0.00    -0.000 C 
BRANCH  14  15
ATOM     15  C   UNL     1     -21.879 -17.927  16.803  1.00  0.00    -0.000 C 
BRANCH  15  16
ATOM     16  C   UNL     1     -22.063 -19.106  15.828  1.00  0.00    -0.000 C 
BRANCH  16  17
ATOM     17  C   UNL     1     -21.495 -20.443  16.351  1.00  0.00    -0.003 C 
ATOM     18  C   UNL     1     -20.325 -20.951  15.509  1.00  0.00     0.004 C 
ENDBRANCH  16  17
ENDBRANCH  15  16
ENDBRANCH  14  15
ENDBRANCH  13  14
ENDBRANCH  12  13
ENDBRANCH  11  12
ENDBRANCH   1  11
TORSDOF 14
ENDMDL
