MODEL 1
REMARK VINA RESULT:    -0.012      0.000      0.000
REMARK INTER + INTRA:           0.228
REMARK INTER:                  -0.014
REMARK INTRA:                   0.241
REMARK UNBOUND:                 0.241
REMARK SMILES CC1(C)CC[C@]2(C(=O)[O-])CC[C@]3(C)C(=CC[C@@H]4[C@@]5(C)CC[C@@H](O)C(C)(C)[C@@H]5CC[C@]43C)[C@@H]2C1
REMARK SMILES IDX 6 1 5 2 10 3 32 4 4 5 11 6 14 7 33 8 2 9 12 10 15 11 1 12
REMARK SMILES IDX 3 13 13 14 30 15 16 16 17 17 29 18 31 19 18 20 28 21 27 22
REMARK SMILES IDX 20 23 19 24 24 25 21 26 22 27 25 28 26 29 7 30 8 31 9 32
REMARK SMILES IDX 23 33
REMARK H PARENT 23 34
REMARK Flexibility Score: inf
ROOT
ATOM      1  C   UNL     1      14.805   8.963   8.450  1.00  0.00     0.017 C 
ATOM      2  C   UNL     1      14.996   8.472   6.991  1.00  0.00     0.014 C 
ATOM      3  C   UNL     1      16.123   8.672   9.251  1.00  0.00     0.014 C 
ATOM      4  C   UNL     1      13.542   8.247   9.072  1.00  0.00     0.028 C 
ATOM      5  C   UNL     1      13.757   8.712   6.100  1.00  0.00     0.007 C 
ATOM      6  C   UNL     1      15.913   7.925  10.574  1.00  0.00     0.013 C 
ATOM      7  C   UNL     1      13.839   6.815   9.571  1.00  0.00    -0.064 C 
ATOM      8  C   UNL     1      12.293   8.434   8.161  1.00  0.00     0.015 C 
ATOM      9  C   UNL     1      12.474   8.054   6.664  1.00  0.00    -0.035 C 
ATOM     10  C   UNL     1      15.103   6.600  10.411  1.00  0.00    -0.006 C 
ATOM     11  C   UNL     1      12.874   5.845   9.636  1.00  0.00    -0.027 C 
ATOM     12  C   UNL     1      11.252   8.596   5.880  1.00  0.00     0.011 C 
ATOM     13  C   UNL     1      12.503   6.521   6.460  1.00  0.00     0.011 C 
ATOM     14  C   UNL     1      16.025   5.605   9.627  1.00  0.00     0.017 C 
ATOM     15  C   UNL     1      14.610   6.051  11.849  1.00  0.00    -0.020 C 
ATOM     16  C   UNL     1      13.010   4.553  10.429  1.00  0.00     0.032 C 
ATOM     17  C   UNL     1      14.019   4.609  11.627  1.00  0.00     0.006 C 
ATOM     18  C   UNL     1      15.783   5.944  12.867  1.00  0.00     0.008 C 
ATOM     19  C   UNL     1      13.519   7.013  12.453  1.00  0.00     0.012 C 
ATOM     20  C   UNL     1      13.604   3.781  12.916  1.00  0.00    -0.025 C 
ATOM     21  C   UNL     1      15.426   5.172  14.154  1.00  0.00     0.005 C 
ATOM     22  C   UNL     1      14.858   3.758  13.872  1.00  0.00     0.003 C 
ATOM     23  C   UNL     1      13.282   2.296  12.471  1.00  0.00     0.010 C 
ATOM     24  C   UNL     1      12.334   4.370  13.601  1.00  0.00     0.012 C 
ATOM     25  C   UNL     1      14.730   2.838  15.165  1.00  0.00    -0.006 C 
ATOM     26  C   UNL     1      13.722   1.201  13.465  1.00  0.00     0.033 C 
ATOM     27  C   UNL     1      13.704   1.679  14.923  1.00  0.00     0.120 C 
ATOM     28  C   UNL     1      14.267   3.634  16.415  1.00  0.00     0.014 C 
ATOM     29  C   UNL     1      16.125   2.227  15.484  1.00  0.00     0.014 C 
ENDROOT
BRANCH   1  30
ATOM     30  C   UNL     1      14.610  10.478   8.467  1.00  0.00     0.048 C 
ATOM     31  O   UNL     1      14.717  11.123   9.543  1.00  0.00    -0.550 OA
ATOM     32  O   UNL     1      14.474  11.194   7.283  1.00  0.00    -0.550 OA
ENDBRANCH   1  30
BRANCH  27  33
ATOM     33  O   UNL     1      13.977   0.593  15.784  1.00  0.00    -0.393 OA
ATOM     34  H   UNL     1      13.613  -0.216  15.336  1.00  0.00     0.210 HD
ENDBRANCH  27  33
TORSDOF 2
ENDMDL
MODEL 2
REMARK VINA RESULT:     1.195      1.437      2.024
REMARK INTER + INTRA:           1.541
REMARK INTER:                   1.635
REMARK INTRA:                  -0.094
REMARK UNBOUND:                 0.241
REMARK SMILES CC1(C)CC[C@]2(C(=O)[O-])CC[C@]3(C)C(=CC[C@@H]4[C@@]5(C)CC[C@@H](O)C(C)(C)[C@@H]5CC[C@]43C)[C@@H]2C1
REMARK SMILES IDX 6 1 5 2 10 3 32 4 4 5 11 6 14 7 33 8 2 9 12 10 15 11 1 12
REMARK SMILES IDX 3 13 13 14 30 15 16 16 17 17 29 18 31 19 18 20 28 21 27 22
REMARK SMILES IDX 20 23 19 24 24 25 21 26 22 27 25 28 26 29 7 30 8 31 9 32
REMARK SMILES IDX 23 33
REMARK H PARENT 23 34
REMARK Flexibility Score: inf
ROOT
ATOM      1  C   UNL     1      13.990   9.223   8.795  1.00  0.00     0.017 C 
ATOM      2  C   UNL     1      15.290   9.588   8.031  1.00  0.00     0.014 C 
ATOM      3  C   UNL     1      14.180   9.596  10.308  1.00  0.00     0.014 C 
ATOM      4  C   UNL     1      13.681   7.689   8.579  1.00  0.00     0.028 C 
ATOM      5  C   UNL     1      15.219   9.268   6.521  1.00  0.00     0.007 C 
ATOM      6  C   UNL     1      13.841   8.468  11.290  1.00  0.00     0.013 C 
ATOM      7  C   UNL     1      14.506   6.766   9.502  1.00  0.00    -0.064 C 
ATOM      8  C   UNL     1      13.655   7.336   7.063  1.00  0.00     0.015 C 
ATOM      9  C   UNL     1      14.895   7.781   6.236  1.00  0.00    -0.035 C 
ATOM     10  C   UNL     1      14.599   7.137  10.986  1.00  0.00    -0.006 C 
ATOM     11  C   UNL     1      14.819   5.476   9.162  1.00  0.00    -0.027 C 
ATOM     12  C   UNL     1      14.550   7.627   4.733  1.00  0.00     0.011 C 
ATOM     13  C   UNL     1      16.124   6.883   6.515  1.00  0.00     0.011 C 
ATOM     14  C   UNL     1      16.110   7.399  11.312  1.00  0.00     0.017 C 
ATOM     15  C   UNL     1      13.949   5.908  11.809  1.00  0.00    -0.020 C 
ATOM     16  C   UNL     1      15.311   4.425  10.146  1.00  0.00     0.032 C 
ATOM     17  C   UNL     1      14.904   4.668  11.640  1.00  0.00     0.006 C 
ATOM     18  C   UNL     1      13.825   6.222  13.329  1.00  0.00     0.008 C 
ATOM     19  C   UNL     1      12.512   5.582  11.253  1.00  0.00     0.012 C 
ATOM     20  C   UNL     1      14.571   3.366  12.483  1.00  0.00    -0.025 C 
ATOM     21  C   UNL     1      13.473   4.995  14.194  1.00  0.00     0.005 C 
ATOM     22  C   UNL     1      14.453   3.811  13.991  1.00  0.00     0.003 C 
ATOM     23  C   UNL     1      15.787   2.361  12.347  1.00  0.00     0.010 C 
ATOM     24  C   UNL     1      13.288   2.650  11.963  1.00  0.00     0.012 C 
ATOM     25  C   UNL     1      14.284   2.637  15.052  1.00  0.00    -0.006 C 
ATOM     26  C   UNL     1      16.125   1.561  13.623  1.00  0.00     0.033 C 
ATOM     27  C   UNL     1      14.896   1.302  14.505  1.00  0.00     0.120 C 
ATOM     28  C   UNL     1      12.797   2.370  15.410  1.00  0.00     0.014 C 
ATOM     29  C   UNL     1      15.021   3.037  16.363  1.00  0.00     0.014 C 
ENDROOT
BRANCH   1  30
ATOM     30  C   UNL     1      12.829  10.070   8.280  1.00  0.00     0.048 C 
ATOM     31  O   UNL     1      11.653   9.618   8.293  1.00  0.00    -0.550 OA
ATOM     32  O   UNL     1      13.015  11.406   7.941  1.00  0.00    -0.550 OA
ENDBRANCH   1  30
BRANCH  27  33
ATOM     33  O   UNL     1      15.249   0.448  15.575  1.00  0.00    -0.393 OA
ATOM     34  H   UNL     1      16.151   0.093  15.361  1.00  0.00     0.210 HD
ENDBRANCH  27  33
TORSDOF 2
ENDMDL
MODEL 3
REMARK VINA RESULT:     1.495      1.701      3.833
REMARK INTER + INTRA:           1.867
REMARK INTER:                   1.248
REMARK INTRA:                   0.619
REMARK UNBOUND:                 0.241
REMARK SMILES CC1(C)CC[C@]2(C(=O)[O-])CC[C@]3(C)C(=CC[C@@H]4[C@@]5(C)CC[C@@H](O)C(C)(C)[C@@H]5CC[C@]43C)[C@@H]2C1
REMARK SMILES IDX 6 1 5 2 10 3 32 4 4 5 11 6 14 7 33 8 2 9 12 10 15 11 1 12
REMARK SMILES IDX 3 13 13 14 30 15 16 16 17 17 29 18 31 19 18 20 28 21 27 22
REMARK SMILES IDX 20 23 19 24 24 25 21 26 22 27 25 28 26 29 7 30 8 31 9 32
REMARK SMILES IDX 23 33
REMARK H PARENT 23 34
REMARK Flexibility Score: inf
ROOT
ATOM      1  C   UNL     1      14.571  10.271   7.752  1.00  0.00     0.017 C 
ATOM      2  C   UNL     1      13.605  11.456   8.024  1.00  0.00     0.014 C 
ATOM      3  C   UNL     1      13.722   9.032   7.296  1.00  0.00     0.014 C 
ATOM      4  C   UNL     1      15.414   9.987   9.057  1.00  0.00     0.028 C 
ATOM      5  C   UNL     1      14.331  12.741   8.478  1.00  0.00     0.007 C 
ATOM      6  C   UNL     1      14.016   7.740   8.068  1.00  0.00     0.013 C 
ATOM      7  C   UNL     1      14.649   9.149  10.105  1.00  0.00    -0.064 C 
ATOM      8  C   UNL     1      16.113  11.284   9.560  1.00  0.00     0.015 C 
ATOM      9  C   UNL     1      15.198  12.528   9.743  1.00  0.00    -0.035 C 
ATOM     10  C   UNL     1      13.897   7.907   9.617  1.00  0.00    -0.006 C 
ATOM     11  C   UNL     1      14.919   9.227  11.446  1.00  0.00    -0.027 C 
ATOM     12  C   UNL     1      16.107  13.768   9.937  1.00  0.00     0.011 C 
ATOM     13  C   UNL     1      14.314  12.409  11.007  1.00  0.00     0.011 C 
ATOM     14  C   UNL     1      12.376   8.124   9.928  1.00  0.00     0.017 C 
ATOM     15  C   UNL     1      14.553   6.643  10.380  1.00  0.00    -0.020 C 
ATOM     16  C   UNL     1      14.463   8.201  12.474  1.00  0.00     0.032 C 
ATOM     17  C   UNL     1      14.184   6.767  11.905  1.00  0.00     0.006 C 
ATOM     18  C   UNL     1      13.995   5.288   9.854  1.00  0.00     0.008 C 
ATOM     19  C   UNL     1      16.116   6.642  10.185  1.00  0.00     0.012 C 
ATOM     20  C   UNL     1      14.580   5.561  12.856  1.00  0.00    -0.025 C 
ATOM     21  C   UNL     1      14.375   4.074  10.727  1.00  0.00     0.005 C 
ATOM     22  C   UNL     1      13.979   4.252  12.214  1.00  0.00     0.003 C 
ATOM     23  C   UNL     1      13.896   5.792  14.265  1.00  0.00     0.010 C 
ATOM     24  C   UNL     1      16.121   5.473  13.073  1.00  0.00     0.012 C 
ATOM     25  C   UNL     1      14.110   2.927  13.086  1.00  0.00    -0.006 C 
ATOM     26  C   UNL     1      13.385   4.515  14.966  1.00  0.00     0.033 C 
ATOM     27  C   UNL     1      14.211   3.271  14.611  1.00  0.00     0.120 C 
ATOM     28  C   UNL     1      15.357   2.085  12.702  1.00  0.00     0.014 C 
ATOM     29  C   UNL     1      12.852   2.042  12.844  1.00  0.00     0.014 C 
ENDROOT
BRANCH   1  30
ATOM     30  C   UNL     1      15.500  10.615   6.591  1.00  0.00     0.048 C 
ATOM     31  O   UNL     1      16.087  11.728   6.550  1.00  0.00    -0.550 OA
ATOM     32  O   UNL     1      15.846   9.655   5.645  1.00  0.00    -0.550 OA
ENDBRANCH   1  30
BRANCH  27  33
ATOM     33  O   UNL     1      13.781   2.175  15.393  1.00  0.00    -0.393 OA
ATOM     34  H   UNL     1      13.281   2.560  16.160  1.00  0.00     0.210 HD
ENDBRANCH  27  33
TORSDOF 2
ENDMDL
MODEL 4
REMARK VINA RESULT:     1.737     16.834     18.812
REMARK INTER + INTRA:           2.130
REMARK INTER:                   1.487
REMARK INTRA:                   0.643
REMARK UNBOUND:                 0.241
REMARK SMILES CC1(C)CC[C@]2(C(=O)[O-])CC[C@]3(C)C(=CC[C@@H]4[C@@]5(C)CC[C@@H](O)C(C)(C)[C@@H]5CC[C@]43C)[C@@H]2C1
REMARK SMILES IDX 6 1 5 2 10 3 32 4 4 5 11 6 14 7 33 8 2 9 12 10 15 11 1 12
REMARK SMILES IDX 3 13 13 14 30 15 16 16 17 17 29 18 31 19 18 20 28 21 27 22
REMARK SMILES IDX 20 23 19 24 24 25 21 26 22 27 25 28 26 29 7 30 8 31 9 32
REMARK SMILES IDX 23 33
REMARK H PARENT 23 34
REMARK Flexibility Score: inf
ROOT
ATOM      1  C   UNL     1      -3.003  -2.130  14.898  1.00  0.00     0.017 C 
ATOM      2  C   UNL     1      -4.125  -1.070  15.054  1.00  0.00     0.014 C 
ATOM      3  C   UNL     1      -3.377  -3.383  15.767  1.00  0.00     0.014 C 
ATOM      4  C   UNL     1      -1.624  -1.485  15.319  1.00  0.00     0.028 C 
ATOM      5  C   UNL     1      -3.867   0.215  14.236  1.00  0.00     0.007 C 
ATOM      6  C   UNL     1      -2.265  -3.858  16.710  1.00  0.00     0.013 C 
ATOM      7  C   UNL     1      -1.409  -1.453  16.848  1.00  0.00    -0.064 C 
ATOM      8  C   UNL     1      -1.370  -0.160  14.541  1.00  0.00     0.015 C 
ATOM      9  C   UNL     1      -2.517   0.889  14.582  1.00  0.00    -0.035 C 
ATOM     10  C   UNL     1      -1.720  -2.728  17.640  1.00  0.00    -0.006 C 
ATOM     11  C   UNL     1      -0.615  -0.518  17.459  1.00  0.00    -0.027 C 
ATOM     12  C   UNL     1      -2.215   1.973  13.517  1.00  0.00     0.011 C 
ATOM     13  C   UNL     1      -2.592   1.604  15.952  1.00  0.00     0.011 C 
ATOM     14  C   UNL     1      -2.870  -2.386  18.649  1.00  0.00     0.017 C 
ATOM     15  C   UNL     1      -0.338  -3.182  18.342  1.00  0.00    -0.020 C 
ATOM     16  C   UNL     1      -0.088  -0.639  18.882  1.00  0.00     0.032 C 
ATOM     17  C   UNL     1       0.015  -2.103  19.433  1.00  0.00     0.006 C 
ATOM     18  C   UNL     1      -0.467  -4.563  19.049  1.00  0.00     0.008 C 
ATOM     19  C   UNL     1       0.810  -3.283  17.268  1.00  0.00     0.012 C 
ATOM     20  C   UNL     1       1.254  -2.396  20.379  1.00  0.00    -0.025 C 
ATOM     21  C   UNL     1       0.727  -4.912  19.962  1.00  0.00     0.005 C 
ATOM     22  C   UNL     1       1.020  -3.818  21.019  1.00  0.00     0.003 C 
ATOM     23  C   UNL     1       1.262  -1.316  21.538  1.00  0.00     0.010 C 
ATOM     24  C   UNL     1       2.608  -2.296  19.612  1.00  0.00     0.012 C 
ATOM     25  C   UNL     1       2.061  -4.257  22.139  1.00  0.00    -0.006 C 
ATOM     26  C   UNL     1       1.699  -1.840  22.922  1.00  0.00     0.033 C 
ATOM     27  C   UNL     1       2.697  -3.002  22.831  1.00  0.00     0.120 C 
ATOM     28  C   UNL     1       3.216  -5.124  21.569  1.00  0.00     0.014 C 
ATOM     29  C   UNL     1       1.317  -5.107  23.209  1.00  0.00     0.014 C 
ENDROOT
BRANCH   1  30
ATOM     30  C   UNL     1      -2.938  -2.608  13.449  1.00  0.00     0.048 C 
ATOM     31  O   UNL     1      -2.685  -1.797  12.520  1.00  0.00    -0.550 OA
ATOM     32  O   UNL     1      -2.992  -3.963  13.141  1.00  0.00    -0.550 OA
ENDBRANCH   1  30
BRANCH  27  33
ATOM     33  O   UNL     1       3.160  -3.335  24.124  1.00  0.00    -0.393 OA
ATOM     34  H   UNL     1       4.107  -3.038  24.164  1.00  0.00     0.210 HD
ENDBRANCH  27  33
TORSDOF 2
ENDMDL
