MODEL 1
REMARK VINA RESULT:    -6.635      0.000      0.000
REMARK INTER + INTRA:         -10.674
REMARK INTER:                  -9.738
REMARK INTRA:                  -0.937
REMARK UNBOUND:                -0.937
REMARK SMILES O=c1c(O[C@@H]2O[C@H](CO)[C@@H](O)[C@H](O)[C@H]2O)c(-c2ccc(O)c(O)c2)oc2cc(O)cc(O)c12
REMARK SMILES IDX 4 1 3 2 16 3 25 4 2 5 26 6 1 7 33 8 27 9 31 10 28 11 30 12
REMARK SMILES IDX 17 13 20 14 19 15 22 16 18 17 24 18 21 19 23 21 32 23 29 25
REMARK SMILES IDX 5 27 14 28 6 29 12 30 7 31 10 32 15 33 13 35 8 37 9 38 11 40
REMARK H PARENT 21 20 23 22 32 24 29 26 15 34 13 36 9 39 11 41
REMARK Flexibility Score: inf
ROOT
ATOM      1  O   UNL     1      12.446   0.698   0.848  1.00  0.00    -0.454 OA
ENDROOT
BRANCH   1   2
ATOM      2  C   UNL     1      11.941   1.832   0.198  1.00  0.00     0.214 A 
ATOM      3  C   UNL     1      12.627   2.335  -0.913  1.00  0.00     0.180 A 
ATOM      4  O   UNL     1      12.121   3.336  -1.619  1.00  0.00    -0.452 OA
ATOM      5  C   UNL     1      10.738   2.447   0.583  1.00  0.00     0.239 A 
ATOM      6  C   UNL     1      10.983   3.939  -1.302  1.00  0.00     0.146 A 
ATOM      7  O   UNL     1      10.080   1.954   1.536  1.00  0.00    -0.285 OA
ATOM      8  C   UNL     1      10.259   3.564  -0.137  1.00  0.00     0.111 A 
ATOM      9  C   UNL     1      10.503   4.950  -2.140  1.00  0.00     0.094 A 
ATOM     10  C   UNL     1       9.079   4.291   0.194  1.00  0.00     0.134 A 
ATOM     11  C   UNL     1       9.299   5.589  -1.851  1.00  0.00     0.123 A 
ATOM     12  C   UNL     1       8.598   5.266  -0.686  1.00  0.00     0.093 A 
BRANCH   3  13
ATOM     13  C   UNL     1      13.921   1.756  -1.289  1.00  0.00     0.025 A 
ATOM     14  C   UNL     1      16.364   0.818  -2.304  1.00  0.00     0.157 A 
ATOM     15  C   UNL     1      15.180   0.111  -2.554  1.00  0.00     0.051 A 
ATOM     16  C   UNL     1      16.332   1.979  -1.511  1.00  0.00     0.158 A 
ATOM     17  C   UNL     1      13.963   0.582  -2.055  1.00  0.00     0.016 A 
ATOM     18  C   UNL     1      15.113   2.438  -1.002  1.00  0.00     0.062 A 
BRANCH  14  19
ATOM     19  O   UNL     1      17.565   0.375  -2.845  1.00  0.00    -0.504 OA
ATOM     20  H   UNL     1      18.298  -0.020  -2.261  1.00  0.00     0.293 HD
ENDBRANCH  14  19
BRANCH  16  21
ATOM     21  O   UNL     1      17.490   2.705  -1.242  1.00  0.00    -0.504 OA
ATOM     22  H   UNL     1      17.604   3.234  -0.388  1.00  0.00     0.293 HD
ENDBRANCH  16  21
ENDBRANCH   3  13
BRANCH  10  23
ATOM     23  O   UNL     1       8.356   4.097   1.370  1.00  0.00    -0.507 OA
ATOM     24  H   UNL     1       7.736   3.318   1.533  1.00  0.00     0.293 HD
ENDBRANCH  10  23
BRANCH  11  25
ATOM     25  O   UNL     1       8.808   6.555  -2.727  1.00  0.00    -0.508 OA
ATOM     26  H   UNL     1       8.473   6.311  -3.648  1.00  0.00     0.293 HD
ENDBRANCH  11  25
ENDBRANCH   1   2
BRANCH   1  27
ATOM     27  C   UNL     1      13.130   0.724   2.101  1.00  0.00     0.339 C 
ATOM     28  C   UNL     1      13.494  -0.737   2.500  1.00  0.00     0.214 C 
ATOM     29  O   UNL     1      14.273   1.553   1.975  1.00  0.00    -0.332 OA
ATOM     30  C   UNL     1      15.010  -0.934   2.729  1.00  0.00     0.180 C 
ATOM     31  C   UNL     1      14.983   1.598   3.200  1.00  0.00     0.179 C 
ATOM     32  C   UNL     1      15.657   0.234   3.520  1.00  0.00     0.177 C 
BRANCH  28  33
ATOM     33  O   UNL     1      12.807  -1.101   3.671  1.00  0.00    -0.384 OA
ATOM     34  H   UNL     1      11.949  -0.587   3.661  1.00  0.00     0.211 HD
ENDBRANCH  28  33
BRANCH  30  35
ATOM     35  O   UNL     1      15.691  -1.125   1.511  1.00  0.00    -0.387 OA
ATOM     36  H   UNL     1      15.506  -0.342   0.936  1.00  0.00     0.211 HD
ENDBRANCH  30  35
BRANCH  31  37
ATOM     37  C   UNL     1      16.013   2.738   3.128  1.00  0.00     0.191 C 
BRANCH  37  38
ATOM     38  O   UNL     1      15.747   3.594   2.054  1.00  0.00    -0.394 OA
ATOM     39  H   UNL     1      14.819   3.925   2.153  1.00  0.00     0.210 HD
ENDBRANCH  37  38
ENDBRANCH  31  37
BRANCH  32  40
ATOM     40  O   UNL     1      15.563  -0.002   4.904  1.00  0.00    -0.387 OA
ATOM     41  H   UNL     1      16.491  -0.008   5.266  1.00  0.00     0.211 HD
ENDBRANCH  32  40
ENDBRANCH   1  27
TORSDOF 12
ENDMDL
MODEL 2
REMARK VINA RESULT:    -6.134      2.529      7.332
REMARK INTER + INTRA:          -9.940
REMARK INTER:                  -8.722
REMARK INTRA:                  -1.218
REMARK UNBOUND:                -0.937
REMARK SMILES O=c1c(O[C@@H]2O[C@H](CO)[C@@H](O)[C@H](O)[C@H]2O)c(-c2ccc(O)c(O)c2)oc2cc(O)cc(O)c12
REMARK SMILES IDX 4 1 3 2 16 3 25 4 2 5 26 6 1 7 33 8 27 9 31 10 28 11 30 12
REMARK SMILES IDX 17 13 20 14 19 15 22 16 18 17 24 18 21 19 23 21 32 23 29 25
REMARK SMILES IDX 5 27 14 28 6 29 12 30 7 31 10 32 15 33 13 35 8 37 9 38 11 40
REMARK H PARENT 21 20 23 22 32 24 29 26 15 34 13 36 9 39 11 41
REMARK Flexibility Score: inf
ROOT
ATOM      1  O   UNL     1      11.949   3.329   0.651  1.00  0.00    -0.454 OA
ENDROOT
BRANCH   1   2
ATOM      2  C   UNL     1      13.067   2.654   0.142  1.00  0.00     0.214 A 
ATOM      3  C   UNL     1      12.932   1.316  -0.242  1.00  0.00     0.180 A 
ATOM      4  O   UNL     1      13.935   0.680  -0.830  1.00  0.00    -0.452 OA
ATOM      5  C   UNL     1      14.304   3.291  -0.054  1.00  0.00     0.239 A 
ATOM      6  C   UNL     1      15.117   1.244  -1.047  1.00  0.00     0.146 A 
ATOM      7  O   UNL     1      14.410   4.514   0.222  1.00  0.00    -0.285 OA
ATOM      8  C   UNL     1      15.384   2.569  -0.609  1.00  0.00     0.111 A 
ATOM      9  C   UNL     1      16.095   0.509  -1.724  1.00  0.00     0.094 A 
ATOM     10  C   UNL     1      16.691   3.100  -0.807  1.00  0.00     0.134 A 
ATOM     11  C   UNL     1      17.340   1.076  -1.990  1.00  0.00     0.123 A 
ATOM     12  C   UNL     1      17.636   2.361  -1.526  1.00  0.00     0.093 A 
BRANCH   3  13
ATOM     13  C   UNL     1      11.673   0.610   0.020  1.00  0.00     0.025 A 
ATOM     14  C   UNL     1       9.141  -0.438   0.627  1.00  0.00     0.157 A 
ATOM     15  C   UNL     1      10.137  -0.389   1.612  1.00  0.00     0.051 A 
ATOM     16  C   UNL     1       9.423   0.005  -0.677  1.00  0.00     0.158 A 
ATOM     17  C   UNL     1      11.395   0.139   1.312  1.00  0.00     0.016 A 
ATOM     18  C   UNL     1      10.689   0.520  -0.975  1.00  0.00     0.062 A 
BRANCH  14  19
ATOM     19  O   UNL     1       7.875  -0.916   0.943  1.00  0.00    -0.504 OA
ATOM     20  H   UNL     1       7.242  -0.391   1.540  1.00  0.00     0.293 HD
ENDBRANCH  14  19
BRANCH  16  21
ATOM     21  O   UNL     1       8.457  -0.030  -1.680  1.00  0.00    -0.504 OA
ATOM     22  H   UNL     1       8.638   0.324  -2.609  1.00  0.00     0.293 HD
ENDBRANCH  16  21
ENDBRANCH   3  13
BRANCH  10  23
ATOM     23  O   UNL     1      17.107   4.336  -0.314  1.00  0.00    -0.507 OA
ATOM     24  H   UNL     1      17.614   5.020  -0.853  1.00  0.00     0.293 HD
ENDBRANCH  10  23
BRANCH  11  25
ATOM     25  O   UNL     1      18.284   0.350  -2.714  1.00  0.00    -0.508 OA
ATOM     26  H   UNL     1      19.107  -0.033  -2.272  1.00  0.00     0.293 HD
ENDBRANCH  11  25
ENDBRANCH   1   2
BRANCH   1  27
ATOM     27  C   UNL     1      11.331   4.453   0.024  1.00  0.00     0.339 C 
ATOM     28  C   UNL     1      10.860   4.033  -1.400  1.00  0.00     0.214 C 
ATOM     29  O   UNL     1      10.260   4.894   0.841  1.00  0.00    -0.332 OA
ATOM     30  C   UNL     1       9.346   4.254  -1.618  1.00  0.00     0.180 C 
ATOM     31  C   UNL     1       9.617   6.008   0.248  1.00  0.00     0.179 C 
ATOM     32  C   UNL     1       8.843   5.602  -1.038  1.00  0.00     0.177 C 
BRANCH  28  33
ATOM     33  O   UNL     1      11.569   4.758  -2.374  1.00  0.00    -0.384 OA
ATOM     34  H   UNL     1      11.292   4.381  -3.257  1.00  0.00     0.211 HD
ENDBRANCH  28  33
BRANCH  30  35
ATOM     35  O   UNL     1       8.592   3.189  -1.084  1.00  0.00    -0.387 OA
ATOM     36  H   UNL     1       7.659   3.297  -1.392  1.00  0.00     0.211 HD
ENDBRANCH  30  35
BRANCH  31  37
ATOM     37  C   UNL     1       8.689   6.652   1.291  1.00  0.00     0.191 C 
BRANCH  37  38
ATOM     38  O   UNL     1       8.196   7.881   0.841  1.00  0.00    -0.394 OA
ATOM     39  H   UNL     1       7.242   7.757   0.607  1.00  0.00     0.210 HD
ENDBRANCH  37  38
ENDBRANCH  31  37
BRANCH  32  40
ATOM     40  O   UNL     1       8.983   6.627  -1.992  1.00  0.00    -0.387 OA
ATOM     41  H   UNL     1       9.319   7.432  -1.511  1.00  0.00     0.211 HD
ENDBRANCH  32  40
ENDBRANCH   1  27
TORSDOF 12
ENDMDL
MODEL 3
REMARK VINA RESULT:    -5.986      1.202      2.448
REMARK INTER + INTRA:          -9.722
REMARK INTER:                  -9.222
REMARK INTRA:                  -0.500
REMARK UNBOUND:                -0.937
REMARK SMILES O=c1c(O[C@@H]2O[C@H](CO)[C@@H](O)[C@H](O)[C@H]2O)c(-c2ccc(O)c(O)c2)oc2cc(O)cc(O)c12
REMARK SMILES IDX 4 1 3 2 16 3 25 4 2 5 26 6 1 7 33 8 27 9 31 10 28 11 30 12
REMARK SMILES IDX 17 13 20 14 19 15 22 16 18 17 24 18 21 19 23 21 32 23 29 25
REMARK SMILES IDX 5 27 14 28 6 29 12 30 7 31 10 32 15 33 13 35 8 37 9 38 11 40
REMARK H PARENT 21 20 23 22 32 24 29 26 15 34 13 36 9 39 11 41
REMARK Flexibility Score: inf
ROOT
ATOM      1  O   UNL     1      13.034  -0.018   0.216  1.00  0.00    -0.454 OA
ENDROOT
BRANCH   1   2
ATOM      2  C   UNL     1      12.368   1.175  -0.098  1.00  0.00     0.214 A 
ATOM      3  C   UNL     1      12.912   2.016  -1.074  1.00  0.00     0.180 A 
ATOM      4  O   UNL     1      12.254   3.094  -1.475  1.00  0.00    -0.452 OA
ATOM      5  C   UNL     1      11.141   1.527   0.490  1.00  0.00     0.239 A 
ATOM      6  C   UNL     1      11.088   3.461  -0.960  1.00  0.00     0.146 A 
ATOM      7  O   UNL     1      10.611   0.739   1.315  1.00  0.00    -0.285 OA
ATOM      8  C   UNL     1      10.497   2.724   0.103  1.00  0.00     0.111 A 
ATOM      9  C   UNL     1      10.445   4.584  -1.487  1.00  0.00     0.094 A 
ATOM     10  C   UNL     1       9.278   3.201   0.665  1.00  0.00     0.134 A 
ATOM     11  C   UNL     1       9.207   4.985  -0.987  1.00  0.00     0.123 A 
ATOM     12  C   UNL     1       8.634   4.301   0.088  1.00  0.00     0.093 A 
BRANCH   3  13
ATOM     13  C   UNL     1      14.226   1.706  -1.647  1.00  0.00     0.025 A 
ATOM     14  C   UNL     1      16.815   0.969  -2.441  1.00  0.00     0.157 A 
ATOM     15  C   UNL     1      16.596   2.203  -1.814  1.00  0.00     0.051 A 
ATOM     16  C   UNL     1      15.730   0.115  -2.704  1.00  0.00     0.158 A 
ATOM     17  C   UNL     1      15.308   2.567  -1.412  1.00  0.00     0.016 A 
ATOM     18  C   UNL     1      14.441   0.491  -2.313  1.00  0.00     0.062 A 
BRANCH  14  19
ATOM     19  O   UNL     1      18.105   0.588  -2.792  1.00  0.00    -0.504 OA
ATOM     20  H   UNL     1      18.343   0.334  -3.748  1.00  0.00     0.293 HD
ENDBRANCH  14  19
BRANCH  16  21
ATOM     21  O   UNL     1      15.912  -1.119  -3.326  1.00  0.00    -0.504 OA
ATOM     22  H   UNL     1      16.825  -1.543  -3.416  1.00  0.00     0.293 HD
ENDBRANCH  16  21
ENDBRANCH   3  13
BRANCH  10  23
ATOM     23  O   UNL     1       8.670   2.636   1.785  1.00  0.00    -0.507 OA
ATOM     24  H   UNL     1       8.174   1.758   1.779  1.00  0.00     0.293 HD
ENDBRANCH  10  23
BRANCH  11  25
ATOM     25  O   UNL     1       8.555   6.074  -1.562  1.00  0.00    -0.508 OA
ATOM     26  H   UNL     1       7.835   6.579  -1.067  1.00  0.00     0.293 HD
ENDBRANCH  11  25
ENDBRANCH   1   2
BRANCH   1  27
ATOM     27  C   UNL     1      13.903  -0.186   1.336  1.00  0.00     0.339 C 
ATOM     28  C   UNL     1      14.803   1.079   1.462  1.00  0.00     0.214 C 
ATOM     29  O   UNL     1      13.114  -0.408   2.492  1.00  0.00    -0.332 OA
ATOM     30  C   UNL     1      14.678   1.766   2.840  1.00  0.00     0.180 C 
ATOM     31  C   UNL     1      13.945  -0.573   3.627  1.00  0.00     0.179 C 
ATOM     32  C   UNL     1      14.650   0.756   4.017  1.00  0.00     0.177 C 
BRANCH  28  33
ATOM     33  O   UNL     1      16.149   0.735   1.246  1.00  0.00    -0.384 OA
ATOM     34  H   UNL     1      16.145  -0.205   0.907  1.00  0.00     0.211 HD
ENDBRANCH  28  33
BRANCH  30  35
ATOM     35  O   UNL     1      13.544   2.600   2.895  1.00  0.00    -0.387 OA
ATOM     36  H   UNL     1      12.985   2.299   3.653  1.00  0.00     0.211 HD
ENDBRANCH  30  35
BRANCH  31  37
ATOM     37  C   UNL     1      13.092  -1.125   4.782  1.00  0.00     0.191 C 
BRANCH  37  38
ATOM     38  O   UNL     1      13.709  -0.904   6.018  1.00  0.00    -0.394 OA
ATOM     39  H   UNL     1      13.158  -0.254   6.520  1.00  0.00     0.210 HD
ENDBRANCH  37  38
ENDBRANCH  31  37
BRANCH  32  40
ATOM     40  O   UNL     1      15.960   0.464   4.442  1.00  0.00    -0.387 OA
ATOM     41  H   UNL     1      16.391   1.329   4.683  1.00  0.00     0.211 HD
ENDBRANCH  32  40
ENDBRANCH   1  27
TORSDOF 12
ENDMDL
MODEL 4
REMARK VINA RESULT:    -5.907      1.819      2.958
REMARK INTER + INTRA:          -9.607
REMARK INTER:                  -8.895
REMARK INTRA:                  -0.712
REMARK UNBOUND:                -0.937
REMARK SMILES O=c1c(O[C@@H]2O[C@H](CO)[C@@H](O)[C@H](O)[C@H]2O)c(-c2ccc(O)c(O)c2)oc2cc(O)cc(O)c12
REMARK SMILES IDX 4 1 3 2 16 3 25 4 2 5 26 6 1 7 33 8 27 9 31 10 28 11 30 12
REMARK SMILES IDX 17 13 20 14 19 15 22 16 18 17 24 18 21 19 23 21 32 23 29 25
REMARK SMILES IDX 5 27 14 28 6 29 12 30 7 31 10 32 15 33 13 35 8 37 9 38 11 40
REMARK H PARENT 21 20 23 22 32 24 29 26 15 34 13 36 9 39 11 41
REMARK Flexibility Score: inf
ROOT
ATOM      1  O   UNL     1      12.355   3.201   1.593  1.00  0.00    -0.454 OA
ENDROOT
BRANCH   1   2
ATOM      2  C   UNL     1      11.713   3.958   0.604  1.00  0.00     0.214 A 
ATOM      3  C   UNL     1      12.059   3.753  -0.736  1.00  0.00     0.180 A 
ATOM      4  O   UNL     1      11.396   4.368  -1.704  1.00  0.00    -0.452 OA
ATOM      5  C   UNL     1      10.689   4.872   0.904  1.00  0.00     0.239 A 
ATOM      6  C   UNL     1      10.415   5.231  -1.471  1.00  0.00     0.146 A 
ATOM      7  O   UNL     1      10.323   5.007   2.100  1.00  0.00    -0.285 OA
ATOM      8  C   UNL     1      10.051   5.578  -0.141  1.00  0.00     0.111 A 
ATOM      9  C   UNL     1       9.739   5.788  -2.560  1.00  0.00     0.094 A 
ATOM     10  C   UNL     1       9.037   6.560   0.051  1.00  0.00     0.134 A 
ATOM     11  C   UNL     1       8.687   6.679  -2.353  1.00  0.00     0.123 A 
ATOM     12  C   UNL     1       8.347   7.067  -1.055  1.00  0.00     0.093 A 
BRANCH   3  13
ATOM     13  C   UNL     1      13.174   2.858  -1.067  1.00  0.00     0.025 A 
ATOM     14  C   UNL     1      15.291   1.280  -2.016  1.00  0.00     0.157 A 
ATOM     15  C   UNL     1      13.970   0.827  -2.130  1.00  0.00     0.051 A 
ATOM     16  C   UNL     1      15.559   2.511  -1.392  1.00  0.00     0.158 A 
ATOM     17  C   UNL     1      12.915   1.616  -1.664  1.00  0.00     0.016 A 
ATOM     18  C   UNL     1      14.499   3.290  -0.914  1.00  0.00     0.062 A 
BRANCH  14  19
ATOM     19  O   UNL     1      16.334   0.516  -2.527  1.00  0.00    -0.504 OA
ATOM     20  H   UNL     1      16.172  -0.401  -2.936  1.00  0.00     0.293 HD
ENDBRANCH  14  19
BRANCH  16  21
ATOM     21  O   UNL     1      16.860   2.991  -1.261  1.00  0.00    -0.504 OA
ATOM     22  H   UNL     1      17.642   2.376  -1.085  1.00  0.00     0.293 HD
ENDBRANCH  16  21
ENDBRANCH   3  13
BRANCH  10  23
ATOM     23  O   UNL     1       8.681   7.069   1.299  1.00  0.00    -0.507 OA
ATOM     24  H   UNL     1       9.190   6.891   2.151  1.00  0.00     0.293 HD
ENDBRANCH  10  23
BRANCH  11  25
ATOM     25  O   UNL     1       7.989   7.181  -3.449  1.00  0.00    -0.508 OA
ATOM     26  H   UNL     1       7.057   7.558  -3.353  1.00  0.00     0.293 HD
ENDBRANCH  11  25
ENDBRANCH   1   2
BRANCH   1  27
ATOM     27  C   UNL     1      11.751   2.115   2.297  1.00  0.00     0.339 C 
ATOM     28  C   UNL     1      10.391   1.776   1.618  1.00  0.00     0.214 C 
ATOM     29  O   UNL     1      12.648   1.018   2.291  1.00  0.00    -0.332 OA
ATOM     30  C   UNL     1      10.305   0.306   1.151  1.00  0.00     0.180 C 
ATOM     31  C   UNL     1      12.079  -0.083   2.977  1.00  0.00     0.179 C 
ATOM     32  C   UNL     1      10.884  -0.691   2.189  1.00  0.00     0.177 C 
BRANCH  28  33
ATOM     33  O   UNL     1       9.332   2.033   2.507  1.00  0.00    -0.384 OA
ATOM     34  H   UNL     1       9.207   3.024   2.512  1.00  0.00     0.211 HD
ENDBRANCH  28  33
BRANCH  30  35
ATOM     35  O   UNL     1      10.941   0.127  -0.094  1.00  0.00    -0.387 OA
ATOM     36  H   UNL     1      11.917   0.142   0.062  1.00  0.00     0.211 HD
ENDBRANCH  30  35
BRANCH  31  37
ATOM     37  C   UNL     1      13.181  -1.125   3.232  1.00  0.00     0.191 C 
BRANCH  37  38
ATOM     38  O   UNL     1      14.378  -0.512   3.619  1.00  0.00    -0.394 OA
ATOM     39  H   UNL     1      14.779  -1.060   4.340  1.00  0.00     0.210 HD
ENDBRANCH  37  38
ENDBRANCH  31  37
BRANCH  32  40
ATOM     40  O   UNL     1       9.888  -1.075   3.107  1.00  0.00    -0.387 OA
ATOM     41  H   UNL     1      10.322  -1.145   4.000  1.00  0.00     0.211 HD
ENDBRANCH  32  40
ENDBRANCH   1  27
TORSDOF 12
ENDMDL
MODEL 5
REMARK VINA RESULT:    -5.847     15.734     19.553
REMARK INTER + INTRA:          -9.519
REMARK INTER:                  -8.202
REMARK INTRA:                  -1.317
REMARK UNBOUND:                -0.937
REMARK SMILES O=c1c(O[C@@H]2O[C@H](CO)[C@@H](O)[C@H](O)[C@H]2O)c(-c2ccc(O)c(O)c2)oc2cc(O)cc(O)c12
REMARK SMILES IDX 4 1 3 2 16 3 25 4 2 5 26 6 1 7 33 8 27 9 31 10 28 11 30 12
REMARK SMILES IDX 17 13 20 14 19 15 22 16 18 17 24 18 21 19 23 21 32 23 29 25
REMARK SMILES IDX 5 27 14 28 6 29 12 30 7 31 10 32 15 33 13 35 8 37 9 38 11 40
REMARK H PARENT 21 20 23 22 32 24 29 26 15 34 13 36 9 39 11 41
REMARK Flexibility Score: inf
ROOT
ATOM      1  O   UNL     1      25.489  12.385   7.565  1.00  0.00    -0.454 OA
ENDROOT
BRANCH   1   2
ATOM      2  C   UNL     1      26.045  11.114   7.766  1.00  0.00     0.214 A 
ATOM      3  C   UNL     1      26.745  10.863   8.951  1.00  0.00     0.180 A 
ATOM      4  O   UNL     1      27.188   9.644   9.225  1.00  0.00    -0.452 OA
ATOM      5  C   UNL     1      25.872  10.065   6.848  1.00  0.00     0.239 A 
ATOM      6  C   UNL     1      27.038   8.619   8.395  1.00  0.00     0.146 A 
ATOM      7  O   UNL     1      25.182  10.265   5.816  1.00  0.00    -0.285 OA
ATOM      8  C   UNL     1      26.423   8.793   7.125  1.00  0.00     0.111 A 
ATOM      9  C   UNL     1      27.491   7.359   8.797  1.00  0.00     0.094 A 
ATOM     10  C   UNL     1      26.349   7.674   6.247  1.00  0.00     0.134 A 
ATOM     11  C   UNL     1      27.329   6.255   7.963  1.00  0.00     0.123 A 
ATOM     12  C   UNL     1      26.769   6.416   6.692  1.00  0.00     0.093 A 
BRANCH   3  13
ATOM     13  C   UNL     1      27.001  11.961   9.888  1.00  0.00     0.025 A 
ATOM     14  C   UNL     1      27.275  14.249  11.491  1.00  0.00     0.157 A 
ATOM     15  C   UNL     1      28.117  14.058  10.387  1.00  0.00     0.051 A 
ATOM     16  C   UNL     1      26.316  13.274  11.817  1.00  0.00     0.158 A 
ATOM     17  C   UNL     1      27.976  12.923   9.585  1.00  0.00     0.016 A 
ATOM     18  C   UNL     1      26.189  12.132  11.019  1.00  0.00     0.062 A 
BRANCH  14  19
ATOM     19  O   UNL     1      27.384  15.404  12.256  1.00  0.00    -0.504 OA
ATOM     20  H   UNL     1      28.046  15.473  13.025  1.00  0.00     0.293 HD
ENDBRANCH  14  19
BRANCH  16  21
ATOM     21  O   UNL     1      25.464  13.431  12.908  1.00  0.00    -0.504 OA
ATOM     22  H   UNL     1      25.812  13.633  13.835  1.00  0.00     0.293 HD
ENDBRANCH  16  21
ENDBRANCH   3  13
BRANCH  10  23
ATOM     23  O   UNL     1      25.882   7.750   4.936  1.00  0.00    -0.507 OA
ATOM     24  H   UNL     1      25.802   8.607   4.411  1.00  0.00     0.293 HD
ENDBRANCH  10  23
BRANCH  11  25
ATOM     25  O   UNL     1      27.736   4.997   8.403  1.00  0.00    -0.508 OA
ATOM     26  H   UNL     1      27.808   4.780   9.386  1.00  0.00     0.293 HD
ENDBRANCH  11  25
ENDBRANCH   1   2
BRANCH   1  27
ATOM     27  C   UNL     1      25.932  13.312   6.574  1.00  0.00     0.339 C 
ATOM     28  C   UNL     1      24.800  13.492   5.519  1.00  0.00     0.214 C 
ATOM     29  O   UNL     1      26.276  14.528   7.214  1.00  0.00    -0.332 OA
ATOM     30  C   UNL     1      24.355  14.963   5.366  1.00  0.00     0.180 C 
ATOM     31  C   UNL     1      26.715  15.478   6.259  1.00  0.00     0.179 C 
ATOM     32  C   UNL     1      25.548  15.955   5.350  1.00  0.00     0.177 C 
BRANCH  28  33
ATOM     33  O   UNL     1      25.228  13.014   4.268  1.00  0.00    -0.384 OA
ATOM     34  H   UNL     1      24.532  12.364   3.966  1.00  0.00     0.211 HD
ENDBRANCH  28  33
BRANCH  30  35
ATOM     35  O   UNL     1      23.439  15.329   6.372  1.00  0.00    -0.387 OA
ATOM     36  H   UNL     1      23.548  14.695   7.123  1.00  0.00     0.211 HD
ENDBRANCH  30  35
BRANCH  31  37
ATOM     37  C   UNL     1      27.376  16.651   7.001  1.00  0.00     0.191 C 
BRANCH  37  38
ATOM     38  O   UNL     1      27.360  17.815   6.226  1.00  0.00    -0.394 OA
ATOM     39  H   UNL     1      27.826  17.619   5.375  1.00  0.00     0.210 HD
ENDBRANCH  37  38
ENDBRANCH  31  37
BRANCH  32  40
ATOM     40  O   UNL     1      26.033  16.116   4.039  1.00  0.00    -0.387 OA
ATOM     41  H   UNL     1      27.028  16.091   4.088  1.00  0.00     0.211 HD
ENDBRANCH  32  40
ENDBRANCH   1  27
TORSDOF 12
ENDMDL
MODEL 6
REMARK VINA RESULT:    -5.649      2.284      6.507
REMARK INTER + INTRA:          -9.228
REMARK INTER:                  -8.444
REMARK INTRA:                  -0.784
REMARK UNBOUND:                -0.937
REMARK SMILES O=c1c(O[C@@H]2O[C@H](CO)[C@@H](O)[C@H](O)[C@H]2O)c(-c2ccc(O)c(O)c2)oc2cc(O)cc(O)c12
REMARK SMILES IDX 4 1 3 2 16 3 25 4 2 5 26 6 1 7 33 8 27 9 31 10 28 11 30 12
REMARK SMILES IDX 17 13 20 14 19 15 22 16 18 17 24 18 21 19 23 21 32 23 29 25
REMARK SMILES IDX 5 27 14 28 6 29 12 30 7 31 10 32 15 33 13 35 8 37 9 38 11 40
REMARK H PARENT 21 20 23 22 32 24 29 26 15 34 13 36 9 39 11 41
REMARK Flexibility Score: inf
ROOT
ATOM      1  O   UNL     1      11.294   2.741   2.234  1.00  0.00    -0.454 OA
ENDROOT
BRANCH   1   2
ATOM      2  C   UNL     1      12.343   2.588   1.317  1.00  0.00     0.214 A 
ATOM      3  C   UNL     1      12.387   3.422   0.195  1.00  0.00     0.180 A 
ATOM      4  O   UNL     1      13.421   3.382  -0.632  1.00  0.00    -0.452 OA
ATOM      5  C   UNL     1      13.387   1.669   1.517  1.00  0.00     0.239 A 
ATOM      6  C   UNL     1      14.435   2.540  -0.479  1.00  0.00     0.146 A 
ATOM      7  O   UNL     1      13.390   0.968   2.561  1.00  0.00    -0.285 OA
ATOM      8  C   UNL     1      14.439   1.588   0.577  1.00  0.00     0.111 A 
ATOM      9  C   UNL     1      15.507   2.611  -1.374  1.00  0.00     0.094 A 
ATOM     10  C   UNL     1      15.520   0.663   0.655  1.00  0.00     0.134 A 
ATOM     11  C   UNL     1      16.600   1.759  -1.230  1.00  0.00     0.123 A 
ATOM     12  C   UNL     1      16.599   0.786  -0.226  1.00  0.00     0.093 A 
BRANCH   3  13
ATOM     13  C   UNL     1      11.272   4.337  -0.071  1.00  0.00     0.025 A 
ATOM     14  C   UNL     1       9.377   6.327  -0.643  1.00  0.00     0.157 A 
ATOM     15  C   UNL     1       9.856   6.166   0.664  1.00  0.00     0.051 A 
ATOM     16  C   UNL     1       9.821   5.466  -1.662  1.00  0.00     0.158 A 
ATOM     17  C   UNL     1      10.804   5.180   0.948  1.00  0.00     0.016 A 
ATOM     18  C   UNL     1      10.760   4.472  -1.370  1.00  0.00     0.062 A 
BRANCH  14  19
ATOM     19  O   UNL     1       8.473   7.342  -0.931  1.00  0.00    -0.504 OA
ATOM     20  H   UNL     1       8.301   7.647  -1.886  1.00  0.00     0.293 HD
ENDBRANCH  14  19
BRANCH  16  21
ATOM     21  O   UNL     1       9.366   5.598  -2.972  1.00  0.00    -0.504 OA
ATOM     22  H   UNL     1       8.565   6.169  -3.206  1.00  0.00     0.293 HD
ENDBRANCH  16  21
ENDBRANCH   3  13
BRANCH  10  23
ATOM     23  O   UNL     1      15.573  -0.389   1.567  1.00  0.00    -0.507 OA
ATOM     24  H   UNL     1      14.782  -0.963   1.818  1.00  0.00     0.293 HD
ENDBRANCH  10  23
BRANCH  11  25
ATOM     25  O   UNL     1      17.684   1.881  -2.097  1.00  0.00    -0.508 OA
ATOM     26  H   UNL     1      18.575   1.452  -1.892  1.00  0.00     0.293 HD
ENDBRANCH  11  25
ENDBRANCH   1   2
BRANCH   1  27
ATOM     27  C   UNL     1      10.156   1.882   2.309  1.00  0.00     0.339 C 
ATOM     28  C   UNL     1      10.102   1.015   1.016  1.00  0.00     0.214 C 
ATOM     29  O   UNL     1      10.258   1.097   3.484  1.00  0.00    -0.332 OA
ATOM     30  C   UNL     1      10.107  -0.501   1.313  1.00  0.00     0.180 C 
ATOM     31  C   UNL     1       9.147   0.225   3.589  1.00  0.00     0.179 C 
ATOM     32  C   UNL     1       9.189  -0.886   2.503  1.00  0.00     0.177 C 
BRANCH  28  33
ATOM     33  O   UNL     1       8.949   1.329   0.275  1.00  0.00    -0.384 OA
ATOM     34  H   UNL     1       8.495   0.459   0.085  1.00  0.00     0.211 HD
ENDBRANCH  28  33
BRANCH  30  35
ATOM     35  O   UNL     1      11.414  -0.973   1.542  1.00  0.00    -0.387 OA
ATOM     36  H   UNL     1      11.444  -1.345   2.458  1.00  0.00     0.211 HD
ENDBRANCH  30  35
BRANCH  31  37
ATOM     37  C   UNL     1       9.121  -0.367   5.009  1.00  0.00     0.191 C 
BRANCH  37  38
ATOM     38  O   UNL     1       8.401   0.452   5.886  1.00  0.00    -0.394 OA
ATOM     39  H   UNL     1       8.918   0.521   6.727  1.00  0.00     0.210 HD
ENDBRANCH  37  38
ENDBRANCH  31  37
BRANCH  32  40
ATOM     40  O   UNL     1       7.877  -1.124   2.052  1.00  0.00    -0.387 OA
ATOM     41  H   UNL     1       7.946  -1.656   1.212  1.00  0.00     0.211 HD
ENDBRANCH  32  40
ENDBRANCH   1  27
TORSDOF 12
ENDMDL
MODEL 7
REMARK VINA RESULT:    -5.615      2.636      4.099
REMARK INTER + INTRA:          -9.177
REMARK INTER:                  -8.149
REMARK INTRA:                  -1.028
REMARK UNBOUND:                -0.937
REMARK SMILES O=c1c(O[C@@H]2O[C@H](CO)[C@@H](O)[C@H](O)[C@H]2O)c(-c2ccc(O)c(O)c2)oc2cc(O)cc(O)c12
REMARK SMILES IDX 4 1 3 2 16 3 25 4 2 5 26 6 1 7 33 8 27 9 31 10 28 11 30 12
REMARK SMILES IDX 17 13 20 14 19 15 22 16 18 17 24 18 21 19 23 21 32 23 29 25
REMARK SMILES IDX 5 27 14 28 6 29 12 30 7 31 10 32 15 33 13 35 8 37 9 38 11 40
REMARK H PARENT 21 20 23 22 32 24 29 26 15 34 13 36 9 39 11 41
REMARK Flexibility Score: inf
ROOT
ATOM      1  O   UNL     1      11.630   2.488   1.249  1.00  0.00    -0.454 OA
ENDROOT
BRANCH   1   2
ATOM      2  C   UNL     1      11.233   3.499   0.363  1.00  0.00     0.214 A 
ATOM      3  C   UNL     1      11.755   3.503  -0.935  1.00  0.00     0.180 A 
ATOM      4  O   UNL     1      11.319   4.374  -1.833  1.00  0.00    -0.452 OA
ATOM      5  C   UNL     1      10.282   4.473   0.711  1.00  0.00     0.239 A 
ATOM      6  C   UNL     1      10.414   5.304  -1.554  1.00  0.00     0.146 A 
ATOM      7  O   UNL     1       9.756   4.430   1.853  1.00  0.00    -0.285 OA
ATOM      8  C   UNL     1       9.892   5.443  -0.239  1.00  0.00     0.111 A 
ATOM      9  C   UNL     1       9.977   6.144  -2.583  1.00  0.00     0.094 A 
ATOM     10  C   UNL     1       8.974   6.501   0.020  1.00  0.00     0.134 A 
ATOM     11  C   UNL     1       9.010   7.116  -2.334  1.00  0.00     0.123 A 
ATOM     12  C   UNL     1       8.520   7.297  -1.037  1.00  0.00     0.093 A 
BRANCH   3  13
ATOM     13  C   UNL     1      12.802   2.542  -1.298  1.00  0.00     0.025 A 
ATOM     14  C   UNL     1      14.800   0.846  -2.303  1.00  0.00     0.157 A 
ATOM     15  C   UNL     1      13.449   0.494  -2.428  1.00  0.00     0.051 A 
ATOM     16  C   UNL     1      15.155   2.035  -1.641  1.00  0.00     0.158 A 
ATOM     17  C   UNL     1      12.454   1.341  -1.934  1.00  0.00     0.016 A 
ATOM     18  C   UNL     1      14.155   2.872  -1.136  1.00  0.00     0.062 A 
BRANCH  14  19
ATOM     19  O   UNL     1      15.785   0.027  -2.842  1.00  0.00    -0.504 OA
ATOM     20  H   UNL     1      15.732  -0.309  -3.801  1.00  0.00     0.293 HD
ENDBRANCH  14  19
BRANCH  16  21
ATOM     21  O   UNL     1      16.488   2.416  -1.499  1.00  0.00    -0.504 OA
ATOM     22  H   UNL     1      17.094   1.996  -0.808  1.00  0.00     0.293 HD
ENDBRANCH  16  21
ENDBRANCH   3  13
BRANCH  10  23
ATOM     23  O   UNL     1       8.490   6.811   1.290  1.00  0.00    -0.507 OA
ATOM     24  H   UNL     1       8.936   6.533   2.150  1.00  0.00     0.293 HD
ENDBRANCH  10  23
BRANCH  11  25
ATOM     25  O   UNL     1       8.546   7.907  -3.383  1.00  0.00    -0.508 OA
ATOM     26  H   UNL     1       7.580   8.196  -3.438  1.00  0.00     0.293 HD
ENDBRANCH  11  25
ENDBRANCH   1   2
BRANCH   1  27
ATOM     27  C   UNL     1      10.889   1.293   1.494  1.00  0.00     0.339 C 
ATOM     28  C   UNL     1       9.938   1.536   2.704  1.00  0.00     0.214 C 
ATOM     29  O   UNL     1      10.186   0.947   0.313  1.00  0.00    -0.332 OA
ATOM     30  C   UNL     1       8.454   1.282   2.358  1.00  0.00     0.180 C 
ATOM     31  C   UNL     1       9.432  -0.234   0.521  1.00  0.00     0.179 C 
ATOM     32  C   UNL     1       8.245   0.010   1.495  1.00  0.00     0.177 C 
BRANCH  28  33
ATOM     33  O   UNL     1      10.303   0.704   3.777  1.00  0.00    -0.384 OA
ATOM     34  H   UNL     1       9.770  -0.135   3.672  1.00  0.00     0.211 HD
ENDBRANCH  28  33
BRANCH  30  35
ATOM     35  O   UNL     1       7.880   2.398   1.717  1.00  0.00    -0.387 OA
ATOM     36  H   UNL     1       6.932   2.449   1.993  1.00  0.00     0.211 HD
ENDBRANCH  30  35
BRANCH  31  37
ATOM     37  C   UNL     1       8.950  -0.754  -0.844  1.00  0.00     0.191 C 
BRANCH  37  38
ATOM     38  O   UNL     1       9.234   0.160  -1.864  1.00  0.00    -0.394 OA
ATOM     39  H   UNL     1       9.701  -0.328  -2.587  1.00  0.00     0.210 HD
ENDBRANCH  37  38
ENDBRANCH  31  37
BRANCH  32  40
ATOM     40  O   UNL     1       8.097  -1.121   2.319  1.00  0.00    -0.387 OA
ATOM     41  H   UNL     1       8.919  -1.188   2.878  1.00  0.00     0.211 HD
ENDBRANCH  32  40
ENDBRANCH   1  27
TORSDOF 12
ENDMDL
MODEL 8
REMARK VINA RESULT:    -5.503      1.567      4.660
REMARK INTER + INTRA:          -9.014
REMARK INTER:                  -7.899
REMARK INTRA:                  -1.114
REMARK UNBOUND:                -0.937
REMARK SMILES O=c1c(O[C@@H]2O[C@H](CO)[C@@H](O)[C@H](O)[C@H]2O)c(-c2ccc(O)c(O)c2)oc2cc(O)cc(O)c12
REMARK SMILES IDX 4 1 3 2 16 3 25 4 2 5 26 6 1 7 33 8 27 9 31 10 28 11 30 12
REMARK SMILES IDX 17 13 20 14 19 15 22 16 18 17 24 18 21 19 23 21 32 23 29 25
REMARK SMILES IDX 5 27 14 28 6 29 12 30 7 31 10 32 15 33 13 35 8 37 9 38 11 40
REMARK H PARENT 21 20 23 22 32 24 29 26 15 34 13 36 9 39 11 41
REMARK Flexibility Score: inf
ROOT
ATOM      1  O   UNL     1      12.885   1.346  -0.484  1.00  0.00    -0.454 OA
ENDROOT
BRANCH   1   2
ATOM      2  C   UNL     1      12.057   2.371  -0.007  1.00  0.00     0.214 A 
ATOM      3  C   UNL     1      12.037   2.641   1.365  1.00  0.00     0.180 A 
ATOM      4  O   UNL     1      11.353   3.674   1.838  1.00  0.00    -0.452 OA
ATOM      5  C   UNL     1      11.292   3.179  -0.865  1.00  0.00     0.239 A 
ATOM      6  C   UNL     1      10.626   4.471   1.065  1.00  0.00     0.146 A 
ATOM      7  O   UNL     1      11.363   2.988  -2.107  1.00  0.00    -0.285 OA
ATOM      8  C   UNL     1      10.506   4.224  -0.329  1.00  0.00     0.111 A 
ATOM      9  C   UNL     1       9.984   5.567   1.650  1.00  0.00     0.094 A 
ATOM     10  C   UNL     1       9.659   5.072  -1.099  1.00  0.00     0.134 A 
ATOM     11  C   UNL     1       9.232   6.440   0.866  1.00  0.00     0.123 A 
ATOM     12  C   UNL     1       9.065   6.186  -0.498  1.00  0.00     0.093 A 
BRANCH   3  13
ATOM     13  C   UNL     1      12.770   1.766   2.286  1.00  0.00     0.025 A 
ATOM     14  C   UNL     1      14.325  -0.037   3.772  1.00  0.00     0.157 A 
ATOM     15  C   UNL     1      13.075  -0.430   3.275  1.00  0.00     0.051 A 
ATOM     16  C   UNL     1      14.784   1.274   3.556  1.00  0.00     0.158 A 
ATOM     17  C   UNL     1      12.303   0.465   2.530  1.00  0.00     0.016 A 
ATOM     18  C   UNL     1      14.001   2.171   2.821  1.00  0.00     0.062 A 
BRANCH  14  19
ATOM     19  O   UNL     1      15.113  -0.946   4.468  1.00  0.00    -0.504 OA
ATOM     20  H   UNL     1      16.113  -0.803   4.586  1.00  0.00     0.293 HD
ENDBRANCH  14  19
BRANCH  16  21
ATOM     21  O   UNL     1      16.022   1.698   4.036  1.00  0.00    -0.504 OA
ATOM     22  H   UNL     1      16.370   1.416   4.941  1.00  0.00     0.293 HD
ENDBRANCH  16  21
ENDBRANCH   3  13
BRANCH  10  23
ATOM     23  O   UNL     1       9.367   4.856  -2.445  1.00  0.00    -0.507 OA
ATOM     24  H   UNL     1       8.435   4.737  -2.811  1.00  0.00     0.293 HD
ENDBRANCH  10  23
BRANCH  11  25
ATOM     25  O   UNL     1       8.644   7.557   1.456  1.00  0.00    -0.508 OA
ATOM     26  H   UNL     1       8.604   8.446   0.978  1.00  0.00     0.293 HD
ENDBRANCH  11  25
ENDBRANCH   1   2
BRANCH   1  27
ATOM     27  C   UNL     1      14.068   1.557  -1.254  1.00  0.00     0.339 C 
ATOM     28  C   UNL     1      15.184   2.104  -0.314  1.00  0.00     0.214 C 
ATOM     29  O   UNL     1      14.430   0.334  -1.871  1.00  0.00    -0.332 OA
ATOM     30  C   UNL     1      16.453   1.223  -0.318  1.00  0.00     0.180 C 
ATOM     31  C   UNL     1      15.607   0.503  -2.641  1.00  0.00     0.179 C 
ATOM     32  C   UNL     1      16.850   0.744  -1.739  1.00  0.00     0.177 C 
BRANCH  28  33
ATOM     33  O   UNL     1      15.536   3.410  -0.696  1.00  0.00    -0.384 OA
ATOM     34  H   UNL     1      14.793   4.001  -0.384  1.00  0.00     0.211 HD
ENDBRANCH  28  33
BRANCH  30  35
ATOM     35  O   UNL     1      16.310   0.115   0.540  1.00  0.00    -0.387 OA
ATOM     36  H   UNL     1      16.928  -0.590   0.228  1.00  0.00     0.211 HD
ENDBRANCH  30  35
BRANCH  31  37
ATOM     37  C   UNL     1      15.787  -0.732  -3.540  1.00  0.00     0.191 C 
BRANCH  37  38
ATOM     38  O   UNL     1      17.107  -0.845  -3.989  1.00  0.00    -0.394 OA
ATOM     39  H   UNL     1      17.600  -1.409  -3.343  1.00  0.00     0.210 HD
ENDBRANCH  37  38
ENDBRANCH  31  37
BRANCH  32  40
ATOM     40  O   UNL     1      17.682   1.694  -2.362  1.00  0.00    -0.387 OA
ATOM     41  H   UNL     1      17.609   2.537  -1.838  1.00  0.00     0.211 HD
ENDBRANCH  32  40
ENDBRANCH   1  27
TORSDOF 12
ENDMDL
MODEL 9
REMARK VINA RESULT:    -5.431      2.408      7.308
REMARK INTER + INTRA:          -8.908
REMARK INTER:                  -8.338
REMARK INTRA:                  -0.569
REMARK UNBOUND:                -0.937
REMARK SMILES O=c1c(O[C@@H]2O[C@H](CO)[C@@H](O)[C@H](O)[C@H]2O)c(-c2ccc(O)c(O)c2)oc2cc(O)cc(O)c12
REMARK SMILES IDX 4 1 3 2 16 3 25 4 2 5 26 6 1 7 33 8 27 9 31 10 28 11 30 12
REMARK SMILES IDX 17 13 20 14 19 15 22 16 18 17 24 18 21 19 23 21 32 23 29 25
REMARK SMILES IDX 5 27 14 28 6 29 12 30 7 31 10 32 15 33 13 35 8 37 9 38 11 40
REMARK H PARENT 21 20 23 22 32 24 29 26 15 34 13 36 9 39 11 41
REMARK Flexibility Score: inf
ROOT
ATOM      1  O   UNL     1      12.580   2.326   0.189  1.00  0.00    -0.454 OA
ENDROOT
BRANCH   1   2
ATOM      2  C   UNL     1      13.170   1.671   1.278  1.00  0.00     0.214 A 
ATOM      3  C   UNL     1      12.673   0.423   1.666  1.00  0.00     0.180 A 
ATOM      4  O   UNL     1      13.276  -0.275   2.618  1.00  0.00    -0.452 OA
ATOM      5  C   UNL     1      14.284   2.195   1.956  1.00  0.00     0.239 A 
ATOM      6  C   UNL     1      14.337   0.172   3.278  1.00  0.00     0.146 A 
ATOM      7  O   UNL     1      14.780   3.282   1.564  1.00  0.00    -0.285 OA
ATOM      8  C   UNL     1      14.861   1.469   3.022  1.00  0.00     0.111 A 
ATOM      9  C   UNL     1      14.936  -0.661   4.227  1.00  0.00     0.094 A 
ATOM     10  C   UNL     1      15.959   1.925   3.807  1.00  0.00     0.134 A 
ATOM     11  C   UNL     1      16.066  -0.234   4.923  1.00  0.00     0.123 A 
ATOM     12  C   UNL     1      16.566   1.054   4.718  1.00  0.00     0.093 A 
BRANCH   3  13
ATOM     13  C   UNL     1      11.467  -0.109   1.022  1.00  0.00     0.025 A 
ATOM     14  C   UNL     1       9.072  -0.801  -0.266  1.00  0.00     0.157 A 
ATOM     15  C   UNL     1       9.088  -0.579   1.118  1.00  0.00     0.051 A 
ATOM     16  C   UNL     1      10.265  -0.714  -1.003  1.00  0.00     0.158 A 
ATOM     17  C   UNL     1      10.279  -0.227   1.758  1.00  0.00     0.016 A 
ATOM     18  C   UNL     1      11.458  -0.375  -0.355  1.00  0.00     0.062 A 
BRANCH  14  19
ATOM     19  O   UNL     1       7.875  -1.100  -0.907  1.00  0.00    -0.504 OA
ATOM     20  H   UNL     1       7.512  -0.514  -1.655  1.00  0.00     0.293 HD
ENDBRANCH  14  19
BRANCH  16  21
ATOM     21  O   UNL     1      10.285  -0.930  -2.380  1.00  0.00    -0.504 OA
ATOM     22  H   UNL     1       9.753  -1.672  -2.813  1.00  0.00     0.293 HD
ENDBRANCH  16  21
ENDBRANCH   3  13
BRANCH  10  23
ATOM     23  O   UNL     1      16.478   3.216   3.733  1.00  0.00    -0.507 OA
ATOM     24  H   UNL     1      17.295   3.469   3.198  1.00  0.00     0.293 HD
ENDBRANCH  10  23
BRANCH  11  25
ATOM     25  O   UNL     1      16.682  -1.098   5.825  1.00  0.00    -0.508 OA
ATOM     26  H   UNL     1      17.173  -0.751   6.637  1.00  0.00     0.293 HD
ENDBRANCH  11  25
ENDBRANCH   1   2
BRANCH   1  27
ATOM     27  C   UNL     1      11.300   2.957   0.224  1.00  0.00     0.339 C 
ATOM     28  C   UNL     1      11.127   3.655   1.606  1.00  0.00     0.214 C 
ATOM     29  O   UNL     1      11.215   3.868  -0.858  1.00  0.00    -0.332 OA
ATOM     30  C   UNL     1      10.839   5.168   1.479  1.00  0.00     0.180 C 
ATOM     31  C   UNL     1       9.957   4.520  -0.852  1.00  0.00     0.179 C 
ATOM     32  C   UNL     1       9.827   5.497   0.350  1.00  0.00     0.177 C 
BRANCH  28  33
ATOM     33  O   UNL     1      10.078   3.052   2.321  1.00  0.00    -0.384 OA
ATOM     34  H   UNL     1      10.495   2.326   2.867  1.00  0.00     0.211 HD
ENDBRANCH  28  33
BRANCH  30  35
ATOM     35  O   UNL     1      12.027   5.901   1.287  1.00  0.00    -0.387 OA
ATOM     36  H   UNL     1      12.212   6.398   2.121  1.00  0.00     0.211 HD
ENDBRANCH  30  35
BRANCH  31  37
ATOM     37  C   UNL     1       9.774   5.245  -2.196  1.00  0.00     0.191 C 
BRANCH  37  38
ATOM     38  O   UNL     1      11.007   5.496  -2.809  1.00  0.00    -0.394 OA
ATOM     39  H   UNL     1      10.838   5.677  -3.767  1.00  0.00     0.210 HD
ENDBRANCH  37  38
ENDBRANCH  31  37
BRANCH  32  40
ATOM     40  O   UNL     1       8.509   5.433   0.841  1.00  0.00    -0.387 OA
ATOM     41  H   UNL     1       8.422   4.577   1.342  1.00  0.00     0.211 HD
ENDBRANCH  32  40
ENDBRANCH   1  27
TORSDOF 12
ENDMDL
