MODEL 1
REMARK VINA RESULT:    -3.905      0.000      0.000
REMARK INTER + INTRA:          -4.115
REMARK INTER:                  -4.590
REMARK INTRA:                   0.475
REMARK UNBOUND:                 0.475
REMARK SMILES O=c1c(O)c(-c2ccc(O)cc2)oc2cc(O)cc(O)c12
REMARK SMILES IDX 5 1 3 2 2 3 1 4 21 5 19 6 18 7 16 8 15 9 14 10 13 11 6 12
REMARK SMILES IDX 7 13 8 14 9 15 12 16 11 17 10 18 4 20 20 22 17 24
REMARK H PARENT 10 19 4 21 20 23 17 25
REMARK Flexibility Score: inf
ROOT
ATOM      1  C   UNL     1      71.848  40.716  20.789  1.00  0.00     0.180 A 
ATOM      2  C   UNL     1      72.305  40.449  22.090  1.00  0.00     0.208 A 
ATOM      3  C   UNL     1      73.688  40.410  22.331  1.00  0.00     0.238 A 
ATOM      4  O   UNL     1      74.092  40.116  23.486  1.00  0.00    -0.285 OA
ATOM      5  C   UNL     1      74.595  40.654  21.272  1.00  0.00     0.111 A 
ATOM      6  C   UNL     1      76.015  40.679  21.411  1.00  0.00     0.134 A 
ATOM      7  C   UNL     1      76.818  40.802  20.270  1.00  0.00     0.093 A 
ATOM      8  C   UNL     1      76.251  40.966  19.004  1.00  0.00     0.123 A 
ATOM      9  C   UNL     1      74.865  41.002  18.866  1.00  0.00     0.094 A 
ATOM     10  C   UNL     1      74.039  40.846  19.981  1.00  0.00     0.146 A 
ATOM     11  O   UNL     1      72.723  40.877  19.804  1.00  0.00    -0.452 OA
ENDROOT
BRANCH   1  12
ATOM     12  C   UNL     1      70.405  40.799  20.462  1.00  0.00     0.021 A 
ATOM     13  C   UNL     1      69.423  40.777  21.470  1.00  0.00     0.016 A 
ATOM     14  C   UNL     1      68.069  40.880  21.138  1.00  0.00     0.047 A 
ATOM     15  C   UNL     1      67.680  41.021  19.800  1.00  0.00     0.115 A 
ATOM     16  C   UNL     1      70.007  40.962  19.125  1.00  0.00     0.016 A 
ATOM     17  C   UNL     1      68.652  41.064  18.797  1.00  0.00     0.047 A 
BRANCH  15  18
ATOM     18  O   UNL     1      66.333  41.125  19.459  1.00  0.00    -0.508 OA
ATOM     19  H   UNL     1      65.630  41.372  20.145  1.00  0.00     0.293 HD
ENDBRANCH  15  18
ENDBRANCH   1  12
BRANCH   2  20
ATOM     20  O   UNL     1      71.394  40.189  23.117  1.00  0.00    -0.502 OA
ATOM     21  H   UNL     1      71.655  39.706  23.969  1.00  0.00     0.293 HD
ENDBRANCH   2  20
BRANCH   6  22
ATOM     22  O   UNL     1      76.681  40.616  22.639  1.00  0.00    -0.507 OA
ATOM     23  H   UNL     1      76.341  40.126  23.453  1.00  0.00     0.293 HD
ENDBRANCH   6  22
BRANCH   8  24
ATOM     24  O   UNL     1      77.058  41.103  17.877  1.00  0.00    -0.508 OA
ATOM     25  H   UNL     1      76.699  40.928  16.944  1.00  0.00     0.293 HD
ENDBRANCH   8  24
TORSDOF 5
ENDMDL
MODEL 2
REMARK VINA RESULT:    -3.903      1.241      2.932
REMARK INTER + INTRA:          -4.112
REMARK INTER:                  -4.686
REMARK INTRA:                   0.573
REMARK UNBOUND:                 0.475
REMARK SMILES O=c1c(O)c(-c2ccc(O)cc2)oc2cc(O)cc(O)c12
REMARK SMILES IDX 5 1 3 2 2 3 1 4 21 5 19 6 18 7 16 8 15 9 14 10 13 11 6 12
REMARK SMILES IDX 7 13 8 14 9 15 12 16 11 17 10 18 4 20 20 22 17 24
REMARK H PARENT 10 19 4 21 20 23 17 25
REMARK Flexibility Score: inf
ROOT
ATOM      1  C   UNL     1      71.909  40.752  20.285  1.00  0.00     0.180 A 
ATOM      2  C   UNL     1      72.767  40.869  19.178  1.00  0.00     0.208 A 
ATOM      3  C   UNL     1      74.152  40.764  19.376  1.00  0.00     0.238 A 
ATOM      4  O   UNL     1      74.918  40.925  18.391  1.00  0.00    -0.285 OA
ATOM      5  C   UNL     1      74.662  40.528  20.676  1.00  0.00     0.111 A 
ATOM      6  C   UNL     1      76.046  40.364  20.987  1.00  0.00     0.134 A 
ATOM      7  C   UNL     1      76.446  40.265  22.325  1.00  0.00     0.093 A 
ATOM      8  C   UNL     1      75.507  40.256  23.359  1.00  0.00     0.123 A 
ATOM      9  C   UNL     1      74.149  40.357  23.061  1.00  0.00     0.094 A 
ATOM     10  C   UNL     1      73.723  40.493  21.738  1.00  0.00     0.146 A 
ATOM     11  O   UNL     1      72.420  40.595  21.500  1.00  0.00    -0.452 OA
ENDROOT
BRANCH   1  12
ATOM     12  C   UNL     1      70.435  40.826  20.151  1.00  0.00     0.021 A 
ATOM     13  C   UNL     1      69.596  40.847  21.280  1.00  0.00     0.016 A 
ATOM     14  C   UNL     1      68.210  40.941  21.128  1.00  0.00     0.047 A 
ATOM     15  C   UNL     1      67.646  41.031  19.849  1.00  0.00     0.115 A 
ATOM     16  C   UNL     1      69.862  40.937  18.873  1.00  0.00     0.016 A 
ATOM     17  C   UNL     1      68.476  41.031  18.724  1.00  0.00     0.047 A 
BRANCH  15  18
ATOM     18  O   UNL     1      66.266  41.125  19.686  1.00  0.00    -0.508 OA
ATOM     19  H   UNL     1      65.771  40.550  19.014  1.00  0.00     0.293 HD
ENDBRANCH  15  18
ENDBRANCH   1  12
BRANCH   2  20
ATOM     20  O   UNL     1      72.245  41.125  17.907  1.00  0.00    -0.502 OA
ATOM     21  H   UNL     1      71.749  40.423  17.371  1.00  0.00     0.293 HD
ENDBRANCH   2  20
BRANCH   6  22
ATOM     22  O   UNL     1      77.056  40.267  20.024  1.00  0.00    -0.507 OA
ATOM     23  H   UNL     1      77.325  41.009  19.396  1.00  0.00     0.293 HD
ENDBRANCH   6  22
BRANCH   8  24
ATOM     24  O   UNL     1      75.912  40.141  24.686  1.00  0.00    -0.508 OA
ATOM     25  H   UNL     1      75.382  39.597  25.358  1.00  0.00     0.293 HD
ENDBRANCH   8  24
TORSDOF 5
ENDMDL
MODEL 3
REMARK VINA RESULT:    -1.786      2.004      6.500
REMARK INTER + INTRA:          -1.623
REMARK INTER:                  -1.676
REMARK INTRA:                   0.052
REMARK UNBOUND:                 0.475
REMARK SMILES O=c1c(O)c(-c2ccc(O)cc2)oc2cc(O)cc(O)c12
REMARK SMILES IDX 5 1 3 2 2 3 1 4 21 5 19 6 18 7 16 8 15 9 14 10 13 11 6 12
REMARK SMILES IDX 7 13 8 14 9 15 12 16 11 17 10 18 4 20 20 22 17 24
REMARK H PARENT 10 19 4 21 20 23 17 25
REMARK Flexibility Score: inf
ROOT
ATOM      1  C   UNL     1      72.541  39.518  20.041  1.00  0.00     0.180 A 
ATOM      2  C   UNL     1      72.397  39.797  21.411  1.00  0.00     0.208 A 
ATOM      3  C   UNL     1      71.160  40.261  21.885  1.00  0.00     0.238 A 
ATOM      4  O   UNL     1      71.053  40.561  23.102  1.00  0.00    -0.285 OA
ATOM      5  C   UNL     1      70.078  40.426  20.987  1.00  0.00     0.111 A 
ATOM      6  C   UNL     1      68.769  40.852  21.364  1.00  0.00     0.134 A 
ATOM      7  C   UNL     1      67.813  41.105  20.373  1.00  0.00     0.093 A 
ATOM      8  C   UNL     1      68.099  40.884  19.023  1.00  0.00     0.123 A 
ATOM      9  C   UNL     1      69.355  40.412  18.650  1.00  0.00     0.094 A 
ATOM     10  C   UNL     1      70.341  40.185  19.614  1.00  0.00     0.146 A 
ATOM     11  O   UNL     1      71.528  39.744  19.214  1.00  0.00    -0.452 OA
ENDROOT
BRANCH   1  12
ATOM     12  C   UNL     1      73.807  39.001  19.472  1.00  0.00     0.021 A 
ATOM     13  C   UNL     1      75.041  39.617  19.748  1.00  0.00     0.016 A 
ATOM     14  C   UNL     1      76.225  39.096  19.218  1.00  0.00     0.047 A 
ATOM     15  C   UNL     1      76.193  37.946  18.419  1.00  0.00     0.115 A 
ATOM     16  C   UNL     1      73.787  37.836  18.686  1.00  0.00     0.016 A 
ATOM     17  C   UNL     1      74.972  37.318  18.157  1.00  0.00     0.047 A 
BRANCH  15  18
ATOM     18  O   UNL     1      77.367  37.419  17.885  1.00  0.00    -0.508 OA
ATOM     19  H   UNL     1      77.348  36.705  17.167  1.00  0.00     0.293 HD
ENDBRANCH  15  18
ENDBRANCH   1  12
BRANCH   2  20
ATOM     20  O   UNL     1      73.484  39.649  22.277  1.00  0.00    -0.502 OA
ATOM     21  H   UNL     1      74.122  40.408  22.486  1.00  0.00     0.293 HD
ENDBRANCH   2  20
BRANCH   6  22
ATOM     22  O   UNL     1      68.352  41.014  22.689  1.00  0.00    -0.507 OA
ATOM     23  H   UNL     1      67.681  41.700  23.001  1.00  0.00     0.293 HD
ENDBRANCH   6  22
BRANCH   8  24
ATOM     24  O   UNL     1      67.137  41.124  18.044  1.00  0.00    -0.508 OA
ATOM     25  H   UNL     1      66.683  40.364  17.550  1.00  0.00     0.293 HD
ENDBRANCH   8  24
TORSDOF 5
ENDMDL
