MODEL 1
REMARK VINA RESULT:    -4.960      0.000      0.000
REMARK INTER + INTRA:          -9.154
REMARK INTER:                  -8.440
REMARK INTRA:                  -0.714
REMARK UNBOUND:                -0.714
REMARK SMILES CCCCCCCCCCCCCC(=O)[O-]
REMARK SMILES IDX 8 1 9 2 10 3 11 4 12 5 13 6 14 7 15 8 16 9 7 10 6 11 5 12
REMARK SMILES IDX 4 13 3 14 2 15 1 16
REMARK H PARENT
REMARK Flexibility Score: inf
ROOT
ATOM      1  C   UNL     1       3.086  -9.590  -3.698  1.00  0.00     0.000 C 
ENDROOT
BRANCH   1   2
ATOM      2  C   UNL     1       2.088  -8.857  -2.776  1.00  0.00     0.000 C 
BRANCH   2   3
ATOM      3  C   UNL     1       2.155  -9.371  -1.326  1.00  0.00     0.000 C 
BRANCH   3   4
ATOM      4  C   UNL     1       0.946  -8.934  -0.484  1.00  0.00     0.000 C 
BRANCH   4   5
ATOM      5  C   UNL     1       0.130 -10.125   0.046  1.00  0.00     0.006 C 
BRANCH   5   6
ATOM      6  C   UNL     1      -1.329 -10.083  -0.425  1.00  0.00     0.053 C 
BRANCH   6   7
ATOM      7  C   UNL     1      -2.186  -9.266   0.493  1.00  0.00     0.041 C 
ATOM      8  O   UNL     1      -2.573  -8.118   0.146  1.00  0.00    -0.550 OA
ATOM      9  O   UNL     1      -2.534  -9.759   1.743  1.00  0.00    -0.550 OA
ENDBRANCH   6   7
ENDBRANCH   5   6
ENDBRANCH   4   5
ENDBRANCH   3   4
ENDBRANCH   2   3
ENDBRANCH   1   2
BRANCH   1  10
ATOM     10  C   UNL     1       4.448  -8.886  -3.816  1.00  0.00     0.000 C 
BRANCH  10  11
ATOM     11  C   UNL     1       4.799  -8.502  -5.263  1.00  0.00    -0.000 C 
BRANCH  11  12
ATOM     12  C   UNL     1       3.668  -8.831  -6.251  1.00  0.00    -0.000 C 
BRANCH  12  13
ATOM     13  C   UNL     1       3.013  -7.572  -6.842  1.00  0.00    -0.000 C 
BRANCH  13  14
ATOM     14  C   UNL     1       2.571  -6.612  -5.731  1.00  0.00    -0.000 C 
BRANCH  14  15
ATOM     15  C   UNL     1       1.861  -5.384  -6.314  1.00  0.00    -0.003 C 
ATOM     16  C   UNL     1       0.885  -4.781  -5.308  1.00  0.00     0.004 C 
ENDBRANCH  14  15
ENDBRANCH  13  14
ENDBRANCH  12  13
ENDBRANCH  11  12
ENDBRANCH  10  11
ENDBRANCH   1  10
TORSDOF 12
ENDMDL
MODEL 2
REMARK VINA RESULT:    -4.717      3.360      6.830
REMARK INTER + INTRA:          -8.740
REMARK INTER:                  -7.912
REMARK INTRA:                  -0.828
REMARK UNBOUND:                -0.714
REMARK SMILES CCCCCCCCCCCCCC(=O)[O-]
REMARK SMILES IDX 8 1 9 2 10 3 11 4 12 5 13 6 14 7 15 8 16 9 7 10 6 11 5 12
REMARK SMILES IDX 4 13 3 14 2 15 1 16
REMARK H PARENT
REMARK Flexibility Score: inf
ROOT
ATOM      1  C   UNL     1       3.147  -9.922  -3.947  1.00  0.00     0.000 C 
ENDROOT
BRANCH   1   2
ATOM      2  C   UNL     1       4.398  -9.030  -3.800  1.00  0.00     0.000 C 
BRANCH   2   3
ATOM      3  C   UNL     1       4.694  -8.233  -5.083  1.00  0.00     0.000 C 
BRANCH   3   4
ATOM      4  C   UNL     1       3.797  -8.647  -6.260  1.00  0.00     0.000 C 
BRANCH   4   5
ATOM      5  C   UNL     1       2.871  -7.511  -6.728  1.00  0.00     0.006 C 
BRANCH   5   6
ATOM      6  C   UNL     1       2.326  -6.688  -5.554  1.00  0.00     0.053 C 
BRANCH   6   7
ATOM      7  C   UNL     1       1.902  -5.317  -5.986  1.00  0.00     0.041 C 
ATOM      8  O   UNL     1       2.582  -4.309  -5.657  1.00  0.00    -0.550 OA
ATOM      9  O   UNL     1       0.740  -5.149  -6.727  1.00  0.00    -0.550 OA
ENDBRANCH   6   7
ENDBRANCH   5   6
ENDBRANCH   4   5
ENDBRANCH   3   4
ENDBRANCH   2   3
ENDBRANCH   1   2
BRANCH   1  10
ATOM     10  C   UNL     1       2.325 -10.049  -2.653  1.00  0.00     0.000 C 
BRANCH  10  11
ATOM     11  C   UNL     1       1.524  -8.777  -2.327  1.00  0.00    -0.000 C 
BRANCH  11  12
ATOM     12  C   UNL     1       0.412  -9.028  -1.296  1.00  0.00    -0.000 C 
BRANCH  12  13
ATOM     13  C   UNL     1      -0.523  -7.820  -1.128  1.00  0.00    -0.000 C 
BRANCH  13  14
ATOM     14  C   UNL     1      -1.824  -8.228  -0.426  1.00  0.00    -0.000 C 
BRANCH  14  15
ATOM     15  C   UNL     1      -1.712  -9.639   0.164  1.00  0.00    -0.003 C 
ATOM     16  C   UNL     1      -2.595  -9.791   1.399  1.00  0.00     0.004 C 
ENDBRANCH  14  15
ENDBRANCH  13  14
ENDBRANCH  12  13
ENDBRANCH  11  12
ENDBRANCH  10  11
ENDBRANCH   1  10
TORSDOF 12
ENDMDL
MODEL 3
REMARK VINA RESULT:    -4.557      3.755      6.787
REMARK INTER + INTRA:          -8.467
REMARK INTER:                  -7.349
REMARK INTRA:                  -1.118
REMARK UNBOUND:                -0.714
REMARK SMILES CCCCCCCCCCCCCC(=O)[O-]
REMARK SMILES IDX 8 1 9 2 10 3 11 4 12 5 13 6 14 7 15 8 16 9 7 10 6 11 5 12
REMARK SMILES IDX 4 13 3 14 2 15 1 16
REMARK H PARENT
REMARK Flexibility Score: inf
ROOT
ATOM      1  C   UNL     1       1.567  -9.253  -0.060  1.00  0.00     0.000 C 
ENDROOT
BRANCH   1   2
ATOM      2  C   UNL     1       1.805 -10.074  -1.346  1.00  0.00     0.000 C 
BRANCH   2   3
ATOM      3  C   UNL     1       2.596  -9.280  -2.401  1.00  0.00     0.000 C 
BRANCH   3   4
ATOM      4  C   UNL     1       1.751  -8.922  -3.633  1.00  0.00     0.000 C 
BRANCH   4   5
ATOM      5  C   UNL     1       2.591  -8.331  -4.777  1.00  0.00     0.006 C 
BRANCH   5   6
ATOM      6  C   UNL     1       3.607  -9.338  -5.330  1.00  0.00     0.053 C 
BRANCH   6   7
ATOM      7  C   UNL     1       5.016  -8.864  -5.146  1.00  0.00     0.041 C 
ATOM      8  O   UNL     1       5.960  -9.424  -5.765  1.00  0.00    -0.550 OA
ATOM      9  O   UNL     1       5.292  -7.824  -4.270  1.00  0.00    -0.550 OA
ENDBRANCH   6   7
ENDBRANCH   5   6
ENDBRANCH   4   5
ENDBRANCH   3   4
ENDBRANCH   2   3
ENDBRANCH   1   2
BRANCH   1  10
ATOM     10  C   UNL     1       0.369  -9.743   0.771  1.00  0.00     0.000 C 
BRANCH  10  11
ATOM     11  C   UNL     1      -0.842 -10.125  -0.095  1.00  0.00    -0.000 C 
BRANCH  11  12
ATOM     12  C   UNL     1      -2.132  -9.413   0.346  1.00  0.00    -0.000 C 
BRANCH  12  13
ATOM     13  C   UNL     1      -2.155  -7.929  -0.054  1.00  0.00    -0.000 C 
BRANCH  13  14
ATOM     14  C   UNL     1      -1.304  -7.685  -1.306  1.00  0.00    -0.000 C 
BRANCH  14  15
ATOM     15  C   UNL     1      -0.274  -6.575  -1.065  1.00  0.00    -0.003 C 
ATOM     16  C   UNL     1       0.019  -5.806  -2.350  1.00  0.00     0.004 C 
ENDBRANCH  14  15
ENDBRANCH  13  14
ENDBRANCH  12  13
ENDBRANCH  11  12
ENDBRANCH  10  11
ENDBRANCH   1  10
TORSDOF 12
ENDMDL
MODEL 4
REMARK VINA RESULT:    -4.467      1.517      2.717
REMARK INTER + INTRA:          -8.315
REMARK INTER:                  -7.896
REMARK INTRA:                  -0.418
REMARK UNBOUND:                -0.714
REMARK SMILES CCCCCCCCCCCCCC(=O)[O-]
REMARK SMILES IDX 8 1 9 2 10 3 11 4 12 5 13 6 14 7 15 8 16 9 7 10 6 11 5 12
REMARK SMILES IDX 4 13 3 14 2 15 1 16
REMARK H PARENT
REMARK Flexibility Score: inf
ROOT
ATOM      1  C   UNL     1       1.765  -9.250  -1.824  1.00  0.00     0.000 C 
ENDROOT
BRANCH   1   2
ATOM      2  C   UNL     1       1.077  -7.868  -1.794  1.00  0.00     0.000 C 
BRANCH   2   3
ATOM      3  C   UNL     1       0.061  -7.753  -0.644  1.00  0.00     0.000 C 
BRANCH   3   4
ATOM      4  C   UNL     1      -1.389  -7.643  -1.140  1.00  0.00     0.000 C 
BRANCH   4   5
ATOM      5  C   UNL     1      -2.037  -9.016  -1.387  1.00  0.00     0.006 C 
BRANCH   5   6
ATOM      6  C   UNL     1      -1.378 -10.125  -0.558  1.00  0.00     0.053 C 
BRANCH   6   7
ATOM      7  C   UNL     1      -1.629  -9.947   0.909  1.00  0.00     0.041 C 
ATOM      8  O   UNL     1      -0.670  -9.978   1.725  1.00  0.00    -0.550 OA
ATOM      9  O   UNL     1      -2.924  -9.775   1.377  1.00  0.00    -0.550 OA
ENDBRANCH   6   7
ENDBRANCH   5   6
ENDBRANCH   4   5
ENDBRANCH   3   4
ENDBRANCH   2   3
ENDBRANCH   1   2
BRANCH   1  10
ATOM     10  C   UNL     1       1.388 -10.101  -3.049  1.00  0.00     0.000 C 
BRANCH  10  11
ATOM     11  C   UNL     1       2.263  -9.800  -4.277  1.00  0.00    -0.000 C 
BRANCH  11  12
ATOM     12  C   UNL     1       3.691  -9.376  -3.895  1.00  0.00    -0.000 C 
BRANCH  12  13
ATOM     13  C   UNL     1       4.225  -8.235  -4.774  1.00  0.00    -0.000 C 
BRANCH  13  14
ATOM     14  C   UNL     1       3.094  -7.594  -5.587  1.00  0.00    -0.000 C 
BRANCH  14  15
ATOM     15  C   UNL     1       2.986  -8.231  -6.977  1.00  0.00    -0.003 C 
ATOM     16  C   UNL     1       4.340  -8.752  -7.452  1.00  0.00     0.004 C 
ENDBRANCH  14  15
ENDBRANCH  13  14
ENDBRANCH  12  13
ENDBRANCH  11  12
ENDBRANCH  10  11
ENDBRANCH   1  10
TORSDOF 12
ENDMDL
MODEL 5
REMARK VINA RESULT:    -4.453      1.372      2.066
REMARK INTER + INTRA:          -8.290
REMARK INTER:                  -7.103
REMARK INTRA:                  -1.186
REMARK UNBOUND:                -0.714
REMARK SMILES CCCCCCCCCCCCCC(=O)[O-]
REMARK SMILES IDX 8 1 9 2 10 3 11 4 12 5 13 6 14 7 15 8 16 9 7 10 6 11 5 12
REMARK SMILES IDX 4 13 3 14 2 15 1 16
REMARK H PARENT
REMARK Flexibility Score: inf
ROOT
ATOM      1  C   UNL     1       4.902  -8.568  -4.092  1.00  0.00     0.000 C 
ENDROOT
BRANCH   1   2
ATOM      2  C   UNL     1       3.733  -8.892  -3.137  1.00  0.00     0.000 C 
BRANCH   2   3
ATOM      3  C   UNL     1       2.831 -10.013  -3.685  1.00  0.00     0.000 C 
BRANCH   3   4
ATOM      4  C   UNL     1       1.399  -9.947  -3.133  1.00  0.00     0.000 C 
BRANCH   4   5
ATOM      5  C   UNL     1       1.343  -9.414  -1.691  1.00  0.00     0.006 C 
BRANCH   5   6
ATOM      6  C   UNL     1      -0.063  -9.522  -1.088  1.00  0.00     0.053 C 
BRANCH   6   7
ATOM      7  C   UNL     1      -0.718  -8.181  -0.960  1.00  0.00     0.041 C 
ATOM      8  O   UNL     1      -1.951  -8.097  -0.719  1.00  0.00    -0.550 OA
ATOM      9  O   UNL     1       0.028  -7.023  -1.136  1.00  0.00    -0.550 OA
ENDBRANCH   6   7
ENDBRANCH   5   6
ENDBRANCH   4   5
ENDBRANCH   3   4
ENDBRANCH   2   3
ENDBRANCH   1   2
BRANCH   1  10
ATOM     10  C   UNL     1       5.151  -9.654  -5.153  1.00  0.00     0.000 C 
BRANCH  10  11
ATOM     11  C   UNL     1       5.200  -9.090  -6.583  1.00  0.00    -0.000 C 
BRANCH  11  12
ATOM     12  C   UNL     1       3.857  -9.229  -7.319  1.00  0.00    -0.000 C 
BRANCH  12  13
ATOM     13  C   UNL     1       3.158  -7.878  -7.537  1.00  0.00    -0.000 C 
BRANCH  13  14
ATOM     14  C   UNL     1       2.445  -7.418  -6.259  1.00  0.00    -0.000 C 
BRANCH  14  15
ATOM     15  C   UNL     1       2.616  -5.909  -6.046  1.00  0.00    -0.003 C 
ATOM     16  C   UNL     1       1.283  -5.179  -6.180  1.00  0.00     0.004 C 
ENDBRANCH  14  15
ENDBRANCH  13  14
ENDBRANCH  12  13
ENDBRANCH  11  12
ENDBRANCH  10  11
ENDBRANCH   1  10
TORSDOF 12
ENDMDL
MODEL 6
REMARK VINA RESULT:    -4.415      1.251      2.042
REMARK INTER + INTRA:          -8.226
REMARK INTER:                  -7.598
REMARK INTRA:                  -0.627
REMARK UNBOUND:                -0.714
REMARK SMILES CCCCCCCCCCCCCC(=O)[O-]
REMARK SMILES IDX 8 1 9 2 10 3 11 4 12 5 13 6 14 7 15 8 16 9 7 10 6 11 5 12
REMARK SMILES IDX 4 13 3 14 2 15 1 16
REMARK H PARENT
REMARK Flexibility Score: inf
ROOT
ATOM      1  C   UNL     1       1.806  -8.954  -3.045  1.00  0.00     0.000 C 
ENDROOT
BRANCH   1   2
ATOM      2  C   UNL     1       0.866  -9.299  -1.870  1.00  0.00     0.000 C 
BRANCH   2   3
ATOM      3  C   UNL     1      -0.351 -10.124  -2.325  1.00  0.00     0.000 C 
BRANCH   3   4
ATOM      4  C   UNL     1      -1.577  -9.925  -1.421  1.00  0.00     0.000 C 
BRANCH   4   5
ATOM      5  C   UNL     1      -1.823  -8.447  -1.074  1.00  0.00     0.006 C 
BRANCH   5   6
ATOM      6  C   UNL     1      -1.773  -8.191   0.438  1.00  0.00     0.053 C 
BRANCH   6   7
ATOM      7  C   UNL     1      -1.852  -9.466   1.220  1.00  0.00     0.041 C 
ATOM      8  O   UNL     1      -2.972  -9.951   1.531  1.00  0.00    -0.550 OA
ATOM      9  O   UNL     1      -0.690 -10.103   1.632  1.00  0.00    -0.550 OA
ENDBRANCH   6   7
ENDBRANCH   5   6
ENDBRANCH   4   5
ENDBRANCH   3   4
ENDBRANCH   2   3
ENDBRANCH   1   2
BRANCH   1  10
ATOM     10  C   UNL     1       3.154  -9.693  -2.994  1.00  0.00     0.000 C 
BRANCH  10  11
ATOM     11  C   UNL     1       3.685 -10.062  -4.389  1.00  0.00    -0.000 C 
BRANCH  11  12
ATOM     12  C   UNL     1       4.271  -8.853  -5.137  1.00  0.00    -0.000 C 
BRANCH  12  13
ATOM     13  C   UNL     1       4.088  -8.952  -6.659  1.00  0.00    -0.000 C 
BRANCH  13  14
ATOM     14  C   UNL     1       3.513  -7.649  -7.228  1.00  0.00    -0.000 C 
BRANCH  14  15
ATOM     15  C   UNL     1       2.459  -7.055  -6.286  1.00  0.00    -0.003 C 
ATOM     16  C   UNL     1       2.452  -5.531  -6.357  1.00  0.00     0.004 C 
ENDBRANCH  14  15
ENDBRANCH  13  14
ENDBRANCH  12  13
ENDBRANCH  11  12
ENDBRANCH  10  11
ENDBRANCH   1  10
TORSDOF 12
ENDMDL
MODEL 7
REMARK VINA RESULT:    -4.405      1.137      2.022
REMARK INTER + INTRA:          -8.209
REMARK INTER:                  -7.197
REMARK INTRA:                  -1.012
REMARK UNBOUND:                -0.714
REMARK SMILES CCCCCCCCCCCCCC(=O)[O-]
REMARK SMILES IDX 8 1 9 2 10 3 11 4 12 5 13 6 14 7 15 8 16 9 7 10 6 11 5 12
REMARK SMILES IDX 4 13 3 14 2 15 1 16
REMARK H PARENT
REMARK Flexibility Score: inf
ROOT
ATOM      1  C   UNL     1       3.910  -8.861  -4.142  1.00  0.00     0.000 C 
ENDROOT
BRANCH   1   2
ATOM      2  C   UNL     1       3.203 -10.120  -3.595  1.00  0.00     0.000 C 
BRANCH   2   3
ATOM      3  C   UNL     1       1.739  -9.841  -3.211  1.00  0.00     0.000 C 
BRANCH   3   4
ATOM      4  C   UNL     1       1.592  -8.646  -2.257  1.00  0.00     0.000 C 
BRANCH   4   5
ATOM      5  C   UNL     1       1.468  -9.074  -0.785  1.00  0.00     0.006 C 
BRANCH   5   6
ATOM      6  C   UNL     1       0.235  -9.954  -0.540  1.00  0.00     0.053 C 
BRANCH   6   7
ATOM      7  C   UNL     1      -1.029  -9.271  -0.964  1.00  0.00     0.041 C 
ATOM      8  O   UNL     1      -1.465  -8.283  -0.315  1.00  0.00    -0.550 OA
ATOM      9  O   UNL     1      -1.741  -9.741  -2.059  1.00  0.00    -0.550 OA
ENDBRANCH   6   7
ENDBRANCH   5   6
ENDBRANCH   4   5
ENDBRANCH   3   4
ENDBRANCH   2   3
ENDBRANCH   1   2
BRANCH   1  10
ATOM     10  C   UNL     1       4.306  -8.970  -5.624  1.00  0.00     0.000 C 
BRANCH  10  11
ATOM     11  C   UNL     1       3.522  -8.002  -6.525  1.00  0.00    -0.000 C 
BRANCH  11  12
ATOM     12  C   UNL     1       2.494  -7.169  -5.742  1.00  0.00    -0.000 C 
BRANCH  12  13
ATOM     13  C   UNL     1       2.094  -5.879  -6.476  1.00  0.00    -0.000 C 
BRANCH  13  14
ATOM     14  C   UNL     1       1.909  -4.721  -5.488  1.00  0.00    -0.000 C 
BRANCH  14  15
ATOM     15  C   UNL     1       0.438  -4.577  -5.078  1.00  0.00    -0.003 C 
ATOM     16  C   UNL     1       0.305  -4.309  -3.582  1.00  0.00     0.004 C 
ENDBRANCH  14  15
ENDBRANCH  13  14
ENDBRANCH  12  13
ENDBRANCH  11  12
ENDBRANCH  10  11
ENDBRANCH   1  10
TORSDOF 12
ENDMDL
MODEL 8
REMARK VINA RESULT:    -4.378      2.626      4.147
REMARK INTER + INTRA:          -8.164
REMARK INTER:                  -7.225
REMARK INTRA:                  -0.938
REMARK UNBOUND:                -0.714
REMARK SMILES CCCCCCCCCCCCCC(=O)[O-]
REMARK SMILES IDX 8 1 9 2 10 3 11 4 12 5 13 6 14 7 15 8 16 9 7 10 6 11 5 12
REMARK SMILES IDX 4 13 3 14 2 15 1 16
REMARK H PARENT
REMARK Flexibility Score: inf
ROOT
ATOM      1  C   UNL     1       1.490  -9.689  -0.265  1.00  0.00     0.000 C 
ENDROOT
BRANCH   1   2
ATOM      2  C   UNL     1       0.166 -10.107   0.411  1.00  0.00     0.000 C 
BRANCH   2   3
ATOM      3  C   UNL     1      -1.051  -9.858  -0.497  1.00  0.00     0.000 C 
BRANCH   3   4
ATOM      4  C   UNL     1      -1.683  -8.475  -0.277  1.00  0.00     0.000 C 
BRANCH   4   5
ATOM      5  C   UNL     1      -1.347  -7.483  -1.403  1.00  0.00     0.006 C 
BRANCH   5   6
ATOM      6  C   UNL     1       0.034  -6.842  -1.217  1.00  0.00     0.053 C 
BRANCH   6   7
ATOM      7  C   UNL     1       0.075  -5.443  -1.754  1.00  0.00     0.041 C 
ATOM      8  O   UNL     1      -0.197  -5.220  -2.963  1.00  0.00    -0.550 OA
ATOM      9  O   UNL     1       0.442  -4.391  -0.927  1.00  0.00    -0.550 OA
ENDBRANCH   6   7
ENDBRANCH   5   6
ENDBRANCH   4   5
ENDBRANCH   3   4
ENDBRANCH   2   3
ENDBRANCH   1   2
BRANCH   1  10
ATOM     10  C   UNL     1       1.591 -10.114  -1.739  1.00  0.00     0.000 C 
BRANCH  10  11
ATOM     11  C   UNL     1       2.560  -9.236  -2.548  1.00  0.00    -0.000 C 
BRANCH  11  12
ATOM     12  C   UNL     1       2.000  -8.856  -3.929  1.00  0.00    -0.000 C 
BRANCH  12  13
ATOM     13  C   UNL     1       3.068  -8.260  -4.859  1.00  0.00    -0.000 C 
BRANCH  13  14
ATOM     14  C   UNL     1       4.470  -8.732  -4.455  1.00  0.00    -0.000 C 
BRANCH  14  15
ATOM     15  C   UNL     1       5.258  -9.226  -5.674  1.00  0.00    -0.003 C 
ATOM     16  C   UNL     1       4.468  -9.015  -6.963  1.00  0.00     0.004 C 
ENDBRANCH  14  15
ENDBRANCH  13  14
ENDBRANCH  12  13
ENDBRANCH  11  12
ENDBRANCH  10  11
ENDBRANCH   1  10
TORSDOF 12
ENDMDL
MODEL 9
REMARK VINA RESULT:    -4.196      3.937      6.334
REMARK INTER + INTRA:          -7.854
REMARK INTER:                  -6.774
REMARK INTRA:                  -1.080
REMARK UNBOUND:                -0.714
REMARK SMILES CCCCCCCCCCCCCC(=O)[O-]
REMARK SMILES IDX 8 1 9 2 10 3 11 4 12 5 13 6 14 7 15 8 16 9 7 10 6 11 5 12
REMARK SMILES IDX 4 13 3 14 2 15 1 16
REMARK H PARENT
REMARK Flexibility Score: inf
ROOT
ATOM      1  C   UNL     1      -0.261  -9.984  -1.016  1.00  0.00     0.000 C 
ENDROOT
BRANCH   1   2
ATOM      2  C   UNL     1       1.142 -10.034  -0.375  1.00  0.00     0.000 C 
BRANCH   2   3
ATOM      3  C   UNL     1       2.186  -9.265  -1.205  1.00  0.00     0.000 C 
BRANCH   3   4
ATOM      4  C   UNL     1       1.753  -9.064  -2.666  1.00  0.00     0.000 C 
BRANCH   4   5
ATOM      5  C   UNL     1       2.777  -9.620  -3.670  1.00  0.00     0.006 C 
BRANCH   5   6
ATOM      6  C   UNL     1       2.880  -8.753  -4.931  1.00  0.00     0.053 C 
BRANCH   6   7
ATOM      7  C   UNL     1       4.306  -8.496  -5.313  1.00  0.00     0.041 C 
ATOM      8  O   UNL     1       4.744  -8.887  -6.428  1.00  0.00    -0.550 OA
ATOM      9  O   UNL     1       5.159  -7.852  -4.428  1.00  0.00    -0.550 OA
ENDBRANCH   6   7
ENDBRANCH   5   6
ENDBRANCH   4   5
ENDBRANCH   3   4
ENDBRANCH   2   3
ENDBRANCH   1   2
BRANCH   1  10
ATOM     10  C   UNL     1      -1.367  -9.535  -0.046  1.00  0.00     0.000 C 
BRANCH  10  11
ATOM     11  C   UNL     1      -1.739  -8.052  -0.209  1.00  0.00    -0.000 C 
BRANCH  11  12
ATOM     12  C   UNL     1      -1.139  -7.429  -1.480  1.00  0.00    -0.000 C 
BRANCH  12  13
ATOM     13  C   UNL     1      -0.151  -6.292  -1.175  1.00  0.00    -0.000 C 
BRANCH  13  14
ATOM     14  C   UNL     1      -0.007  -5.354  -2.378  1.00  0.00    -0.000 C 
BRANCH  14  15
ATOM     15  C   UNL     1       0.688  -4.047  -1.977  1.00  0.00    -0.003 C 
ATOM     16  C   UNL     1       0.653  -3.845  -0.465  1.00  0.00     0.004 C 
ENDBRANCH  14  15
ENDBRANCH  13  14
ENDBRANCH  12  13
ENDBRANCH  11  12
ENDBRANCH  10  11
ENDBRANCH   1  10
TORSDOF 12
ENDMDL
