MODEL 1
REMARK VINA RESULT:    -8.479      0.000      0.000
REMARK INTER + INTRA:         -13.651
REMARK INTER:                 -12.196
REMARK INTRA:                  -1.455
REMARK UNBOUND:                -1.455
REMARK SMILES O=c1c(O[C@@H]2O[C@H](CO)[C@@H](O)[C@@H](O)[C@H]2O)c(-c2ccc(O)cc2)oc2cc(O)cc(O)c12
REMARK SMILES IDX 4 1 3 2 16 3 24 4 2 5 25 6 1 7 32 8 26 9 30 10 27 11 29 12
REMARK SMILES IDX 17 13 18 14 19 15 20 16 23 17 22 18 21 19 31 21 28 23 5 25
REMARK SMILES IDX 14 26 6 27 12 28 7 29 10 30 15 31 13 33 8 35 9 36 11 38
REMARK H PARENT 21 20 31 22 28 24 15 32 13 34 9 37 11 39
REMARK Flexibility Score: inf
ROOT
ATOM      1  O   UNL     1     -13.777  39.085  -7.344  1.00  0.00    -0.454 OA
ENDROOT
BRANCH   1   2
ATOM      2  C   UNL     1     -13.442  37.941  -6.597  1.00  0.00     0.214 A 
ATOM      3  C   UNL     1     -12.204  37.270  -6.711  1.00  0.00     0.180 A 
ATOM      4  O   UNL     1     -11.906  36.282  -5.873  1.00  0.00    -0.452 OA
ATOM      5  C   UNL     1     -14.376  37.464  -5.668  1.00  0.00     0.239 A 
ATOM      6  C   UNL     1     -12.742  35.839  -4.943  1.00  0.00     0.146 A 
ATOM      7  O   UNL     1     -15.508  38.014  -5.600  1.00  0.00    -0.285 OA
ATOM      8  C   UNL     1     -14.033  36.401  -4.809  1.00  0.00     0.111 A 
ATOM      9  C   UNL     1     -12.336  34.797  -4.102  1.00  0.00     0.094 A 
ATOM     10  C   UNL     1     -14.908  35.891  -3.821  1.00  0.00     0.134 A 
ATOM     11  C   UNL     1     -13.206  34.299  -3.126  1.00  0.00     0.123 A 
ATOM     12  C   UNL     1     -14.485  34.843  -2.990  1.00  0.00     0.093 A 
BRANCH   3  13
ATOM     13  C   UNL     1     -11.221  37.589  -7.760  1.00  0.00     0.021 A 
ATOM     14  C   UNL     1     -11.159  36.805  -8.921  1.00  0.00     0.016 A 
ATOM     15  C   UNL     1     -10.249  37.121  -9.935  1.00  0.00     0.047 A 
ATOM     16  C   UNL     1      -9.409  38.233  -9.806  1.00  0.00     0.115 A 
ATOM     17  C   UNL     1     -10.394  38.718  -7.641  1.00  0.00     0.016 A 
ATOM     18  C   UNL     1      -9.487  39.033  -8.658  1.00  0.00     0.047 A 
BRANCH  16  19
ATOM     19  O   UNL     1      -8.507  38.535 -10.824  1.00  0.00    -0.508 OA
ATOM     20  H   UNL     1      -8.028  37.807 -11.339  1.00  0.00     0.293 HD
ENDBRANCH  16  19
ENDBRANCH   3  13
BRANCH  10  21
ATOM     21  O   UNL     1     -16.191  36.416  -3.657  1.00  0.00    -0.507 OA
ATOM     22  H   UNL     1     -16.462  36.908  -2.813  1.00  0.00     0.293 HD
ENDBRANCH  10  21
BRANCH  11  23
ATOM     23  O   UNL     1     -12.808  33.260  -2.288  1.00  0.00    -0.508 OA
ATOM     24  H   UNL     1     -11.833  33.108  -2.058  1.00  0.00     0.293 HD
ENDBRANCH  11  23
ENDBRANCH   1   2
BRANCH   1  25
ATOM     25  C   UNL     1     -14.239  39.074  -8.701  1.00  0.00     0.339 C 
ATOM     26  C   UNL     1     -15.574  39.838  -8.798  1.00  0.00     0.214 C 
ATOM     27  O   UNL     1     -13.229  39.568  -9.577  1.00  0.00    -0.332 OA
ATOM     28  C   UNL     1     -15.375  41.324  -8.425  1.00  0.00     0.180 C 
ATOM     29  C   UNL     1     -13.305  40.959  -9.879  1.00  0.00     0.179 C 
ATOM     30  C   UNL     1     -13.940  41.815  -8.752  1.00  0.00     0.177 C 
BRANCH  26  31
ATOM     31  O   UNL     1     -16.088  39.726 -10.103  1.00  0.00    -0.384 OA
ATOM     32  H   UNL     1     -16.909  39.172 -10.043  1.00  0.00     0.211 HD
ENDBRANCH  26  31
BRANCH  28  33
ATOM     33  O   UNL     1     -16.342  42.106  -9.084  1.00  0.00    -0.387 OA
ATOM     34  H   UNL     1     -17.217  41.649  -8.972  1.00  0.00     0.211 HD
ENDBRANCH  28  33
BRANCH  29  35
ATOM     35  C   UNL     1     -11.891  41.450 -10.226  1.00  0.00     0.191 C 
BRANCH  35  36
ATOM     36  O   UNL     1     -11.937  42.612 -11.013  1.00  0.00    -0.394 OA
ATOM     37  H   UNL     1     -12.838  43.011 -10.881  1.00  0.00     0.210 HD
ENDBRANCH  35  36
ENDBRANCH  29  35
BRANCH  30  38
ATOM     38  O   UNL     1     -13.952  43.170  -9.127  1.00  0.00    -0.387 OA
ATOM     39  H   UNL     1     -13.533  43.677  -8.383  1.00  0.00     0.211 HD
ENDBRANCH  30  38
ENDBRANCH   1  25
TORSDOF 11
ENDMDL
MODEL 2
REMARK VINA RESULT:    -8.187      2.219      2.779
REMARK INTER + INTRA:         -13.231
REMARK INTER:                 -12.012
REMARK INTRA:                  -1.220
REMARK UNBOUND:                -1.455
REMARK SMILES O=c1c(O[C@@H]2O[C@H](CO)[C@@H](O)[C@@H](O)[C@H]2O)c(-c2ccc(O)cc2)oc2cc(O)cc(O)c12
REMARK SMILES IDX 4 1 3 2 16 3 24 4 2 5 25 6 1 7 32 8 26 9 30 10 27 11 29 12
REMARK SMILES IDX 17 13 18 14 19 15 20 16 23 17 22 18 21 19 31 21 28 23 5 25
REMARK SMILES IDX 14 26 6 27 12 28 7 29 10 30 15 31 13 33 8 35 9 36 11 38
REMARK H PARENT 21 20 31 22 28 24 15 32 13 34 9 37 11 39
REMARK Flexibility Score: inf
ROOT
ATOM      1  O   UNL     1     -14.659  39.765  -6.510  1.00  0.00    -0.454 OA
ENDROOT
BRANCH   1   2
ATOM      2  C   UNL     1     -14.717  38.912  -5.392  1.00  0.00     0.214 A 
ATOM      3  C   UNL     1     -13.573  38.457  -4.699  1.00  0.00     0.180 A 
ATOM      4  O   UNL     1     -13.712  37.769  -3.571  1.00  0.00    -0.452 OA
ATOM      5  C   UNL     1     -15.978  38.523  -4.925  1.00  0.00     0.239 A 
ATOM      6  C   UNL     1     -14.891  37.429  -3.066  1.00  0.00     0.146 A 
ATOM      7  O   UNL     1     -17.005  38.870  -5.570  1.00  0.00    -0.285 OA
ATOM      8  C   UNL     1     -16.088  37.776  -3.735  1.00  0.00     0.111 A 
ATOM      9  C   UNL     1     -14.937  36.708  -1.868  1.00  0.00     0.094 A 
ATOM     10  C   UNL     1     -17.328  37.380  -3.181  1.00  0.00     0.134 A 
ATOM     11  C   UNL     1     -16.166  36.321  -1.325  1.00  0.00     0.123 A 
ATOM     12  C   UNL     1     -17.354  36.654  -1.980  1.00  0.00     0.093 A 
BRANCH   3  13
ATOM     13  C   UNL     1     -12.204  38.675  -5.196  1.00  0.00     0.021 A 
ATOM     14  C   UNL     1     -11.353  39.570  -4.530  1.00  0.00     0.016 A 
ATOM     15  C   UNL     1     -10.041  39.757  -4.979  1.00  0.00     0.047 A 
ATOM     16  C   UNL     1      -9.565  39.039  -6.081  1.00  0.00     0.115 A 
ATOM     17  C   UNL     1     -11.717  37.938  -6.288  1.00  0.00     0.016 A 
ATOM     18  C   UNL     1     -10.405  38.127  -6.733  1.00  0.00     0.047 A 
BRANCH  16  19
ATOM     19  O   UNL     1      -8.256  39.238  -6.517  1.00  0.00    -0.508 OA
ATOM     20  H   UNL     1      -8.034  39.323  -7.501  1.00  0.00     0.293 HD
ENDBRANCH  16  19
ENDBRANCH   3  13
BRANCH  10  21
ATOM     21  O   UNL     1     -18.532  37.701  -3.810  1.00  0.00    -0.507 OA
ATOM     22  H   UNL     1     -19.126  38.450  -3.474  1.00  0.00     0.293 HD
ENDBRANCH  10  21
BRANCH  11  23
ATOM     23  O   UNL     1     -16.219  35.601  -0.133  1.00  0.00    -0.508 OA
ATOM     24  H   UNL     1     -16.012  34.608  -0.104  1.00  0.00     0.293 HD
ENDBRANCH  11  23
ENDBRANCH   1   2
BRANCH   1  25
ATOM     25  C   UNL     1     -14.745  39.338  -7.875  1.00  0.00     0.339 C 
ATOM     26  C   UNL     1     -15.892  40.088  -8.580  1.00  0.00     0.214 C 
ATOM     27  O   UNL     1     -13.482  39.478  -8.522  1.00  0.00    -0.332 OA
ATOM     28  C   UNL     1     -15.601  41.604  -8.623  1.00  0.00     0.180 C 
ATOM     29  C   UNL     1     -13.289  40.700  -9.232  1.00  0.00     0.179 C 
ATOM     30  C   UNL     1     -14.077  41.899  -8.646  1.00  0.00     0.177 C 
BRANCH  26  31
ATOM     31  O   UNL     1     -16.054  39.584  -9.883  1.00  0.00    -0.384 OA
ATOM     32  H   UNL     1     -16.404  38.659  -9.794  1.00  0.00     0.211 HD
ENDBRANCH  26  31
BRANCH  28  33
ATOM     33  O   UNL     1     -16.245  42.173  -9.737  1.00  0.00    -0.387 OA
ATOM     34  H   UNL     1     -16.448  41.434 -10.369  1.00  0.00     0.211 HD
ENDBRANCH  28  33
BRANCH  29  35
ATOM     35  C   UNL     1     -11.780  40.990  -9.279  1.00  0.00     0.191 C 
BRANCH  35  36
ATOM     36  O   UNL     1     -11.463  41.848 -10.344  1.00  0.00    -0.394 OA
ATOM     37  H   UNL     1     -10.597  42.278 -10.117  1.00  0.00     0.210 HD
ENDBRANCH  35  36
ENDBRANCH  29  35
BRANCH  30  38
ATOM     38  O   UNL     1     -13.808  43.061  -9.393  1.00  0.00    -0.387 OA
ATOM     39  H   UNL     1     -12.831  43.068  -9.570  1.00  0.00     0.211 HD
ENDBRANCH  30  38
ENDBRANCH   1  25
TORSDOF 11
ENDMDL
MODEL 3
REMARK VINA RESULT:    -8.147      2.312      7.312
REMARK INTER + INTRA:         -13.174
REMARK INTER:                 -12.060
REMARK INTRA:                  -1.114
REMARK UNBOUND:                -1.455
REMARK SMILES O=c1c(O[C@@H]2O[C@H](CO)[C@@H](O)[C@@H](O)[C@H]2O)c(-c2ccc(O)cc2)oc2cc(O)cc(O)c12
REMARK SMILES IDX 4 1 3 2 16 3 24 4 2 5 25 6 1 7 32 8 26 9 30 10 27 11 29 12
REMARK SMILES IDX 17 13 18 14 19 15 20 16 23 17 22 18 21 19 31 21 28 23 5 25
REMARK SMILES IDX 14 26 6 27 12 28 7 29 10 30 15 31 13 33 8 35 9 36 11 38
REMARK H PARENT 21 20 31 22 28 24 15 32 13 34 9 37 11 39
REMARK Flexibility Score: inf
ROOT
ATOM      1  O   UNL     1     -14.310  37.312  -4.716  1.00  0.00    -0.454 OA
ENDROOT
BRANCH   1   2
ATOM      2  C   UNL     1     -13.870  38.308  -5.607  1.00  0.00     0.214 A 
ATOM      3  C   UNL     1     -12.526  38.735  -5.696  1.00  0.00     0.180 A 
ATOM      4  O   UNL     1     -12.162  39.579  -6.656  1.00  0.00    -0.452 OA
ATOM      5  C   UNL     1     -14.811  38.882  -6.471  1.00  0.00     0.239 A 
ATOM      6  C   UNL     1     -13.014  40.101  -7.529  1.00  0.00     0.146 A 
ATOM      7  O   UNL     1     -16.024  38.555  -6.360  1.00  0.00    -0.285 OA
ATOM      8  C   UNL     1     -14.392  39.789  -7.465  1.00  0.00     0.111 A 
ATOM      9  C   UNL     1     -12.535  40.976  -8.510  1.00  0.00     0.094 A 
ATOM     10  C   UNL     1     -15.277  40.378  -8.398  1.00  0.00     0.134 A 
ATOM     11  C   UNL     1     -13.415  41.555  -9.430  1.00  0.00     0.123 A 
ATOM     12  C   UNL     1     -14.779  41.257  -9.371  1.00  0.00     0.093 A 
BRANCH   3  13
ATOM     13  C   UNL     1     -11.493  38.316  -4.734  1.00  0.00     0.021 A 
ATOM     14  C   UNL     1     -10.391  37.569  -5.173  1.00  0.00     0.016 A 
ATOM     15  C   UNL     1      -9.390  37.195  -4.270  1.00  0.00     0.047 A 
ATOM     16  C   UNL     1      -9.474  37.581  -2.927  1.00  0.00     0.115 A 
ATOM     17  C   UNL     1     -11.565  38.722  -3.391  1.00  0.00     0.016 A 
ATOM     18  C   UNL     1     -10.562  38.348  -2.491  1.00  0.00     0.047 A 
BRANCH  16  19
ATOM     19  O   UNL     1      -8.471  37.200  -2.039  1.00  0.00    -0.508 OA
ATOM     20  H   UNL     1      -8.262  36.224  -1.864  1.00  0.00     0.293 HD
ENDBRANCH  16  19
ENDBRANCH   3  13
BRANCH  10  21
ATOM     21  O   UNL     1     -16.644  40.098  -8.368  1.00  0.00    -0.507 OA
ATOM     22  H   UNL     1     -17.298  40.566  -8.984  1.00  0.00     0.293 HD
ENDBRANCH  10  21
BRANCH  11  23
ATOM     23  O   UNL     1     -12.945  42.430 -10.407  1.00  0.00    -0.508 OA
ATOM     24  H   UNL     1     -13.088  42.248 -11.394  1.00  0.00     0.293 HD
ENDBRANCH  11  23
ENDBRANCH   1   2
BRANCH   1  25
ATOM     25  C   UNL     1     -14.999  36.115  -5.098  1.00  0.00     0.339 C 
ATOM     26  C   UNL     1     -14.065  35.227  -5.944  1.00  0.00     0.214 C 
ATOM     27  O   UNL     1     -15.533  35.458  -3.950  1.00  0.00    -0.332 OA
ATOM     28  C   UNL     1     -12.848  34.773  -5.107  1.00  0.00     0.180 C 
ATOM     29  C   UNL     1     -14.707  34.442  -3.385  1.00  0.00     0.179 C 
ATOM     30  C   UNL     1     -13.189  34.675  -3.596  1.00  0.00     0.177 C 
BRANCH  26  31
ATOM     31  O   UNL     1     -14.776  34.110  -6.418  1.00  0.00    -0.384 OA
ATOM     32  H   UNL     1     -15.472  33.902  -5.740  1.00  0.00     0.211 HD
ENDBRANCH  26  31
BRANCH  28  33
ATOM     33  O   UNL     1     -12.374  33.543  -5.601  1.00  0.00    -0.387 OA
ATOM     34  H   UNL     1     -12.337  32.913  -4.834  1.00  0.00     0.211 HD
ENDBRANCH  28  33
BRANCH  29  35
ATOM     35  C   UNL     1     -15.054  34.323  -1.892  1.00  0.00     0.191 C 
BRANCH  35  36
ATOM     36  O   UNL     1     -14.786  33.032  -1.412  1.00  0.00    -0.394 OA
ATOM     37  H   UNL     1     -13.800  32.911  -1.450  1.00  0.00     0.210 HD
ENDBRANCH  35  36
ENDBRANCH  29  35
BRANCH  30  38
ATOM     38  O   UNL     1     -12.456  33.641  -2.988  1.00  0.00    -0.387 OA
ATOM     39  H   UNL     1     -12.380  33.871  -2.025  1.00  0.00     0.211 HD
ENDBRANCH  30  38
ENDBRANCH   1  25
TORSDOF 11
ENDMDL
MODEL 4
REMARK VINA RESULT:    -8.106      4.784      6.905
REMARK INTER + INTRA:         -13.115
REMARK INTER:                 -11.451
REMARK INTRA:                  -1.664
REMARK UNBOUND:                -1.455
REMARK SMILES O=c1c(O[C@@H]2O[C@H](CO)[C@@H](O)[C@@H](O)[C@H]2O)c(-c2ccc(O)cc2)oc2cc(O)cc(O)c12
REMARK SMILES IDX 4 1 3 2 16 3 24 4 2 5 25 6 1 7 32 8 26 9 30 10 27 11 29 12
REMARK SMILES IDX 17 13 18 14 19 15 20 16 23 17 22 18 21 19 31 21 28 23 5 25
REMARK SMILES IDX 14 26 6 27 12 28 7 29 10 30 15 31 13 33 8 35 9 36 11 38
REMARK H PARENT 21 20 31 22 28 24 15 32 13 34 9 37 11 39
REMARK Flexibility Score: inf
ROOT
ATOM      1  O   UNL     1     -13.891  37.809  -2.357  1.00  0.00    -0.454 OA
ENDROOT
BRANCH   1   2
ATOM      2  C   UNL     1     -13.268  37.995  -1.110  1.00  0.00     0.214 A 
ATOM      3  C   UNL     1     -11.914  38.369  -0.963  1.00  0.00     0.180 A 
ATOM      4  O   UNL     1     -11.434  38.662   0.242  1.00  0.00    -0.452 OA
ATOM      5  C   UNL     1     -14.044  37.832   0.045  1.00  0.00     0.239 A 
ATOM      6  C   UNL     1     -12.153  38.574   1.353  1.00  0.00     0.146 A 
ATOM      7  O   UNL     1     -15.237  37.438  -0.068  1.00  0.00    -0.285 OA
ATOM      8  C   UNL     1     -13.497  38.133   1.308  1.00  0.00     0.111 A 
ATOM      9  C   UNL     1     -11.563  38.911   2.576  1.00  0.00     0.094 A 
ATOM     10  C   UNL     1     -14.230  38.031   2.514  1.00  0.00     0.134 A 
ATOM     11  C   UNL     1     -12.294  38.808   3.764  1.00  0.00     0.123 A 
ATOM     12  C   UNL     1     -13.619  38.369   3.731  1.00  0.00     0.093 A 
BRANCH   3  13
ATOM     13  C   UNL     1     -10.974  38.412  -2.095  1.00  0.00     0.021 A 
ATOM     14  C   UNL     1     -10.172  37.297  -2.380  1.00  0.00     0.016 A 
ATOM     15  C   UNL     1      -9.300  37.319  -3.474  1.00  0.00     0.047 A 
ATOM     16  C   UNL     1      -9.237  38.446  -4.301  1.00  0.00     0.115 A 
ATOM     17  C   UNL     1     -10.926  39.533  -2.939  1.00  0.00     0.016 A 
ATOM     18  C   UNL     1     -10.054  39.552  -4.033  1.00  0.00     0.047 A 
BRANCH  16  19
ATOM     19  O   UNL     1      -8.362  38.454  -5.385  1.00  0.00    -0.508 OA
ATOM     20  H   UNL     1      -8.642  38.102  -6.293  1.00  0.00     0.293 HD
ENDBRANCH  16  19
ENDBRANCH   3  13
BRANCH  10  21
ATOM     21  O   UNL     1     -15.557  37.598   2.514  1.00  0.00    -0.507 OA
ATOM     22  H   UNL     1     -16.304  38.169   2.134  1.00  0.00     0.293 HD
ENDBRANCH  10  21
BRANCH  11  23
ATOM     23  O   UNL     1     -11.710  39.139   4.986  1.00  0.00    -0.508 OA
ATOM     24  H   UNL     1     -10.758  38.873   5.207  1.00  0.00     0.293 HD
ENDBRANCH  11  23
ENDBRANCH   1   2
BRANCH   1  25
ATOM     25  C   UNL     1     -14.369  38.862  -3.203  1.00  0.00     0.339 C 
ATOM     26  C   UNL     1     -14.582  38.323  -4.631  1.00  0.00     0.214 C 
ATOM     27  O   UNL     1     -15.529  39.469  -2.638  1.00  0.00    -0.332 OA
ATOM     28  C   UNL     1     -15.679  37.235  -4.640  1.00  0.00     0.180 C 
ATOM     29  C   UNL     1     -16.776  38.948  -3.091  1.00  0.00     0.179 C 
ATOM     30  C   UNL     1     -16.721  37.456  -3.510  1.00  0.00     0.177 C 
BRANCH  26  31
ATOM     31  O   UNL     1     -14.936  39.381  -5.487  1.00  0.00    -0.384 OA
ATOM     32  H   UNL     1     -14.334  39.329  -6.275  1.00  0.00     0.211 HD
ENDBRANCH  26  31
BRANCH  28  33
ATOM     33  O   UNL     1     -16.299  37.206  -5.903  1.00  0.00    -0.387 OA
ATOM     34  H   UNL     1     -16.599  36.273  -6.062  1.00  0.00     0.211 HD
ENDBRANCH  28  33
BRANCH  29  35
ATOM     35  C   UNL     1     -17.820  39.182  -1.987  1.00  0.00     0.191 C 
BRANCH  35  36
ATOM     36  O   UNL     1     -17.886  38.085  -1.114  1.00  0.00    -0.394 OA
ATOM     37  H   UNL     1     -17.209  38.243  -0.404  1.00  0.00     0.210 HD
ENDBRANCH  35  36
ENDBRANCH  29  35
BRANCH  30  38
ATOM     38  O   UNL     1     -17.995  37.025  -3.919  1.00  0.00    -0.387 OA
ATOM     39  H   UNL     1     -18.644  37.706  -3.603  1.00  0.00     0.211 HD
ENDBRANCH  30  38
ENDBRANCH   1  25
TORSDOF 11
ENDMDL
MODEL 5
REMARK VINA RESULT:    -8.072      2.560      3.069
REMARK INTER + INTRA:         -13.065
REMARK INTER:                 -11.523
REMARK INTRA:                  -1.542
REMARK UNBOUND:                -1.455
REMARK SMILES O=c1c(O[C@@H]2O[C@H](CO)[C@@H](O)[C@@H](O)[C@H]2O)c(-c2ccc(O)cc2)oc2cc(O)cc(O)c12
REMARK SMILES IDX 4 1 3 2 16 3 24 4 2 5 25 6 1 7 32 8 26 9 30 10 27 11 29 12
REMARK SMILES IDX 17 13 18 14 19 15 20 16 23 17 22 18 21 19 31 21 28 23 5 25
REMARK SMILES IDX 14 26 6 27 12 28 7 29 10 30 15 31 13 33 8 35 9 36 11 38
REMARK H PARENT 21 20 31 22 28 24 15 32 13 34 9 37 11 39
REMARK Flexibility Score: inf
ROOT
ATOM      1  O   UNL     1     -13.042  38.819  -8.496  1.00  0.00    -0.454 OA
ENDROOT
BRANCH   1   2
ATOM      2  C   UNL     1     -12.181  38.333  -7.496  1.00  0.00     0.214 A 
ATOM      3  C   UNL     1     -11.016  37.581  -7.768  1.00  0.00     0.180 A 
ATOM      4  O   UNL     1     -10.179  37.276  -6.781  1.00  0.00    -0.452 OA
ATOM      5  C   UNL     1     -12.480  38.640  -6.162  1.00  0.00     0.239 A 
ATOM      6  C   UNL     1     -10.399  37.598  -5.513  1.00  0.00     0.146 A 
ATOM      7  O   UNL     1     -13.549  39.256  -5.900  1.00  0.00    -0.285 OA
ATOM      8  C   UNL     1     -11.579  38.283  -5.139  1.00  0.00     0.111 A 
ATOM      9  C   UNL     1      -9.456  37.240  -4.545  1.00  0.00     0.094 A 
ATOM     10  C   UNL     1     -11.793  38.594  -3.776  1.00  0.00     0.134 A 
ATOM     11  C   UNL     1      -9.674  37.550  -3.199  1.00  0.00     0.123 A 
ATOM     12  C   UNL     1     -10.838  38.222  -2.818  1.00  0.00     0.093 A 
BRANCH   3  13
ATOM     13  C   UNL     1     -10.695  37.070  -9.111  1.00  0.00     0.021 A 
ATOM     14  C   UNL     1     -11.463  36.037  -9.667  1.00  0.00     0.016 A 
ATOM     15  C   UNL     1     -11.183  35.569 -10.955  1.00  0.00     0.047 A 
ATOM     16  C   UNL     1     -10.149  36.142 -11.704  1.00  0.00     0.115 A 
ATOM     17  C   UNL     1      -9.673  37.661  -9.872  1.00  0.00     0.016 A 
ATOM     18  C   UNL     1      -9.397  37.192 -11.160  1.00  0.00     0.047 A 
BRANCH  16  19
ATOM     19  O   UNL     1      -9.881  35.665 -12.985  1.00  0.00    -0.508 OA
ATOM     20  H   UNL     1     -10.061  34.701 -13.239  1.00  0.00     0.293 HD
ENDBRANCH  16  19
ENDBRANCH   3  13
BRANCH  10  21
ATOM     21  O   UNL     1     -12.945  39.267  -3.364  1.00  0.00    -0.507 OA
ATOM     22  H   UNL     1     -13.194  39.349  -2.386  1.00  0.00     0.293 HD
ENDBRANCH  10  21
BRANCH  11  23
ATOM     23  O   UNL     1      -8.739  37.193  -2.229  1.00  0.00    -0.508 OA
ATOM     24  H   UNL     1      -8.419  37.857  -1.532  1.00  0.00     0.293 HD
ENDBRANCH  11  23
ENDBRANCH   1   2
BRANCH   1  25
ATOM     25  C   UNL     1     -12.723  39.872  -9.414  1.00  0.00     0.339 C 
ATOM     26  C   UNL     1     -13.761  39.897 -10.553  1.00  0.00     0.214 C 
ATOM     27  O   UNL     1     -12.594  41.114  -8.726  1.00  0.00    -0.332 OA
ATOM     28  C   UNL     1     -15.165  40.225  -9.997  1.00  0.00     0.180 C 
ATOM     29  C   UNL     1     -13.771  41.917  -8.683  1.00  0.00     0.179 C 
ATOM     30  C   UNL     1     -15.090  41.103  -8.720  1.00  0.00     0.177 C 
BRANCH  26  31
ATOM     31  O   UNL     1     -13.383  40.851 -11.516  1.00  0.00    -0.384 OA
ATOM     32  H   UNL     1     -12.810  40.381 -12.178  1.00  0.00     0.211 HD
ENDBRANCH  26  31
BRANCH  28  33
ATOM     33  O   UNL     1     -15.931  40.850 -10.999  1.00  0.00    -0.387 OA
ATOM     34  H   UNL     1     -15.313  41.081 -11.741  1.00  0.00     0.211 HD
ENDBRANCH  28  33
BRANCH  29  35
ATOM     35  C   UNL     1     -13.696  42.806  -7.432  1.00  0.00     0.191 C 
BRANCH  35  36
ATOM     36  O   UNL     1     -13.594  42.031  -6.266  1.00  0.00    -0.394 OA
ATOM     37  H   UNL     1     -14.492  41.640  -6.103  1.00  0.00     0.210 HD
ENDBRANCH  35  36
ENDBRANCH  29  35
BRANCH  30  38
ATOM     38  O   UNL     1     -16.193  41.972  -8.650  1.00  0.00    -0.387 OA
ATOM     39  H   UNL     1     -16.889  41.601  -9.253  1.00  0.00     0.211 HD
ENDBRANCH  30  38
ENDBRANCH   1  25
TORSDOF 11
ENDMDL
MODEL 6
REMARK VINA RESULT:    -8.001      4.761      7.960
REMARK INTER + INTRA:         -12.964
REMARK INTER:                 -11.545
REMARK INTRA:                  -1.419
REMARK UNBOUND:                -1.455
REMARK SMILES O=c1c(O[C@@H]2O[C@H](CO)[C@@H](O)[C@@H](O)[C@H]2O)c(-c2ccc(O)cc2)oc2cc(O)cc(O)c12
REMARK SMILES IDX 4 1 3 2 16 3 24 4 2 5 25 6 1 7 32 8 26 9 30 10 27 11 29 12
REMARK SMILES IDX 17 13 18 14 19 15 20 16 23 17 22 18 21 19 31 21 28 23 5 25
REMARK SMILES IDX 14 26 6 27 12 28 7 29 10 30 15 31 13 33 8 35 9 36 11 38
REMARK H PARENT 21 20 31 22 28 24 15 32 13 34 9 37 11 39
REMARK Flexibility Score: inf
ROOT
ATOM      1  O   UNL     1     -13.008  37.957  -2.444  1.00  0.00    -0.454 OA
ENDROOT
BRANCH   1   2
ATOM      2  C   UNL     1     -13.335  38.167  -1.092  1.00  0.00     0.214 A 
ATOM      3  C   UNL     1     -14.649  38.065  -0.583  1.00  0.00     0.180 A 
ATOM      4  O   UNL     1     -14.860  38.138   0.727  1.00  0.00    -0.452 OA
ATOM      5  C   UNL     1     -12.296  38.459  -0.199  1.00  0.00     0.239 A 
ATOM      6  C   UNL     1     -13.894  38.358   1.609  1.00  0.00     0.146 A 
ATOM      7  O   UNL     1     -11.128  38.614  -0.649  1.00  0.00    -0.285 OA
ATOM      8  C   UNL     1     -12.559  38.549   1.182  1.00  0.00     0.111 A 
ATOM      9  C   UNL     1     -14.212  38.412   2.970  1.00  0.00     0.094 A 
ATOM     10  C   UNL     1     -11.555  38.802   2.147  1.00  0.00     0.134 A 
ATOM     11  C   UNL     1     -13.215  38.661   3.919  1.00  0.00     0.123 A 
ATOM     12  C   UNL     1     -11.895  38.857   3.507  1.00  0.00     0.093 A 
BRANCH   3  13
ATOM     13  C   UNL     1     -15.829  37.920  -1.453  1.00  0.00     0.021 A 
ATOM     14  C   UNL     1     -16.570  39.053  -1.819  1.00  0.00     0.016 A 
ATOM     15  C   UNL     1     -17.673  38.926  -2.670  1.00  0.00     0.047 A 
ATOM     16  C   UNL     1     -18.031  37.672  -3.176  1.00  0.00     0.115 A 
ATOM     17  C   UNL     1     -16.175  36.665  -1.980  1.00  0.00     0.016 A 
ATOM     18  C   UNL     1     -17.277  36.542  -2.832  1.00  0.00     0.047 A 
BRANCH  16  19
ATOM     19  O   UNL     1     -19.132  37.561  -4.022  1.00  0.00    -0.508 OA
ATOM     20  H   UNL     1     -19.580  38.379  -4.417  1.00  0.00     0.293 HD
ENDBRANCH  16  19
ENDBRANCH   3  13
BRANCH  10  21
ATOM     21  O   UNL     1     -10.227  38.998   1.767  1.00  0.00    -0.507 OA
ATOM     22  H   UNL     1      -9.499  38.338   2.014  1.00  0.00     0.293 HD
ENDBRANCH  10  21
BRANCH  11  23
ATOM     23  O   UNL     1     -13.527  38.719   5.276  1.00  0.00    -0.508 OA
ATOM     24  H   UNL     1     -13.402  37.917   5.883  1.00  0.00     0.293 HD
ENDBRANCH  11  23
ENDBRANCH   1   2
BRANCH   1  25
ATOM     25  C   UNL     1     -12.691  36.687  -3.026  1.00  0.00     0.339 C 
ATOM     26  C   UNL     1     -13.300  36.600  -4.439  1.00  0.00     0.214 C 
ATOM     27  O   UNL     1     -11.285  36.457  -2.990  1.00  0.00    -0.332 OA
ATOM     28  C   UNL     1     -12.670  37.664  -5.366  1.00  0.00     0.180 C 
ATOM     29  C   UNL     1     -10.571  36.834  -4.165  1.00  0.00     0.179 C 
ATOM     30  C   UNL     1     -11.217  38.009  -4.944  1.00  0.00     0.177 C 
BRANCH  26  31
ATOM     31  O   UNL     1     -13.092  35.311  -4.964  1.00  0.00    -0.384 OA
ATOM     32  H   UNL     1     -12.960  35.415  -5.942  1.00  0.00     0.211 HD
ENDBRANCH  26  31
BRANCH  28  33
ATOM     33  O   UNL     1     -12.718  37.212  -6.698  1.00  0.00    -0.387 OA
ATOM     34  H   UNL     1     -11.877  36.713  -6.870  1.00  0.00     0.211 HD
ENDBRANCH  28  33
BRANCH  29  35
ATOM     35  C   UNL     1      -9.124  37.157  -3.761  1.00  0.00     0.191 C 
BRANCH  35  36
ATOM     36  O   UNL     1      -9.003  37.280  -2.368  1.00  0.00    -0.394 OA
ATOM     37  H   UNL     1      -9.924  37.243  -1.997  1.00  0.00     0.210 HD
ENDBRANCH  35  36
ENDBRANCH  29  35
BRANCH  30  38
ATOM     38  O   UNL     1     -10.436  38.325  -6.070  1.00  0.00    -0.387 OA
ATOM     39  H   UNL     1      -9.505  38.053  -5.858  1.00  0.00     0.211 HD
ENDBRANCH  30  38
ENDBRANCH   1  25
TORSDOF 11
ENDMDL
MODEL 7
REMARK VINA RESULT:    -7.996      2.487      7.348
REMARK INTER + INTRA:         -12.956
REMARK INTER:                 -11.656
REMARK INTRA:                  -1.299
REMARK UNBOUND:                -1.455
REMARK SMILES O=c1c(O[C@@H]2O[C@H](CO)[C@@H](O)[C@@H](O)[C@H]2O)c(-c2ccc(O)cc2)oc2cc(O)cc(O)c12
REMARK SMILES IDX 4 1 3 2 16 3 24 4 2 5 25 6 1 7 32 8 26 9 30 10 27 11 29 12
REMARK SMILES IDX 17 13 18 14 19 15 20 16 23 17 22 18 21 19 31 21 28 23 5 25
REMARK SMILES IDX 14 26 6 27 12 28 7 29 10 30 15 31 13 33 8 35 9 36 11 38
REMARK H PARENT 21 20 31 22 28 24 15 32 13 34 9 37 11 39
REMARK Flexibility Score: inf
ROOT
ATOM      1  O   UNL     1     -14.278  37.282  -4.798  1.00  0.00    -0.454 OA
ENDROOT
BRANCH   1   2
ATOM      2  C   UNL     1     -13.901  38.348  -5.635  1.00  0.00     0.214 A 
ATOM      3  C   UNL     1     -12.587  38.865  -5.694  1.00  0.00     0.180 A 
ATOM      4  O   UNL     1     -12.275  39.779  -6.608  1.00  0.00    -0.452 OA
ATOM      5  C   UNL     1     -14.874  38.902  -6.476  1.00  0.00     0.239 A 
ATOM      6  C   UNL     1     -13.156  40.287  -7.459  1.00  0.00     0.146 A 
ATOM      7  O   UNL     1     -16.064  38.493  -6.389  1.00  0.00    -0.285 OA
ATOM      8  C   UNL     1     -14.512  39.884  -7.420  1.00  0.00     0.111 A 
ATOM      9  C   UNL     1     -12.732  41.240  -8.391  1.00  0.00     0.094 A 
ATOM     10  C   UNL     1     -15.430  40.461  -8.328  1.00  0.00     0.134 A 
ATOM     11  C   UNL     1     -13.645  41.806  -9.287  1.00  0.00     0.123 A 
ATOM     12  C   UNL     1     -14.987  41.418  -9.253  1.00  0.00     0.093 A 
BRANCH   3  13
ATOM     13  C   UNL     1     -11.533  38.466  -4.747  1.00  0.00     0.021 A 
ATOM     14  C   UNL     1     -11.065  37.144  -4.738  1.00  0.00     0.016 A 
ATOM     15  C   UNL     1     -10.041  36.767  -3.863  1.00  0.00     0.047 A 
ATOM     16  C   UNL     1      -9.466  37.710  -3.004  1.00  0.00     0.115 A 
ATOM     17  C   UNL     1     -10.939  39.417  -3.901  1.00  0.00     0.016 A 
ATOM     18  C   UNL     1      -9.915  39.037  -3.028  1.00  0.00     0.047 A 
BRANCH  16  19
ATOM     19  O   UNL     1      -8.448  37.319  -2.137  1.00  0.00    -0.508 OA
ATOM     20  H   UNL     1      -7.485  37.259  -2.444  1.00  0.00     0.293 HD
ENDBRANCH  16  19
ENDBRANCH   3  13
BRANCH  10  21
ATOM     21  O   UNL     1     -16.776  40.091  -8.321  1.00  0.00    -0.507 OA
ATOM     22  H   UNL     1     -17.065  39.127  -8.431  1.00  0.00     0.293 HD
ENDBRANCH  10  21
BRANCH  11  23
ATOM     23  O   UNL     1     -13.229  42.758 -10.216  1.00  0.00    -0.508 OA
ATOM     24  H   UNL     1     -13.896  43.275 -10.779  1.00  0.00     0.293 HD
ENDBRANCH  11  23
ENDBRANCH   1   2
BRANCH   1  25
ATOM     25  C   UNL     1     -15.010  37.416  -3.574  1.00  0.00     0.339 C 
ATOM     26  C   UNL     1     -15.843  36.143  -3.326  1.00  0.00     0.214 C 
ATOM     27  O   UNL     1     -14.133  37.748  -2.501  1.00  0.00    -0.332 OA
ATOM     28  C   UNL     1     -14.917  34.920  -3.139  1.00  0.00     0.180 C 
ATOM     29  C   UNL     1     -13.650  36.643  -1.739  1.00  0.00     0.179 C 
ATOM     30  C   UNL     1     -13.541  35.323  -2.544  1.00  0.00     0.177 C 
BRANCH  26  31
ATOM     31  O   UNL     1     -16.651  36.322  -2.189  1.00  0.00    -0.384 OA
ATOM     32  H   UNL     1     -16.861  37.291  -2.133  1.00  0.00     0.211 HD
ENDBRANCH  26  31
BRANCH  28  33
ATOM     33  O   UNL     1     -15.560  33.965  -2.330  1.00  0.00    -0.387 OA
ATOM     34  H   UNL     1     -16.491  33.876  -2.663  1.00  0.00     0.211 HD
ENDBRANCH  28  33
BRANCH  29  35
ATOM     35  C   UNL     1     -12.297  37.040  -1.127  1.00  0.00     0.191 C 
BRANCH  35  36
ATOM     36  O   UNL     1     -11.988  36.238  -0.018  1.00  0.00    -0.394 OA
ATOM     37  H   UNL     1     -11.012  36.331   0.140  1.00  0.00     0.210 HD
ENDBRANCH  35  36
ENDBRANCH  29  35
BRANCH  30  38
ATOM     38  O   UNL     1     -13.038  34.299  -1.722  1.00  0.00    -0.387 OA
ATOM     39  H   UNL     1     -13.147  33.449  -2.224  1.00  0.00     0.211 HD
ENDBRANCH  30  38
ENDBRANCH   1  25
TORSDOF 11
ENDMDL
MODEL 8
REMARK VINA RESULT:    -7.931      2.613      6.196
REMARK INTER + INTRA:         -12.864
REMARK INTER:                 -11.113
REMARK INTRA:                  -1.750
REMARK UNBOUND:                -1.455
REMARK SMILES O=c1c(O[C@@H]2O[C@H](CO)[C@@H](O)[C@@H](O)[C@H]2O)c(-c2ccc(O)cc2)oc2cc(O)cc(O)c12
REMARK SMILES IDX 4 1 3 2 16 3 24 4 2 5 25 6 1 7 32 8 26 9 30 10 27 11 29 12
REMARK SMILES IDX 17 13 18 14 19 15 20 16 23 17 22 18 21 19 31 21 28 23 5 25
REMARK SMILES IDX 14 26 6 27 12 28 7 29 10 30 15 31 13 33 8 35 9 36 11 38
REMARK H PARENT 21 20 31 22 28 24 15 32 13 34 9 37 11 39
REMARK Flexibility Score: inf
ROOT
ATOM      1  O   UNL     1     -12.357  37.614  -7.618  1.00  0.00    -0.454 OA
ENDROOT
BRANCH   1   2
ATOM      2  C   UNL     1     -12.664  38.576  -6.639  1.00  0.00     0.214 A 
ATOM      3  C   UNL     1     -12.937  38.256  -5.290  1.00  0.00     0.180 A 
ATOM      4  O   UNL     1     -13.081  39.228  -4.394  1.00  0.00    -0.452 OA
ATOM      5  C   UNL     1     -12.666  39.925  -7.017  1.00  0.00     0.239 A 
ATOM      6  C   UNL     1     -13.033  40.517  -4.704  1.00  0.00     0.146 A 
ATOM      7  O   UNL     1     -12.485  40.221  -8.230  1.00  0.00    -0.285 OA
ATOM      8  C   UNL     1     -12.841  40.928  -6.044  1.00  0.00     0.111 A 
ATOM      9  C   UNL     1     -13.188  41.468  -3.691  1.00  0.00     0.094 A 
ATOM     10  C   UNL     1     -12.815  42.311  -6.344  1.00  0.00     0.134 A 
ATOM     11  C   UNL     1     -13.161  42.833  -3.994  1.00  0.00     0.123 A 
ATOM     12  C   UNL     1     -12.978  43.250  -5.314  1.00  0.00     0.093 A 
BRANCH   3  13
ATOM     13  C   UNL     1     -13.117  36.872  -4.822  1.00  0.00     0.021 A 
ATOM     14  C   UNL     1     -12.030  36.170  -4.280  1.00  0.00     0.016 A 
ATOM     15  C   UNL     1     -12.202  34.866  -3.805  1.00  0.00     0.047 A 
ATOM     16  C   UNL     1     -13.462  34.260  -3.851  1.00  0.00     0.115 A 
ATOM     17  C   UNL     1     -14.387  36.271  -4.847  1.00  0.00     0.016 A 
ATOM     18  C   UNL     1     -14.555  34.967  -4.370  1.00  0.00     0.047 A 
BRANCH  16  19
ATOM     19  O   UNL     1     -13.617  32.960  -3.376  1.00  0.00    -0.508 OA
ATOM     20  H   UNL     1     -13.879  32.199  -3.991  1.00  0.00     0.293 HD
ENDBRANCH  16  19
ENDBRANCH   3  13
BRANCH  10  21
ATOM     21  O   UNL     1     -12.630  42.759  -7.653  1.00  0.00    -0.507 OA
ATOM     22  H   UNL     1     -12.156  42.194  -8.348  1.00  0.00     0.293 HD
ENDBRANCH  10  21
BRANCH  11  23
ATOM     23  O   UNL     1     -13.318  43.786  -2.989  1.00  0.00    -0.508 OA
ATOM     24  H   UNL     1     -12.551  44.382  -2.699  1.00  0.00     0.293 HD
ENDBRANCH  11  23
ENDBRANCH   1   2
BRANCH   1  25
ATOM     25  C   UNL     1     -11.079  36.989  -7.784  1.00  0.00     0.339 C 
ATOM     26  C   UNL     1     -11.183  35.871  -8.840  1.00  0.00     0.214 C 
ATOM     27  O   UNL     1     -10.080  37.964  -8.075  1.00  0.00    -0.332 OA
ATOM     28  C   UNL     1     -11.553  36.462 -10.219  1.00  0.00     0.180 C 
ATOM     29  C   UNL     1      -9.818  38.180  -9.460  1.00  0.00     0.179 C 
ATOM     30  C   UNL     1     -11.039  37.918 -10.380  1.00  0.00     0.177 C 
BRANCH  26  31
ATOM     31  O   UNL     1      -9.960  35.180  -8.917  1.00  0.00    -0.384 OA
ATOM     32  H   UNL     1     -10.141  34.241  -8.648  1.00  0.00     0.211 HD
ENDBRANCH  26  31
BRANCH  28  33
ATOM     33  O   UNL     1     -11.049  35.630 -11.235  1.00  0.00    -0.387 OA
ATOM     34  H   UNL     1     -10.996  36.177 -12.063  1.00  0.00     0.211 HD
ENDBRANCH  28  33
BRANCH  29  35
ATOM     35  C   UNL     1      -9.288  39.613  -9.628  1.00  0.00     0.191 C 
BRANCH  35  36
ATOM     36  O   UNL     1     -10.284  40.466 -10.127  1.00  0.00    -0.394 OA
ATOM     37  H   UNL     1     -10.639  40.040 -10.952  1.00  0.00     0.210 HD
ENDBRANCH  35  36
ENDBRANCH  29  35
BRANCH  30  38
ATOM     38  O   UNL     1     -10.695  38.177 -11.718  1.00  0.00    -0.387 OA
ATOM     39  H   UNL     1      -9.818  38.641 -11.705  1.00  0.00     0.211 HD
ENDBRANCH  30  38
ENDBRANCH   1  25
TORSDOF 11
ENDMDL
MODEL 9
REMARK VINA RESULT:    -7.835      2.119      5.028
REMARK INTER + INTRA:         -12.725
REMARK INTER:                 -11.256
REMARK INTRA:                  -1.469
REMARK UNBOUND:                -1.455
REMARK SMILES O=c1c(O[C@@H]2O[C@H](CO)[C@@H](O)[C@@H](O)[C@H]2O)c(-c2ccc(O)cc2)oc2cc(O)cc(O)c12
REMARK SMILES IDX 4 1 3 2 16 3 24 4 2 5 25 6 1 7 32 8 26 9 30 10 27 11 29 12
REMARK SMILES IDX 17 13 18 14 19 15 20 16 23 17 22 18 21 19 31 21 28 23 5 25
REMARK SMILES IDX 14 26 6 27 12 28 7 29 10 30 15 31 13 33 8 35 9 36 11 38
REMARK H PARENT 21 20 31 22 28 24 15 32 13 34 9 37 11 39
REMARK Flexibility Score: inf
ROOT
ATOM      1  O   UNL     1     -13.171  37.332  -6.519  1.00  0.00    -0.454 OA
ENDROOT
BRANCH   1   2
ATOM      2  C   UNL     1     -14.184  37.658  -5.599  1.00  0.00     0.214 A 
ATOM      3  C   UNL     1     -14.963  38.834  -5.681  1.00  0.00     0.180 A 
ATOM      4  O   UNL     1     -15.993  39.005  -4.858  1.00  0.00    -0.452 OA
ATOM      5  C   UNL     1     -14.454  36.750  -4.567  1.00  0.00     0.239 A 
ATOM      6  C   UNL     1     -16.315  38.141  -3.905  1.00  0.00     0.146 A 
ATOM      7  O   UNL     1     -13.726  35.727  -4.445  1.00  0.00    -0.285 OA
ATOM      8  C   UNL     1     -15.543  36.973  -3.701  1.00  0.00     0.111 A 
ATOM      9  C   UNL     1     -17.422  38.404  -3.092  1.00  0.00     0.094 A 
ATOM     10  C   UNL     1     -15.901  36.082  -2.662  1.00  0.00     0.134 A 
ATOM     11  C   UNL     1     -17.771  37.519  -2.067  1.00  0.00     0.123 A 
ATOM     12  C   UNL     1     -17.012  36.366  -1.854  1.00  0.00     0.093 A 
BRANCH   3  13
ATOM     13  C   UNL     1     -14.659  39.923  -6.624  1.00  0.00     0.021 A 
ATOM     14  C   UNL     1     -15.196  39.896  -7.919  1.00  0.00     0.016 A 
ATOM     15  C   UNL     1     -14.938  40.944  -8.809  1.00  0.00     0.047 A 
ATOM     16  C   UNL     1     -14.158  42.034  -8.406  1.00  0.00     0.115 A 
ATOM     17  C   UNL     1     -13.896  41.029  -6.213  1.00  0.00     0.016 A 
ATOM     18  C   UNL     1     -13.641  42.075  -7.105  1.00  0.00     0.047 A 
BRANCH  16  19
ATOM     19  O   UNL     1     -13.908  43.070  -9.304  1.00  0.00    -0.508 OA
ATOM     20  H   UNL     1     -14.537  43.266 -10.074  1.00  0.00     0.293 HD
ENDBRANCH  16  19
ENDBRANCH   3  13
BRANCH  10  21
ATOM     21  O   UNL     1     -15.165  34.920  -2.426  1.00  0.00    -0.507 OA
ATOM     22  H   UNL     1     -14.419  34.626  -3.046  1.00  0.00     0.293 HD
ENDBRANCH  10  21
BRANCH  11  23
ATOM     23  O   UNL     1     -18.872  37.777  -1.252  1.00  0.00    -0.508 OA
ATOM     24  H   UNL     1     -18.926  37.415  -0.306  1.00  0.00     0.293 HD
ENDBRANCH  11  23
ENDBRANCH   1   2
BRANCH   1  25
ATOM     25  C   UNL     1     -11.802  37.744  -6.415  1.00  0.00     0.339 C 
ATOM     26  C   UNL     1     -10.878  36.536  -6.666  1.00  0.00     0.214 C 
ATOM     27  O   UNL     1     -11.547  38.852  -7.274  1.00  0.00    -0.332 OA
ATOM     28  C   UNL     1     -11.058  36.009  -8.108  1.00  0.00     0.180 C 
ATOM     29  C   UNL     1     -11.035  38.524  -8.564  1.00  0.00     0.179 C 
ATOM     30  C   UNL     1     -11.487  37.136  -9.085  1.00  0.00     0.177 C 
BRANCH  26  31
ATOM     31  O   UNL     1      -9.540  36.912  -6.447  1.00  0.00    -0.384 OA
ATOM     32  H   UNL     1      -9.037  36.680  -7.271  1.00  0.00     0.211 HD
ENDBRANCH  26  31
BRANCH  28  33
ATOM     33  O   UNL     1      -9.866  35.394  -8.533  1.00  0.00    -0.387 OA
ATOM     34  H   UNL     1      -9.679  34.648  -7.905  1.00  0.00     0.211 HD
ENDBRANCH  28  33
BRANCH  29  35
ATOM     35  C   UNL     1     -11.437  39.646  -9.535  1.00  0.00     0.191 C 
BRANCH  35  36
ATOM     36  O   UNL     1     -10.440  39.858 -10.501  1.00  0.00    -0.394 OA
ATOM     37  H   UNL     1     -10.594  39.194 -11.223  1.00  0.00     0.210 HD
ENDBRANCH  35  36
ENDBRANCH  29  35
BRANCH  30  38
ATOM     38  O   UNL     1     -10.956  36.908 -10.367  1.00  0.00    -0.387 OA
ATOM     39  H   UNL     1      -9.973  36.817 -10.258  1.00  0.00     0.211 HD
ENDBRANCH  30  38
ENDBRANCH   1  25
TORSDOF 11
ENDMDL
