MODEL 1
REMARK VINA RESULT:    -4.389      0.000      0.000
REMARK INTER + INTRA:         -12.415
REMARK INTER:                  -9.520
REMARK INTRA:                  -2.895
REMARK UNBOUND:                -2.895
REMARK SMILES CCCCCCCCCCCCCCCCCCCCCC(=O)[O-]
REMARK SMILES IDX 12 1 11 2 10 3 9 4 8 5 7 6 6 7 5 8 4 9 3 10 2 11 1 12 13 13
REMARK SMILES IDX 14 14 15 15 16 16 17 17 18 18 19 19 20 20 21 21 22 22 23 23
REMARK SMILES IDX 24 24
REMARK H PARENT
REMARK Flexibility Score: inf
ROOT
ATOM      1  C   UNL     1      51.910   5.122  18.109  1.00  0.00     0.000 C 
ENDROOT
BRANCH   1   2
ATOM      2  C   UNL     1      52.161   6.508  18.722  1.00  0.00     0.000 C 
BRANCH   2   3
ATOM      3  C   UNL     1      51.146   7.534  18.195  1.00  0.00     0.000 C 
BRANCH   3   4
ATOM      4  C   UNL     1      50.576   8.431  19.307  1.00  0.00    -0.000 C 
BRANCH   4   5
ATOM      5  C   UNL     1      50.262   7.650  20.595  1.00  0.00    -0.000 C 
BRANCH   5   6
ATOM      6  C   UNL     1      48.757   7.620  20.913  1.00  0.00    -0.000 C 
BRANCH   6   7
ATOM      7  C   UNL     1      48.432   8.214  22.291  1.00  0.00    -0.000 C 
BRANCH   7   8
ATOM      8  C   UNL     1      49.647   8.136  23.224  1.00  0.00    -0.000 C 
BRANCH   8   9
ATOM      9  C   UNL     1      49.323   7.326  24.484  1.00  0.00    -0.000 C 
BRANCH   9  10
ATOM     10  C   UNL     1      50.587   6.672  25.060  1.00  0.00    -0.000 C 
BRANCH  10  11
ATOM     11  C   UNL     1      50.291   5.790  26.282  1.00  0.00    -0.003 C 
ATOM     12  C   UNL     1      49.195   6.367  27.177  1.00  0.00     0.004 C 
ENDBRANCH  10  11
ENDBRANCH   9  10
ENDBRANCH   8   9
ENDBRANCH   7   8
ENDBRANCH   6   7
ENDBRANCH   5   6
ENDBRANCH   4   5
ENDBRANCH   3   4
ENDBRANCH   2   3
ENDBRANCH   1   2
BRANCH   1  13
ATOM     13  C   UNL     1      51.632   4.038  19.166  1.00  0.00     0.000 C 
BRANCH  13  14
ATOM     14  C   UNL     1      52.629   2.863  19.182  1.00  0.00     0.000 C 
BRANCH  14  15
ATOM     15  C   UNL     1      52.715   2.170  20.552  1.00  0.00     0.000 C 
BRANCH  15  16
ATOM     16  C   UNL     1      51.359   2.123  21.277  1.00  0.00     0.000 C 
BRANCH  16  17
ATOM     17  C   UNL     1      51.475   2.426  22.778  1.00  0.00     0.000 C 
BRANCH  17  18
ATOM     18  C   UNL     1      50.360   3.379  23.233  1.00  0.00     0.000 C 
BRANCH  18  19
ATOM     19  C   UNL     1      49.757   4.196  22.076  1.00  0.00     0.000 C 
BRANCH  19  20
ATOM     20  C   UNL     1      48.218   4.151  21.974  1.00  0.00     0.006 C 
BRANCH  20  21
ATOM     21  C   UNL     1      47.600   2.770  22.244  1.00  0.00     0.053 C 
BRANCH  21  22
ATOM     22  C   UNL     1      47.613   1.904  21.023  1.00  0.00     0.041 C 
ATOM     23  O   UNL     1      48.177   0.780  21.049  1.00  0.00    -0.550 OA
ATOM     24  O   UNL     1      47.030   2.356  19.846  1.00  0.00    -0.550 OA
ENDBRANCH  21  22
ENDBRANCH  20  21
ENDBRANCH  19  20
ENDBRANCH  18  19
ENDBRANCH  17  18
ENDBRANCH  16  17
ENDBRANCH  15  16
ENDBRANCH  14  15
ENDBRANCH  13  14
ENDBRANCH   1  13
TORSDOF 20
ENDMDL
MODEL 2
REMARK VINA RESULT:    -4.385      2.657      6.707
REMARK INTER + INTRA:         -12.408
REMARK INTER:                  -9.152
REMARK INTRA:                  -3.256
REMARK UNBOUND:                -2.895
REMARK SMILES CCCCCCCCCCCCCCCCCCCCCC(=O)[O-]
REMARK SMILES IDX 12 1 11 2 10 3 9 4 8 5 7 6 6 7 5 8 4 9 3 10 2 11 1 12 13 13
REMARK SMILES IDX 14 14 15 15 16 16 17 17 18 18 19 19 20 20 21 21 22 22 23 23
REMARK SMILES IDX 24 24
REMARK H PARENT
REMARK Flexibility Score: inf
ROOT
ATOM      1  C   UNL     1      47.857  10.074  20.398  1.00  0.00     0.000 C 
ENDROOT
BRANCH   1   2
ATOM      2  C   UNL     1      46.885   8.885  20.362  1.00  0.00     0.000 C 
BRANCH   2   3
ATOM      3  C   UNL     1      47.647   7.552  20.376  1.00  0.00     0.000 C 
BRANCH   3   4
ATOM      4  C   UNL     1      49.173   7.739  20.406  1.00  0.00    -0.000 C 
BRANCH   4   5
ATOM      5  C   UNL     1      49.902   6.553  21.062  1.00  0.00    -0.000 C 
BRANCH   5   6
ATOM      6  C   UNL     1      48.941   5.421  21.464  1.00  0.00    -0.000 C 
BRANCH   6   7
ATOM      7  C   UNL     1      49.677   4.122  21.826  1.00  0.00    -0.000 C 
BRANCH   7   8
ATOM      8  C   UNL     1      49.077   2.925  21.077  1.00  0.00    -0.000 C 
BRANCH   8   9
ATOM      9  C   UNL     1      50.178   2.063  20.447  1.00  0.00    -0.000 C 
BRANCH   9  10
ATOM     10  C   UNL     1      51.560   2.699  20.650  1.00  0.00    -0.000 C 
BRANCH  10  11
ATOM     11  C   UNL     1      52.272   3.000  19.322  1.00  0.00    -0.003 C 
ATOM     12  C   UNL     1      51.942   4.387  18.774  1.00  0.00     0.004 C 
ENDBRANCH  10  11
ENDBRANCH   9  10
ENDBRANCH   8   9
ENDBRANCH   7   8
ENDBRANCH   6   7
ENDBRANCH   5   6
ENDBRANCH   4   5
ENDBRANCH   3   4
ENDBRANCH   2   3
ENDBRANCH   1   2
BRANCH   1  13
ATOM     13  C   UNL     1      47.201  11.372  20.905  1.00  0.00     0.000 C 
BRANCH  13  14
ATOM     14  C   UNL     1      46.445  11.249  22.241  1.00  0.00     0.000 C 
BRANCH  14  15
ATOM     15  C   UNL     1      47.384  11.073  23.447  1.00  0.00     0.000 C 
BRANCH  15  16
ATOM     16  C   UNL     1      47.029   9.841  24.296  1.00  0.00     0.000 C 
BRANCH  16  17
ATOM     17  C   UNL     1      47.939   8.637  24.011  1.00  0.00     0.000 C 
BRANCH  17  18
ATOM     18  C   UNL     1      49.400   9.080  23.849  1.00  0.00     0.000 C 
BRANCH  18  19
ATOM     19  C   UNL     1      50.395   8.141  24.555  1.00  0.00     0.000 C 
BRANCH  19  20
ATOM     20  C   UNL     1      49.876   6.711  24.815  1.00  0.00     0.006 C 
BRANCH  20  21
ATOM     21  C   UNL     1      49.677   6.364  26.299  1.00  0.00     0.053 C 
BRANCH  21  22
ATOM     22  C   UNL     1      49.155   4.973  26.482  1.00  0.00     0.041 C 
ATOM     23  O   UNL     1      48.592   4.644  27.558  1.00  0.00    -0.550 OA
ATOM     24  O   UNL     1      49.322   4.031  25.475  1.00  0.00    -0.550 OA
ENDBRANCH  21  22
ENDBRANCH  20  21
ENDBRANCH  19  20
ENDBRANCH  18  19
ENDBRANCH  17  18
ENDBRANCH  16  17
ENDBRANCH  15  16
ENDBRANCH  14  15
ENDBRANCH  13  14
ENDBRANCH   1  13
TORSDOF 20
ENDMDL
MODEL 3
REMARK VINA RESULT:    -4.385      4.062      7.207
REMARK INTER + INTRA:         -12.407
REMARK INTER:                  -9.028
REMARK INTRA:                  -3.379
REMARK UNBOUND:                -2.895
REMARK SMILES CCCCCCCCCCCCCCCCCCCCCC(=O)[O-]
REMARK SMILES IDX 12 1 11 2 10 3 9 4 8 5 7 6 6 7 5 8 4 9 3 10 2 11 1 12 13 13
REMARK SMILES IDX 14 14 15 15 16 16 17 17 18 18 19 19 20 20 21 21 22 22 23 23
REMARK SMILES IDX 24 24
REMARK H PARENT
REMARK Flexibility Score: inf
ROOT
ATOM      1  C   UNL     1      43.542   2.938  20.698  1.00  0.00     0.000 C 
ENDROOT
BRANCH   1   2
ATOM      2  C   UNL     1      44.824   3.332  19.950  1.00  0.00     0.000 C 
BRANCH   2   3
ATOM      3  C   UNL     1      46.071   2.841  20.700  1.00  0.00     0.000 C 
BRANCH   3   4
ATOM      4  C   UNL     1      46.759   1.656  20.001  1.00  0.00    -0.000 C 
BRANCH   4   5
ATOM      5  C   UNL     1      48.203   1.440  20.485  1.00  0.00    -0.000 C 
BRANCH   5   6
ATOM      6  C   UNL     1      48.758   2.657  21.245  1.00  0.00    -0.000 C 
BRANCH   6   7
ATOM      7  C   UNL     1      49.194   2.311  22.677  1.00  0.00    -0.000 C 
BRANCH   7   8
ATOM      8  C   UNL     1      50.564   1.621  22.683  1.00  0.00    -0.000 C 
BRANCH   8   9
ATOM      9  C   UNL     1      51.553   2.355  21.770  1.00  0.00    -0.000 C 
BRANCH   9  10
ATOM     10  C   UNL     1      52.304   1.369  20.865  1.00  0.00    -0.000 C 
BRANCH  10  11
ATOM     11  C   UNL     1      52.696   1.987  19.514  1.00  0.00    -0.003 C 
ATOM     12  C   UNL     1      51.820   3.179  19.133  1.00  0.00     0.004 C 
ENDBRANCH  10  11
ENDBRANCH   9  10
ENDBRANCH   8   9
ENDBRANCH   7   8
ENDBRANCH   6   7
ENDBRANCH   5   6
ENDBRANCH   4   5
ENDBRANCH   3   4
ENDBRANCH   2   3
ENDBRANCH   1   2
BRANCH   1  13
ATOM     13  C   UNL     1      43.573   3.323  22.189  1.00  0.00     0.000 C 
BRANCH  13  14
ATOM     14  C   UNL     1      43.355   2.158  23.174  1.00  0.00     0.000 C 
BRANCH  14  15
ATOM     15  C   UNL     1      43.320   0.786  22.481  1.00  0.00     0.000 C 
BRANCH  15  16
ATOM     16  C   UNL     1      44.594  -0.037  22.735  1.00  0.00     0.000 C 
BRANCH  16  17
ATOM     17  C   UNL     1      45.556   0.642  23.721  1.00  0.00     0.000 C 
BRANCH  17  18
ATOM     18  C   UNL     1      46.812  -0.215  23.941  1.00  0.00     0.000 C 
BRANCH  18  19
ATOM     19  C   UNL     1      47.137  -1.124  22.741  1.00  0.00     0.000 C 
BRANCH  19  20
ATOM     20  C   UNL     1      48.100  -2.291  23.045  1.00  0.00     0.006 C 
BRANCH  20  21
ATOM     21  C   UNL     1      49.540  -2.074  22.555  1.00  0.00     0.053 C 
BRANCH  21  22
ATOM     22  C   UNL     1      50.506  -1.960  23.693  1.00  0.00     0.041 C 
ATOM     23  O   UNL     1      51.744  -1.922  23.473  1.00  0.00    -0.550 OA
ATOM     24  O   UNL     1      50.038  -1.932  25.001  1.00  0.00    -0.550 OA
ENDBRANCH  21  22
ENDBRANCH  20  21
ENDBRANCH  19  20
ENDBRANCH  18  19
ENDBRANCH  17  18
ENDBRANCH  16  17
ENDBRANCH  15  16
ENDBRANCH  14  15
ENDBRANCH  13  14
ENDBRANCH   1  13
TORSDOF 20
ENDMDL
MODEL 4
REMARK VINA RESULT:    -4.334      3.865      7.279
REMARK INTER + INTRA:         -12.297
REMARK INTER:                  -9.102
REMARK INTRA:                  -3.195
REMARK UNBOUND:                -2.895
REMARK SMILES CCCCCCCCCCCCCCCCCCCCCC(=O)[O-]
REMARK SMILES IDX 12 1 11 2 10 3 9 4 8 5 7 6 6 7 5 8 4 9 3 10 2 11 1 12 13 13
REMARK SMILES IDX 14 14 15 15 16 16 17 17 18 18 19 19 20 20 21 21 22 22 23 23
REMARK SMILES IDX 24 24
REMARK H PARENT
REMARK Flexibility Score: inf
ROOT
ATOM      1  C   UNL     1      44.795   3.367  19.893  1.00  0.00     0.000 C 
ENDROOT
BRANCH   1   2
ATOM      2  C   UNL     1      43.376   2.976  20.331  1.00  0.00     0.000 C 
BRANCH   2   3
ATOM      3  C   UNL     1      43.411   2.111  21.599  1.00  0.00     0.000 C 
BRANCH   3   4
ATOM      4  C   UNL     1      43.051   0.641  21.326  1.00  0.00    -0.000 C 
BRANCH   4   5
ATOM      5  C   UNL     1      43.464  -0.293  22.478  1.00  0.00    -0.000 C 
BRANCH   5   6
ATOM      6  C   UNL     1      44.518   0.341  23.401  1.00  0.00    -0.000 C 
BRANCH   6   7
ATOM      7  C   UNL     1      45.738  -0.567  23.616  1.00  0.00    -0.000 C 
BRANCH   7   8
ATOM      8  C   UNL     1      47.043   0.192  23.343  1.00  0.00    -0.000 C 
BRANCH   8   9
ATOM      9  C   UNL     1      48.258  -0.733  23.481  1.00  0.00    -0.000 C 
BRANCH   9  10
ATOM     10  C   UNL     1      48.885  -1.027  22.111  1.00  0.00    -0.000 C 
BRANCH  10  11
ATOM     11  C   UNL     1      50.331  -1.536  22.221  1.00  0.00    -0.003 C 
ATOM     12  C   UNL     1      50.835  -1.578  23.663  1.00  0.00     0.004 C 
ENDBRANCH  10  11
ENDBRANCH   9  10
ENDBRANCH   8   9
ENDBRANCH   7   8
ENDBRANCH   6   7
ENDBRANCH   5   6
ENDBRANCH   4   5
ENDBRANCH   3   4
ENDBRANCH   2   3
ENDBRANCH   1   2
BRANCH   1  13
ATOM     13  C   UNL     1      45.893   2.707  20.749  1.00  0.00     0.000 C 
BRANCH  13  14
ATOM     14  C   UNL     1      46.981   1.956  19.958  1.00  0.00     0.000 C 
BRANCH  14  15
ATOM     15  C   UNL     1      48.398   2.215  20.497  1.00  0.00     0.000 C 
BRANCH  15  16
ATOM     16  C   UNL     1      48.501   3.536  21.277  1.00  0.00     0.000 C 
BRANCH  16  17
ATOM     17  C   UNL     1      48.794   3.326  22.770  1.00  0.00     0.000 C 
BRANCH  17  18
ATOM     18  C   UNL     1      50.298   3.445  23.056  1.00  0.00     0.000 C 
BRANCH  18  19
ATOM     19  C   UNL     1      50.983   2.079  23.253  1.00  0.00     0.000 C 
BRANCH  19  20
ATOM     20  C   UNL     1      52.218   1.831  22.363  1.00  0.00     0.006 C 
BRANCH  20  21
ATOM     21  C   UNL     1      51.898   1.595  20.878  1.00  0.00     0.053 C 
BRANCH  21  22
ATOM     22  C   UNL     1      53.119   1.708  20.019  1.00  0.00     0.041 C 
ATOM     23  O   UNL     1      53.447   0.762  19.256  1.00  0.00    -0.550 OA
ATOM     24  O   UNL     1      53.914   2.845  20.088  1.00  0.00    -0.550 OA
ENDBRANCH  21  22
ENDBRANCH  20  21
ENDBRANCH  19  20
ENDBRANCH  18  19
ENDBRANCH  17  18
ENDBRANCH  16  17
ENDBRANCH  15  16
ENDBRANCH  14  15
ENDBRANCH  13  14
ENDBRANCH   1  13
TORSDOF 20
ENDMDL
MODEL 5
REMARK VINA RESULT:    -4.297      3.012      7.041
REMARK INTER + INTRA:         -12.218
REMARK INTER:                  -9.173
REMARK INTRA:                  -3.044
REMARK UNBOUND:                -2.895
REMARK SMILES CCCCCCCCCCCCCCCCCCCCCC(=O)[O-]
REMARK SMILES IDX 12 1 11 2 10 3 9 4 8 5 7 6 6 7 5 8 4 9 3 10 2 11 1 12 13 13
REMARK SMILES IDX 14 14 15 15 16 16 17 17 18 18 19 19 20 20 21 21 22 22 23 23
REMARK SMILES IDX 24 24
REMARK H PARENT
REMARK Flexibility Score: inf
ROOT
ATOM      1  C   UNL     1      46.825   2.318  20.222  1.00  0.00     0.000 C 
ENDROOT
BRANCH   1   2
ATOM      2  C   UNL     1      47.307   0.861  20.153  1.00  0.00     0.000 C 
BRANCH   2   3
ATOM      3  C   UNL     1      47.308   0.216  21.546  1.00  0.00     0.000 C 
BRANCH   3   4
ATOM      4  C   UNL     1      48.459  -0.786  21.737  1.00  0.00    -0.000 C 
BRANCH   4   5
ATOM      5  C   UNL     1      49.214  -0.575  23.061  1.00  0.00    -0.000 C 
BRANCH   5   6
ATOM      6  C   UNL     1      49.071   0.860  23.598  1.00  0.00    -0.000 C 
BRANCH   6   7
ATOM      7  C   UNL     1      50.298   1.732  23.288  1.00  0.00    -0.000 C 
BRANCH   7   8
ATOM      8  C   UNL     1      49.962   2.799  22.239  1.00  0.00    -0.000 C 
BRANCH   8   9
ATOM      9  C   UNL     1      50.492   2.398  20.857  1.00  0.00    -0.000 C 
BRANCH   9  10
ATOM     10  C   UNL     1      51.083   3.610  20.121  1.00  0.00    -0.000 C 
BRANCH  10  11
ATOM     11  C   UNL     1      52.043   3.204  18.993  1.00  0.00    -0.003 C 
ATOM     12  C   UNL     1      52.991   2.077  19.400  1.00  0.00     0.004 C 
ENDBRANCH  10  11
ENDBRANCH   9  10
ENDBRANCH   8   9
ENDBRANCH   7   8
ENDBRANCH   6   7
ENDBRANCH   5   6
ENDBRANCH   4   5
ENDBRANCH   3   4
ENDBRANCH   2   3
ENDBRANCH   1   2
BRANCH   1  13
ATOM     13  C   UNL     1      46.001   2.620  21.488  1.00  0.00     0.000 C 
BRANCH  13  14
ATOM     14  C   UNL     1      46.444   3.866  22.279  1.00  0.00     0.000 C 
BRANCH  14  15
ATOM     15  C   UNL     1      46.060   5.183  21.585  1.00  0.00     0.000 C 
BRANCH  15  16
ATOM     16  C   UNL     1      47.285   5.962  21.077  1.00  0.00     0.000 C 
BRANCH  16  17
ATOM     17  C   UNL     1      48.447   5.968  22.081  1.00  0.00     0.000 C 
BRANCH  17  18
ATOM     18  C   UNL     1      49.659   6.721  21.515  1.00  0.00     0.000 C 
BRANCH  18  19
ATOM     19  C   UNL     1      49.266   7.840  20.533  1.00  0.00     0.000 C 
BRANCH  19  20
ATOM     20  C   UNL     1      50.447   8.530  19.818  1.00  0.00     0.006 C 
BRANCH  20  21
ATOM     21  C   UNL     1      51.192   7.638  18.811  1.00  0.00     0.053 C 
BRANCH  21  22
ATOM     22  C   UNL     1      50.613   7.747  17.434  1.00  0.00     0.041 C 
ATOM     23  O   UNL     1      49.749   8.624  17.178  1.00  0.00    -0.550 OA
ATOM     24  O   UNL     1      51.005   6.855  16.445  1.00  0.00    -0.550 OA
ENDBRANCH  21  22
ENDBRANCH  20  21
ENDBRANCH  19  20
ENDBRANCH  18  19
ENDBRANCH  17  18
ENDBRANCH  16  17
ENDBRANCH  15  16
ENDBRANCH  14  15
ENDBRANCH  13  14
ENDBRANCH   1  13
TORSDOF 20
ENDMDL
MODEL 6
REMARK VINA RESULT:    -4.239      3.984      6.975
REMARK INTER + INTRA:         -12.092
REMARK INTER:                  -8.767
REMARK INTRA:                  -3.324
REMARK UNBOUND:                -2.895
REMARK SMILES CCCCCCCCCCCCCCCCCCCCCC(=O)[O-]
REMARK SMILES IDX 12 1 11 2 10 3 9 4 8 5 7 6 6 7 5 8 4 9 3 10 2 11 1 12 13 13
REMARK SMILES IDX 14 14 15 15 16 16 17 17 18 18 19 19 20 20 21 21 22 22 23 23
REMARK SMILES IDX 24 24
REMARK H PARENT
REMARK Flexibility Score: inf
ROOT
ATOM      1  C   UNL     1      44.752   3.390  21.724  1.00  0.00     0.000 C 
ENDROOT
BRANCH   1   2
ATOM      2  C   UNL     1      43.570   2.478  22.088  1.00  0.00     0.000 C 
BRANCH   2   3
ATOM      3  C   UNL     1      43.478   1.288  21.121  1.00  0.00     0.000 C 
BRANCH   3   4
ATOM      4  C   UNL     1      43.123  -0.029  21.832  1.00  0.00    -0.000 C 
BRANCH   4   5
ATOM      5  C   UNL     1      43.349   0.040  23.352  1.00  0.00    -0.000 C 
BRANCH   5   6
ATOM      6  C   UNL     1      44.774  -0.377  23.756  1.00  0.00    -0.000 C 
BRANCH   6   7
ATOM      7  C   UNL     1      45.169   0.139  25.148  1.00  0.00    -0.000 C 
BRANCH   7   8
ATOM      8  C   UNL     1      45.546   1.625  25.097  1.00  0.00    -0.000 C 
BRANCH   8   9
ATOM      9  C   UNL     1      46.756   1.916  25.992  1.00  0.00    -0.000 C 
BRANCH   9  10
ATOM     10  C   UNL     1      47.200   0.655  26.746  1.00  0.00    -0.000 C 
BRANCH  10  11
ATOM     11  C   UNL     1      48.711   0.400  26.631  1.00  0.00    -0.003 C 
ATOM     12  C   UNL     1      49.515   1.685  26.443  1.00  0.00     0.004 C 
ENDBRANCH  10  11
ENDBRANCH   9  10
ENDBRANCH   8   9
ENDBRANCH   7   8
ENDBRANCH   6   7
ENDBRANCH   5   6
ENDBRANCH   4   5
ENDBRANCH   3   4
ENDBRANCH   2   3
ENDBRANCH   1   2
BRANCH   1  13
ATOM     13  C   UNL     1      45.318   3.111  20.320  1.00  0.00     0.000 C 
BRANCH  13  14
ATOM     14  C   UNL     1      46.807   2.716  20.278  1.00  0.00     0.000 C 
BRANCH  14  15
ATOM     15  C   UNL     1      47.029   1.266  19.817  1.00  0.00     0.000 C 
BRANCH  15  16
ATOM     16  C   UNL     1      47.834   0.440  20.834  1.00  0.00     0.000 C 
BRANCH  16  17
ATOM     17  C   UNL     1      47.799   1.037  22.249  1.00  0.00     0.000 C 
BRANCH  17  18
ATOM     18  C   UNL     1      49.215   1.144  22.835  1.00  0.00     0.000 C 
BRANCH  18  19
ATOM     19  C   UNL     1      50.307   1.238  21.754  1.00  0.00     0.000 C 
BRANCH  19  20
ATOM     20  C   UNL     1      50.718   2.673  21.361  1.00  0.00     0.006 C 
BRANCH  20  21
ATOM     21  C   UNL     1      50.714   2.946  19.848  1.00  0.00     0.053 C 
BRANCH  21  22
ATOM     22  C   UNL     1      52.099   2.967  19.281  1.00  0.00     0.041 C 
ATOM     23  O   UNL     1      52.723   1.891  19.092  1.00  0.00    -0.550 OA
ATOM     24  O   UNL     1      52.713   4.179  18.994  1.00  0.00    -0.550 OA
ENDBRANCH  21  22
ENDBRANCH  20  21
ENDBRANCH  19  20
ENDBRANCH  18  19
ENDBRANCH  17  18
ENDBRANCH  16  17
ENDBRANCH  15  16
ENDBRANCH  14  15
ENDBRANCH  13  14
ENDBRANCH   1  13
TORSDOF 20
ENDMDL
MODEL 7
REMARK VINA RESULT:    -4.229      3.985      7.919
REMARK INTER + INTRA:         -12.070
REMARK INTER:                  -9.203
REMARK INTRA:                  -2.867
REMARK UNBOUND:                -2.895
REMARK SMILES CCCCCCCCCCCCCCCCCCCCCC(=O)[O-]
REMARK SMILES IDX 12 1 11 2 10 3 9 4 8 5 7 6 6 7 5 8 4 9 3 10 2 11 1 12 13 13
REMARK SMILES IDX 14 14 15 15 16 16 17 17 18 18 19 19 20 20 21 21 22 22 23 23
REMARK SMILES IDX 24 24
REMARK H PARENT
REMARK Flexibility Score: inf
ROOT
ATOM      1  C   UNL     1      43.288   0.858  21.018  1.00  0.00     0.000 C 
ENDROOT
BRANCH   1   2
ATOM      2  C   UNL     1      43.249   0.017  22.303  1.00  0.00     0.000 C 
BRANCH   2   3
ATOM      3  C   UNL     1      43.435   0.901  23.545  1.00  0.00     0.000 C 
BRANCH   3   4
ATOM      4  C   UNL     1      44.677   0.519  24.367  1.00  0.00    -0.000 C 
BRANCH   4   5
ATOM      5  C   UNL     1      45.941   1.267  23.912  1.00  0.00    -0.000 C 
BRANCH   5   6
ATOM      6  C   UNL     1      47.115   0.317  23.620  1.00  0.00    -0.000 C 
BRANCH   6   7
ATOM      7  C   UNL     1      46.672  -1.148  23.487  1.00  0.00    -0.000 C 
BRANCH   7   8
ATOM      8  C   UNL     1      47.783  -2.004  22.867  1.00  0.00    -0.000 C 
BRANCH   8   9
ATOM      9  C   UNL     1      48.813  -1.130  22.143  1.00  0.00    -0.000 C 
BRANCH   9  10
ATOM     10  C   UNL     1      50.191  -1.807  22.117  1.00  0.00    -0.000 C 
BRANCH  10  11
ATOM     11  C   UNL     1      51.099  -1.341  23.265  1.00  0.00    -0.003 C 
ATOM     12  C   UNL     1      51.144  -2.336  24.424  1.00  0.00     0.004 C 
ENDBRANCH  10  11
ENDBRANCH   9  10
ENDBRANCH   8   9
ENDBRANCH   7   8
ENDBRANCH   6   7
ENDBRANCH   5   6
ENDBRANCH   4   5
ENDBRANCH   3   4
ENDBRANCH   2   3
ENDBRANCH   1   2
BRANCH   1  13
ATOM     13  C   UNL     1      43.618   2.340  21.279  1.00  0.00     0.000 C 
BRANCH  13  14
ATOM     14  C   UNL     1      44.521   3.008  20.225  1.00  0.00     0.000 C 
BRANCH  14  15
ATOM     15  C   UNL     1      46.007   3.004  20.620  1.00  0.00     0.000 C 
BRANCH  15  16
ATOM     16  C   UNL     1      46.814   1.930  19.871  1.00  0.00     0.000 C 
BRANCH  16  17
ATOM     17  C   UNL     1      48.257   1.805  20.381  1.00  0.00     0.000 C 
BRANCH  17  18
ATOM     18  C   UNL     1      48.579   2.911  21.396  1.00  0.00     0.000 C 
BRANCH  18  19
ATOM     19  C   UNL     1      49.894   3.650  21.084  1.00  0.00     0.000 C 
BRANCH  19  20
ATOM     20  C   UNL     1      50.854   2.906  20.132  1.00  0.00     0.006 C 
BRANCH  20  21
ATOM     21  C   UNL     1      51.886   2.011  20.837  1.00  0.00     0.053 C 
BRANCH  21  22
ATOM     22  C   UNL     1      53.157   1.901  20.053  1.00  0.00     0.041 C 
ATOM     23  O   UNL     1      53.344   0.923  19.284  1.00  0.00    -0.550 OA
ATOM     24  O   UNL     1      54.148   2.862  20.199  1.00  0.00    -0.550 OA
ENDBRANCH  21  22
ENDBRANCH  20  21
ENDBRANCH  19  20
ENDBRANCH  18  19
ENDBRANCH  17  18
ENDBRANCH  16  17
ENDBRANCH  15  16
ENDBRANCH  14  15
ENDBRANCH  13  14
ENDBRANCH   1  13
TORSDOF 20
ENDMDL
MODEL 8
REMARK VINA RESULT:    -4.183      4.059      7.386
REMARK INTER + INTRA:         -11.970
REMARK INTER:                  -8.733
REMARK INTRA:                  -3.236
REMARK UNBOUND:                -2.895
REMARK SMILES CCCCCCCCCCCCCCCCCCCCCC(=O)[O-]
REMARK SMILES IDX 12 1 11 2 10 3 9 4 8 5 7 6 6 7 5 8 4 9 3 10 2 11 1 12 13 13
REMARK SMILES IDX 14 14 15 15 16 16 17 17 18 18 19 19 20 20 21 21 22 22 23 23
REMARK SMILES IDX 24 24
REMARK H PARENT
REMARK Flexibility Score: inf
ROOT
ATOM      1  C   UNL     1      47.285   2.800  21.673  1.00  0.00     0.000 C 
ENDROOT
BRANCH   1   2
ATOM      2  C   UNL     1      47.373   2.211  20.257  1.00  0.00     0.000 C 
BRANCH   2   3
ATOM      3  C   UNL     1      47.438   0.677  20.303  1.00  0.00     0.000 C 
BRANCH   3   4
ATOM      4  C   UNL     1      47.731   0.136  21.713  1.00  0.00    -0.000 C 
BRANCH   4   5
ATOM      5  C   UNL     1      48.761  -1.007  21.706  1.00  0.00    -0.000 C 
BRANCH   5   6
ATOM      6  C   UNL     1      50.068  -0.626  22.422  1.00  0.00    -0.000 C 
BRANCH   6   7
ATOM      7  C   UNL     1      49.977   0.730  23.138  1.00  0.00    -0.000 C 
BRANCH   7   8
ATOM      8  C   UNL     1      51.342   1.430  23.164  1.00  0.00    -0.000 C 
BRANCH   8   9
ATOM      9  C   UNL     1      51.838   1.722  21.743  1.00  0.00    -0.000 C 
BRANCH   9  10
ATOM     10  C   UNL     1      50.940   2.754  21.047  1.00  0.00    -0.000 C 
BRANCH  10  11
ATOM     11  C   UNL     1      51.293   2.939  19.563  1.00  0.00    -0.003 C 
ATOM     12  C   UNL     1      52.574   2.207  19.165  1.00  0.00     0.004 C 
ENDBRANCH  10  11
ENDBRANCH   9  10
ENDBRANCH   8   9
ENDBRANCH   7   8
ENDBRANCH   6   7
ENDBRANCH   5   6
ENDBRANCH   4   5
ENDBRANCH   3   4
ENDBRANCH   2   3
ENDBRANCH   1   2
BRANCH   1  13
ATOM     13  C   UNL     1      46.448   4.091  21.737  1.00  0.00     0.000 C 
BRANCH  13  14
ATOM     14  C   UNL     1      45.311   4.190  20.702  1.00  0.00     0.000 C 
BRANCH  14  15
ATOM     15  C   UNL     1      43.942   3.792  21.278  1.00  0.00     0.000 C 
BRANCH  15  16
ATOM     16  C   UNL     1      43.263   2.674  20.469  1.00  0.00     0.000 C 
BRANCH  16  17
ATOM     17  C   UNL     1      43.617   1.269  20.979  1.00  0.00     0.000 C 
BRANCH  17  18
ATOM     18  C   UNL     1      43.830   1.274  22.499  1.00  0.00     0.000 C 
BRANCH  18  19
ATOM     19  C   UNL     1      43.257   0.024  23.191  1.00  0.00     0.000 C 
BRANCH  19  20
ATOM     20  C   UNL     1      43.960  -0.379  24.505  1.00  0.00     0.006 C 
BRANCH  20  21
ATOM     21  C   UNL     1      45.409   0.116  24.631  1.00  0.00     0.053 C 
BRANCH  21  22
ATOM     22  C   UNL     1      45.665   0.764  25.956  1.00  0.00     0.041 C 
ATOM     23  O   UNL     1      45.323   1.958  26.154  1.00  0.00    -0.550 OA
ATOM     24  O   UNL     1      46.312   0.057  26.961  1.00  0.00    -0.550 OA
ENDBRANCH  21  22
ENDBRANCH  20  21
ENDBRANCH  19  20
ENDBRANCH  18  19
ENDBRANCH  17  18
ENDBRANCH  16  17
ENDBRANCH  15  16
ENDBRANCH  14  15
ENDBRANCH  13  14
ENDBRANCH   1  13
TORSDOF 20
ENDMDL
MODEL 9
REMARK VINA RESULT:    -4.164      3.368      7.001
REMARK INTER + INTRA:         -11.928
REMARK INTER:                  -7.684
REMARK INTRA:                  -4.244
REMARK UNBOUND:                -2.895
REMARK SMILES CCCCCCCCCCCCCCCCCCCCCC(=O)[O-]
REMARK SMILES IDX 12 1 11 2 10 3 9 4 8 5 7 6 6 7 5 8 4 9 3 10 2 11 1 12 13 13
REMARK SMILES IDX 14 14 15 15 16 16 17 17 18 18 19 19 20 20 21 21 22 22 23 23
REMARK SMILES IDX 24 24
REMARK H PARENT
REMARK Flexibility Score: inf
ROOT
ATOM      1  C   UNL     1      45.894   2.999  20.239  1.00  0.00     0.000 C 
ENDROOT
BRANCH   1   2
ATOM      2  C   UNL     1      46.888   1.852  20.006  1.00  0.00     0.000 C 
BRANCH   2   3
ATOM      3  C   UNL     1      47.477   1.356  21.335  1.00  0.00     0.000 C 
BRANCH   3   4
ATOM      4  C   UNL     1      48.131  -0.031  21.216  1.00  0.00    -0.000 C 
BRANCH   4   5
ATOM      5  C   UNL     1      48.743  -0.512  22.543  1.00  0.00    -0.000 C 
BRANCH   5   6
ATOM      6  C   UNL     1      49.921   0.365  23.001  1.00  0.00    -0.000 C 
BRANCH   6   7
ATOM      7  C   UNL     1      51.114   0.304  22.036  1.00  0.00    -0.000 C 
BRANCH   7   8
ATOM      8  C   UNL     1      51.623   1.712  21.702  1.00  0.00    -0.000 C 
BRANCH   8   9
ATOM      9  C   UNL     1      50.975   2.241  20.417  1.00  0.00    -0.000 C 
BRANCH   9  10
ATOM     10  C   UNL     1      50.494   3.687  20.599  1.00  0.00    -0.000 C 
BRANCH  10  11
ATOM     11  C   UNL     1      49.916   3.946  21.998  1.00  0.00    -0.003 C 
ATOM     12  C   UNL     1      48.674   4.836  21.970  1.00  0.00     0.004 C 
ENDBRANCH  10  11
ENDBRANCH   9  10
ENDBRANCH   8   9
ENDBRANCH   7   8
ENDBRANCH   6   7
ENDBRANCH   5   6
ENDBRANCH   4   5
ENDBRANCH   3   4
ENDBRANCH   2   3
ENDBRANCH   1   2
BRANCH   1  13
ATOM     13  C   UNL     1      45.002   2.780  21.475  1.00  0.00     0.000 C 
BRANCH  13  14
ATOM     14  C   UNL     1      43.802   1.837  21.262  1.00  0.00     0.000 C 
BRANCH  14  15
ATOM     15  C   UNL     1      43.272   1.237  22.575  1.00  0.00     0.000 C 
BRANCH  15  16
ATOM     16  C   UNL     1      43.635  -0.248  22.735  1.00  0.00     0.000 C 
BRANCH  16  17
ATOM     17  C   UNL     1      45.073  -0.461  23.231  1.00  0.00     0.000 C 
BRANCH  17  18
ATOM     18  C   UNL     1      45.126  -0.485  24.765  1.00  0.00     0.000 C 
BRANCH  18  19
ATOM     19  C   UNL     1      46.232   0.418  25.343  1.00  0.00     0.000 C 
BRANCH  19  20
ATOM     20  C   UNL     1      46.225   1.873  24.830  1.00  0.00     0.006 C 
BRANCH  20  21
ATOM     21  C   UNL     1      47.607   2.545  24.793  1.00  0.00     0.053 C 
BRANCH  21  22
ATOM     22  C   UNL     1      48.289   2.492  26.125  1.00  0.00     0.041 C 
ATOM     23  O   UNL     1      49.383   1.884  26.253  1.00  0.00    -0.550 OA
ATOM     24  O   UNL     1      47.696   3.084  27.232  1.00  0.00    -0.550 OA
ENDBRANCH  21  22
ENDBRANCH  20  21
ENDBRANCH  19  20
ENDBRANCH  18  19
ENDBRANCH  17  18
ENDBRANCH  16  17
ENDBRANCH  15  16
ENDBRANCH  14  15
ENDBRANCH  13  14
ENDBRANCH   1  13
TORSDOF 20
ENDMDL
