MODEL 1
REMARK VINA RESULT:    -6.613      0.000      0.000
REMARK INTER + INTRA:          -8.180
REMARK INTER:                  -7.967
REMARK INTRA:                  -0.214
REMARK UNBOUND:                -0.214
REMARK SMILES O=c1c(O)c(-c2ccc(O)c(O)c2)oc2cc(O)cc(O)c12
REMARK SMILES IDX 5 1 3 2 2 3 1 4 22 5 20 6 19 7 17 8 16 9 15 10 14 11 6 12
REMARK SMILES IDX 7 13 8 14 9 15 13 16 11 17 10 18 12 20 4 22 21 24 18 26
REMARK H PARENT 10 19 12 21 4 23 21 25 18 27
REMARK Flexibility Score: inf
ROOT
ATOM      1  C   UNL     1      14.147 -37.158  -3.301  1.00  0.00     0.180 A 
ATOM      2  C   UNL     1      13.318 -38.089  -3.952  1.00  0.00     0.208 A 
ATOM      3  C   UNL     1      12.000 -37.724  -4.268  1.00  0.00     0.238 A 
ATOM      4  O   UNL     1      11.281 -38.542  -4.900  1.00  0.00    -0.285 OA
ATOM      5  C   UNL     1      11.522 -36.439  -3.917  1.00  0.00     0.111 A 
ATOM      6  C   UNL     1      10.192 -35.977  -4.153  1.00  0.00     0.134 A 
ATOM      7  C   UNL     1       9.865 -34.642  -3.882  1.00  0.00     0.093 A 
ATOM      8  C   UNL     1      10.800 -33.772  -3.322  1.00  0.00     0.123 A 
ATOM      9  C   UNL     1      12.086 -34.230  -3.032  1.00  0.00     0.094 A 
ATOM     10  C   UNL     1      12.452 -35.546  -3.325  1.00  0.00     0.146 A 
ATOM     11  O   UNL     1      13.688 -35.938  -3.043  1.00  0.00    -0.452 OA
ENDROOT
BRANCH   1  12
ATOM     12  C   UNL     1      15.539 -37.478  -2.913  1.00  0.00     0.025 A 
ATOM     13  C   UNL     1      16.599 -36.770  -3.498  1.00  0.00     0.016 A 
ATOM     14  C   UNL     1      17.920 -37.041  -3.131  1.00  0.00     0.051 A 
ATOM     15  C   UNL     1      18.198 -38.014  -2.161  1.00  0.00     0.157 A 
ATOM     16  C   UNL     1      15.821 -38.439  -1.925  1.00  0.00     0.062 A 
ATOM     17  C   UNL     1      17.142 -38.712  -1.553  1.00  0.00     0.158 A 
BRANCH  15  18
ATOM     18  O   UNL     1      19.518 -38.284  -1.798  1.00  0.00    -0.504 OA
ATOM     19  H   UNL     1      20.285 -38.140  -2.443  1.00  0.00     0.293 HD
ENDBRANCH  15  18
BRANCH  17  20
ATOM     20  O   UNL     1      17.385 -39.676  -0.574  1.00  0.00    -0.504 OA
ATOM     21  H   UNL     1      17.789 -39.441   0.324  1.00  0.00     0.293 HD
ENDBRANCH  17  20
ENDBRANCH   1  12
BRANCH   2  22
ATOM     22  O   UNL     1      13.818 -39.344  -4.310  1.00  0.00    -0.502 OA
ATOM     23  H   UNL     1      13.293 -39.996  -4.879  1.00  0.00     0.293 HD
ENDBRANCH   2  22
BRANCH   6  24
ATOM     24  O   UNL     1       9.155 -36.789  -4.623  1.00  0.00    -0.507 OA
ATOM     25  H   UNL     1       8.675 -37.484  -4.072  1.00  0.00     0.293 HD
ENDBRANCH   6  24
BRANCH   8  26
ATOM     26  O   UNL     1      10.437 -32.455  -3.050  1.00  0.00    -0.508 OA
ATOM     27  H   UNL     1      11.116 -31.703  -3.072  1.00  0.00     0.293 HD
ENDBRANCH   8  26
TORSDOF 6
ENDMDL
MODEL 2
REMARK VINA RESULT:    -6.566      1.333      3.271
REMARK INTER + INTRA:          -8.123
REMARK INTER:                  -7.796
REMARK INTRA:                  -0.327
REMARK UNBOUND:                -0.214
REMARK SMILES O=c1c(O)c(-c2ccc(O)c(O)c2)oc2cc(O)cc(O)c12
REMARK SMILES IDX 5 1 3 2 2 3 1 4 22 5 20 6 19 7 17 8 16 9 15 10 14 11 6 12
REMARK SMILES IDX 7 13 8 14 9 15 13 16 11 17 10 18 12 20 4 22 21 24 18 26
REMARK H PARENT 10 19 12 21 4 23 21 25 18 27
REMARK Flexibility Score: inf
ROOT
ATOM      1  C   UNL     1      14.210 -36.024  -2.433  1.00  0.00     0.180 A 
ATOM      2  C   UNL     1      14.069 -34.701  -1.978  1.00  0.00     0.208 A 
ATOM      3  C   UNL     1      12.890 -34.000  -2.278  1.00  0.00     0.238 A 
ATOM      4  O   UNL     1      12.746 -32.836  -1.822  1.00  0.00    -0.285 OA
ATOM      5  C   UNL     1      11.874 -34.625  -3.041  1.00  0.00     0.111 A 
ATOM      6  C   UNL     1      10.655 -33.996  -3.437  1.00  0.00     0.134 A 
ATOM      7  C   UNL     1       9.665 -34.750  -4.079  1.00  0.00     0.093 A 
ATOM      8  C   UNL     1       9.876 -36.091  -4.398  1.00  0.00     0.123 A 
ATOM      9  C   UNL     1      11.087 -36.700  -4.068  1.00  0.00     0.094 A 
ATOM     10  C   UNL     1      12.079 -35.984  -3.395  1.00  0.00     0.146 A 
ATOM     11  O   UNL     1      13.213 -36.603  -3.090  1.00  0.00    -0.452 OA
ENDROOT
BRANCH   1  12
ATOM     12  C   UNL     1      15.434 -36.818  -2.178  1.00  0.00     0.025 A 
ATOM     13  C   UNL     1      15.456 -37.731  -1.113  1.00  0.00     0.016 A 
ATOM     14  C   UNL     1      16.593 -38.506  -0.867  1.00  0.00     0.051 A 
ATOM     15  C   UNL     1      17.719 -38.390  -1.693  1.00  0.00     0.157 A 
ATOM     16  C   UNL     1      16.558 -36.719  -3.017  1.00  0.00     0.062 A 
ATOM     17  C   UNL     1      17.698 -37.495  -2.776  1.00  0.00     0.158 A 
BRANCH  15  18
ATOM     18  O   UNL     1      18.853 -39.162  -1.444  1.00  0.00    -0.504 OA
ATOM     19  H   UNL     1      19.768 -38.742  -1.334  1.00  0.00     0.293 HD
ENDBRANCH  15  18
BRANCH  17  20
ATOM     20  O   UNL     1      18.798 -37.367  -3.625  1.00  0.00    -0.504 OA
ATOM     21  H   UNL     1      19.569 -38.023  -3.610  1.00  0.00     0.293 HD
ENDBRANCH  17  20
ENDBRANCH   1  12
BRANCH   2  22
ATOM     22  O   UNL     1      15.075 -34.112  -1.207  1.00  0.00    -0.502 OA
ATOM     23  H   UNL     1      14.882 -33.635  -0.335  1.00  0.00     0.293 HD
ENDBRANCH   2  22
BRANCH   6  24
ATOM     24  O   UNL     1      10.382 -32.638  -3.250  1.00  0.00    -0.507 OA
ATOM     25  H   UNL     1      10.251 -32.196  -2.353  1.00  0.00     0.293 HD
ENDBRANCH   6  24
BRANCH   8  26
ATOM     26  O   UNL     1       8.875 -36.807  -5.051  1.00  0.00    -0.508 OA
ATOM     27  H   UNL     1       8.224 -37.393  -4.542  1.00  0.00     0.293 HD
ENDBRANCH   8  26
TORSDOF 6
ENDMDL
MODEL 3
REMARK VINA RESULT:    -6.207      1.570      3.262
REMARK INTER + INTRA:          -7.691
REMARK INTER:                  -7.403
REMARK INTRA:                  -0.288
REMARK UNBOUND:                -0.214
REMARK SMILES O=c1c(O)c(-c2ccc(O)c(O)c2)oc2cc(O)cc(O)c12
REMARK SMILES IDX 5 1 3 2 2 3 1 4 22 5 20 6 19 7 17 8 16 9 15 10 14 11 6 12
REMARK SMILES IDX 7 13 8 14 9 15 13 16 11 17 10 18 12 20 4 22 21 24 18 26
REMARK H PARENT 10 19 12 21 4 23 21 25 18 27
REMARK Flexibility Score: inf
ROOT
ATOM      1  C   UNL     1      14.516 -37.687  -3.421  1.00  0.00     0.180 A 
ATOM      2  C   UNL     1      13.730 -36.629  -2.933  1.00  0.00     0.208 A 
ATOM      3  C   UNL     1      12.403 -36.505  -3.374  1.00  0.00     0.238 A 
ATOM      4  O   UNL     1      11.688 -35.588  -2.892  1.00  0.00    -0.285 OA
ATOM      5  C   UNL     1      11.883 -37.431  -4.310  1.00  0.00     0.111 A 
ATOM      6  C   UNL     1      10.565 -37.378  -4.856  1.00  0.00     0.134 A 
ATOM      7  C   UNL     1      10.113 -38.421  -5.675  1.00  0.00     0.093 A 
ATOM      8  C   UNL     1      10.953 -39.480  -6.020  1.00  0.00     0.123 A 
ATOM      9  C   UNL     1      12.262 -39.511  -5.539  1.00  0.00     0.094 A 
ATOM     10  C   UNL     1      12.729 -38.504  -4.691  1.00  0.00     0.146 A 
ATOM     11  O   UNL     1      13.978 -38.577  -4.248  1.00  0.00    -0.452 OA
ENDROOT
BRANCH   1  12
ATOM     12  C   UNL     1      15.930 -37.868  -3.022  1.00  0.00     0.025 A 
ATOM     13  C   UNL     1      16.920 -37.063  -3.605  1.00  0.00     0.016 A 
ATOM     14  C   UNL     1      18.258 -37.202  -3.228  1.00  0.00     0.051 A 
ATOM     15  C   UNL     1      18.624 -38.138  -2.252  1.00  0.00     0.157 A 
ATOM     16  C   UNL     1      16.298 -38.792  -2.028  1.00  0.00     0.062 A 
ATOM     17  C   UNL     1      17.637 -38.933  -1.646  1.00  0.00     0.158 A 
BRANCH  15  18
ATOM     18  O   UNL     1      19.961 -38.276  -1.880  1.00  0.00    -0.504 OA
ATOM     19  H   UNL     1      20.321 -39.147  -1.508  1.00  0.00     0.293 HD
ENDBRANCH  15  18
BRANCH  17  20
ATOM     20  O   UNL     1      17.967 -39.864  -0.661  1.00  0.00    -0.504 OA
ATOM     21  H   UNL     1      18.898 -40.254  -0.578  1.00  0.00     0.293 HD
ENDBRANCH  17  20
ENDBRANCH   1  12
BRANCH   2  22
ATOM     22  O   UNL     1      14.257 -35.739  -1.992  1.00  0.00    -0.502 OA
ATOM     23  H   UNL     1      15.056 -35.969  -1.414  1.00  0.00     0.293 HD
ENDBRANCH   2  22
BRANCH   6  24
ATOM     24  O   UNL     1       9.677 -36.318  -4.650  1.00  0.00    -0.507 OA
ATOM     25  H   UNL     1       9.091 -35.912  -5.363  1.00  0.00     0.293 HD
ENDBRANCH   6  24
BRANCH   8  26
ATOM     26  O   UNL     1      10.476 -40.493  -6.849  1.00  0.00    -0.508 OA
ATOM     27  H   UNL     1      10.181 -40.304  -7.800  1.00  0.00     0.293 HD
ENDBRANCH   8  26
TORSDOF 6
ENDMDL
MODEL 4
REMARK VINA RESULT:    -6.161      1.979      7.220
REMARK INTER + INTRA:          -7.635
REMARK INTER:                  -7.307
REMARK INTRA:                  -0.328
REMARK UNBOUND:                -0.214
REMARK SMILES O=c1c(O)c(-c2ccc(O)c(O)c2)oc2cc(O)cc(O)c12
REMARK SMILES IDX 5 1 3 2 2 3 1 4 22 5 20 6 19 7 17 8 16 9 15 10 14 11 6 12
REMARK SMILES IDX 7 13 8 14 9 15 13 16 11 17 10 18 12 20 4 22 21 24 18 26
REMARK H PARENT 10 19 12 21 4 23 21 25 18 27
REMARK Flexibility Score: inf
ROOT
ATOM      1  C   UNL     1      14.565 -35.904  -1.594  1.00  0.00     0.180 A 
ATOM      2  C   UNL     1      14.572 -36.594  -0.369  1.00  0.00     0.208 A 
ATOM      3  C   UNL     1      15.655 -37.435  -0.067  1.00  0.00     0.238 A 
ATOM      4  O   UNL     1      15.682 -38.007   1.053  1.00  0.00    -0.285 OA
ATOM      5  C   UNL     1      16.709 -37.588  -1.000  1.00  0.00     0.111 A 
ATOM      6  C   UNL     1      17.836 -38.444  -0.816  1.00  0.00     0.134 A 
ATOM      7  C   UNL     1      18.883 -38.418  -1.745  1.00  0.00     0.093 A 
ATOM      8  C   UNL     1      18.814 -37.618  -2.885  1.00  0.00     0.123 A 
ATOM      9  C   UNL     1      17.690 -36.821  -3.105  1.00  0.00     0.094 A 
ATOM     10  C   UNL     1      16.646 -36.798  -2.177  1.00  0.00     0.146 A 
ATOM     11  O   UNL     1      15.600 -36.018  -2.419  1.00  0.00    -0.452 OA
ENDROOT
BRANCH   1  12
ATOM     12  C   UNL     1      13.447 -35.020  -1.994  1.00  0.00     0.025 A 
ATOM     13  C   UNL     1      13.495 -33.656  -1.668  1.00  0.00     0.016 A 
ATOM     14  C   UNL     1      12.460 -32.799  -2.054  1.00  0.00     0.051 A 
ATOM     15  C   UNL     1      11.370 -33.291  -2.784  1.00  0.00     0.157 A 
ATOM     16  C   UNL     1      12.361 -35.506  -2.744  1.00  0.00     0.062 A 
ATOM     17  C   UNL     1      11.324 -34.650  -3.134  1.00  0.00     0.158 A 
BRANCH  15  18
ATOM     18  O   UNL     1      10.338 -32.434  -3.165  1.00  0.00    -0.504 OA
ATOM     19  H   UNL     1       9.415 -32.784  -3.394  1.00  0.00     0.293 HD
ENDBRANCH  15  18
BRANCH  17  20
ATOM     20  O   UNL     1      10.259 -35.168  -3.872  1.00  0.00    -0.504 OA
ATOM     21  H   UNL     1      10.402 -35.759  -4.682  1.00  0.00     0.293 HD
ENDBRANCH  17  20
ENDBRANCH   1  12
BRANCH   2  22
ATOM     22  O   UNL     1      13.532 -36.411   0.547  1.00  0.00    -0.502 OA
ATOM     23  H   UNL     1      13.256 -35.495   0.880  1.00  0.00     0.293 HD
ENDBRANCH   2  22
BRANCH   6  24
ATOM     24  O   UNL     1      17.962 -39.352   0.240  1.00  0.00    -0.507 OA
ATOM     25  H   UNL     1      18.082 -40.347   0.131  1.00  0.00     0.293 HD
ENDBRANCH   6  24
BRANCH   8  26
ATOM     26  O   UNL     1      19.867 -37.628  -3.797  1.00  0.00    -0.508 OA
ATOM     27  H   UNL     1      19.737 -37.338  -4.759  1.00  0.00     0.293 HD
ENDBRANCH   8  26
TORSDOF 6
ENDMDL
MODEL 5
REMARK VINA RESULT:    -6.156     10.249     12.320
REMARK INTER + INTRA:          -7.629
REMARK INTER:                  -7.418
REMARK INTRA:                  -0.211
REMARK UNBOUND:                -0.214
REMARK SMILES O=c1c(O)c(-c2ccc(O)c(O)c2)oc2cc(O)cc(O)c12
REMARK SMILES IDX 5 1 3 2 2 3 1 4 22 5 20 6 19 7 17 8 16 9 15 10 14 11 6 12
REMARK SMILES IDX 7 13 8 14 9 15 13 16 11 17 10 18 12 20 4 22 21 24 18 26
REMARK H PARENT 10 19 12 21 4 23 21 25 18 27
REMARK Flexibility Score: inf
ROOT
ATOM      1  C   UNL     1      24.626 -39.535  -6.926  1.00  0.00     0.180 A 
ATOM      2  C   UNL     1      25.480 -40.580  -7.323  1.00  0.00     0.208 A 
ATOM      3  C   UNL     1      24.928 -41.710  -7.948  1.00  0.00     0.238 A 
ATOM      4  O   UNL     1      25.703 -42.618  -8.349  1.00  0.00    -0.285 OA
ATOM      5  C   UNL     1      23.530 -41.788  -8.155  1.00  0.00     0.111 A 
ATOM      6  C   UNL     1      22.859 -42.903  -8.742  1.00  0.00     0.134 A 
ATOM      7  C   UNL     1      21.489 -42.818  -9.017  1.00  0.00     0.093 A 
ATOM      8  C   UNL     1      20.753 -41.687  -8.667  1.00  0.00     0.123 A 
ATOM      9  C   UNL     1      21.388 -40.615  -8.038  1.00  0.00     0.094 A 
ATOM     10  C   UNL     1      22.760 -40.655  -7.784  1.00  0.00     0.146 A 
ATOM     11  O   UNL     1      23.328 -39.611  -7.194  1.00  0.00    -0.452 OA
ENDROOT
BRANCH   1  12
ATOM     12  C   UNL     1      25.130 -38.325  -6.239  1.00  0.00     0.025 A 
ATOM     13  C   UNL     1      25.004 -37.074  -6.863  1.00  0.00     0.016 A 
ATOM     14  C   UNL     1      25.453 -35.915  -6.224  1.00  0.00     0.051 A 
ATOM     15  C   UNL     1      26.021 -35.989  -4.945  1.00  0.00     0.157 A 
ATOM     16  C   UNL     1      25.681 -38.392  -4.947  1.00  0.00     0.062 A 
ATOM     17  C   UNL     1      26.131 -37.233  -4.303  1.00  0.00     0.158 A 
BRANCH  15  18
ATOM     18  O   UNL     1      26.471 -34.831  -4.310  1.00  0.00    -0.504 OA
ATOM     19  H   UNL     1      26.445 -33.930  -4.771  1.00  0.00     0.293 HD
ENDBRANCH  15  18
BRANCH  17  20
ATOM     20  O   UNL     1      26.678 -37.338  -3.024  1.00  0.00    -0.504 OA
ATOM     21  H   UNL     1      27.051 -38.210  -2.668  1.00  0.00     0.293 HD
ENDBRANCH  17  20
ENDBRANCH   1  12
BRANCH   2  22
ATOM     22  O   UNL     1      26.860 -40.472  -7.128  1.00  0.00    -0.502 OA
ATOM     23  H   UNL     1      27.269 -39.781  -6.512  1.00  0.00     0.293 HD
ENDBRANCH   2  22
BRANCH   6  24
ATOM     24  O   UNL     1      23.482 -44.117  -9.046  1.00  0.00    -0.507 OA
ATOM     25  H   UNL     1      23.013 -45.009  -9.086  1.00  0.00     0.293 HD
ENDBRANCH   6  24
BRANCH   8  26
ATOM     26  O   UNL     1      19.388 -41.642  -8.941  1.00  0.00    -0.508 OA
ATOM     27  H   UNL     1      18.700 -41.568  -8.201  1.00  0.00     0.293 HD
ENDBRANCH   8  26
TORSDOF 6
ENDMDL
MODEL 6
REMARK VINA RESULT:    -6.151      3.290      5.136
REMARK INTER + INTRA:          -7.623
REMARK INTER:                  -7.439
REMARK INTRA:                  -0.184
REMARK UNBOUND:                -0.214
REMARK SMILES O=c1c(O)c(-c2ccc(O)c(O)c2)oc2cc(O)cc(O)c12
REMARK SMILES IDX 5 1 3 2 2 3 1 4 22 5 20 6 19 7 17 8 16 9 15 10 14 11 6 12
REMARK SMILES IDX 7 13 8 14 9 15 13 16 11 17 10 18 12 20 4 22 21 24 18 26
REMARK H PARENT 10 19 12 21 4 23 21 25 18 27
REMARK Flexibility Score: inf
ROOT
ATOM      1  C   UNL     1      14.401 -36.512  -1.629  1.00  0.00     0.180 A 
ATOM      2  C   UNL     1      13.858 -35.883  -2.763  1.00  0.00     0.208 A 
ATOM      3  C   UNL     1      13.428 -36.675  -3.840  1.00  0.00     0.238 A 
ATOM      4  O   UNL     1      12.892 -36.110  -4.829  1.00  0.00    -0.285 OA
ATOM      5  C   UNL     1      13.559 -38.082  -3.776  1.00  0.00     0.111 A 
ATOM      6  C   UNL     1      13.193 -38.979  -4.825  1.00  0.00     0.134 A 
ATOM      7  C   UNL     1      13.245 -40.361  -4.602  1.00  0.00     0.093 A 
ATOM      8  C   UNL     1      13.712 -40.878  -3.395  1.00  0.00     0.123 A 
ATOM      9  C   UNL     1      14.129 -40.011  -2.384  1.00  0.00     0.094 A 
ATOM     10  C   UNL     1      14.054 -38.628  -2.563  1.00  0.00     0.146 A 
ATOM     11  O   UNL     1      14.451 -37.838  -1.573  1.00  0.00    -0.452 OA
ENDROOT
BRANCH   1  12
ATOM     12  C   UNL     1      14.900 -35.744  -0.466  1.00  0.00     0.025 A 
ATOM     13  C   UNL     1      13.989 -35.057   0.351  1.00  0.00     0.016 A 
ATOM     14  C   UNL     1      14.435 -34.344   1.466  1.00  0.00     0.051 A 
ATOM     15  C   UNL     1      15.798 -34.318   1.790  1.00  0.00     0.157 A 
ATOM     16  C   UNL     1      16.265 -35.733  -0.126  1.00  0.00     0.062 A 
ATOM     17  C   UNL     1      16.716 -35.021   0.991  1.00  0.00     0.158 A 
BRANCH  15  18
ATOM     18  O   UNL     1      16.241 -33.603   2.902  1.00  0.00    -0.504 OA
ATOM     19  H   UNL     1      15.979 -33.870   3.843  1.00  0.00     0.293 HD
ENDBRANCH  15  18
BRANCH  17  20
ATOM     20  O   UNL     1      18.077 -35.027   1.295  1.00  0.00    -0.504 OA
ATOM     21  H   UNL     1      18.697 -35.762   0.976  1.00  0.00     0.293 HD
ENDBRANCH  17  20
ENDBRANCH   1  12
BRANCH   2  22
ATOM     22  O   UNL     1      13.717 -34.493  -2.796  1.00  0.00    -0.502 OA
ATOM     23  H   UNL     1      14.256 -33.906  -3.421  1.00  0.00     0.293 HD
ENDBRANCH   2  22
BRANCH   6  24
ATOM     24  O   UNL     1      12.800 -38.567  -6.102  1.00  0.00    -0.507 OA
ATOM     25  H   UNL     1      11.867 -38.277  -6.351  1.00  0.00     0.293 HD
ENDBRANCH   6  24
BRANCH   8  26
ATOM     26  O   UNL     1      13.766 -42.258  -3.213  1.00  0.00    -0.508 OA
ATOM     27  H   UNL     1      14.525 -42.697  -2.706  1.00  0.00     0.293 HD
ENDBRANCH   8  26
TORSDOF 6
ENDMDL
MODEL 7
REMARK VINA RESULT:    -6.151      2.119      7.017
REMARK INTER + INTRA:          -7.623
REMARK INTER:                  -7.334
REMARK INTRA:                  -0.289
REMARK UNBOUND:                -0.214
REMARK SMILES O=c1c(O)c(-c2ccc(O)c(O)c2)oc2cc(O)cc(O)c12
REMARK SMILES IDX 5 1 3 2 2 3 1 4 22 5 20 6 19 7 17 8 16 9 15 10 14 11 6 12
REMARK SMILES IDX 7 13 8 14 9 15 13 16 11 17 10 18 12 20 4 22 21 24 18 26
REMARK H PARENT 10 19 12 21 4 23 21 25 18 27
REMARK Flexibility Score: inf
ROOT
ATOM      1  C   UNL     1      14.379 -36.254  -1.654  1.00  0.00     0.180 A 
ATOM      2  C   UNL     1      14.910 -37.105  -2.639  1.00  0.00     0.208 A 
ATOM      3  C   UNL     1      15.932 -38.001  -2.287  1.00  0.00     0.238 A 
ATOM      4  O   UNL     1      16.365 -38.798  -3.160  1.00  0.00    -0.285 OA
ATOM      5  C   UNL     1      16.421 -38.025  -0.959  1.00  0.00     0.111 A 
ATOM      6  C   UNL     1      17.481 -38.864  -0.501  1.00  0.00     0.134 A 
ATOM      7  C   UNL     1      17.795 -38.898   0.864  1.00  0.00     0.093 A 
ATOM      8  C   UNL     1      17.133 -38.076   1.775  1.00  0.00     0.123 A 
ATOM      9  C   UNL     1      16.136 -37.208   1.329  1.00  0.00     0.094 A 
ATOM     10  C   UNL     1      15.775 -37.179  -0.021  1.00  0.00     0.146 A 
ATOM     11  O   UNL     1      14.814 -36.346  -0.402  1.00  0.00    -0.452 OA
ENDROOT
BRANCH   1  12
ATOM     12  C   UNL     1      13.319 -35.266  -1.954  1.00  0.00     0.025 A 
ATOM     13  C   UNL     1      13.669 -33.927  -2.187  1.00  0.00     0.016 A 
ATOM     14  C   UNL     1      12.687 -32.981  -2.494  1.00  0.00     0.051 A 
ATOM     15  C   UNL     1      11.342 -33.363  -2.586  1.00  0.00     0.157 A 
ATOM     16  C   UNL     1      11.971 -35.649  -2.068  1.00  0.00     0.062 A 
ATOM     17  C   UNL     1      10.984 -34.705  -2.376  1.00  0.00     0.158 A 
BRANCH  15  18
ATOM     18  O   UNL     1      10.364 -32.416  -2.889  1.00  0.00    -0.504 OA
ATOM     19  H   UNL     1      10.485 -31.437  -2.661  1.00  0.00     0.293 HD
ENDBRANCH  15  18
BRANCH  17  20
ATOM     20  O   UNL     1       9.656 -35.120  -2.475  1.00  0.00    -0.504 OA
ATOM     21  H   UNL     1       9.202 -35.265  -3.369  1.00  0.00     0.293 HD
ENDBRANCH  17  20
ENDBRANCH   1  12
BRANCH   2  22
ATOM     22  O   UNL     1      14.397 -37.080  -3.939  1.00  0.00    -0.502 OA
ATOM     23  H   UNL     1      14.489 -37.863  -4.575  1.00  0.00     0.293 HD
ENDBRANCH   2  22
BRANCH   6  24
ATOM     24  O   UNL     1      18.268 -39.656  -1.342  1.00  0.00    -0.507 OA
ATOM     25  H   UNL     1      17.919 -40.185  -2.126  1.00  0.00     0.293 HD
ENDBRANCH   6  24
BRANCH   8  26
ATOM     26  O   UNL     1      17.482 -38.123   3.123  1.00  0.00    -0.508 OA
ATOM     27  H   UNL     1      17.140 -38.856   3.733  1.00  0.00     0.293 HD
ENDBRANCH   8  26
TORSDOF 6
ENDMDL
MODEL 8
REMARK VINA RESULT:    -6.064      3.071      6.082
REMARK INTER + INTRA:          -7.519
REMARK INTER:                  -7.371
REMARK INTRA:                  -0.148
REMARK UNBOUND:                -0.214
REMARK SMILES O=c1c(O)c(-c2ccc(O)c(O)c2)oc2cc(O)cc(O)c12
REMARK SMILES IDX 5 1 3 2 2 3 1 4 22 5 20 6 19 7 17 8 16 9 15 10 14 11 6 12
REMARK SMILES IDX 7 13 8 14 9 15 13 16 11 17 10 18 12 20 4 22 21 24 18 26
REMARK H PARENT 10 19 12 21 4 23 21 25 18 27
REMARK Flexibility Score: inf
ROOT
ATOM      1  C   UNL     1      15.083 -38.001  -2.022  1.00  0.00     0.180 A 
ATOM      2  C   UNL     1      16.420 -38.278  -1.687  1.00  0.00     0.208 A 
ATOM      3  C   UNL     1      17.059 -37.484  -0.722  1.00  0.00     0.238 A 
ATOM      4  O   UNL     1      18.238 -37.771  -0.387  1.00  0.00    -0.285 OA
ATOM      5  C   UNL     1      16.359 -36.414  -0.114  1.00  0.00     0.111 A 
ATOM      6  C   UNL     1      16.920 -35.520   0.847  1.00  0.00     0.134 A 
ATOM      7  C   UNL     1      16.098 -34.579   1.478  1.00  0.00     0.093 A 
ATOM      8  C   UNL     1      14.752 -34.454   1.136  1.00  0.00     0.123 A 
ATOM      9  C   UNL     1      14.207 -35.283   0.155  1.00  0.00     0.094 A 
ATOM     10  C   UNL     1      14.994 -36.256  -0.466  1.00  0.00     0.146 A 
ATOM     11  O   UNL     1      14.434 -37.031  -1.388  1.00  0.00    -0.452 OA
ENDROOT
BRANCH   1  12
ATOM     12  C   UNL     1      14.351 -38.777  -3.049  1.00  0.00     0.025 A 
ATOM     13  C   UNL     1      14.068 -40.132  -2.818  1.00  0.00     0.016 A 
ATOM     14  C   UNL     1      13.360 -40.878  -3.764  1.00  0.00     0.051 A 
ATOM     15  C   UNL     1      12.911 -40.276  -4.947  1.00  0.00     0.157 A 
ATOM     16  C   UNL     1      13.881 -38.171  -4.228  1.00  0.00     0.062 A 
ATOM     17  C   UNL     1      13.170 -38.915  -5.177  1.00  0.00     0.158 A 
BRANCH  15  18
ATOM     18  O   UNL     1      12.207 -41.024  -5.890  1.00  0.00    -0.504 OA
ATOM     19  H   UNL     1      11.280 -41.385  -5.697  1.00  0.00     0.293 HD
ENDBRANCH  15  18
BRANCH  17  20
ATOM     20  O   UNL     1      12.724 -38.283  -6.338  1.00  0.00    -0.504 OA
ATOM     21  H   UNL     1      11.758 -38.328  -6.639  1.00  0.00     0.293 HD
ENDBRANCH  17  20
ENDBRANCH   1  12
BRANCH   2  22
ATOM     22  O   UNL     1      17.085 -39.353  -2.283  1.00  0.00    -0.502 OA
ATOM     23  H   UNL     1      18.094 -39.444  -2.269  1.00  0.00     0.293 HD
ENDBRANCH   2  22
BRANCH   6  24
ATOM     24  O   UNL     1      18.274 -35.498   1.194  1.00  0.00    -0.507 OA
ATOM     25  H   UNL     1      19.017 -35.890   0.636  1.00  0.00     0.293 HD
ENDBRANCH   6  24
BRANCH   8  26
ATOM     26  O   UNL     1      13.966 -33.496   1.773  1.00  0.00    -0.508 OA
ATOM     27  H   UNL     1      13.369 -33.735   2.556  1.00  0.00     0.293 HD
ENDBRANCH   8  26
TORSDOF 6
ENDMDL
MODEL 9
REMARK VINA RESULT:    -6.056      3.446      8.061
REMARK INTER + INTRA:          -7.509
REMARK INTER:                  -7.182
REMARK INTRA:                  -0.327
REMARK UNBOUND:                -0.214
REMARK SMILES O=c1c(O)c(-c2ccc(O)c(O)c2)oc2cc(O)cc(O)c12
REMARK SMILES IDX 5 1 3 2 2 3 1 4 22 5 20 6 19 7 17 8 16 9 15 10 14 11 6 12
REMARK SMILES IDX 7 13 8 14 9 15 13 16 11 17 10 18 12 20 4 22 21 24 18 26
REMARK H PARENT 10 19 12 21 4 23 21 25 18 27
REMARK Flexibility Score: inf
ROOT
ATOM      1  C   UNL     1      14.385 -34.802  -0.005  1.00  0.00     0.180 A 
ATOM      2  C   UNL     1      14.966 -34.197   1.123  1.00  0.00     0.208 A 
ATOM      3  C   UNL     1      16.028 -34.846   1.773  1.00  0.00     0.238 A 
ATOM      4  O   UNL     1      16.580 -34.273   2.749  1.00  0.00    -0.285 OA
ATOM      5  C   UNL     1      16.486 -36.097   1.296  1.00  0.00     0.111 A 
ATOM      6  C   UNL     1      17.529 -36.863   1.901  1.00  0.00     0.134 A 
ATOM      7  C   UNL     1      17.988 -38.025   1.269  1.00  0.00     0.093 A 
ATOM      8  C   UNL     1      17.399 -38.485   0.092  1.00  0.00     0.123 A 
ATOM      9  C   UNL     1      16.340 -37.777  -0.476  1.00  0.00     0.094 A 
ATOM     10  C   UNL     1      15.884 -36.594   0.112  1.00  0.00     0.146 A 
ATOM     11  O   UNL     1      14.880 -35.945  -0.466  1.00  0.00    -0.452 OA
ENDROOT
BRANCH   1  12
ATOM     12  C   UNL     1      13.246 -34.192  -0.727  1.00  0.00     0.025 A 
ATOM     13  C   UNL     1      13.494 -33.310  -1.789  1.00  0.00     0.016 A 
ATOM     14  C   UNL     1      12.434 -32.739  -2.499  1.00  0.00     0.051 A 
ATOM     15  C   UNL     1      11.110 -33.054  -2.166  1.00  0.00     0.157 A 
ATOM     16  C   UNL     1      11.916 -34.522  -0.409  1.00  0.00     0.062 A 
ATOM     17  C   UNL     1      10.851 -33.954  -1.118  1.00  0.00     0.158 A 
BRANCH  15  18
ATOM     18  O   UNL     1      10.054 -32.480  -2.873  1.00  0.00    -0.504 OA
ATOM     19  H   UNL     1       9.777 -32.825  -3.785  1.00  0.00     0.293 HD
ENDBRANCH  15  18
BRANCH  17  20
ATOM     20  O   UNL     1       9.545 -34.298  -0.771  1.00  0.00    -0.504 OA
ATOM     21  H   UNL     1       8.776 -34.219  -1.425  1.00  0.00     0.293 HD
ENDBRANCH  17  20
ENDBRANCH   1  12
BRANCH   2  22
ATOM     22  O   UNL     1      14.513 -32.950   1.563  1.00  0.00    -0.502 OA
ATOM     23  H   UNL     1      13.568 -32.802   1.896  1.00  0.00     0.293 HD
ENDBRANCH   2  22
BRANCH   6  24
ATOM     24  O   UNL     1      18.123 -36.542   3.125  1.00  0.00    -0.507 OA
ATOM     25  H   UNL     1      18.990 -36.038   3.228  1.00  0.00     0.293 HD
ENDBRANCH   6  24
BRANCH   8  26
ATOM     26  O   UNL     1      17.871 -39.654  -0.501  1.00  0.00    -0.508 OA
ATOM     27  H   UNL     1      18.599 -39.635  -1.205  1.00  0.00     0.293 HD
ENDBRANCH   8  26
TORSDOF 6
ENDMDL
