MODEL 1
REMARK VINA RESULT:    18.648      0.000      0.000
REMARK INTER + INTRA:          27.798
REMARK INTER:                  25.734
REMARK INTRA:                   2.064
REMARK UNBOUND:                 2.064
REMARK SMILES CC[C@H](CC[C@@H](C)[C@H]1CC[C@H]2[C@H]3CC=C4C[C@H](O)CC[C@]4(C)[C@@H]3CC[C@]12C)C(C)C
REMARK SMILES IDX 5 1 4 2 3 3 2 4 1 5 28 6 29 7 30 8 6 9 7 10 8 11 9 12 26 13
REMARK SMILES IDX 10 14 11 15 25 16 27 17 12 18 24 19 23 20 13 21 21 22 14 23
REMARK SMILES IDX 15 24 20 25 22 26 16 27 19 28 17 29 18 30
REMARK H PARENT 18 31
REMARK Flexibility Score: inf
ROOT
ATOM      1  C   UNL     1      28.075  31.798  23.736  1.00  0.00     0.004 C 
ENDROOT
BRANCH   1   2
ATOM      2  C   UNL     1      28.670  32.340  22.412  1.00  0.00     0.004 C 
BRANCH   2   3
ATOM      3  C   UNL     1      28.732  33.887  22.244  1.00  0.00    -0.009 C 
BRANCH   3   4
ATOM      4  C   UNL     1      29.112  34.300  20.787  1.00  0.00     0.000 C 
ATOM      5  C   UNL     1      28.014  35.006  19.978  1.00  0.00     0.004 C 
ENDBRANCH   3   4
BRANCH   3   6
ATOM      6  C   UNL     1      27.496  34.645  22.835  1.00  0.00    -0.014 C 
ATOM      7  C   UNL     1      27.474  34.611  24.374  1.00  0.00     0.007 C 
ATOM      8  C   UNL     1      27.345  36.086  22.334  1.00  0.00     0.007 C 
ENDBRANCH   3   6
ENDBRANCH   2   3
ENDBRANCH   1   2
BRANCH   1   9
ATOM      9  C   UNL     1      28.787  30.574  24.398  1.00  0.00    -0.011 C 
ATOM     10  C   UNL     1      29.035  30.909  25.882  1.00  0.00     0.008 C 
BRANCH   9  11
ATOM     11  C   UNL     1      27.948  29.256  24.250  1.00  0.00    -0.002 C 
ATOM     12  C   UNL     1      28.740  28.102  23.585  1.00  0.00     0.005 C 
ATOM     13  C   UNL     1      27.346  28.598  25.539  1.00  0.00    -0.026 C 
ATOM     14  C   UNL     1      28.165  26.780  24.122  1.00  0.00     0.005 C 
ATOM     15  C   UNL     1      26.983  27.214  24.969  1.00  0.00    -0.001 C 
ATOM     16  C   UNL     1      26.032  29.273  26.077  1.00  0.00     0.007 C 
ATOM     17  C   UNL     1      28.432  28.512  26.663  1.00  0.00     0.012 C 
ATOM     18  C   UNL     1      26.311  26.214  25.947  1.00  0.00     0.000 C 
ATOM     19  C   UNL     1      24.905  28.277  26.490  1.00  0.00     0.005 C 
ATOM     20  C   UNL     1      25.484  26.946  27.040  1.00  0.00     0.003 C 
ATOM     21  C   UNL     1      27.216  25.197  26.649  1.00  0.00     0.031 C 
ATOM     22  C   UNL     1      24.470  25.958  27.726  1.00  0.00    -0.008 C 
ATOM     23  C   UNL     1      26.355  24.247  27.452  1.00  0.00    -0.027 C 
ATOM     24  C   UNL     1      25.112  24.565  27.908  1.00  0.00    -0.065 C 
ATOM     25  C   UNL     1      23.171  25.798  26.877  1.00  0.00     0.014 C 
ATOM     26  C   UNL     1      24.114  26.519  29.129  1.00  0.00     0.016 C 
ATOM     27  C   UNL     1      24.221  23.456  28.423  1.00  0.00     0.063 C 
ATOM     28  C   UNL     1      22.253  24.655  27.362  1.00  0.00     0.033 C 
ATOM     29  C   UNL     1      23.001  23.316  27.495  1.00  0.00     0.118 C 
BRANCH  29  30
ATOM     30  O   UNL     1      23.403  22.877  26.220  1.00  0.00    -0.393 OA
ATOM     31  H   UNL     1      24.377  23.056  26.149  1.00  0.00     0.210 HD
ENDBRANCH  29  30
ENDBRANCH   9  11
ENDBRANCH   1   9
TORSDOF 7
ENDMDL
