MODEL 1
REMARK VINA RESULT:    -8.072      0.000      0.000
REMARK INTER + INTRA:         -13.478
REMARK INTER:                 -10.667
REMARK INTRA:                  -2.811
REMARK UNBOUND:                -2.811
REMARK SMILES CC[C@@H](C=C[C@H](C)[C@@H]1CC[C@H]2C3=CC[C@@H]4C[C@H](O)CC[C@]4(C)[C@H]3CC[C@@]21C)C(C)C
REMARK SMILES IDX 6 1 7 2 5 3 4 4 3 5 2 6 1 7 28 8 29 9 30 10 8 11 9 12 26 13
REMARK SMILES IDX 10 14 11 15 25 16 27 17 12 18 24 19 23 20 13 21 21 22 14 23
REMARK SMILES IDX 15 24 20 25 22 26 16 27 19 28 17 29 18 30
REMARK H PARENT 18 31
REMARK Flexibility Score: inf
ROOT
ATOM      1  C   UNL     1     133.520 133.035 136.980  1.00  0.00     0.012 C 
ATOM      2  C   UNL     1     134.663 132.529 136.072  1.00  0.00     0.012 C 
ENDROOT
BRANCH   1   3
ATOM      3  C   UNL     1     133.535 134.563 137.037  1.00  0.00    -0.028 C 
ATOM      4  C   UNL     1     133.192 135.371 138.066  1.00  0.00    -0.027 C 
BRANCH   4   5
ATOM      5  C   UNL     1     132.620 134.957 139.413  1.00  0.00     0.014 C 
BRANCH   5   6
ATOM      6  C   UNL     1     131.776 136.124 139.998  1.00  0.00     0.004 C 
ATOM      7  C   UNL     1     130.343 135.748 140.385  1.00  0.00     0.004 C 
ENDBRANCH   5   6
BRANCH   5   8
ATOM      8  C   UNL     1     133.756 134.469 140.369  1.00  0.00    -0.011 C 
ATOM      9  C   UNL     1     134.534 135.643 140.990  1.00  0.00     0.008 C 
ATOM     10  C   UNL     1     133.195 133.595 141.502  1.00  0.00     0.008 C 
ENDBRANCH   5   8
ENDBRANCH   4   5
ENDBRANCH   1   3
BRANCH   1  11
ATOM     11  C   UNL     1     132.103 132.445 136.632  1.00  0.00     0.002 C 
ATOM     12  C   UNL     1     131.066 133.560 136.276  1.00  0.00     0.005 C 
ATOM     13  C   UNL     1     131.373 131.623 137.752  1.00  0.00    -0.023 C 
ATOM     14  C   UNL     1     129.940 133.511 137.314  1.00  0.00     0.009 C 
ATOM     15  C   UNL     1     130.522 132.687 138.449  1.00  0.00     0.021 C 
ATOM     16  C   UNL     1     132.236 130.942 138.846  1.00  0.00     0.008 C 
ATOM     17  C   UNL     1     130.493 130.541 137.043  1.00  0.00     0.012 C 
ATOM     18  C   UNL     1     129.600 132.080 139.492  1.00  0.00    -0.067 C 
ATOM     19  C   UNL     1     131.363 130.260 139.922  1.00  0.00     0.009 C 
ATOM     20  C   UNL     1     130.291 131.209 140.549  1.00  0.00     0.021 C 
ATOM     21  C   UNL     1     128.347 132.554 139.670  1.00  0.00    -0.027 C 
ATOM     22  C   UNL     1     129.278 130.474 141.513  1.00  0.00    -0.023 C 
ATOM     23  C   UNL     1     127.418 132.060 140.743  1.00  0.00     0.031 C 
ATOM     24  C   UNL     1     128.156 131.468 141.957  1.00  0.00     0.002 C 
ATOM     25  C   UNL     1     129.986 129.931 142.795  1.00  0.00     0.010 C 
ATOM     26  C   UNL     1     128.619 129.260 140.800  1.00  0.00     0.012 C 
ATOM     27  C   UNL     1     128.691 132.587 142.880  1.00  0.00     0.036 C 
ATOM     28  C   UNL     1     130.490 131.033 143.740  1.00  0.00     0.032 C 
ATOM     29  C   UNL     1     129.362 132.001 144.128  1.00  0.00     0.114 C 
BRANCH  29  30
ATOM     30  O   UNL     1     129.880 133.050 144.904  1.00  0.00    -0.393 OA
ATOM     31  H   UNL     1     130.513 133.550 144.324  1.00  0.00     0.210 HD
ENDBRANCH  29  30
ENDBRANCH   1  11
TORSDOF 6
ENDMDL
MODEL 2
REMARK VINA RESULT:    -7.668      8.999     11.687
REMARK INTER + INTRA:         -12.944
REMARK INTER:                 -12.378
REMARK INTRA:                  -0.565
REMARK UNBOUND:                -2.811
REMARK SMILES CC[C@@H](C=C[C@H](C)[C@@H]1CC[C@H]2C3=CC[C@@H]4C[C@H](O)CC[C@]4(C)[C@H]3CC[C@@]21C)C(C)C
REMARK SMILES IDX 6 1 7 2 5 3 4 4 3 5 2 6 1 7 28 8 29 9 30 10 8 11 9 12 26 13
REMARK SMILES IDX 10 14 11 15 25 16 27 17 12 18 24 19 23 20 13 21 21 22 14 23
REMARK SMILES IDX 15 24 20 25 22 26 16 27 19 28 17 29 18 30
REMARK H PARENT 18 31
REMARK Flexibility Score: inf
ROOT
ATOM      1  C   UNL     1     135.906 120.813 140.408  1.00  0.00     0.012 C 
ATOM      2  C   UNL     1     135.413 120.775 141.872  1.00  0.00     0.012 C 
ENDROOT
BRANCH   1   3
ATOM      3  C   UNL     1     135.016 119.929 139.534  1.00  0.00    -0.028 C 
ATOM      4  C   UNL     1     135.371 119.151 138.485  1.00  0.00    -0.027 C 
BRANCH   4   5
ATOM      5  C   UNL     1     136.749 119.026 137.854  1.00  0.00     0.014 C 
BRANCH   5   6
ATOM      6  C   UNL     1     136.605 118.514 136.394  1.00  0.00     0.004 C 
ATOM      7  C   UNL     1     135.451 117.532 136.169  1.00  0.00     0.004 C 
ENDBRANCH   5   6
BRANCH   5   8
ATOM      8  C   UNL     1     137.681 118.137 138.738  1.00  0.00    -0.011 C 
ATOM      9  C   UNL     1     138.401 117.054 137.913  1.00  0.00     0.008 C 
ATOM     10  C   UNL     1     138.738 118.986 139.464  1.00  0.00     0.008 C 
ENDBRANCH   5   8
ENDBRANCH   4   5
ENDBRANCH   1   3
BRANCH   1  11
ATOM     11  C   UNL     1     136.099 122.262 139.823  1.00  0.00     0.002 C 
ATOM     12  C   UNL     1     137.035 123.141 140.713  1.00  0.00     0.005 C 
ATOM     13  C   UNL     1     134.814 123.150 139.669  1.00  0.00    -0.023 C 
ATOM     14  C   UNL     1     136.220 124.331 141.231  1.00  0.00     0.009 C 
ATOM     15  C   UNL     1     134.778 123.920 140.991  1.00  0.00     0.021 C 
ATOM     16  C   UNL     1     133.443 122.442 139.517  1.00  0.00     0.008 C 
ATOM     17  C   UNL     1     135.042 124.098 138.445  1.00  0.00     0.012 C 
ATOM     18  C   UNL     1     133.681 124.970 141.005  1.00  0.00    -0.067 C 
ATOM     19  C   UNL     1     132.277 123.454 139.476  1.00  0.00     0.009 C 
ATOM     20  C   UNL     1     132.274 124.452 140.680  1.00  0.00     0.021 C 
ATOM     21  C   UNL     1     133.877 126.171 141.593  1.00  0.00    -0.027 C 
ATOM     22  C   UNL     1     131.198 125.601 140.549  1.00  0.00    -0.023 C 
ATOM     23  C   UNL     1     132.806 127.217 141.720  1.00  0.00     0.031 C 
ATOM     24  C   UNL     1     131.383 126.630 141.711  1.00  0.00     0.002 C 
ATOM     25  C   UNL     1     129.742 125.043 140.618  1.00  0.00     0.010 C 
ATOM     26  C   UNL     1     131.346 126.344 139.192  1.00  0.00     0.012 C 
ATOM     27  C   UNL     1     131.021 126.034 143.091  1.00  0.00     0.036 C 
ATOM     28  C   UNL     1     129.355 124.481 141.995  1.00  0.00     0.032 C 
ATOM     29  C   UNL     1     129.578 125.516 143.108  1.00  0.00     0.114 C 
BRANCH  29  30
ATOM     30  O   UNL     1     129.315 124.935 144.358  1.00  0.00    -0.393 OA
ATOM     31  H   UNL     1     129.268 125.679 145.015  1.00  0.00     0.210 HD
ENDBRANCH  29  30
ENDBRANCH   1  11
TORSDOF 6
ENDMDL
MODEL 3
REMARK VINA RESULT:    -7.390      3.713      6.875
REMARK INTER + INTRA:         -12.577
REMARK INTER:                  -9.977
REMARK INTRA:                  -2.600
REMARK UNBOUND:                -2.811
REMARK SMILES CC[C@@H](C=C[C@H](C)[C@@H]1CC[C@H]2C3=CC[C@@H]4C[C@H](O)CC[C@]4(C)[C@H]3CC[C@@]21C)C(C)C
REMARK SMILES IDX 6 1 7 2 5 3 4 4 3 5 2 6 1 7 28 8 29 9 30 10 8 11 9 12 26 13
REMARK SMILES IDX 10 14 11 15 25 16 27 17 12 18 24 19 23 20 13 21 21 22 14 23
REMARK SMILES IDX 15 24 20 25 22 26 16 27 19 28 17 29 18 30
REMARK H PARENT 18 31
REMARK Flexibility Score: inf
ROOT
ATOM      1  C   UNL     1     128.207 130.844 140.755  1.00  0.00     0.012 C 
ATOM      2  C   UNL     1     127.052 131.861 140.904  1.00  0.00     0.012 C 
ENDROOT
BRANCH   1   3
ATOM      3  C   UNL     1     129.540 131.581 140.635  1.00  0.00    -0.028 C 
ATOM      4  C   UNL     1     130.386 131.625 139.579  1.00  0.00    -0.027 C 
BRANCH   4   5
ATOM      5  C   UNL     1     130.259 130.874 138.263  1.00  0.00     0.014 C 
BRANCH   5   6
ATOM      6  C   UNL     1     131.467 129.912 138.097  1.00  0.00     0.004 C 
ATOM      7  C   UNL     1     132.477 129.944 139.248  1.00  0.00     0.004 C 
ENDBRANCH   5   6
BRANCH   5   8
ATOM      8  C   UNL     1     130.087 131.872 137.073  1.00  0.00    -0.011 C 
ATOM      9  C   UNL     1     129.034 132.956 137.373  1.00  0.00     0.008 C 
ATOM     10  C   UNL     1     131.416 132.561 136.725  1.00  0.00     0.008 C 
ENDBRANCH   5   8
ENDBRANCH   4   5
ENDBRANCH   1   3
BRANCH   1  11
ATOM     11  C   UNL     1     128.223 129.715 141.852  1.00  0.00     0.002 C 
ATOM     12  C   UNL     1     128.984 130.153 143.145  1.00  0.00     0.005 C 
ATOM     13  C   UNL     1     128.915 128.358 141.473  1.00  0.00    -0.023 C 
ATOM     14  C   UNL     1     130.191 129.227 143.324  1.00  0.00     0.009 C 
ATOM     15  C   UNL     1     130.349 128.562 141.968  1.00  0.00     0.021 C 
ATOM     16  C   UNL     1     129.003 127.969 139.974  1.00  0.00     0.008 C 
ATOM     17  C   UNL     1     128.181 127.220 142.258  1.00  0.00     0.012 C 
ATOM     18  C   UNL     1     131.178 127.297 141.839  1.00  0.00    -0.067 C 
ATOM     19  C   UNL     1     129.796 126.660 139.768  1.00  0.00     0.009 C 
ATOM     20  C   UNL     1     131.209 126.674 140.437  1.00  0.00     0.021 C 
ATOM     21  C   UNL     1     132.082 126.960 142.786  1.00  0.00    -0.027 C 
ATOM     22  C   UNL     1     131.949 125.280 140.387  1.00  0.00    -0.023 C 
ATOM     23  C   UNL     1     132.996 125.773 142.674  1.00  0.00     0.031 C 
ATOM     24  C   UNL     1     133.271 125.355 141.218  1.00  0.00     0.002 C 
ATOM     25  C   UNL     1     132.313 124.867 138.926  1.00  0.00     0.010 C 
ATOM     26  C   UNL     1     131.050 124.156 140.975  1.00  0.00     0.012 C 
ATOM     27  C   UNL     1     134.326 126.279 140.567  1.00  0.00     0.036 C 
ATOM     28  C   UNL     1     133.388 125.755 138.279  1.00  0.00     0.032 C 
ATOM     29  C   UNL     1     134.657 125.821 139.142  1.00  0.00     0.114 C 
BRANCH  29  30
ATOM     30  O   UNL     1     135.573 126.720 138.573  1.00  0.00    -0.393 OA
ATOM     31  H   UNL     1     135.457 127.585 139.047  1.00  0.00     0.210 HD
ENDBRANCH  29  30
ENDBRANCH   1  11
TORSDOF 6
ENDMDL
MODEL 4
REMARK VINA RESULT:    -7.326      2.315      6.356
REMARK INTER + INTRA:         -12.493
REMARK INTER:                  -9.447
REMARK INTRA:                  -3.046
REMARK UNBOUND:                -2.811
REMARK SMILES CC[C@@H](C=C[C@H](C)[C@@H]1CC[C@H]2C3=CC[C@@H]4C[C@H](O)CC[C@]4(C)[C@H]3CC[C@@]21C)C(C)C
REMARK SMILES IDX 6 1 7 2 5 3 4 4 3 5 2 6 1 7 28 8 29 9 30 10 8 11 9 12 26 13
REMARK SMILES IDX 10 14 11 15 25 16 27 17 12 18 24 19 23 20 13 21 21 22 14 23
REMARK SMILES IDX 15 24 20 25 22 26 16 27 19 28 17 29 18 30
REMARK H PARENT 18 31
REMARK Flexibility Score: inf
ROOT
ATOM      1  C   UNL     1     130.320 133.803 143.064  1.00  0.00     0.012 C 
ATOM      2  C   UNL     1     130.372 134.306 144.524  1.00  0.00     0.012 C 
ENDROOT
BRANCH   1   3
ATOM      3  C   UNL     1     129.121 132.874 142.873  1.00  0.00    -0.028 C 
ATOM      4  C   UNL     1     129.055 131.715 142.178  1.00  0.00    -0.027 C 
BRANCH   4   5
ATOM      5  C   UNL     1     130.150 131.082 141.334  1.00  0.00     0.014 C 
BRANCH   5   6
ATOM      6  C   UNL     1     129.561 130.648 139.963  1.00  0.00     0.004 C 
ATOM      7  C   UNL     1     130.514 129.834 139.083  1.00  0.00     0.004 C 
ENDBRANCH   5   6
BRANCH   5   8
ATOM      8  C   UNL     1     130.843 129.918 142.112  1.00  0.00    -0.011 C 
ATOM      9  C   UNL     1     132.198 130.345 142.706  1.00  0.00     0.008 C 
ATOM     10  C   UNL     1     129.950 129.395 143.248  1.00  0.00     0.008 C 
ENDBRANCH   5   8
ENDBRANCH   4   5
ENDBRANCH   1   3
BRANCH   1  11
ATOM     11  C   UNL     1     130.395 134.942 141.980  1.00  0.00     0.002 C 
ATOM     12  C   UNL     1     129.019 135.191 141.283  1.00  0.00     0.005 C 
ATOM     13  C   UNL     1     131.372 134.719 140.772  1.00  0.00    -0.023 C 
ATOM     14  C   UNL     1     129.175 134.872 139.793  1.00  0.00     0.009 C 
ATOM     15  C   UNL     1     130.465 134.074 139.721  1.00  0.00     0.021 C 
ATOM     16  C   UNL     1     132.584 133.771 140.970  1.00  0.00     0.008 C 
ATOM     17  C   UNL     1     131.887 136.125 140.318  1.00  0.00     0.012 C 
ATOM     18  C   UNL     1     131.175 133.903 138.390  1.00  0.00    -0.067 C 
ATOM     19  C   UNL     1     133.385 133.585 139.663  1.00  0.00     0.009 C 
ATOM     20  C   UNL     1     132.505 133.140 138.450  1.00  0.00     0.021 C 
ATOM     21  C   UNL     1     130.519 134.096 137.224  1.00  0.00    -0.027 C 
ATOM     22  C   UNL     1     133.281 133.125 137.074  1.00  0.00    -0.023 C 
ATOM     23  C   UNL     1     131.136 133.855 135.875  1.00  0.00     0.031 C 
ATOM     24  C   UNL     1     132.282 132.828 135.909  1.00  0.00     0.002 C 
ATOM     25  C   UNL     1     134.399 132.036 137.049  1.00  0.00     0.010 C 
ATOM     26  C   UNL     1     133.964 134.496 136.811  1.00  0.00     0.012 C 
ATOM     27  C   UNL     1     131.730 131.384 135.958  1.00  0.00     0.036 C 
ATOM     28  C   UNL     1     133.864 130.595 137.061  1.00  0.00     0.032 C 
ATOM     29  C   UNL     1     132.867 130.356 135.916  1.00  0.00     0.114 C 
BRANCH  29  30
ATOM     30  O   UNL     1     132.322 129.067 136.021  1.00  0.00    -0.393 OA
ATOM     31  H   UNL     1     133.071 128.428 135.888  1.00  0.00     0.210 HD
ENDBRANCH  29  30
ENDBRANCH   1  11
TORSDOF 6
ENDMDL
MODEL 5
REMARK VINA RESULT:    -7.216      2.339      6.660
REMARK INTER + INTRA:         -12.347
REMARK INTER:                  -9.597
REMARK INTRA:                  -2.750
REMARK UNBOUND:                -2.811
REMARK SMILES CC[C@@H](C=C[C@H](C)[C@@H]1CC[C@H]2C3=CC[C@@H]4C[C@H](O)CC[C@]4(C)[C@H]3CC[C@@]21C)C(C)C
REMARK SMILES IDX 6 1 7 2 5 3 4 4 3 5 2 6 1 7 28 8 29 9 30 10 8 11 9 12 26 13
REMARK SMILES IDX 10 14 11 15 25 16 27 17 12 18 24 19 23 20 13 21 21 22 14 23
REMARK SMILES IDX 15 24 20 25 22 26 16 27 19 28 17 29 18 30
REMARK H PARENT 18 31
REMARK Flexibility Score: inf
ROOT
ATOM      1  C   UNL     1     129.327 131.093 143.115  1.00  0.00     0.012 C 
ATOM      2  C   UNL     1     129.321 131.188 144.658  1.00  0.00     0.012 C 
ENDROOT
BRANCH   1   3
ATOM      3  C   UNL     1     128.644 129.801 142.669  1.00  0.00    -0.028 C 
ATOM      4  C   UNL     1     129.007 128.954 141.678  1.00  0.00    -0.027 C 
BRANCH   4   5
ATOM      5  C   UNL     1     130.155 129.123 140.695  1.00  0.00     0.014 C 
BRANCH   5   6
ATOM      6  C   UNL     1     129.742 128.544 139.313  1.00  0.00     0.004 C 
ATOM      7  C   UNL     1     130.116 129.420 138.113  1.00  0.00     0.004 C 
ENDBRANCH   5   6
BRANCH   5   8
ATOM      8  C   UNL     1     131.467 128.497 141.267  1.00  0.00    -0.011 C 
ATOM      9  C   UNL     1     131.885 127.228 140.502  1.00  0.00     0.008 C 
ATOM     10  C   UNL     1     132.630 129.502 141.224  1.00  0.00     0.008 C 
ENDBRANCH   5   8
ENDBRANCH   4   5
ENDBRANCH   1   3
BRANCH   1  11
ATOM     11  C   UNL     1     128.771 132.370 142.382  1.00  0.00     0.002 C 
ATOM     12  C   UNL     1     127.564 132.039 141.445  1.00  0.00     0.005 C 
ATOM     13  C   UNL     1     129.758 133.139 141.434  1.00  0.00    -0.023 C 
ATOM     14  C   UNL     1     127.970 132.379 140.008  1.00  0.00     0.009 C 
ATOM     15  C   UNL     1     129.482 132.500 140.072  1.00  0.00     0.021 C 
ATOM     16  C   UNL     1     131.281 133.012 141.697  1.00  0.00     0.008 C 
ATOM     17  C   UNL     1     129.355 134.651 141.464  1.00  0.00     0.012 C 
ATOM     18  C   UNL     1     130.232 133.204 138.954  1.00  0.00    -0.067 C 
ATOM     19  C   UNL     1     132.111 133.746 140.621  1.00  0.00     0.009 C 
ATOM     20  C   UNL     1     131.747 133.329 139.160  1.00  0.00     0.021 C 
ATOM     21  C   UNL     1     129.662 133.382 137.741  1.00  0.00    -0.027 C 
ATOM     22  C   UNL     1     132.459 134.204 138.053  1.00  0.00    -0.023 C 
ATOM     23  C   UNL     1     130.381 133.988 136.569  1.00  0.00     0.031 C 
ATOM     24  C   UNL     1     131.909 133.818 136.642  1.00  0.00     0.002 C 
ATOM     25  C   UNL     1     134.005 133.991 138.050  1.00  0.00     0.010 C 
ATOM     26  C   UNL     1     132.200 135.717 138.296  1.00  0.00     0.012 C 
ATOM     27  C   UNL     1     132.329 132.393 136.214  1.00  0.00     0.036 C 
ATOM     28  C   UNL     1     134.440 132.590 137.592  1.00  0.00     0.032 C 
ATOM     29  C   UNL     1     133.855 132.243 136.214  1.00  0.00     0.114 C 
BRANCH  29  30
ATOM     30  O   UNL     1     134.185 130.922 135.875  1.00  0.00    -0.393 OA
ATOM     31  H   UNL     1     135.176 130.861 135.891  1.00  0.00     0.210 HD
ENDBRANCH  29  30
ENDBRANCH   1  11
TORSDOF 6
ENDMDL
MODEL 6
REMARK VINA RESULT:    -7.194      4.094      6.333
REMARK INTER + INTRA:         -12.318
REMARK INTER:                  -9.449
REMARK INTRA:                  -2.870
REMARK UNBOUND:                -2.811
REMARK SMILES CC[C@@H](C=C[C@H](C)[C@@H]1CC[C@H]2C3=CC[C@@H]4C[C@H](O)CC[C@]4(C)[C@H]3CC[C@@]21C)C(C)C
REMARK SMILES IDX 6 1 7 2 5 3 4 4 3 5 2 6 1 7 28 8 29 9 30 10 8 11 9 12 26 13
REMARK SMILES IDX 10 14 11 15 25 16 27 17 12 18 24 19 23 20 13 21 21 22 14 23
REMARK SMILES IDX 15 24 20 25 22 26 16 27 19 28 17 29 18 30
REMARK H PARENT 18 31
REMARK Flexibility Score: inf
ROOT
ATOM      1  C   UNL     1     132.543 130.724 137.148  1.00  0.00     0.012 C 
ATOM      2  C   UNL     1     132.877 131.994 136.333  1.00  0.00     0.012 C 
ENDROOT
BRANCH   1   3
ATOM      3  C   UNL     1     131.149 130.218 136.779  1.00  0.00    -0.028 C 
ATOM      4  C   UNL     1     130.134 129.870 137.603  1.00  0.00    -0.027 C 
BRANCH   4   5
ATOM      5  C   UNL     1     130.156 129.816 139.122  1.00  0.00     0.014 C 
BRANCH   5   6
ATOM      6  C   UNL     1     129.427 128.531 139.605  1.00  0.00     0.004 C 
ATOM      7  C   UNL     1     129.424 127.378 138.597  1.00  0.00     0.004 C 
ENDBRANCH   5   6
BRANCH   5   8
ATOM      8  C   UNL     1     129.570 131.131 139.730  1.00  0.00    -0.011 C 
ATOM      9  C   UNL     1     128.771 130.868 141.019  1.00  0.00     0.008 C 
ATOM     10  C   UNL     1     130.682 132.147 140.039  1.00  0.00     0.008 C 
ENDBRANCH   5   8
ENDBRANCH   4   5
ENDBRANCH   1   3
BRANCH   1  11
ATOM     11  C   UNL     1     133.644 129.601 137.083  1.00  0.00     0.002 C 
ATOM     12  C   UNL     1     133.431 128.630 135.877  1.00  0.00     0.005 C 
ATOM     13  C   UNL     1     133.750 128.629 138.310  1.00  0.00    -0.023 C 
ATOM     14  C   UNL     1     133.179 127.226 136.436  1.00  0.00     0.009 C 
ATOM     15  C   UNL     1     132.845 127.466 137.897  1.00  0.00     0.021 C 
ATOM     16  C   UNL     1     133.249 129.128 139.690  1.00  0.00     0.008 C 
ATOM     17  C   UNL     1     135.247 128.190 138.434  1.00  0.00     0.012 C 
ATOM     18  C   UNL     1     132.913 126.317 138.887  1.00  0.00    -0.067 C 
ATOM     19  C   UNL     1     133.333 128.021 140.764  1.00  0.00     0.009 C 
ATOM     20  C   UNL     1     132.625 126.692 140.347  1.00  0.00     0.021 C 
ATOM     21  C   UNL     1     132.881 125.034 138.463  1.00  0.00    -0.027 C 
ATOM     22  C   UNL     1     132.862 125.501 141.357  1.00  0.00    -0.023 C 
ATOM     23  C   UNL     1     132.853 123.854 139.393  1.00  0.00     0.031 C 
ATOM     24  C   UNL     1     132.255 124.184 140.773  1.00  0.00     0.002 C 
ATOM     25  C   UNL     1     132.197 125.773 142.743  1.00  0.00     0.010 C 
ATOM     26  C   UNL     1     134.381 125.284 141.608  1.00  0.00     0.012 C 
ATOM     27  C   UNL     1     130.711 124.223 140.712  1.00  0.00     0.036 C 
ATOM     28  C   UNL     1     130.661 125.778 142.705  1.00  0.00     0.032 C 
ATOM     29  C   UNL     1     130.109 124.478 142.099  1.00  0.00     0.114 C 
BRANCH  29  30
ATOM     30  O   UNL     1     128.713 124.561 141.984  1.00  0.00    -0.393 OA
ATOM     31  H   UNL     1     128.363 123.635 142.062  1.00  0.00     0.210 HD
ENDBRANCH  29  30
ENDBRANCH   1  11
TORSDOF 6
ENDMDL
MODEL 7
REMARK VINA RESULT:    -7.189      2.201      6.033
REMARK INTER + INTRA:         -12.311
REMARK INTER:                  -9.180
REMARK INTRA:                  -3.131
REMARK UNBOUND:                -2.811
REMARK SMILES CC[C@@H](C=C[C@H](C)[C@@H]1CC[C@H]2C3=CC[C@@H]4C[C@H](O)CC[C@]4(C)[C@H]3CC[C@@]21C)C(C)C
REMARK SMILES IDX 6 1 7 2 5 3 4 4 3 5 2 6 1 7 28 8 29 9 30 10 8 11 9 12 26 13
REMARK SMILES IDX 10 14 11 15 25 16 27 17 12 18 24 19 23 20 13 21 21 22 14 23
REMARK SMILES IDX 15 24 20 25 22 26 16 27 19 28 17 29 18 30
REMARK H PARENT 18 31
REMARK Flexibility Score: inf
ROOT
ATOM      1  C   UNL     1     129.483 128.988 141.594  1.00  0.00     0.012 C 
ATOM      2  C   UNL     1     129.205 127.683 142.375  1.00  0.00     0.012 C 
ENDROOT
BRANCH   1   3
ATOM      3  C   UNL     1     129.305 128.748 140.095  1.00  0.00    -0.028 C 
ATOM      4  C   UNL     1     130.097 129.155 139.077  1.00  0.00    -0.027 C 
BRANCH   4   5
ATOM      5  C   UNL     1     131.334 130.035 139.165  1.00  0.00     0.014 C 
BRANCH   5   6
ATOM      6  C   UNL     1     131.259 131.144 138.079  1.00  0.00     0.004 C 
ATOM      7  C   UNL     1     132.433 132.128 138.084  1.00  0.00     0.004 C 
ENDBRANCH   5   6
BRANCH   5   8
ATOM      8  C   UNL     1     132.633 129.171 139.086  1.00  0.00    -0.011 C 
ATOM      9  C   UNL     1     133.066 128.648 140.468  1.00  0.00     0.008 C 
ATOM     10  C   UNL     1     132.449 127.972 138.142  1.00  0.00     0.008 C 
ENDBRANCH   5   8
ENDBRANCH   4   5
ENDBRANCH   1   3
BRANCH   1  11
ATOM     11  C   UNL     1     128.686 130.241 142.117  1.00  0.00     0.002 C 
ATOM     12  C   UNL     1     127.495 130.622 141.179  1.00  0.00     0.005 C 
ATOM     13  C   UNL     1     129.479 131.589 142.254  1.00  0.00    -0.023 C 
ATOM     14  C   UNL     1     127.756 132.026 140.626  1.00  0.00     0.009 C 
ATOM     15  C   UNL     1     129.230 132.263 140.903  1.00  0.00     0.021 C 
ATOM     16  C   UNL     1     131.015 131.523 142.454  1.00  0.00     0.008 C 
ATOM     17  C   UNL     1     128.840 132.392 143.435  1.00  0.00     0.012 C 
ATOM     18  C   UNL     1     129.790 133.674 140.863  1.00  0.00    -0.067 C 
ATOM     19  C   UNL     1     131.651 132.930 142.471  1.00  0.00     0.009 C 
ATOM     20  C   UNL     1     131.274 133.800 141.229  1.00  0.00     0.021 C 
ATOM     21  C   UNL     1     129.129 134.665 140.224  1.00  0.00    -0.027 C 
ATOM     22  C   UNL     1     131.769 135.297 141.328  1.00  0.00    -0.023 C 
ATOM     23  C   UNL     1     129.670 136.058 140.070  1.00  0.00     0.031 C 
ATOM     24  C   UNL     1     131.207 136.120 140.123  1.00  0.00     0.002 C 
ATOM     25  C   UNL     1     133.327 135.397 141.304  1.00  0.00     0.010 C 
ATOM     26  C   UNL     1     131.285 135.952 142.652  1.00  0.00     0.012 C 
ATOM     27  C   UNL     1     131.825 135.687 138.774  1.00  0.00     0.036 C 
ATOM     28  C   UNL     1     133.954 135.006 139.956  1.00  0.00     0.032 C 
ATOM     29  C   UNL     1     133.353 135.819 138.799  1.00  0.00     0.114 C 
BRANCH  29  30
ATOM     30  O   UNL     1     133.871 135.363 137.577  1.00  0.00    -0.393 OA
ATOM     31  H   UNL     1     133.094 135.112 137.012  1.00  0.00     0.210 HD
ENDBRANCH  29  30
ENDBRANCH   1  11
TORSDOF 6
ENDMDL
MODEL 8
REMARK VINA RESULT:    -7.136      2.404      4.343
REMARK INTER + INTRA:         -12.242
REMARK INTER:                  -9.444
REMARK INTRA:                  -2.797
REMARK UNBOUND:                -2.811
REMARK SMILES CC[C@@H](C=C[C@H](C)[C@@H]1CC[C@H]2C3=CC[C@@H]4C[C@H](O)CC[C@]4(C)[C@H]3CC[C@@]21C)C(C)C
REMARK SMILES IDX 6 1 7 2 5 3 4 4 3 5 2 6 1 7 28 8 29 9 30 10 8 11 9 12 26 13
REMARK SMILES IDX 10 14 11 15 25 16 27 17 12 18 24 19 23 20 13 21 21 22 14 23
REMARK SMILES IDX 15 24 20 25 22 26 16 27 19 28 17 29 18 30
REMARK H PARENT 18 31
REMARK Flexibility Score: inf
ROOT
ATOM      1  C   UNL     1     131.009 133.315 138.149  1.00  0.00     0.012 C 
ATOM      2  C   UNL     1     131.664 134.642 137.704  1.00  0.00     0.012 C 
ENDROOT
BRANCH   1   3
ATOM      3  C   UNL     1     129.487 133.430 138.066  1.00  0.00    -0.028 C 
ATOM      4  C   UNL     1     128.567 133.131 139.012  1.00  0.00    -0.027 C 
BRANCH   4   5
ATOM      5  C   UNL     1     128.817 132.519 140.382  1.00  0.00     0.014 C 
BRANCH   5   6
ATOM      6  C   UNL     1     127.602 131.640 140.786  1.00  0.00     0.004 C 
ATOM      7  C   UNL     1     127.954 130.207 141.197  1.00  0.00     0.004 C 
ENDBRANCH   5   6
BRANCH   5   8
ATOM      8  C   UNL     1     129.161 133.628 141.427  1.00  0.00    -0.011 C 
ATOM      9  C   UNL     1     130.613 133.522 141.929  1.00  0.00     0.008 C 
ATOM     10  C   UNL     1     128.943 135.033 140.843  1.00  0.00     0.008 C 
ENDBRANCH   5   8
ENDBRANCH   4   5
ENDBRANCH   1   3
BRANCH   1  11
ATOM     11  C   UNL     1     131.571 132.037 137.422  1.00  0.00     0.002 C 
ATOM     12  C   UNL     1     130.568 131.463 136.369  1.00  0.00     0.005 C 
ATOM     13  C   UNL     1     131.901 130.790 138.317  1.00  0.00    -0.023 C 
ATOM     14  C   UNL     1     130.172 130.050 136.810  1.00  0.00     0.009 C 
ATOM     15  C   UNL     1     130.601 129.985 138.265  1.00  0.00     0.021 C 
ATOM     16  C   UNL     1     132.232 131.025 139.813  1.00  0.00     0.008 C 
ATOM     17  C   UNL     1     133.089 130.028 137.640  1.00  0.00     0.012 C 
ATOM     18  C   UNL     1     130.741 128.638 138.952  1.00  0.00    -0.067 C 
ATOM     19  C   UNL     1     132.436 129.694 140.570  1.00  0.00     0.009 C 
ATOM     20  C   UNL     1     131.250 128.691 140.399  1.00  0.00     0.021 C 
ATOM     21  C   UNL     1     130.139 127.537 138.450  1.00  0.00    -0.027 C 
ATOM     22  C   UNL     1     131.530 127.264 141.016  1.00  0.00    -0.023 C 
ATOM     23  C   UNL     1     130.163 126.197 139.128  1.00  0.00     0.031 C 
ATOM     24  C   UNL     1     130.360 126.293 140.652  1.00  0.00     0.002 C 
ATOM     25  C   UNL     1     131.655 127.318 142.571  1.00  0.00     0.010 C 
ATOM     26  C   UNL     1     132.859 126.676 140.465  1.00  0.00     0.012 C 
ATOM     27  C   UNL     1     129.038 126.672 141.359  1.00  0.00     0.036 C 
ATOM     28  C   UNL     1     130.339 127.657 143.289  1.00  0.00     0.032 C 
ATOM     29  C   UNL     1     129.213 126.695 142.882  1.00  0.00     0.114 C 
BRANCH  29  30
ATOM     30  O   UNL     1     128.005 127.098 143.474  1.00  0.00    -0.393 OA
ATOM     31  H   UNL     1     127.772 126.406 144.148  1.00  0.00     0.210 HD
ENDBRANCH  29  30
ENDBRANCH   1  11
TORSDOF 6
ENDMDL
