MODEL 1
REMARK VINA RESULT:    -4.165      0.000      0.000
REMARK INTER + INTRA:         -15.273
REMARK INTER:                 -10.983
REMARK INTRA:                  -4.290
REMARK UNBOUND:                -4.290
REMARK SMILES CCCCCCCCCCCCCCCCCCCCCCCCCCCCCC(=O)[O-]
REMARK SMILES IDX 16 1 17 2 18 3 19 4 20 5 21 6 22 7 23 8 24 9 25 10 26 11
REMARK SMILES IDX 27 12 28 13 29 14 30 15 31 16 32 17 15 18 14 19 13 20 12 21
REMARK SMILES IDX 11 22 10 23 9 24 8 25 7 26 6 27 5 28 4 29 3 30 2 31 1 32
REMARK H PARENT
REMARK Flexibility Score: inf
ROOT
ATOM      1  C   UNL     1       8.164 -27.364 -27.781  1.00  0.00     0.000 C 
ENDROOT
BRANCH   1   2
ATOM      2  C   UNL     1       8.787 -26.792 -26.495  1.00  0.00     0.000 C 
BRANCH   2   3
ATOM      3  C   UNL     1      10.328 -26.852 -26.471  1.00  0.00     0.000 C 
BRANCH   3   4
ATOM      4  C   UNL     1      10.968 -25.489 -26.794  1.00  0.00     0.000 C 
BRANCH   4   5
ATOM      5  C   UNL     1      12.213 -25.624 -27.687  1.00  0.00     0.000 C 
BRANCH   5   6
ATOM      6  C   UNL     1      12.880 -27.004 -27.552  1.00  0.00     0.000 C 
BRANCH   6   7
ATOM      7  C   UNL     1      14.264 -26.938 -26.881  1.00  0.00     0.000 C 
BRANCH   7   8
ATOM      8  C   UNL     1      14.652 -25.556 -26.326  1.00  0.00     0.000 C 
BRANCH   8   9
ATOM      9  C   UNL     1      15.990 -25.567 -25.567  1.00  0.00     0.000 C 
BRANCH   9  10
ATOM     10  C   UNL     1      16.427 -26.984 -25.164  1.00  0.00     0.000 C 
BRANCH  10  11
ATOM     11  C   UNL     1      17.939 -27.206 -25.330  1.00  0.00     0.000 C 
BRANCH  11  12
ATOM     12  C   UNL     1      18.249 -27.908 -26.657  1.00  0.00     0.000 C 
BRANCH  12  13
ATOM     13  C   UNL     1      18.778 -26.909 -27.698  1.00  0.00     0.006 C 
BRANCH  13  14
ATOM     14  C   UNL     1      20.267 -26.596 -27.499  1.00  0.00     0.053 C 
BRANCH  14  15
ATOM     15  C   UNL     1      20.940 -26.235 -28.787  1.00  0.00     0.041 C 
ATOM     16  O   UNL     1      20.368 -26.465 -29.886  1.00  0.00    -0.550 OA
ATOM     17  O   UNL     1      22.209 -25.670 -28.779  1.00  0.00    -0.550 OA
ENDBRANCH  14  15
ENDBRANCH  13  14
ENDBRANCH  12  13
ENDBRANCH  11  12
ENDBRANCH  10  11
ENDBRANCH   9  10
ENDBRANCH   8   9
ENDBRANCH   7   8
ENDBRANCH   6   7
ENDBRANCH   5   6
ENDBRANCH   4   5
ENDBRANCH   3   4
ENDBRANCH   2   3
ENDBRANCH   1   2
BRANCH   1  18
ATOM     18  C   UNL     1       8.899 -28.607 -28.302  1.00  0.00     0.000 C 
BRANCH  18  19
ATOM     19  C   UNL     1       9.190 -28.490 -29.806  1.00  0.00     0.000 C 
BRANCH  19  20
ATOM     20  C   UNL     1      10.511 -27.760 -30.099  1.00  0.00     0.000 C 
BRANCH  20  21
ATOM     21  C   UNL     1      10.318 -26.544 -31.022  1.00  0.00     0.000 C 
BRANCH  21  22
ATOM     22  C   UNL     1       9.747 -25.319 -30.285  1.00  0.00     0.000 C 
BRANCH  22  23
ATOM     23  C   UNL     1       9.847 -23.987 -31.055  1.00  0.00     0.000 C 
BRANCH  23  24
ATOM     24  C   UNL     1      10.625 -24.051 -32.384  1.00  0.00    -0.000 C 
BRANCH  24  25
ATOM     25  C   UNL     1      11.894 -23.180 -32.440  1.00  0.00    -0.000 C 
BRANCH  25  26
ATOM     26  C   UNL     1      11.694 -21.790 -31.817  1.00  0.00    -0.000 C 
BRANCH  26  27
ATOM     27  C   UNL     1      12.588 -21.614 -30.580  1.00  0.00    -0.000 C 
BRANCH  27  28
ATOM     28  C   UNL     1      13.363 -22.892 -30.212  1.00  0.00    -0.000 C 
BRANCH  28  29
ATOM     29  C   UNL     1      14.282 -22.766 -28.984  1.00  0.00    -0.000 C 
BRANCH  29  30
ATOM     30  C   UNL     1      15.758 -22.555 -29.359  1.00  0.00    -0.000 C 
BRANCH  30  31
ATOM     31  C   UNL     1      16.715 -22.944 -28.220  1.00  0.00    -0.003 C 
ATOM     32  C   UNL     1      18.043 -23.502 -28.730  1.00  0.00     0.004 C 
ENDBRANCH  30  31
ENDBRANCH  29  30
ENDBRANCH  28  29
ENDBRANCH  27  28
ENDBRANCH  26  27
ENDBRANCH  25  26
ENDBRANCH  24  25
ENDBRANCH  23  24
ENDBRANCH  22  23
ENDBRANCH  21  22
ENDBRANCH  20  21
ENDBRANCH  19  20
ENDBRANCH  18  19
ENDBRANCH   1  18
TORSDOF 28
ENDMDL
MODEL 2
REMARK VINA RESULT:    -4.137      1.371      3.950
REMARK INTER + INTRA:         -15.198
REMARK INTER:                 -11.225
REMARK INTRA:                  -3.973
REMARK UNBOUND:                -4.290
REMARK SMILES CCCCCCCCCCCCCCCCCCCCCCCCCCCCCC(=O)[O-]
REMARK SMILES IDX 16 1 17 2 18 3 19 4 20 5 21 6 22 7 23 8 24 9 25 10 26 11
REMARK SMILES IDX 27 12 28 13 29 14 30 15 31 16 32 17 15 18 14 19 13 20 12 21
REMARK SMILES IDX 11 22 10 23 9 24 8 25 7 26 6 27 5 28 4 29 3 30 2 31 1 32
REMARK H PARENT
REMARK Flexibility Score: inf
ROOT
ATOM      1  C   UNL     1      12.563 -27.225 -27.389  1.00  0.00     0.000 C 
ENDROOT
BRANCH   1   2
ATOM      2  C   UNL     1      14.060 -27.487 -27.150  1.00  0.00     0.000 C 
BRANCH   2   3
ATOM      3  C   UNL     1      14.340 -28.601 -26.121  1.00  0.00     0.000 C 
BRANCH   3   4
ATOM      4  C   UNL     1      15.721 -29.250 -26.328  1.00  0.00     0.000 C 
BRANCH   4   5
ATOM      5  C   UNL     1      16.708 -28.312 -27.042  1.00  0.00     0.000 C 
BRANCH   5   6
ATOM      6  C   UNL     1      17.877 -27.896 -26.135  1.00  0.00     0.000 C 
BRANCH   6   7
ATOM      7  C   UNL     1      17.414 -27.208 -24.837  1.00  0.00     0.000 C 
BRANCH   7   8
ATOM      8  C   UNL     1      17.847 -25.738 -24.692  1.00  0.00     0.000 C 
BRANCH   8   9
ATOM      9  C   UNL     1      19.203 -25.443 -25.356  1.00  0.00     0.000 C 
BRANCH   9  10
ATOM     10  C   UNL     1      19.121 -24.301 -26.381  1.00  0.00     0.000 C 
BRANCH  10  11
ATOM     11  C   UNL     1      17.968 -24.485 -27.380  1.00  0.00     0.000 C 
BRANCH  11  12
ATOM     12  C   UNL     1      18.492 -24.548 -28.820  1.00  0.00     0.000 C 
BRANCH  12  13
ATOM     13  C   UNL     1      18.634 -26.003 -29.292  1.00  0.00     0.006 C 
BRANCH  13  14
ATOM     14  C   UNL     1      20.036 -26.303 -29.838  1.00  0.00     0.053 C 
BRANCH  14  15
ATOM     15  C   UNL     1      21.051 -26.414 -28.742  1.00  0.00     0.041 C 
ATOM     16  O   UNL     1      20.895 -27.254 -27.817  1.00  0.00    -0.550 OA
ATOM     17  O   UNL     1      22.158 -25.573 -28.726  1.00  0.00    -0.550 OA
ENDBRANCH  14  15
ENDBRANCH  13  14
ENDBRANCH  12  13
ENDBRANCH  11  12
ENDBRANCH  10  11
ENDBRANCH   9  10
ENDBRANCH   8   9
ENDBRANCH   7   8
ENDBRANCH   6   7
ENDBRANCH   5   6
ENDBRANCH   4   5
ENDBRANCH   3   4
ENDBRANCH   2   3
ENDBRANCH   1   2
BRANCH   1  18
ATOM     18  C   UNL     1      12.223 -25.731 -27.478  1.00  0.00     0.000 C 
BRANCH  18  19
ATOM     19  C   UNL     1      10.768 -25.467 -27.060  1.00  0.00     0.000 C 
BRANCH  19  20
ATOM     20  C   UNL     1      10.107 -26.695 -26.412  1.00  0.00     0.000 C 
BRANCH  20  21
ATOM     21  C   UNL     1       8.735 -27.019 -27.031  1.00  0.00     0.000 C 
BRANCH  21  22
ATOM     22  C   UNL     1       8.783 -28.217 -27.996  1.00  0.00     0.000 C 
BRANCH  22  23
ATOM     23  C   UNL     1       8.853 -27.850 -29.492  1.00  0.00     0.000 C 
BRANCH  23  24
ATOM     24  C   UNL     1      10.275 -27.738 -30.077  1.00  0.00    -0.000 C 
BRANCH  24  25
ATOM     25  C   UNL     1      10.587 -26.405 -30.782  1.00  0.00    -0.000 C 
BRANCH  25  26
ATOM     26  C   UNL     1       9.578 -25.298 -30.443  1.00  0.00    -0.000 C 
BRANCH  26  27
ATOM     27  C   UNL     1      10.110 -23.923 -30.877  1.00  0.00    -0.000 C 
BRANCH  27  28
ATOM     28  C   UNL     1      11.522 -23.629 -30.338  1.00  0.00    -0.000 C 
BRANCH  28  29
ATOM     29  C   UNL     1      12.563 -23.256 -31.407  1.00  0.00    -0.000 C 
BRANCH  29  30
ATOM     30  C   UNL     1      13.779 -22.514 -30.827  1.00  0.00    -0.000 C 
BRANCH  30  31
ATOM     31  C   UNL     1      14.228 -21.339 -31.712  1.00  0.00    -0.003 C 
ATOM     32  C   UNL     1      13.995 -19.981 -31.050  1.00  0.00     0.004 C 
ENDBRANCH  30  31
ENDBRANCH  29  30
ENDBRANCH  28  29
ENDBRANCH  27  28
ENDBRANCH  26  27
ENDBRANCH  25  26
ENDBRANCH  24  25
ENDBRANCH  23  24
ENDBRANCH  22  23
ENDBRANCH  21  22
ENDBRANCH  20  21
ENDBRANCH  19  20
ENDBRANCH  18  19
ENDBRANCH   1  18
TORSDOF 28
ENDMDL
MODEL 3
REMARK VINA RESULT:    -4.129      2.450      4.242
REMARK INTER + INTRA:         -15.178
REMARK INTER:                 -10.843
REMARK INTRA:                  -4.335
REMARK UNBOUND:                -4.290
REMARK SMILES CCCCCCCCCCCCCCCCCCCCCCCCCCCCCC(=O)[O-]
REMARK SMILES IDX 16 1 17 2 18 3 19 4 20 5 21 6 22 7 23 8 24 9 25 10 26 11
REMARK SMILES IDX 27 12 28 13 29 14 30 15 31 16 32 17 15 18 14 19 13 20 12 21
REMARK SMILES IDX 11 22 10 23 9 24 8 25 7 26 6 27 5 28 4 29 3 30 2 31 1 32
REMARK H PARENT
REMARK Flexibility Score: inf
ROOT
ATOM      1  C   UNL     1       8.243 -27.203 -27.674  1.00  0.00     0.000 C 
ENDROOT
BRANCH   1   2
ATOM      2  C   UNL     1       8.984 -26.727 -26.412  1.00  0.00     0.000 C 
BRANCH   2   3
ATOM      3  C   UNL     1      10.105 -25.706 -26.695  1.00  0.00     0.000 C 
BRANCH   3   4
ATOM      4  C   UNL     1      10.762 -25.190 -25.402  1.00  0.00     0.000 C 
BRANCH   4   5
ATOM      5  C   UNL     1       9.921 -25.502 -24.153  1.00  0.00     0.000 C 
BRANCH   5   6
ATOM      6  C   UNL     1      10.706 -26.314 -23.110  1.00  0.00     0.000 C 
BRANCH   6   7
ATOM      7  C   UNL     1      11.885 -27.094 -23.721  1.00  0.00     0.000 C 
BRANCH   7   8
ATOM      8  C   UNL     1      11.985 -28.566 -23.285  1.00  0.00     0.000 C 
BRANCH   8   9
ATOM      9  C   UNL     1      12.090 -29.538 -24.473  1.00  0.00     0.000 C 
BRANCH   9  10
ATOM     10  C   UNL     1      11.644 -28.901 -25.798  1.00  0.00     0.000 C 
BRANCH  10  11
ATOM     11  C   UNL     1      12.744 -28.937 -26.871  1.00  0.00     0.000 C 
BRANCH  11  12
ATOM     12  C   UNL     1      13.209 -27.521 -27.230  1.00  0.00     0.000 C 
BRANCH  12  13
ATOM     13  C   UNL     1      14.567 -27.205 -26.584  1.00  0.00     0.006 C 
BRANCH  13  14
ATOM     14  C   UNL     1      15.560 -28.366 -26.723  1.00  0.00     0.053 C 
BRANCH  14  15
ATOM     15  C   UNL     1      16.943 -27.884 -27.036  1.00  0.00     0.041 C 
ATOM     16  O   UNL     1      17.115 -26.752 -27.561  1.00  0.00    -0.550 OA
ATOM     17  O   UNL     1      18.042 -28.694 -26.774  1.00  0.00    -0.550 OA
ENDBRANCH  14  15
ENDBRANCH  13  14
ENDBRANCH  12  13
ENDBRANCH  11  12
ENDBRANCH  10  11
ENDBRANCH   9  10
ENDBRANCH   8   9
ENDBRANCH   7   8
ENDBRANCH   6   7
ENDBRANCH   5   6
ENDBRANCH   4   5
ENDBRANCH   3   4
ENDBRANCH   2   3
ENDBRANCH   1   2
BRANCH   1  18
ATOM     18  C   UNL     1       8.764 -28.546 -28.204  1.00  0.00     0.000 C 
BRANCH  18  19
ATOM     19  C   UNL     1       9.250 -28.419 -29.655  1.00  0.00     0.000 C 
BRANCH  19  20
ATOM     20  C   UNL     1      10.639 -27.765 -29.759  1.00  0.00     0.000 C 
BRANCH  20  21
ATOM     21  C   UNL     1      10.670 -26.610 -30.775  1.00  0.00     0.000 C 
BRANCH  21  22
ATOM     22  C   UNL     1       9.781 -25.424 -30.359  1.00  0.00     0.000 C 
BRANCH  22  23
ATOM     23  C   UNL     1      10.070 -24.100 -31.093  1.00  0.00     0.000 C 
BRANCH  23  24
ATOM     24  C   UNL     1      10.519 -24.245 -32.562  1.00  0.00    -0.000 C 
BRANCH  24  25
ATOM     25  C   UNL     1      11.942 -23.741 -32.861  1.00  0.00    -0.000 C 
BRANCH  25  26
ATOM     26  C   UNL     1      12.040 -22.209 -32.897  1.00  0.00    -0.000 C 
BRANCH  26  27
ATOM     27  C   UNL     1      12.972 -21.696 -31.788  1.00  0.00    -0.000 C 
BRANCH  27  28
ATOM     28  C   UNL     1      12.225 -20.925 -30.685  1.00  0.00    -0.000 C 
BRANCH  28  29
ATOM     29  C   UNL     1      10.749 -20.615 -30.992  1.00  0.00    -0.000 C 
BRANCH  29  30
ATOM     30  C   UNL     1      10.356 -19.168 -30.648  1.00  0.00    -0.000 C 
BRANCH  30  31
ATOM     31  C   UNL     1       9.686 -18.445 -31.828  1.00  0.00    -0.003 C 
ATOM     32  C   UNL     1      10.224 -18.905 -33.184  1.00  0.00     0.004 C 
ENDBRANCH  30  31
ENDBRANCH  29  30
ENDBRANCH  28  29
ENDBRANCH  27  28
ENDBRANCH  26  27
ENDBRANCH  25  26
ENDBRANCH  24  25
ENDBRANCH  23  24
ENDBRANCH  22  23
ENDBRANCH  21  22
ENDBRANCH  20  21
ENDBRANCH  19  20
ENDBRANCH  18  19
ENDBRANCH   1  18
TORSDOF 28
ENDMDL
MODEL 4
REMARK VINA RESULT:    -4.092      1.985      4.443
REMARK INTER + INTRA:         -15.080
REMARK INTER:                  -9.755
REMARK INTRA:                  -5.325
REMARK UNBOUND:                -4.290
REMARK SMILES CCCCCCCCCCCCCCCCCCCCCCCCCCCCCC(=O)[O-]
REMARK SMILES IDX 16 1 17 2 18 3 19 4 20 5 21 6 22 7 23 8 24 9 25 10 26 11
REMARK SMILES IDX 27 12 28 13 29 14 30 15 31 16 32 17 15 18 14 19 13 20 12 21
REMARK SMILES IDX 11 22 10 23 9 24 8 25 7 26 6 27 5 28 4 29 3 30 2 31 1 32
REMARK H PARENT
REMARK Flexibility Score: inf
ROOT
ATOM      1  C   UNL     1      10.384 -26.562 -24.717  1.00  0.00     0.000 C 
ENDROOT
BRANCH   1   2
ATOM      2  C   UNL     1      10.204 -25.699 -23.456  1.00  0.00     0.000 C 
BRANCH   2   3
ATOM      3  C   UNL     1       9.634 -24.294 -23.739  1.00  0.00     0.000 C 
BRANCH   3   4
ATOM      4  C   UNL     1      10.744 -23.238 -23.900  1.00  0.00     0.000 C 
BRANCH   4   5
ATOM      5  C   UNL     1      12.099 -23.727 -23.361  1.00  0.00     0.000 C 
BRANCH   5   6
ATOM      6  C   UNL     1      13.282 -23.178 -24.175  1.00  0.00     0.000 C 
BRANCH   6   7
ATOM      7  C   UNL     1      14.230 -24.284 -24.674  1.00  0.00     0.000 C 
BRANCH   7   8
ATOM      8  C   UNL     1      14.120 -25.622 -23.922  1.00  0.00     0.000 C 
BRANCH   8   9
ATOM      9  C   UNL     1      15.134 -26.671 -24.410  1.00  0.00     0.000 C 
BRANCH   9  10
ATOM     10  C   UNL     1      15.743 -26.313 -25.774  1.00  0.00     0.000 C 
BRANCH  10  11
ATOM     11  C   UNL     1      16.160 -27.553 -26.580  1.00  0.00     0.000 C 
BRANCH  11  12
ATOM     12  C   UNL     1      17.246 -27.204 -27.605  1.00  0.00     0.000 C 
BRANCH  12  13
ATOM     13  C   UNL     1      18.625 -27.106 -26.936  1.00  0.00     0.006 C 
BRANCH  13  14
ATOM     14  C   UNL     1      19.734 -26.756 -27.937  1.00  0.00     0.053 C 
BRANCH  14  15
ATOM     15  C   UNL     1      20.205 -25.343 -27.777  1.00  0.00     0.041 C 
ATOM     16  O   UNL     1      21.370 -25.021 -28.130  1.00  0.00    -0.550 OA
ATOM     17  O   UNL     1      19.368 -24.386 -27.216  1.00  0.00    -0.550 OA
ENDBRANCH  14  15
ENDBRANCH  13  14
ENDBRANCH  12  13
ENDBRANCH  11  12
ENDBRANCH  10  11
ENDBRANCH   9  10
ENDBRANCH   8   9
ENDBRANCH   7   8
ENDBRANCH   6   7
ENDBRANCH   5   6
ENDBRANCH   4   5
ENDBRANCH   3   4
ENDBRANCH   2   3
ENDBRANCH   1   2
BRANCH   1  18
ATOM     18  C   UNL     1       9.530 -26.081 -25.898  1.00  0.00     0.000 C 
BRANCH  18  19
ATOM     19  C   UNL     1      10.411 -25.624 -27.071  1.00  0.00     0.000 C 
BRANCH  19  20
ATOM     20  C   UNL     1      11.910 -25.844 -26.805  1.00  0.00     0.000 C 
BRANCH  20  21
ATOM     21  C   UNL     1      12.514 -26.928 -27.716  1.00  0.00     0.000 C 
BRANCH  21  22
ATOM     22  C   UNL     1      12.720 -28.270 -26.991  1.00  0.00     0.000 C 
BRANCH  22  23
ATOM     23  C   UNL     1      11.499 -29.211 -26.997  1.00  0.00     0.000 C 
BRANCH  23  24
ATOM     24  C   UNL     1      10.777 -29.346 -28.353  1.00  0.00    -0.000 C 
BRANCH  24  25
ATOM     25  C   UNL     1       9.303 -28.904 -28.354  1.00  0.00    -0.000 C 
BRANCH  25  26
ATOM     26  C   UNL     1       9.010 -27.798 -29.379  1.00  0.00    -0.000 C 
BRANCH  26  27
ATOM     27  C   UNL     1      10.069 -27.793 -30.492  1.00  0.00    -0.000 C 
BRANCH  27  28
ATOM     28  C   UNL     1      10.786 -26.438 -30.632  1.00  0.00    -0.000 C 
BRANCH  28  29
ATOM     29  C   UNL     1       9.886 -25.267 -31.065  1.00  0.00    -0.000 C 
BRANCH  29  30
ATOM     30  C   UNL     1      10.331 -23.918 -30.475  1.00  0.00    -0.000 C 
BRANCH  30  31
ATOM     31  C   UNL     1      11.827 -23.898 -30.119  1.00  0.00    -0.003 C 
ATOM     32  C   UNL     1      12.509 -22.588 -30.512  1.00  0.00     0.004 C 
ENDBRANCH  30  31
ENDBRANCH  29  30
ENDBRANCH  28  29
ENDBRANCH  27  28
ENDBRANCH  26  27
ENDBRANCH  25  26
ENDBRANCH  24  25
ENDBRANCH  23  24
ENDBRANCH  22  23
ENDBRANCH  21  22
ENDBRANCH  20  21
ENDBRANCH  19  20
ENDBRANCH  18  19
ENDBRANCH   1  18
TORSDOF 28
ENDMDL
MODEL 5
REMARK VINA RESULT:    -4.090      2.264      7.039
REMARK INTER + INTRA:         -15.076
REMARK INTER:                 -10.135
REMARK INTRA:                  -4.941
REMARK UNBOUND:                -4.290
REMARK SMILES CCCCCCCCCCCCCCCCCCCCCCCCCCCCCC(=O)[O-]
REMARK SMILES IDX 16 1 17 2 18 3 19 4 20 5 21 6 22 7 23 8 24 9 25 10 26 11
REMARK SMILES IDX 27 12 28 13 29 14 30 15 31 16 32 17 15 18 14 19 13 20 12 21
REMARK SMILES IDX 11 22 10 23 9 24 8 25 7 26 6 27 5 28 4 29 3 30 2 31 1 32
REMARK H PARENT
REMARK Flexibility Score: inf
ROOT
ATOM      1  C   UNL     1      11.807 -25.585 -26.202  1.00  0.00     0.000 C 
ENDROOT
BRANCH   1   2
ATOM      2  C   UNL     1      10.272 -25.570 -26.315  1.00  0.00     0.000 C 
BRANCH   2   3
ATOM      3  C   UNL     1       9.632 -26.973 -26.263  1.00  0.00     0.000 C 
BRANCH   3   4
ATOM      4  C   UNL     1       8.409 -27.088 -27.193  1.00  0.00     0.000 C 
BRANCH   4   5
ATOM      5  C   UNL     1       8.585 -28.183 -28.258  1.00  0.00     0.000 C 
BRANCH   5   6
ATOM      6  C   UNL     1      10.040 -28.296 -28.742  1.00  0.00     0.000 C 
BRANCH   6   7
ATOM      7  C   UNL     1      10.286 -27.568 -30.076  1.00  0.00     0.000 C 
BRANCH   7   8
ATOM      8  C   UNL     1      10.923 -26.173 -29.946  1.00  0.00     0.000 C 
BRANCH   8   9
ATOM      9  C   UNL     1       9.884 -25.041 -29.884  1.00  0.00     0.000 C 
BRANCH   9  10
ATOM     10  C   UNL     1       9.644 -24.385 -31.252  1.00  0.00     0.000 C 
BRANCH  10  11
ATOM     11  C   UNL     1      10.769 -24.683 -32.257  1.00  0.00     0.000 C 
BRANCH  11  12
ATOM     12  C   UNL     1      11.290 -23.391 -32.897  1.00  0.00     0.000 C 
BRANCH  12  13
ATOM     13  C   UNL     1      11.326 -22.244 -31.875  1.00  0.00     0.006 C 
BRANCH  13  14
ATOM     14  C   UNL     1      12.740 -21.679 -31.685  1.00  0.00     0.053 C 
BRANCH  14  15
ATOM     15  C   UNL     1      13.582 -22.561 -30.816  1.00  0.00     0.041 C 
ATOM     16  O   UNL     1      14.824 -22.643 -31.011  1.00  0.00    -0.550 OA
ATOM     17  O   UNL     1      12.995 -23.314 -29.806  1.00  0.00    -0.550 OA
ENDBRANCH  14  15
ENDBRANCH  13  14
ENDBRANCH  12  13
ENDBRANCH  11  12
ENDBRANCH  10  11
ENDBRANCH   9  10
ENDBRANCH   8   9
ENDBRANCH   7   8
ENDBRANCH   6   7
ENDBRANCH   5   6
ENDBRANCH   4   5
ENDBRANCH   3   4
ENDBRANCH   2   3
ENDBRANCH   1   2
BRANCH   1  18
ATOM     18  C   UNL     1      12.374 -26.984 -25.924  1.00  0.00     0.000 C 
BRANCH  18  19
ATOM     19  C   UNL     1      13.296 -27.445 -27.064  1.00  0.00     0.000 C 
BRANCH  19  20
ATOM     20  C   UNL     1      14.486 -28.280 -26.561  1.00  0.00     0.000 C 
BRANCH  20  21
ATOM     21  C   UNL     1      15.834 -27.758 -27.088  1.00  0.00     0.000 C 
BRANCH  21  22
ATOM     22  C   UNL     1      16.739 -27.207 -25.972  1.00  0.00     0.000 C 
BRANCH  22  23
ATOM     23  C   UNL     1      16.271 -25.877 -25.346  1.00  0.00     0.000 C 
BRANCH  23  24
ATOM     24  C   UNL     1      15.875 -24.779 -26.353  1.00  0.00    -0.000 C 
BRANCH  24  25
ATOM     25  C   UNL     1      16.730 -23.500 -26.292  1.00  0.00    -0.000 C 
BRANCH  25  26
ATOM     26  C   UNL     1      18.040 -23.692 -25.513  1.00  0.00    -0.000 C 
BRANCH  26  27
ATOM     27  C   UNL     1      19.248 -23.273 -26.366  1.00  0.00    -0.000 C 
BRANCH  27  28
ATOM     28  C   UNL     1      20.401 -24.291 -26.313  1.00  0.00    -0.000 C 
BRANCH  28  29
ATOM     29  C   UNL     1      20.024 -25.726 -26.719  1.00  0.00    -0.000 C 
BRANCH  29  30
ATOM     30  C   UNL     1      20.060 -25.948 -28.241  1.00  0.00    -0.000 C 
BRANCH  30  31
ATOM     31  C   UNL     1      18.655 -26.094 -28.847  1.00  0.00    -0.003 C 
ATOM     32  C   UNL     1      18.144 -24.795 -29.470  1.00  0.00     0.004 C 
ENDBRANCH  30  31
ENDBRANCH  29  30
ENDBRANCH  28  29
ENDBRANCH  27  28
ENDBRANCH  26  27
ENDBRANCH  25  26
ENDBRANCH  24  25
ENDBRANCH  23  24
ENDBRANCH  22  23
ENDBRANCH  21  22
ENDBRANCH  20  21
ENDBRANCH  19  20
ENDBRANCH  18  19
ENDBRANCH   1  18
TORSDOF 28
ENDMDL
MODEL 6
REMARK VINA RESULT:    -4.037      3.034      7.702
REMARK INTER + INTRA:         -14.936
REMARK INTER:                 -10.301
REMARK INTRA:                  -4.635
REMARK UNBOUND:                -4.290
REMARK SMILES CCCCCCCCCCCCCCCCCCCCCCCCCCCCCC(=O)[O-]
REMARK SMILES IDX 16 1 17 2 18 3 19 4 20 5 21 6 22 7 23 8 24 9 25 10 26 11
REMARK SMILES IDX 27 12 28 13 29 14 30 15 31 16 32 17 15 18 14 19 13 20 12 21
REMARK SMILES IDX 11 22 10 23 9 24 8 25 7 26 6 27 5 28 4 29 3 30 2 31 1 32
REMARK H PARENT
REMARK Flexibility Score: inf
ROOT
ATOM      1  C   UNL     1      12.685 -28.540 -26.382  1.00  0.00     0.000 C 
ENDROOT
BRANCH   1   2
ATOM      2  C   UNL     1      13.393 -27.506 -27.276  1.00  0.00     0.000 C 
BRANCH   2   3
ATOM      3  C   UNL     1      13.039 -26.044 -26.936  1.00  0.00     0.000 C 
BRANCH   3   4
ATOM      4  C   UNL     1      11.987 -25.945 -25.817  1.00  0.00     0.000 C 
BRANCH   4   5
ATOM      5  C   UNL     1      10.610 -25.508 -26.345  1.00  0.00     0.000 C 
BRANCH   5   6
ATOM      6  C   UNL     1       9.474 -26.400 -25.819  1.00  0.00     0.000 C 
BRANCH   6   7
ATOM      7  C   UNL     1       8.617 -27.007 -26.946  1.00  0.00     0.000 C 
BRANCH   7   8
ATOM      8  C   UNL     1       9.347 -28.026 -27.839  1.00  0.00     0.000 C 
BRANCH   8   9
ATOM      9  C   UNL     1       9.109 -27.788 -29.340  1.00  0.00     0.000 C 
BRANCH   9  10
ATOM     10  C   UNL     1      10.416 -27.567 -30.117  1.00  0.00     0.000 C 
BRANCH  10  11
ATOM     11  C   UNL     1      10.966 -26.141 -29.955  1.00  0.00     0.000 C 
BRANCH  11  12
ATOM     12  C   UNL     1       9.833 -25.108 -29.973  1.00  0.00     0.000 C 
BRANCH  12  13
ATOM     13  C   UNL     1       9.582 -24.589 -31.398  1.00  0.00     0.006 C 
BRANCH  13  14
ATOM     14  C   UNL     1      10.878 -24.476 -32.211  1.00  0.00     0.053 C 
BRANCH  14  15
ATOM     15  C   UNL     1      11.304 -23.052 -32.389  1.00  0.00     0.041 C 
ATOM     16  O   UNL     1      11.074 -22.205 -31.486  1.00  0.00    -0.550 OA
ATOM     17  O   UNL     1      11.933 -22.651 -33.562  1.00  0.00    -0.550 OA
ENDBRANCH  14  15
ENDBRANCH  13  14
ENDBRANCH  12  13
ENDBRANCH  11  12
ENDBRANCH  10  11
ENDBRANCH   9  10
ENDBRANCH   8   9
ENDBRANCH   7   8
ENDBRANCH   6   7
ENDBRANCH   5   6
ENDBRANCH   4   5
ENDBRANCH   3   4
ENDBRANCH   2   3
ENDBRANCH   1   2
BRANCH   1  18
ATOM     18  C   UNL     1      13.656 -29.542 -25.743  1.00  0.00     0.000 C 
BRANCH  18  19
ATOM     19  C   UNL     1      15.113 -29.198 -26.084  1.00  0.00     0.000 C 
BRANCH  19  20
ATOM     20  C   UNL     1      16.022 -29.174 -24.843  1.00  0.00     0.000 C 
BRANCH  20  21
ATOM     21  C   UNL     1      17.201 -28.198 -24.999  1.00  0.00     0.000 C 
BRANCH  21  22
ATOM     22  C   UNL     1      16.758 -26.724 -25.020  1.00  0.00     0.000 C 
BRANCH  22  23
ATOM     23  C   UNL     1      17.486 -25.836 -26.049  1.00  0.00     0.000 C 
BRANCH  23  24
ATOM     24  C   UNL     1      17.434 -26.337 -27.506  1.00  0.00    -0.000 C 
BRANCH  24  25
ATOM     25  C   UNL     1      18.764 -26.887 -28.055  1.00  0.00    -0.000 C 
BRANCH  25  26
ATOM     26  C   UNL     1      19.989 -26.351 -27.300  1.00  0.00    -0.000 C 
BRANCH  26  27
ATOM     27  C   UNL     1      20.994 -25.715 -28.273  1.00  0.00    -0.000 C 
BRANCH  27  28
ATOM     28  C   UNL     1      21.153 -24.199 -28.065  1.00  0.00    -0.000 C 
BRANCH  28  29
ATOM     29  C   UNL     1      20.549 -23.653 -26.759  1.00  0.00    -0.000 C 
BRANCH  29  30
ATOM     30  C   UNL     1      19.334 -22.740 -26.995  1.00  0.00    -0.000 C 
BRANCH  30  31
ATOM     31  C   UNL     1      19.076 -22.481 -28.489  1.00  0.00    -0.003 C 
ATOM     32  C   UNL     1      17.680 -22.918 -28.931  1.00  0.00     0.004 C 
ENDBRANCH  30  31
ENDBRANCH  29  30
ENDBRANCH  28  29
ENDBRANCH  27  28
ENDBRANCH  26  27
ENDBRANCH  25  26
ENDBRANCH  24  25
ENDBRANCH  23  24
ENDBRANCH  22  23
ENDBRANCH  21  22
ENDBRANCH  20  21
ENDBRANCH  19  20
ENDBRANCH  18  19
ENDBRANCH   1  18
TORSDOF 28
ENDMDL
MODEL 7
REMARK VINA RESULT:    -3.974      2.073      5.923
REMARK INTER + INTRA:         -14.769
REMARK INTER:                  -9.314
REMARK INTRA:                  -5.455
REMARK UNBOUND:                -4.290
REMARK SMILES CCCCCCCCCCCCCCCCCCCCCCCCCCCCCC(=O)[O-]
REMARK SMILES IDX 16 1 17 2 18 3 19 4 20 5 21 6 22 7 23 8 24 9 25 10 26 11
REMARK SMILES IDX 27 12 28 13 29 14 30 15 31 16 32 17 15 18 14 19 13 20 12 21
REMARK SMILES IDX 11 22 10 23 9 24 8 25 7 26 6 27 5 28 4 29 3 30 2 31 1 32
REMARK H PARENT
REMARK Flexibility Score: inf
ROOT
ATOM      1  C   UNL     1       8.906 -27.827 -29.509  1.00  0.00     0.000 C 
ENDROOT
BRANCH   1   2
ATOM      2  C   UNL     1      10.361 -27.804 -30.010  1.00  0.00     0.000 C 
BRANCH   2   3
ATOM      3  C   UNL     1      10.794 -26.446 -30.600  1.00  0.00     0.000 C 
BRANCH   3   4
ATOM      4  C   UNL     1       9.731 -25.352 -30.386  1.00  0.00     0.000 C 
BRANCH   4   5
ATOM      5  C   UNL     1      10.297 -23.938 -30.592  1.00  0.00     0.000 C 
BRANCH   5   6
ATOM      6  C   UNL     1      11.784 -23.843 -30.210  1.00  0.00     0.000 C 
BRANCH   6   7
ATOM      7  C   UNL     1      12.466 -22.580 -30.766  1.00  0.00     0.000 C 
BRANCH   7   8
ATOM      8  C   UNL     1      14.003 -22.588 -30.696  1.00  0.00     0.000 C 
BRANCH   8   9
ATOM      9  C   UNL     1      14.567 -21.526 -29.736  1.00  0.00     0.000 C 
BRANCH   9  10
ATOM     10  C   UNL     1      15.760 -22.044 -28.919  1.00  0.00     0.000 C 
BRANCH  10  11
ATOM     11  C   UNL     1      15.411 -22.268 -27.439  1.00  0.00     0.000 C 
BRANCH  11  12
ATOM     12  C   UNL     1      15.209 -23.758 -27.141  1.00  0.00     0.000 C 
BRANCH  12  13
ATOM     13  C   UNL     1      16.424 -24.343 -26.404  1.00  0.00     0.006 C 
BRANCH  13  14
ATOM     14  C   UNL     1      17.044 -25.529 -27.155  1.00  0.00     0.053 C 
BRANCH  14  15
ATOM     15  C   UNL     1      18.095 -25.087 -28.126  1.00  0.00     0.041 C 
ATOM     16  O   UNL     1      18.436 -25.840 -29.076  1.00  0.00    -0.550 OA
ATOM     17  O   UNL     1      18.718 -23.854 -27.970  1.00  0.00    -0.550 OA
ENDBRANCH  14  15
ENDBRANCH  13  14
ENDBRANCH  12  13
ENDBRANCH  11  12
ENDBRANCH  10  11
ENDBRANCH   9  10
ENDBRANCH   8   9
ENDBRANCH   7   8
ENDBRANCH   6   7
ENDBRANCH   5   6
ENDBRANCH   4   5
ENDBRANCH   3   4
ENDBRANCH   2   3
ENDBRANCH   1   2
BRANCH   1  18
ATOM     18  C   UNL     1       8.786 -28.239 -28.036  1.00  0.00     0.000 C 
BRANCH  18  19
ATOM     19  C   UNL     1       8.554 -27.017 -27.135  1.00  0.00     0.000 C 
BRANCH  19  20
ATOM     20  C   UNL     1       9.788 -26.662 -26.288  1.00  0.00     0.000 C 
BRANCH  20  21
ATOM     21  C   UNL     1      10.563 -25.460 -26.855  1.00  0.00     0.000 C 
BRANCH  21  22
ATOM     22  C   UNL     1      12.047 -25.776 -27.118  1.00  0.00     0.000 C 
BRANCH  22  23
ATOM     23  C   UNL     1      12.418 -27.272 -27.056  1.00  0.00     0.000 C 
BRANCH  23  24
ATOM     24  C   UNL     1      13.925 -27.572 -26.931  1.00  0.00    -0.000 C 
BRANCH  24  25
ATOM     25  C   UNL     1      14.391 -27.997 -25.527  1.00  0.00    -0.000 C 
BRANCH  25  26
ATOM     26  C   UNL     1      14.536 -26.812 -24.560  1.00  0.00    -0.000 C 
BRANCH  26  27
ATOM     27  C   UNL     1      13.791 -27.088 -23.244  1.00  0.00    -0.000 C 
BRANCH  27  28
ATOM     28  C   UNL     1      12.506 -27.912 -23.444  1.00  0.00    -0.000 C 
BRANCH  28  29
ATOM     29  C   UNL     1      11.201 -27.185 -23.073  1.00  0.00    -0.000 C 
BRANCH  29  30
ATOM     30  C   UNL     1      11.326 -25.654 -23.149  1.00  0.00    -0.000 C 
BRANCH  30  31
ATOM     31  C   UNL     1      10.089 -24.935 -22.586  1.00  0.00    -0.003 C 
ATOM     32  C   UNL     1       9.380 -24.074 -23.631  1.00  0.00     0.004 C 
ENDBRANCH  30  31
ENDBRANCH  29  30
ENDBRANCH  28  29
ENDBRANCH  27  28
ENDBRANCH  26  27
ENDBRANCH  25  26
ENDBRANCH  24  25
ENDBRANCH  23  24
ENDBRANCH  22  23
ENDBRANCH  21  22
ENDBRANCH  20  21
ENDBRANCH  19  20
ENDBRANCH  18  19
ENDBRANCH   1  18
TORSDOF 28
ENDMDL
MODEL 8
REMARK VINA RESULT:    -3.946      2.201      6.705
REMARK INTER + INTRA:         -14.696
REMARK INTER:                  -9.499
REMARK INTRA:                  -5.196
REMARK UNBOUND:                -4.290
REMARK SMILES CCCCCCCCCCCCCCCCCCCCCCCCCCCCCC(=O)[O-]
REMARK SMILES IDX 16 1 17 2 18 3 19 4 20 5 21 6 22 7 23 8 24 9 25 10 26 11
REMARK SMILES IDX 27 12 28 13 29 14 30 15 31 16 32 17 15 18 14 19 13 20 12 21
REMARK SMILES IDX 11 22 10 23 9 24 8 25 7 26 6 27 5 28 4 29 3 30 2 31 1 32
REMARK H PARENT
REMARK Flexibility Score: inf
ROOT
ATOM      1  C   UNL     1       9.493 -27.382 -26.660  1.00  0.00     0.000 C 
ENDROOT
BRANCH   1   2
ATOM      2  C   UNL     1       8.326 -27.373 -27.663  1.00  0.00     0.000 C 
BRANCH   2   3
ATOM      3  C   UNL     1       8.749 -27.695 -29.111  1.00  0.00     0.000 C 
BRANCH   3   4
ATOM      4  C   UNL     1      10.279 -27.747 -29.273  1.00  0.00     0.000 C 
BRANCH   4   5
ATOM      5  C   UNL     1      10.804 -26.658 -30.223  1.00  0.00     0.000 C 
BRANCH   5   6
ATOM      6  C   UNL     1      10.309 -25.256 -29.833  1.00  0.00     0.000 C 
BRANCH   6   7
ATOM      7  C   UNL     1       9.624 -24.517 -30.998  1.00  0.00     0.000 C 
BRANCH   7   8
ATOM      8  C   UNL     1      10.135 -24.898 -32.398  1.00  0.00     0.000 C 
BRANCH   8   9
ATOM      9  C   UNL     1      10.549 -23.678 -33.239  1.00  0.00     0.000 C 
BRANCH   9  10
ATOM     10  C   UNL     1      11.852 -23.035 -32.743  1.00  0.00     0.000 C 
BRANCH  10  11
ATOM     11  C   UNL     1      11.620 -21.677 -32.061  1.00  0.00     0.000 C 
BRANCH  11  12
ATOM     12  C   UNL     1      12.271 -21.640 -30.673  1.00  0.00     0.000 C 
BRANCH  12  13
ATOM     13  C   UNL     1      13.186 -22.857 -30.460  1.00  0.00     0.006 C 
BRANCH  13  14
ATOM     14  C   UNL     1      14.670 -22.470 -30.432  1.00  0.00     0.053 C 
BRANCH  14  15
ATOM     15  C   UNL     1      15.171 -22.278 -29.033  1.00  0.00     0.041 C 
ATOM     16  O   UNL     1      15.998 -21.364 -28.777  1.00  0.00    -0.550 OA
ATOM     17  O   UNL     1      14.744 -23.124 -28.015  1.00  0.00    -0.550 OA
ENDBRANCH  14  15
ENDBRANCH  13  14
ENDBRANCH  12  13
ENDBRANCH  11  12
ENDBRANCH  10  11
ENDBRANCH   9  10
ENDBRANCH   8   9
ENDBRANCH   7   8
ENDBRANCH   6   7
ENDBRANCH   5   6
ENDBRANCH   4   5
ENDBRANCH   3   4
ENDBRANCH   2   3
ENDBRANCH   1   2
BRANCH   1  18
ATOM     18  C   UNL     1       9.497 -26.158 -25.734  1.00  0.00     0.000 C 
BRANCH  18  19
ATOM     19  C   UNL     1      10.611 -25.174 -26.119  1.00  0.00     0.000 C 
BRANCH  19  20
ATOM     20  C   UNL     1      11.812 -25.233 -25.159  1.00  0.00     0.000 C 
BRANCH  20  21
ATOM     21  C   UNL     1      13.144 -25.449 -25.898  1.00  0.00     0.000 C 
BRANCH  21  22
ATOM     22  C   UNL     1      12.965 -26.142 -27.261  1.00  0.00     0.000 C 
BRANCH  22  23
ATOM     23  C   UNL     1      13.592 -27.547 -27.369  1.00  0.00     0.000 C 
BRANCH  23  24
ATOM     24  C   UNL     1      12.939 -28.629 -26.485  1.00  0.00    -0.000 C 
BRANCH  24  25
ATOM     25  C   UNL     1      13.921 -29.460 -25.640  1.00  0.00    -0.000 C 
BRANCH  25  26
ATOM     26  C   UNL     1      15.342 -28.878 -25.629  1.00  0.00    -0.000 C 
BRANCH  26  27
ATOM     27  C   UNL     1      15.570 -28.020 -24.375  1.00  0.00    -0.000 C 
BRANCH  27  28
ATOM     28  C   UNL     1      16.304 -26.701 -24.676  1.00  0.00    -0.000 C 
BRANCH  28  29
ATOM     29  C   UNL     1      17.298 -26.761 -25.849  1.00  0.00    -0.000 C 
BRANCH  29  30
ATOM     30  C   UNL     1      16.911 -25.832 -27.012  1.00  0.00    -0.000 C 
BRANCH  30  31
ATOM     31  C   UNL     1      17.994 -24.782 -27.311  1.00  0.00    -0.003 C 
ATOM     32  C   UNL     1      18.106 -24.458 -28.800  1.00  0.00     0.004 C 
ENDBRANCH  30  31
ENDBRANCH  29  30
ENDBRANCH  28  29
ENDBRANCH  27  28
ENDBRANCH  26  27
ENDBRANCH  25  26
ENDBRANCH  24  25
ENDBRANCH  23  24
ENDBRANCH  22  23
ENDBRANCH  21  22
ENDBRANCH  20  21
ENDBRANCH  19  20
ENDBRANCH  18  19
ENDBRANCH   1  18
TORSDOF 28
ENDMDL
MODEL 9
REMARK VINA RESULT:    -3.937      1.207      4.721
REMARK INTER + INTRA:         -14.671
REMARK INTER:                 -10.218
REMARK INTRA:                  -4.453
REMARK UNBOUND:                -4.290
REMARK SMILES CCCCCCCCCCCCCCCCCCCCCCCCCCCCCC(=O)[O-]
REMARK SMILES IDX 16 1 17 2 18 3 19 4 20 5 21 6 22 7 23 8 24 9 25 10 26 11
REMARK SMILES IDX 27 12 28 13 29 14 30 15 31 16 32 17 15 18 14 19 13 20 12 21
REMARK SMILES IDX 11 22 10 23 9 24 8 25 7 26 6 27 5 28 4 29 3 30 2 31 1 32
REMARK H PARENT
REMARK Flexibility Score: inf
ROOT
ATOM      1  C   UNL     1      10.719 -25.627 -31.745  1.00  0.00     0.000 C 
ENDROOT
BRANCH   1   2
ATOM      2  C   UNL     1       9.911 -24.595 -30.939  1.00  0.00     0.000 C 
BRANCH   2   3
ATOM      3  C   UNL     1      10.692 -23.302 -30.625  1.00  0.00     0.000 C 
BRANCH   3   4
ATOM      4  C   UNL     1      12.198 -23.448 -30.911  1.00  0.00     0.000 C 
BRANCH   4   5
ATOM      5  C   UNL     1      13.022 -22.300 -30.304  1.00  0.00     0.000 C 
BRANCH   5   6
ATOM      6  C   UNL     1      14.531 -22.475 -30.547  1.00  0.00     0.000 C 
BRANCH   6   7
ATOM      7  C   UNL     1      15.394 -21.745 -29.501  1.00  0.00     0.000 C 
BRANCH   7   8
ATOM      8  C   UNL     1      16.673 -22.490 -29.082  1.00  0.00     0.000 C 
BRANCH   8   9
ATOM      9  C   UNL     1      16.941 -22.421 -27.568  1.00  0.00     0.000 C 
BRANCH   9  10
ATOM     10  C   UNL     1      16.145 -23.472 -26.780  1.00  0.00     0.000 C 
BRANCH  10  11
ATOM     11  C   UNL     1      17.039 -24.577 -26.196  1.00  0.00     0.000 C 
BRANCH  11  12
ATOM     12  C   UNL     1      16.762 -25.925 -26.874  1.00  0.00     0.000 C 
BRANCH  12  13
ATOM     13  C   UNL     1      18.068 -26.585 -27.344  1.00  0.00     0.006 C 
BRANCH  13  14
ATOM     14  C   UNL     1      19.064 -25.564 -27.910  1.00  0.00     0.053 C 
BRANCH  14  15
ATOM     15  C   UNL     1      20.318 -26.219 -28.399  1.00  0.00     0.041 C 
ATOM     16  O   UNL     1      21.263 -25.520 -28.852  1.00  0.00    -0.550 OA
ATOM     17  O   UNL     1      20.437 -27.604 -28.380  1.00  0.00    -0.550 OA
ENDBRANCH  14  15
ENDBRANCH  13  14
ENDBRANCH  12  13
ENDBRANCH  11  12
ENDBRANCH  10  11
ENDBRANCH   9  10
ENDBRANCH   8   9
ENDBRANCH   7   8
ENDBRANCH   6   7
ENDBRANCH   5   6
ENDBRANCH   4   5
ENDBRANCH   3   4
ENDBRANCH   2   3
ENDBRANCH   1   2
BRANCH   1  18
ATOM     18  C   UNL     1      10.621 -27.046 -31.169  1.00  0.00     0.000 C 
BRANCH  18  19
ATOM     19  C   UNL     1       9.520 -27.137 -30.101  1.00  0.00     0.000 C 
BRANCH  19  20
ATOM     20  C   UNL     1       9.279 -28.578 -29.620  1.00  0.00     0.000 C 
BRANCH  20  21
ATOM     21  C   UNL     1       8.980 -28.650 -28.112  1.00  0.00     0.000 C 
BRANCH  21  22
ATOM     22  C   UNL     1       8.174 -27.441 -27.604  1.00  0.00     0.000 C 
BRANCH  22  23
ATOM     23  C   UNL     1       8.835 -26.647 -26.460  1.00  0.00     0.000 C 
BRANCH  23  24
ATOM     24  C   UNL     1      10.367 -26.789 -26.359  1.00  0.00    -0.000 C 
BRANCH  24  25
ATOM     25  C   UNL     1      11.168 -25.564 -26.840  1.00  0.00    -0.000 C 
BRANCH  25  26
ATOM     26  C   UNL     1      12.170 -25.904 -27.953  1.00  0.00    -0.000 C 
BRANCH  26  27
ATOM     27  C   UNL     1      12.480 -27.410 -27.966  1.00  0.00    -0.000 C 
BRANCH  27  28
ATOM     28  C   UNL     1      13.790 -27.759 -27.237  1.00  0.00    -0.000 C 
BRANCH  28  29
ATOM     29  C   UNL     1      13.614 -28.327 -25.817  1.00  0.00    -0.000 C 
BRANCH  29  30
ATOM     30  C   UNL     1      14.938 -28.416 -25.039  1.00  0.00    -0.000 C 
BRANCH  30  31
ATOM     31  C   UNL     1      14.977 -27.461 -23.836  1.00  0.00    -0.003 C 
ATOM     32  C   UNL     1      14.190 -26.173 -24.079  1.00  0.00     0.004 C 
ENDBRANCH  30  31
ENDBRANCH  29  30
ENDBRANCH  28  29
ENDBRANCH  27  28
ENDBRANCH  26  27
ENDBRANCH  25  26
ENDBRANCH  24  25
ENDBRANCH  23  24
ENDBRANCH  22  23
ENDBRANCH  21  22
ENDBRANCH  20  21
ENDBRANCH  19  20
ENDBRANCH  18  19
ENDBRANCH   1  18
TORSDOF 28
ENDMDL
