MODEL 1
REMARK VINA RESULT:    -5.086      0.000      0.000
REMARK INTER + INTRA:         -15.293
REMARK INTER:                 -11.627
REMARK INTRA:                  -3.666
REMARK UNBOUND:                -3.666
REMARK SMILES CCCCCCCCCCCCCCCCCCCCCCCC(=O)[O-]
REMARK SMILES IDX 13 1 14 2 15 3 16 4 17 5 18 6 19 7 20 8 21 9 22 10 23 11
REMARK SMILES IDX 24 12 25 13 26 14 12 15 11 16 10 17 9 18 8 19 7 20 6 21 5 22
REMARK SMILES IDX 4 23 3 24 2 25 1 26
REMARK H PARENT
REMARK Flexibility Score: inf
ROOT
ATOM      1  C   UNL     1       5.538   8.148  29.123  1.00  0.00     0.000 C 
ENDROOT
BRANCH   1   2
ATOM      2  C   UNL     1       5.943   8.955  27.880  1.00  0.00     0.000 C 
BRANCH   2   3
ATOM      3  C   UNL     1       6.769   8.132  26.880  1.00  0.00     0.000 C 
BRANCH   3   4
ATOM      4  C   UNL     1       6.508   6.618  26.993  1.00  0.00     0.000 C 
BRANCH   4   5
ATOM      5  C   UNL     1       7.815   5.799  27.056  1.00  0.00     0.000 C 
BRANCH   5   6
ATOM      6  C   UNL     1       8.178   5.304  28.471  1.00  0.00     0.000 C 
BRANCH   6   7
ATOM      7  C   UNL     1       8.885   3.939  28.531  1.00  0.00     0.000 C 
BRANCH   7   8
ATOM      8  C   UNL     1       9.836   3.704  27.343  1.00  0.00     0.000 C 
BRANCH   8   9
ATOM      9  C   UNL     1      11.221   3.196  27.781  1.00  0.00     0.000 C 
BRANCH   9  10
ATOM     10  C   UNL     1      11.630   3.570  29.220  1.00  0.00     0.006 C 
BRANCH  10  11
ATOM     11  C   UNL     1      12.427   2.483  29.959  1.00  0.00     0.053 C 
BRANCH  11  12
ATOM     12  C   UNL     1      11.722   2.006  31.192  1.00  0.00     0.041 C 
ATOM     13  O   UNL     1      12.372   1.777  32.247  1.00  0.00    -0.550 OA
ATOM     14  O   UNL     1      10.350   1.781  31.165  1.00  0.00    -0.550 OA
ENDBRANCH  11  12
ENDBRANCH  10  11
ENDBRANCH   9  10
ENDBRANCH   8   9
ENDBRANCH   7   8
ENDBRANCH   6   7
ENDBRANCH   5   6
ENDBRANCH   4   5
ENDBRANCH   3   4
ENDBRANCH   2   3
ENDBRANCH   1   2
BRANCH   1  15
ATOM     15  C   UNL     1       4.833   9.043  30.153  1.00  0.00     0.000 C 
BRANCH  15  16
ATOM     16  C   UNL     1       5.637  10.309  30.487  1.00  0.00     0.000 C 
BRANCH  16  17
ATOM     17  C   UNL     1       5.765  10.551  32.001  1.00  0.00     0.000 C 
BRANCH  17  18
ATOM     18  C   UNL     1       7.201  10.346  32.510  1.00  0.00    -0.000 C 
BRANCH  18  19
ATOM     19  C   UNL     1       8.252  10.517  31.399  1.00  0.00    -0.000 C 
BRANCH  19  20
ATOM     20  C   UNL     1       9.158   9.285  31.253  1.00  0.00    -0.000 C 
BRANCH  20  21
ATOM     21  C   UNL     1       9.069   8.650  29.855  1.00  0.00    -0.000 C 
BRANCH  21  22
ATOM     22  C   UNL     1      10.439   8.521  29.166  1.00  0.00    -0.000 C 
BRANCH  22  23
ATOM     23  C   UNL     1      10.387   8.376  27.634  1.00  0.00    -0.000 C 
BRANCH  23  24
ATOM     24  C   UNL     1      11.351   7.302  27.102  1.00  0.00    -0.000 C 
BRANCH  24  25
ATOM     25  C   UNL     1      12.382   6.865  28.155  1.00  0.00    -0.003 C 
ATOM     26  C   UNL     1      13.643   6.263  27.536  1.00  0.00     0.004 C 
ENDBRANCH  24  25
ENDBRANCH  23  24
ENDBRANCH  22  23
ENDBRANCH  21  22
ENDBRANCH  20  21
ENDBRANCH  19  20
ENDBRANCH  18  19
ENDBRANCH  17  18
ENDBRANCH  16  17
ENDBRANCH  15  16
ENDBRANCH   1  15
TORSDOF 22
ENDMDL
MODEL 2
REMARK VINA RESULT:    -4.983      2.403      3.440
REMARK INTER + INTRA:         -15.058
REMARK INTER:                 -10.970
REMARK INTRA:                  -4.088
REMARK UNBOUND:                -3.666
REMARK SMILES CCCCCCCCCCCCCCCCCCCCCCCC(=O)[O-]
REMARK SMILES IDX 13 1 14 2 15 3 16 4 17 5 18 6 19 7 20 8 21 9 22 10 23 11
REMARK SMILES IDX 24 12 25 13 26 14 12 15 11 16 10 17 9 18 8 19 7 20 6 21 5 22
REMARK SMILES IDX 4 23 3 24 2 25 1 26
REMARK H PARENT
REMARK Flexibility Score: inf
ROOT
ATOM      1  C   UNL     1       4.711   9.634  30.730  1.00  0.00     0.000 C 
ENDROOT
BRANCH   1   2
ATOM      2  C   UNL     1       4.593   8.819  29.432  1.00  0.00     0.000 C 
BRANCH   2   3
ATOM      3  C   UNL     1       5.630   9.228  28.376  1.00  0.00     0.000 C 
BRANCH   3   4
ATOM      4  C   UNL     1       6.223   8.023  27.623  1.00  0.00     0.000 C 
BRANCH   4   5
ATOM      5  C   UNL     1       6.642   6.882  28.575  1.00  0.00     0.000 C 
BRANCH   5   6
ATOM      6  C   UNL     1       7.095   5.596  27.853  1.00  0.00     0.000 C 
BRANCH   6   7
ATOM      7  C   UNL     1       8.338   4.911  28.447  1.00  0.00     0.000 C 
BRANCH   7   8
ATOM      8  C   UNL     1       8.966   3.879  27.493  1.00  0.00     0.000 C 
BRANCH   8   9
ATOM      9  C   UNL     1      10.477   3.698  27.724  1.00  0.00     0.000 C 
BRANCH   9  10
ATOM     10  C   UNL     1      11.372   4.770  27.071  1.00  0.00     0.006 C 
BRANCH  10  11
ATOM     11  C   UNL     1      12.533   5.256  27.954  1.00  0.00     0.053 C 
BRANCH  11  12
ATOM     12  C   UNL     1      13.551   6.028  27.172  1.00  0.00     0.041 C 
ATOM     13  O   UNL     1      14.778   5.773  27.301  1.00  0.00    -0.550 OA
ATOM     14  O   UNL     1      13.146   7.054  26.325  1.00  0.00    -0.550 OA
ENDBRANCH  11  12
ENDBRANCH  10  11
ENDBRANCH   9  10
ENDBRANCH   8   9
ENDBRANCH   7   8
ENDBRANCH   6   7
ENDBRANCH   5   6
ENDBRANCH   4   5
ENDBRANCH   3   4
ENDBRANCH   2   3
ENDBRANCH   1   2
BRANCH   1  15
ATOM     15  C   UNL     1       5.950  10.541  30.697  1.00  0.00     0.000 C 
BRANCH  15  16
ATOM     16  C   UNL     1       6.871  10.330  31.909  1.00  0.00     0.000 C 
BRANCH  16  17
ATOM     17  C   UNL     1       8.327  10.737  31.627  1.00  0.00     0.000 C 
BRANCH  17  18
ATOM     18  C   UNL     1       8.890  10.069  30.361  1.00  0.00    -0.000 C 
BRANCH  18  19
ATOM     19  C   UNL     1       9.145   8.563  30.551  1.00  0.00    -0.000 C 
BRANCH  19  20
ATOM     20  C   UNL     1      10.021   7.970  29.438  1.00  0.00    -0.000 C 
BRANCH  20  21
ATOM     21  C   UNL     1      10.656   9.053  28.548  1.00  0.00    -0.000 C 
BRANCH  21  22
ATOM     22  C   UNL     1      10.006   9.143  27.156  1.00  0.00    -0.000 C 
BRANCH  22  23
ATOM     23  C   UNL     1       9.618   7.791  26.529  1.00  0.00    -0.000 C 
BRANCH  23  24
ATOM     24  C   UNL     1       9.319   7.893  25.024  1.00  0.00    -0.000 C 
BRANCH  24  25
ATOM     25  C   UNL     1       8.077   7.085  24.616  1.00  0.00    -0.003 C 
ATOM     26  C   UNL     1       8.406   5.642  24.236  1.00  0.00     0.004 C 
ENDBRANCH  24  25
ENDBRANCH  23  24
ENDBRANCH  22  23
ENDBRANCH  21  22
ENDBRANCH  20  21
ENDBRANCH  19  20
ENDBRANCH  18  19
ENDBRANCH  17  18
ENDBRANCH  16  17
ENDBRANCH  15  16
ENDBRANCH   1  15
TORSDOF 22
ENDMDL
MODEL 3
REMARK VINA RESULT:    -4.915      2.253      3.269
REMARK INTER + INTRA:         -14.903
REMARK INTER:                 -11.097
REMARK INTRA:                  -3.807
REMARK UNBOUND:                -3.666
REMARK SMILES CCCCCCCCCCCCCCCCCCCCCCCC(=O)[O-]
REMARK SMILES IDX 13 1 14 2 15 3 16 4 17 5 18 6 19 7 20 8 21 9 22 10 23 11
REMARK SMILES IDX 24 12 25 13 26 14 12 15 11 16 10 17 9 18 8 19 7 20 6 21 5 22
REMARK SMILES IDX 4 23 3 24 2 25 1 26
REMARK H PARENT
REMARK Flexibility Score: inf
ROOT
ATOM      1  C   UNL     1       6.498   7.716  27.480  1.00  0.00     0.000 C 
ENDROOT
BRANCH   1   2
ATOM      2  C   UNL     1       6.771   6.862  28.728  1.00  0.00     0.000 C 
BRANCH   2   3
ATOM      3  C   UNL     1       8.077   6.060  28.626  1.00  0.00     0.000 C 
BRANCH   3   4
ATOM      4  C   UNL     1       7.889   4.701  27.926  1.00  0.00     0.000 C 
BRANCH   4   5
ATOM      5  C   UNL     1       9.108   4.311  27.062  1.00  0.00     0.000 C 
BRANCH   5   6
ATOM      6  C   UNL     1       9.885   3.087  27.587  1.00  0.00     0.000 C 
BRANCH   6   7
ATOM      7  C   UNL     1      10.467   3.233  29.004  1.00  0.00     0.000 C 
BRANCH   7   8
ATOM      8  C   UNL     1      11.949   2.828  29.087  1.00  0.00     0.000 C 
BRANCH   8   9
ATOM      9  C   UNL     1      12.852   3.973  29.577  1.00  0.00     0.000 C 
BRANCH   9  10
ATOM     10  C   UNL     1      12.426   5.384  29.121  1.00  0.00     0.006 C 
BRANCH  10  11
ATOM     11  C   UNL     1      13.580   6.272  28.630  1.00  0.00     0.053 C 
BRANCH  11  12
ATOM     12  C   UNL     1      13.903   6.031  27.187  1.00  0.00     0.041 C 
ATOM     13  O   UNL     1      15.099   5.881  26.820  1.00  0.00    -0.550 OA
ATOM     14  O   UNL     1      12.884   6.007  26.242  1.00  0.00    -0.550 OA
ENDBRANCH  11  12
ENDBRANCH  10  11
ENDBRANCH   9  10
ENDBRANCH   8   9
ENDBRANCH   7   8
ENDBRANCH   6   7
ENDBRANCH   5   6
ENDBRANCH   4   5
ENDBRANCH   3   4
ENDBRANCH   2   3
ENDBRANCH   1   2
BRANCH   1  15
ATOM     15  C   UNL     1       5.839   9.050  27.861  1.00  0.00     0.000 C 
BRANCH  15  16
ATOM     16  C   UNL     1       5.548   9.159  29.366  1.00  0.00     0.000 C 
BRANCH  16  17
ATOM     17  C   UNL     1       6.220  10.381  30.015  1.00  0.00     0.000 C 
BRANCH  17  18
ATOM     18  C   UNL     1       6.164  10.336  31.551  1.00  0.00    -0.000 C 
BRANCH  18  19
ATOM     19  C   UNL     1       7.506   9.921  32.180  1.00  0.00    -0.000 C 
BRANCH  19  20
ATOM     20  C   UNL     1       8.682  10.067  31.203  1.00  0.00    -0.000 C 
BRANCH  20  21
ATOM     21  C   UNL     1       9.419   8.738  30.964  1.00  0.00    -0.000 C 
BRANCH  21  22
ATOM     22  C   UNL     1      10.066   8.653  29.570  1.00  0.00    -0.000 C 
BRANCH  22  23
ATOM     23  C   UNL     1       9.915   9.915  28.703  1.00  0.00    -0.000 C 
BRANCH  23  24
ATOM     24  C   UNL     1       9.586   9.598  27.234  1.00  0.00    -0.000 C 
BRANCH  24  25
ATOM     25  C   UNL     1      10.358   8.375  26.712  1.00  0.00    -0.003 C 
ATOM     26  C   UNL     1       9.681   7.714  25.512  1.00  0.00     0.004 C 
ENDBRANCH  24  25
ENDBRANCH  23  24
ENDBRANCH  22  23
ENDBRANCH  21  22
ENDBRANCH  20  21
ENDBRANCH  19  20
ENDBRANCH  18  19
ENDBRANCH  17  18
ENDBRANCH  16  17
ENDBRANCH  15  16
ENDBRANCH   1  15
TORSDOF 22
ENDMDL
MODEL 4
REMARK VINA RESULT:    -4.889      3.347      7.339
REMARK INTER + INTRA:         -14.843
REMARK INTER:                 -11.436
REMARK INTRA:                  -3.407
REMARK UNBOUND:                -3.666
REMARK SMILES CCCCCCCCCCCCCCCCCCCCCCCC(=O)[O-]
REMARK SMILES IDX 13 1 14 2 15 3 16 4 17 5 18 6 19 7 20 8 21 9 22 10 23 11
REMARK SMILES IDX 24 12 25 13 26 14 12 15 11 16 10 17 9 18 8 19 7 20 6 21 5 22
REMARK SMILES IDX 4 23 3 24 2 25 1 26
REMARK H PARENT
REMARK Flexibility Score: inf
ROOT
ATOM      1  C   UNL     1      12.754   4.057  28.826  1.00  0.00     0.000 C 
ENDROOT
BRANCH   1   2
ATOM      2  C   UNL     1      13.045   5.538  29.117  1.00  0.00     0.000 C 
BRANCH   2   3
ATOM      3  C   UNL     1      11.947   6.474  28.590  1.00  0.00     0.000 C 
BRANCH   3   4
ATOM      4  C   UNL     1      12.116   6.813  27.098  1.00  0.00     0.000 C 
BRANCH   4   5
ATOM      5  C   UNL     1      10.963   7.685  26.558  1.00  0.00     0.000 C 
BRANCH   5   6
ATOM      6  C   UNL     1      10.343   8.628  27.609  1.00  0.00     0.000 C 
BRANCH   6   7
ATOM      7  C   UNL     1       9.481   9.770  27.043  1.00  0.00     0.000 C 
BRANCH   7   8
ATOM      8  C   UNL     1       9.459  11.012  27.952  1.00  0.00     0.000 C 
BRANCH   8   9
ATOM      9  C   UNL     1       9.085  10.678  29.406  1.00  0.00     0.000 C 
BRANCH   9  10
ATOM     10  C   UNL     1       7.588  10.827  29.748  1.00  0.00     0.006 C 
BRANCH  10  11
ATOM     11  C   UNL     1       6.826   9.498  29.868  1.00  0.00     0.053 C 
BRANCH  11  12
ATOM     12  C   UNL     1       5.450   9.686  30.432  1.00  0.00     0.041 C 
ATOM     13  O   UNL     1       5.298  10.134  31.600  1.00  0.00    -0.550 OA
ATOM     14  O   UNL     1       4.336   9.333  29.679  1.00  0.00    -0.550 OA
ENDBRANCH  11  12
ENDBRANCH  10  11
ENDBRANCH   9  10
ENDBRANCH   8   9
ENDBRANCH   7   8
ENDBRANCH   6   7
ENDBRANCH   5   6
ENDBRANCH   4   5
ENDBRANCH   3   4
ENDBRANCH   2   3
ENDBRANCH   1   2
BRANCH   1  15
ATOM     15  C   UNL     1      11.255   3.753  28.971  1.00  0.00     0.000 C 
BRANCH  15  16
ATOM     16  C   UNL     1      10.644   3.164  27.691  1.00  0.00     0.000 C 
BRANCH  16  17
ATOM     17  C   UNL     1       9.526   4.045  27.106  1.00  0.00     0.000 C 
BRANCH  17  18
ATOM     18  C   UNL     1       8.336   4.199  28.066  1.00  0.00    -0.000 C 
BRANCH  18  19
ATOM     19  C   UNL     1       8.198   5.632  28.611  1.00  0.00    -0.000 C 
BRANCH  19  20
ATOM     20  C   UNL     1       7.348   6.528  27.698  1.00  0.00    -0.000 C 
BRANCH  20  21
ATOM     21  C   UNL     1       6.477   5.718  26.721  1.00  0.00    -0.000 C 
BRANCH  21  22
ATOM     22  C   UNL     1       6.762   6.051  25.246  1.00  0.00    -0.000 C 
BRANCH  22  23
ATOM     23  C   UNL     1       7.726   7.230  25.018  1.00  0.00    -0.000 C 
BRANCH  23  24
ATOM     24  C   UNL     1       8.591   7.061  23.758  1.00  0.00    -0.000 C 
BRANCH  24  25
ATOM     25  C   UNL     1       7.785   6.536  22.559  1.00  0.00    -0.003 C 
ATOM     26  C   UNL     1       8.326   5.216  22.011  1.00  0.00     0.004 C 
ENDBRANCH  24  25
ENDBRANCH  23  24
ENDBRANCH  22  23
ENDBRANCH  21  22
ENDBRANCH  20  21
ENDBRANCH  19  20
ENDBRANCH  18  19
ENDBRANCH  17  18
ENDBRANCH  16  17
ENDBRANCH  15  16
ENDBRANCH   1  15
TORSDOF 22
ENDMDL
MODEL 5
REMARK VINA RESULT:    -4.873      1.182      3.630
REMARK INTER + INTRA:         -14.806
REMARK INTER:                 -11.125
REMARK INTRA:                  -3.681
REMARK UNBOUND:                -3.666
REMARK SMILES CCCCCCCCCCCCCCCCCCCCCCCC(=O)[O-]
REMARK SMILES IDX 13 1 14 2 15 3 16 4 17 5 18 6 19 7 20 8 21 9 22 10 23 11
REMARK SMILES IDX 24 12 25 13 26 14 12 15 11 16 10 17 9 18 8 19 7 20 6 21 5 22
REMARK SMILES IDX 4 23 3 24 2 25 1 26
REMARK H PARENT
REMARK Flexibility Score: inf
ROOT
ATOM      1  C   UNL     1       8.590   9.950  30.938  1.00  0.00     0.000 C 
ENDROOT
BRANCH   1   2
ATOM      2  C   UNL     1       9.047  10.422  29.548  1.00  0.00     0.000 C 
BRANCH   2   3
ATOM      3  C   UNL     1       9.853   9.355  28.793  1.00  0.00     0.000 C 
BRANCH   3   4
ATOM      4  C   UNL     1       9.804   7.976  29.475  1.00  0.00     0.000 C 
BRANCH   4   5
ATOM      5  C   UNL     1      10.745   6.953  28.804  1.00  0.00     0.000 C 
BRANCH   5   6
ATOM      6  C   UNL     1      11.260   7.388  27.417  1.00  0.00     0.000 C 
BRANCH   6   7
ATOM      7  C   UNL     1      12.387   6.520  26.830  1.00  0.00     0.000 C 
BRANCH   7   8
ATOM      8  C   UNL     1      13.014   5.571  27.867  1.00  0.00     0.000 C 
BRANCH   8   9
ATOM      9  C   UNL     1      12.808   4.087  27.518  1.00  0.00     0.000 C 
BRANCH   9  10
ATOM     10  C   UNL     1      11.367   3.567  27.695  1.00  0.00     0.006 C 
BRANCH  10  11
ATOM     11  C   UNL     1      11.012   3.148  29.131  1.00  0.00     0.053 C 
BRANCH  11  12
ATOM     12  C   UNL     1      12.233   2.878  29.957  1.00  0.00     0.041 C 
ATOM     13  O   UNL     1      12.901   1.825  29.777  1.00  0.00    -0.550 OA
ATOM     14  O   UNL     1      12.612   3.773  30.951  1.00  0.00    -0.550 OA
ENDBRANCH  11  12
ENDBRANCH  10  11
ENDBRANCH   9  10
ENDBRANCH   8   9
ENDBRANCH   7   8
ENDBRANCH   6   7
ENDBRANCH   5   6
ENDBRANCH   4   5
ENDBRANCH   3   4
ENDBRANCH   2   3
ENDBRANCH   1   2
BRANCH   1  15
ATOM     15  C   UNL     1       8.020  11.120  31.755  1.00  0.00     0.000 C 
BRANCH  15  16
ATOM     16  C   UNL     1       6.684  10.775  32.430  1.00  0.00     0.000 C 
BRANCH  16  17
ATOM     17  C   UNL     1       5.484  10.914  31.478  1.00  0.00     0.000 C 
BRANCH  17  18
ATOM     18  C   UNL     1       4.645   9.628  31.397  1.00  0.00    -0.000 C 
BRANCH  18  19
ATOM     19  C   UNL     1       4.281   9.250  29.950  1.00  0.00    -0.000 C 
BRANCH  19  20
ATOM     20  C   UNL     1       5.484   8.706  29.165  1.00  0.00    -0.000 C 
BRANCH  20  21
ATOM     21  C   UNL     1       5.783   9.528  27.899  1.00  0.00    -0.000 C 
BRANCH  21  22
ATOM     22  C   UNL     1       6.750   8.817  26.936  1.00  0.00    -0.000 C 
BRANCH  22  23
ATOM     23  C   UNL     1       6.892   7.300  27.158  1.00  0.00    -0.000 C 
BRANCH  23  24
ATOM     24  C   UNL     1       7.860   6.637  26.163  1.00  0.00    -0.000 C 
BRANCH  24  25
ATOM     25  C   UNL     1       8.284   5.228  26.607  1.00  0.00    -0.003 C 
ATOM     26  C   UNL     1       7.790   4.874  28.010  1.00  0.00     0.004 C 
ENDBRANCH  24  25
ENDBRANCH  23  24
ENDBRANCH  22  23
ENDBRANCH  21  22
ENDBRANCH  20  21
ENDBRANCH  19  20
ENDBRANCH  18  19
ENDBRANCH  17  18
ENDBRANCH  16  17
ENDBRANCH  15  16
ENDBRANCH   1  15
TORSDOF 22
ENDMDL
MODEL 6
REMARK VINA RESULT:    -4.869      3.912      5.762
REMARK INTER + INTRA:         -14.798
REMARK INTER:                 -11.523
REMARK INTRA:                  -3.275
REMARK UNBOUND:                -3.666
REMARK SMILES CCCCCCCCCCCCCCCCCCCCCCCC(=O)[O-]
REMARK SMILES IDX 13 1 14 2 15 3 16 4 17 5 18 6 19 7 20 8 21 9 22 10 23 11
REMARK SMILES IDX 24 12 25 13 26 14 12 15 11 16 10 17 9 18 8 19 7 20 6 21 5 22
REMARK SMILES IDX 4 23 3 24 2 25 1 26
REMARK H PARENT
REMARK Flexibility Score: inf
ROOT
ATOM      1  C   UNL     1       4.888   9.563  30.929  1.00  0.00     0.000 C 
ENDROOT
BRANCH   1   2
ATOM      2  C   UNL     1       5.570   9.012  29.667  1.00  0.00     0.000 C 
BRANCH   2   3
ATOM      3  C   UNL     1       5.356   9.906  28.437  1.00  0.00     0.000 C 
BRANCH   3   4
ATOM      4  C   UNL     1       6.658  10.560  27.940  1.00  0.00     0.000 C 
BRANCH   4   5
ATOM      5  C   UNL     1       7.527   9.589  27.112  1.00  0.00     0.000 C 
BRANCH   5   6
ATOM      6  C   UNL     1       6.730   8.456  26.434  1.00  0.00     0.000 C 
BRANCH   6   7
ATOM      7  C   UNL     1       7.293   7.039  26.642  1.00  0.00     0.000 C 
BRANCH   7   8
ATOM      8  C   UNL     1       7.248   6.183  25.364  1.00  0.00     0.000 C 
BRANCH   8   9
ATOM      9  C   UNL     1       8.366   6.540  24.369  1.00  0.00     0.000 C 
BRANCH   9  10
ATOM     10  C   UNL     1       8.323   5.771  23.033  1.00  0.00     0.006 C 
BRANCH  10  11
ATOM     11  C   UNL     1       7.388   6.381  21.976  1.00  0.00     0.053 C 
BRANCH  11  12
ATOM     12  C   UNL     1       7.297   5.530  20.746  1.00  0.00     0.041 C 
ATOM     13  O   UNL     1       6.738   5.974  19.707  1.00  0.00    -0.550 OA
ATOM     14  O   UNL     1       7.799   4.234  20.758  1.00  0.00    -0.550 OA
ENDBRANCH  11  12
ENDBRANCH  10  11
ENDBRANCH   9  10
ENDBRANCH   8   9
ENDBRANCH   7   8
ENDBRANCH   6   7
ENDBRANCH   5   6
ENDBRANCH   4   5
ENDBRANCH   3   4
ENDBRANCH   2   3
ENDBRANCH   1   2
BRANCH   1  15
ATOM     15  C   UNL     1       5.651  10.778  31.479  1.00  0.00     0.000 C 
BRANCH  15  16
ATOM     16  C   UNL     1       6.844  10.378  32.361  1.00  0.00     0.000 C 
BRANCH  16  17
ATOM     17  C   UNL     1       8.200  10.670  31.695  1.00  0.00     0.000 C 
BRANCH  17  18
ATOM     18  C   UNL     1       9.037   9.397  31.484  1.00  0.00    -0.000 C 
BRANCH  18  19
ATOM     19  C   UNL     1       9.486   9.222  30.022  1.00  0.00    -0.000 C 
BRANCH  19  20
ATOM     20  C   UNL     1       9.535   7.747  29.596  1.00  0.00    -0.000 C 
BRANCH  20  21
ATOM     21  C   UNL     1      10.535   7.496  28.453  1.00  0.00    -0.000 C 
BRANCH  21  22
ATOM     22  C   UNL     1      11.630   6.482  28.827  1.00  0.00    -0.000 C 
BRANCH  22  23
ATOM     23  C   UNL     1      11.680   5.221  27.946  1.00  0.00    -0.000 C 
BRANCH  23  24
ATOM     24  C   UNL     1      10.478   5.107  26.994  1.00  0.00    -0.000 C 
BRANCH  24  25
ATOM     25  C   UNL     1       9.626   3.858  27.271  1.00  0.00    -0.003 C 
ATOM     26  C   UNL     1       8.568   4.087  28.350  1.00  0.00     0.004 C 
ENDBRANCH  24  25
ENDBRANCH  23  24
ENDBRANCH  22  23
ENDBRANCH  21  22
ENDBRANCH  20  21
ENDBRANCH  19  20
ENDBRANCH  18  19
ENDBRANCH  17  18
ENDBRANCH  16  17
ENDBRANCH  15  16
ENDBRANCH   1  15
TORSDOF 22
ENDMDL
MODEL 7
REMARK VINA RESULT:    -4.808      1.505      2.850
REMARK INTER + INTRA:         -14.657
REMARK INTER:                 -10.891
REMARK INTRA:                  -3.766
REMARK UNBOUND:                -3.666
REMARK SMILES CCCCCCCCCCCCCCCCCCCCCCCC(=O)[O-]
REMARK SMILES IDX 13 1 14 2 15 3 16 4 17 5 18 6 19 7 20 8 21 9 22 10 23 11
REMARK SMILES IDX 24 12 25 13 26 14 12 15 11 16 10 17 9 18 8 19 7 20 6 21 5 22
REMARK SMILES IDX 4 23 3 24 2 25 1 26
REMARK H PARENT
REMARK Flexibility Score: inf
ROOT
ATOM      1  C   UNL     1       5.447   8.220  28.922  1.00  0.00     0.000 C 
ENDROOT
BRANCH   1   2
ATOM      2  C   UNL     1       6.331   7.457  27.924  1.00  0.00     0.000 C 
BRANCH   2   3
ATOM      3  C   UNL     1       7.225   6.408  28.602  1.00  0.00     0.000 C 
BRANCH   3   4
ATOM      4  C   UNL     1       7.485   5.179  27.712  1.00  0.00     0.000 C 
BRANCH   4   5
ATOM      5  C   UNL     1       8.593   4.266  28.277  1.00  0.00     0.000 C 
BRANCH   5   6
ATOM      6  C   UNL     1       9.605   3.777  27.221  1.00  0.00     0.000 C 
BRANCH   6   7
ATOM      7  C   UNL     1      10.871   3.105  27.781  1.00  0.00     0.000 C 
BRANCH   7   8
ATOM      8  C   UNL     1      11.792   4.089  28.524  1.00  0.00     0.000 C 
BRANCH   8   9
ATOM      9  C   UNL     1      12.768   3.382  29.482  1.00  0.00     0.000 C 
BRANCH   9  10
ATOM     10  C   UNL     1      12.134   2.305  30.385  1.00  0.00     0.006 C 
BRANCH  10  11
ATOM     11  C   UNL     1      12.051   2.686  31.871  1.00  0.00     0.053 C 
BRANCH  11  12
ATOM     12  C   UNL     1      11.179   1.747  32.647  1.00  0.00     0.041 C 
ATOM     13  O   UNL     1      10.141   1.263  32.120  1.00  0.00    -0.550 OA
ATOM     14  O   UNL     1      11.492   1.433  33.964  1.00  0.00    -0.550 OA
ENDBRANCH  11  12
ENDBRANCH  10  11
ENDBRANCH   9  10
ENDBRANCH   8   9
ENDBRANCH   7   8
ENDBRANCH   6   7
ENDBRANCH   5   6
ENDBRANCH   4   5
ENDBRANCH   3   4
ENDBRANCH   2   3
ENDBRANCH   1   2
BRANCH   1  15
ATOM     15  C   UNL     1       5.757   9.725  28.891  1.00  0.00     0.000 C 
BRANCH  15  16
ATOM     16  C   UNL     1       6.852  10.083  27.874  1.00  0.00     0.000 C 
BRANCH  16  17
ATOM     17  C   UNL     1       8.154  10.556  28.543  1.00  0.00     0.000 C 
BRANCH  17  18
ATOM     18  C   UNL     1       8.332   9.977  29.956  1.00  0.00    -0.000 C 
BRANCH  18  19
ATOM     19  C   UNL     1       9.495   8.971  30.040  1.00  0.00    -0.000 C 
BRANCH  19  20
ATOM     20  C   UNL     1      10.356   8.962  28.768  1.00  0.00    -0.000 C 
BRANCH  20  21
ATOM     21  C   UNL     1      10.807   7.546  28.372  1.00  0.00    -0.000 C 
BRANCH  21  22
ATOM     22  C   UNL     1      10.816   7.323  26.850  1.00  0.00    -0.000 C 
BRANCH  22  23
ATOM     23  C   UNL     1      10.059   8.384  26.031  1.00  0.00    -0.000 C 
BRANCH  23  24
ATOM     24  C   UNL     1       8.711   7.877  25.493  1.00  0.00    -0.000 C 
BRANCH  24  25
ATOM     25  C   UNL     1       8.861   7.098  24.176  1.00  0.00    -0.003 C 
ATOM     26  C   UNL     1       7.963   5.863  24.111  1.00  0.00     0.004 C 
ENDBRANCH  24  25
ENDBRANCH  23  24
ENDBRANCH  22  23
ENDBRANCH  21  22
ENDBRANCH  20  21
ENDBRANCH  19  20
ENDBRANCH  18  19
ENDBRANCH  17  18
ENDBRANCH  16  17
ENDBRANCH  15  16
ENDBRANCH   1  15
TORSDOF 22
ENDMDL
MODEL 8
REMARK VINA RESULT:    -4.704      2.460      4.399
REMARK INTER + INTRA:         -14.421
REMARK INTER:                 -11.143
REMARK INTRA:                  -3.278
REMARK UNBOUND:                -3.666
REMARK SMILES CCCCCCCCCCCCCCCCCCCCCCCC(=O)[O-]
REMARK SMILES IDX 13 1 14 2 15 3 16 4 17 5 18 6 19 7 20 8 21 9 22 10 23 11
REMARK SMILES IDX 24 12 25 13 26 14 12 15 11 16 10 17 9 18 8 19 7 20 6 21 5 22
REMARK SMILES IDX 4 23 3 24 2 25 1 26
REMARK H PARENT
REMARK Flexibility Score: inf
ROOT
ATOM      1  C   UNL     1       7.808  10.495  30.709  1.00  0.00     0.000 C 
ENDROOT
BRANCH   1   2
ATOM      2  C   UNL     1       8.057  11.087  29.313  1.00  0.00     0.000 C 
BRANCH   2   3
ATOM      3  C   UNL     1       9.287  10.479  28.621  1.00  0.00     0.000 C 
BRANCH   3   4
ATOM      4  C   UNL     1       9.894   9.303  29.407  1.00  0.00     0.000 C 
BRANCH   4   5
ATOM      5  C   UNL     1       9.966   8.009  28.569  1.00  0.00     0.000 C 
BRANCH   5   6
ATOM      6  C   UNL     1      10.220   8.247  27.066  1.00  0.00     0.000 C 
BRANCH   6   7
ATOM      7  C   UNL     1      11.416   7.484  26.471  1.00  0.00     0.000 C 
BRANCH   7   8
ATOM      8  C   UNL     1      11.797   6.236  27.287  1.00  0.00     0.000 C 
BRANCH   8   9
ATOM      9  C   UNL     1      13.228   6.306  27.848  1.00  0.00     0.000 C 
BRANCH   9  10
ATOM     10  C   UNL     1      14.327   5.769  26.909  1.00  0.00     0.006 C 
BRANCH  10  11
ATOM     11  C   UNL     1      14.155   4.296  26.502  1.00  0.00     0.053 C 
BRANCH  11  12
ATOM     12  C   UNL     1      15.038   3.385  27.299  1.00  0.00     0.041 C 
ATOM     13  O   UNL     1      14.573   2.325  27.798  1.00  0.00    -0.550 OA
ATOM     14  O   UNL     1      16.368   3.724  27.520  1.00  0.00    -0.550 OA
ENDBRANCH  11  12
ENDBRANCH  10  11
ENDBRANCH   9  10
ENDBRANCH   8   9
ENDBRANCH   7   8
ENDBRANCH   6   7
ENDBRANCH   5   6
ENDBRANCH   4   5
ENDBRANCH   3   4
ENDBRANCH   2   3
ENDBRANCH   1   2
BRANCH   1  15
ATOM     15  C   UNL     1       6.531  11.079  31.333  1.00  0.00     0.000 C 
BRANCH  15  16
ATOM     16  C   UNL     1       5.518   9.995  31.733  1.00  0.00     0.000 C 
BRANCH  16  17
ATOM     17  C   UNL     1       4.189  10.112  30.968  1.00  0.00     0.000 C 
BRANCH  17  18
ATOM     18  C   UNL     1       3.889   8.867  30.116  1.00  0.00    -0.000 C 
BRANCH  18  19
ATOM     19  C   UNL     1       5.143   8.318  29.412  1.00  0.00    -0.000 C 
BRANCH  19  20
ATOM     20  C   UNL     1       5.435   9.036  28.086  1.00  0.00    -0.000 C 
BRANCH  20  21
ATOM     21  C   UNL     1       6.504   8.315  27.247  1.00  0.00    -0.000 C 
BRANCH  21  22
ATOM     22  C   UNL     1       6.651   6.828  27.614  1.00  0.00    -0.000 C 
BRANCH  22  23
ATOM     23  C   UNL     1       6.710   5.863  26.416  1.00  0.00    -0.000 C 
BRANCH  23  24
ATOM     24  C   UNL     1       8.149   5.521  25.992  1.00  0.00    -0.000 C 
BRANCH  24  25
ATOM     25  C   UNL     1       8.393   5.763  24.494  1.00  0.00    -0.003 C 
ATOM     26  C   UNL     1       7.673   7.005  23.969  1.00  0.00     0.004 C 
ENDBRANCH  24  25
ENDBRANCH  23  24
ENDBRANCH  22  23
ENDBRANCH  21  22
ENDBRANCH  20  21
ENDBRANCH  19  20
ENDBRANCH  18  19
ENDBRANCH  17  18
ENDBRANCH  16  17
ENDBRANCH  15  16
ENDBRANCH   1  15
TORSDOF 22
ENDMDL
MODEL 9
REMARK VINA RESULT:    -4.565      4.791      7.155
REMARK INTER + INTRA:         -14.102
REMARK INTER:                 -10.811
REMARK INTRA:                  -3.291
REMARK UNBOUND:                -3.666
REMARK SMILES CCCCCCCCCCCCCCCCCCCCCCCC(=O)[O-]
REMARK SMILES IDX 13 1 14 2 15 3 16 4 17 5 18 6 19 7 20 8 21 9 22 10 23 11
REMARK SMILES IDX 24 12 25 13 26 14 12 15 11 16 10 17 9 18 8 19 7 20 6 21 5 22
REMARK SMILES IDX 4 23 3 24 2 25 1 26
REMARK H PARENT
REMARK Flexibility Score: inf
ROOT
ATOM      1  C   UNL     1       9.019   9.256  30.003  1.00  0.00     0.000 C 
ENDROOT
BRANCH   1   2
ATOM      2  C   UNL     1      10.128   9.214  28.939  1.00  0.00     0.000 C 
BRANCH   2   3
ATOM      3  C   UNL     1      10.526   7.783  28.551  1.00  0.00     0.000 C 
BRANCH   3   4
ATOM      4  C   UNL     1      10.711   7.605  27.033  1.00  0.00     0.000 C 
BRANCH   4   5
ATOM      5  C   UNL     1       9.843   8.587  26.215  1.00  0.00     0.000 C 
BRANCH   5   6
ATOM      6  C   UNL     1       9.575   8.132  24.766  1.00  0.00     0.000 C 
BRANCH   6   7
ATOM      7  C   UNL     1       8.915   6.749  24.621  1.00  0.00     0.000 C 
BRANCH   7   8
ATOM      8  C   UNL     1       7.963   6.663  23.416  1.00  0.00     0.000 C 
BRANCH   8   9
ATOM      9  C   UNL     1       8.278   5.474  22.491  1.00  0.00     0.000 C 
BRANCH   9  10
ATOM     10  C   UNL     1       7.399   5.376  21.228  1.00  0.00     0.006 C 
BRANCH  10  11
ATOM     11  C   UNL     1       6.821   6.717  20.747  1.00  0.00     0.053 C 
BRANCH  11  12
ATOM     12  C   UNL     1       6.743   6.794  19.253  1.00  0.00     0.041 C 
ATOM     13  O   UNL     1       6.879   7.901  18.666  1.00  0.00    -0.550 OA
ATOM     14  O   UNL     1       6.485   5.648  18.510  1.00  0.00    -0.550 OA
ENDBRANCH  11  12
ENDBRANCH  10  11
ENDBRANCH   9  10
ENDBRANCH   8   9
ENDBRANCH   7   8
ENDBRANCH   6   7
ENDBRANCH   5   6
ENDBRANCH   4   5
ENDBRANCH   3   4
ENDBRANCH   2   3
ENDBRANCH   1   2
BRANCH   1  15
ATOM     15  C   UNL     1       7.717   9.824  29.417  1.00  0.00     0.000 C 
BRANCH  15  16
ATOM     16  C   UNL     1       6.669   8.736  29.139  1.00  0.00     0.000 C 
BRANCH  16  17
ATOM     17  C   UNL     1       6.465   8.477  27.636  1.00  0.00     0.000 C 
BRANCH  17  18
ATOM     18  C   UNL     1       6.409   6.978  27.300  1.00  0.00    -0.000 C 
BRANCH  18  19
ATOM     19  C   UNL     1       7.364   6.141  28.169  1.00  0.00    -0.000 C 
BRANCH  19  20
ATOM     20  C   UNL     1       7.767   4.821  27.496  1.00  0.00    -0.000 C 
BRANCH  20  21
ATOM     21  C   UNL     1       8.589   3.911  28.425  1.00  0.00    -0.000 C 
BRANCH  21  22
ATOM     22  C   UNL     1       9.688   3.131  27.682  1.00  0.00    -0.000 C 
BRANCH  22  23
ATOM     23  C   UNL     1      11.056   3.833  27.616  1.00  0.00    -0.000 C 
BRANCH  23  24
ATOM     24  C   UNL     1      11.609   4.198  29.004  1.00  0.00    -0.000 C 
BRANCH  24  25
ATOM     25  C   UNL     1      12.385   3.039  29.650  1.00  0.00    -0.003 C 
ATOM     26  C   UNL     1      11.591   2.332  30.748  1.00  0.00     0.004 C 
ENDBRANCH  24  25
ENDBRANCH  23  24
ENDBRANCH  22  23
ENDBRANCH  21  22
ENDBRANCH  20  21
ENDBRANCH  19  20
ENDBRANCH  18  19
ENDBRANCH  17  18
ENDBRANCH  16  17
ENDBRANCH  15  16
ENDBRANCH   1  15
TORSDOF 22
ENDMDL
