MODEL 1
REMARK VINA RESULT:    -8.106      0.000      0.000
REMARK INTER + INTRA:          -9.834
REMARK INTER:                  -9.527
REMARK INTRA:                  -0.307
REMARK UNBOUND:                -0.307
REMARK SMILES O=c1cc(-c2ccc(O)c(O)c2)oc2cc(O)cc(O)c12
REMARK SMILES IDX 4 1 3 2 2 3 1 4 21 5 19 6 18 7 16 8 15 9 14 10 13 11 5 12
REMARK SMILES IDX 6 13 7 14 8 15 12 16 10 17 9 18 11 20 20 22 17 24
REMARK H PARENT 9 19 11 21 20 23 17 25
REMARK Flexibility Score: inf
ROOT
ATOM      1  C   UNL     1      37.646 -12.936   8.894  1.00  0.00     0.138 A 
ATOM      2  C   UNL     1      37.829 -11.597   9.279  1.00  0.00     0.100 A 
ATOM      3  C   UNL     1      38.905 -11.259  10.101  1.00  0.00     0.197 A 
ATOM      4  O   UNL     1      39.061 -10.056  10.440  1.00  0.00    -0.289 OA
ATOM      5  C   UNL     1      39.796 -12.265  10.528  1.00  0.00     0.107 A 
ATOM      6  C   UNL     1      40.910 -12.008  11.362  1.00  0.00     0.134 A 
ATOM      7  C   UNL     1      41.753 -13.064  11.739  1.00  0.00     0.093 A 
ATOM      8  C   UNL     1      41.504 -14.367  11.300  1.00  0.00     0.123 A 
ATOM      9  C   UNL     1      40.404 -14.626  10.477  1.00  0.00     0.094 A 
ATOM     10  C   UNL     1      39.551 -13.587  10.090  1.00  0.00     0.146 A 
ATOM     11  O   UNL     1      38.512 -13.859   9.307  1.00  0.00    -0.456 OA
ENDROOT
BRANCH   1  12
ATOM     12  C   UNL     1      36.520 -13.353   8.021  1.00  0.00     0.021 A 
ATOM     13  C   UNL     1      35.282 -12.684   8.040  1.00  0.00     0.016 A 
ATOM     14  C   UNL     1      34.236 -13.105   7.215  1.00  0.00     0.051 A 
ATOM     15  C   UNL     1      34.402 -14.201   6.363  1.00  0.00     0.157 A 
ATOM     16  C   UNL     1      36.677 -14.463   7.172  1.00  0.00     0.062 A 
ATOM     17  C   UNL     1      35.628 -14.886   6.343  1.00  0.00     0.158 A 
BRANCH  15  18
ATOM     18  O   UNL     1      33.341 -14.596   5.551  1.00  0.00    -0.504 OA
ATOM     19  H   UNL     1      33.142 -14.143   4.667  1.00  0.00     0.293 HD
ENDBRANCH  15  18
BRANCH  17  20
ATOM     20  O   UNL     1      35.800 -15.982   5.499  1.00  0.00    -0.504 OA
ATOM     21  H   UNL     1      36.511 -16.683   5.677  1.00  0.00     0.293 HD
ENDBRANCH  17  20
ENDBRANCH   1  12
BRANCH   6  22
ATOM     22  O   UNL     1      41.185 -10.718  11.816  1.00  0.00    -0.507 OA
ATOM     23  H   UNL     1      41.094  -9.909  11.210  1.00  0.00     0.293 HD
ENDBRANCH   6  22
BRANCH   8  24
ATOM     24  O   UNL     1      42.357 -15.397  11.690  1.00  0.00    -0.508 OA
ATOM     25  H   UNL     1      43.055 -15.773  11.058  1.00  0.00     0.293 HD
ENDBRANCH   8  24
TORSDOF 5
ENDMDL
MODEL 2
REMARK VINA RESULT:    -7.938      5.426     11.575
REMARK INTER + INTRA:          -9.637
REMARK INTER:                  -9.326
REMARK INTRA:                  -0.311
REMARK UNBOUND:                -0.307
REMARK SMILES O=c1cc(-c2ccc(O)c(O)c2)oc2cc(O)cc(O)c12
REMARK SMILES IDX 4 1 3 2 2 3 1 4 21 5 19 6 18 7 16 8 15 9 14 10 13 11 5 12
REMARK SMILES IDX 6 13 7 14 8 15 12 16 10 17 9 18 11 20 20 22 17 24
REMARK H PARENT 9 19 11 21 20 23 17 25
REMARK Flexibility Score: inf
ROOT
ATOM      1  C   UNL     1      32.155 -15.005   3.161  1.00  0.00     0.138 A 
ATOM      2  C   UNL     1      32.531 -15.241   1.827  1.00  0.00     0.100 A 
ATOM      3  C   UNL     1      31.545 -15.405   0.854  1.00  0.00     0.197 A 
ATOM      4  O   UNL     1      31.892 -15.614  -0.339  1.00  0.00    -0.289 OA
ATOM      5  C   UNL     1      30.186 -15.327   1.221  1.00  0.00     0.107 A 
ATOM      6  C   UNL     1      29.125 -15.483   0.297  1.00  0.00     0.134 A 
ATOM      7  C   UNL     1      27.798 -15.386   0.742  1.00  0.00     0.093 A 
ATOM      8  C   UNL     1      27.513 -15.137   2.087  1.00  0.00     0.123 A 
ATOM      9  C   UNL     1      28.558 -14.984   3.003  1.00  0.00     0.094 A 
ATOM     10  C   UNL     1      29.887 -15.078   2.581  1.00  0.00     0.146 A 
ATOM     11  O   UNL     1      30.862 -14.928   3.472  1.00  0.00    -0.456 OA
ENDROOT
BRANCH   1  12
ATOM     12  C   UNL     1      33.160 -14.823   4.238  1.00  0.00     0.021 A 
ATOM     13  C   UNL     1      34.459 -15.354   4.134  1.00  0.00     0.016 A 
ATOM     14  C   UNL     1      35.383 -15.175   5.168  1.00  0.00     0.051 A 
ATOM     15  C   UNL     1      35.026 -14.472   6.323  1.00  0.00     0.157 A 
ATOM     16  C   UNL     1      32.803 -14.128   5.407  1.00  0.00     0.062 A 
ATOM     17  C   UNL     1      33.729 -13.948   6.445  1.00  0.00     0.158 A 
BRANCH  15  18
ATOM     18  O   UNL     1      35.969 -14.309   7.337  1.00  0.00    -0.504 OA
ATOM     19  H   UNL     1      36.039 -13.454   7.875  1.00  0.00     0.293 HD
ENDBRANCH  15  18
BRANCH  17  20
ATOM     20  O   UNL     1      33.365 -13.249   7.595  1.00  0.00    -0.504 OA
ATOM     21  H   UNL     1      33.797 -12.365   7.838  1.00  0.00     0.293 HD
ENDBRANCH  17  20
ENDBRANCH   1  12
BRANCH   6  22
ATOM     22  O   UNL     1      29.378 -15.731  -1.052  1.00  0.00    -0.507 OA
ATOM     23  H   UNL     1      29.691 -14.998  -1.679  1.00  0.00     0.293 HD
ENDBRANCH   6  22
BRANCH   8  24
ATOM     24  O   UNL     1      26.186 -15.046   2.501  1.00  0.00    -0.508 OA
ATOM     25  H   UNL     1      25.463 -14.688   1.887  1.00  0.00     0.293 HD
ENDBRANCH   8  24
TORSDOF 5
ENDMDL
MODEL 3
REMARK VINA RESULT:    -7.434      5.869      8.920
REMARK INTER + INTRA:          -9.044
REMARK INTER:                  -8.754
REMARK INTRA:                  -0.291
REMARK UNBOUND:                -0.307
REMARK SMILES O=c1cc(-c2ccc(O)c(O)c2)oc2cc(O)cc(O)c12
REMARK SMILES IDX 4 1 3 2 2 3 1 4 21 5 19 6 18 7 16 8 15 9 14 10 13 11 5 12
REMARK SMILES IDX 6 13 7 14 8 15 12 16 10 17 9 18 11 20 20 22 17 24
REMARK H PARENT 9 19 11 21 20 23 17 25
REMARK Flexibility Score: inf
ROOT
ATOM      1  C   UNL     1      31.801 -14.584   3.000  1.00  0.00     0.138 A 
ATOM      2  C   UNL     1      31.814 -14.785   4.391  1.00  0.00     0.100 A 
ATOM      3  C   UNL     1      32.956 -14.454   5.123  1.00  0.00     0.197 A 
ATOM      4  O   UNL     1      32.956 -14.636   6.370  1.00  0.00    -0.289 OA
ATOM      5  C   UNL     1      34.077 -13.920   4.457  1.00  0.00     0.107 A 
ATOM      6  C   UNL     1      35.273 -13.559   5.123  1.00  0.00     0.134 A 
ATOM      7  C   UNL     1      36.343 -13.028   4.388  1.00  0.00     0.093 A 
ATOM      8  C   UNL     1      36.241 -12.851   3.006  1.00  0.00     0.123 A 
ATOM      9  C   UNL     1      35.063 -13.206   2.344  1.00  0.00     0.094 A 
ATOM     10  C   UNL     1      33.985 -13.738   3.057  1.00  0.00     0.146 A 
ATOM     11  O   UNL     1      32.875 -14.068   2.404  1.00  0.00    -0.456 OA
ENDROOT
BRANCH   1  12
ATOM     12  C   UNL     1      30.615 -14.917   2.171  1.00  0.00     0.021 A 
ATOM     13  C   UNL     1      30.712 -15.092   0.778  1.00  0.00     0.016 A 
ATOM     14  C   UNL     1      29.578 -15.395   0.021  1.00  0.00     0.051 A 
ATOM     15  C   UNL     1      28.328 -15.521   0.636  1.00  0.00     0.157 A 
ATOM     16  C   UNL     1      29.355 -15.031   2.782  1.00  0.00     0.062 A 
ATOM     17  C   UNL     1      28.215 -15.336   2.024  1.00  0.00     0.158 A 
BRANCH  15  18
ATOM     18  O   UNL     1      27.215 -15.825  -0.145  1.00  0.00    -0.504 OA
ATOM     19  H   UNL     1      27.085 -16.737  -0.566  1.00  0.00     0.293 HD
ENDBRANCH  15  18
BRANCH  17  20
ATOM     20  O   UNL     1      26.972 -15.456   2.644  1.00  0.00    -0.504 OA
ATOM     21  H   UNL     1      26.808 -16.137   3.377  1.00  0.00     0.293 HD
ENDBRANCH  17  20
ENDBRANCH   1  12
BRANCH   6  22
ATOM     22  O   UNL     1      35.404 -13.724   6.502  1.00  0.00    -0.507 OA
ATOM     23  H   UNL     1      35.054 -14.549   6.976  1.00  0.00     0.293 HD
ENDBRANCH   6  22
BRANCH   8  24
ATOM     24  O   UNL     1      37.320 -12.322   2.301  1.00  0.00    -0.508 OA
ATOM     25  H   UNL     1      37.938 -12.913   1.757  1.00  0.00     0.293 HD
ENDBRANCH   8  24
TORSDOF 5
ENDMDL
MODEL 4
REMARK VINA RESULT:    -7.427      1.896      3.364
REMARK INTER + INTRA:          -9.036
REMARK INTER:                  -8.771
REMARK INTRA:                  -0.265
REMARK UNBOUND:                -0.307
REMARK SMILES O=c1cc(-c2ccc(O)c(O)c2)oc2cc(O)cc(O)c12
REMARK SMILES IDX 4 1 3 2 2 3 1 4 21 5 19 6 18 7 16 8 15 9 14 10 13 11 5 12
REMARK SMILES IDX 6 13 7 14 8 15 12 16 10 17 9 18 11 20 20 22 17 24
REMARK H PARENT 9 19 11 21 20 23 17 25
REMARK Flexibility Score: inf
ROOT
ATOM      1  C   UNL     1      36.505 -12.990   7.852  1.00  0.00     0.138 A 
ATOM      2  C   UNL     1      37.255 -13.889   8.629  1.00  0.00     0.100 A 
ATOM      3  C   UNL     1      38.303 -13.409   9.416  1.00  0.00     0.197 A 
ATOM      4  O   UNL     1      38.969 -14.223  10.110  1.00  0.00    -0.289 OA
ATOM      5  C   UNL     1      38.590 -12.029   9.424  1.00  0.00     0.107 A 
ATOM      6  C   UNL     1      39.634 -11.460  10.192  1.00  0.00     0.134 A 
ATOM      7  C   UNL     1      39.852 -10.075  10.149  1.00  0.00     0.093 A 
ATOM      8  C   UNL     1      39.049  -9.251   9.357  1.00  0.00     0.123 A 
ATOM      9  C   UNL     1      38.017  -9.808   8.595  1.00  0.00     0.094 A 
ATOM     10  C   UNL     1      37.784 -11.186   8.623  1.00  0.00     0.146 A 
ATOM     11  O   UNL     1      36.796 -11.692   7.891  1.00  0.00    -0.456 OA
ENDROOT
BRANCH   1  12
ATOM     12  C   UNL     1      35.379 -13.444   6.997  1.00  0.00     0.021 A 
ATOM     13  C   UNL     1      34.041 -13.153   7.320  1.00  0.00     0.016 A 
ATOM     14  C   UNL     1      33.000 -13.602   6.503  1.00  0.00     0.051 A 
ATOM     15  C   UNL     1      33.274 -14.352   5.356  1.00  0.00     0.157 A 
ATOM     16  C   UNL     1      35.648 -14.211   5.850  1.00  0.00     0.062 A 
ATOM     17  C   UNL     1      34.604 -14.661   5.028  1.00  0.00     0.158 A 
BRANCH  15  18
ATOM     18  O   UNL     1      32.215 -14.785   4.559  1.00  0.00    -0.504 OA
ATOM     19  H   UNL     1      31.848 -14.224   3.800  1.00  0.00     0.293 HD
ENDBRANCH  15  18
BRANCH  17  20
ATOM     20  O   UNL     1      34.885 -15.413   3.888  1.00  0.00    -0.504 OA
ATOM     21  H   UNL     1      34.408 -16.287   3.697  1.00  0.00     0.293 HD
ENDBRANCH  17  20
ENDBRANCH   1  12
BRANCH   6  22
ATOM     22  O   UNL     1      40.452 -12.257  10.993  1.00  0.00    -0.507 OA
ATOM     23  H   UNL     1      40.711 -11.980  11.934  1.00  0.00     0.293 HD
ENDBRANCH   6  22
BRANCH   8  24
ATOM     24  O   UNL     1      39.288  -7.878   9.333  1.00  0.00    -0.508 OA
ATOM     25  H   UNL     1      38.578  -7.213   9.618  1.00  0.00     0.293 HD
ENDBRANCH   8  24
TORSDOF 5
ENDMDL
MODEL 5
REMARK VINA RESULT:    -7.348      2.697      7.536
REMARK INTER + INTRA:          -8.943
REMARK INTER:                  -8.675
REMARK INTRA:                  -0.267
REMARK UNBOUND:                -0.307
REMARK SMILES O=c1cc(-c2ccc(O)c(O)c2)oc2cc(O)cc(O)c12
REMARK SMILES IDX 4 1 3 2 2 3 1 4 21 5 19 6 18 7 16 8 15 9 14 10 13 11 5 12
REMARK SMILES IDX 6 13 7 14 8 15 12 16 10 17 9 18 11 20 20 22 17 24
REMARK H PARENT 9 19 11 21 20 23 17 25
REMARK Flexibility Score: inf
ROOT
ATOM      1  C   UNL     1      38.076 -11.528   8.226  1.00  0.00     0.138 A 
ATOM      2  C   UNL     1      36.855 -12.090   8.635  1.00  0.00     0.100 A 
ATOM      3  C   UNL     1      35.857 -12.330   7.689  1.00  0.00     0.197 A 
ATOM      4  O   UNL     1      34.766 -12.835   8.066  1.00  0.00    -0.289 OA
ATOM      5  C   UNL     1      36.091 -12.010   6.336  1.00  0.00     0.107 A 
ATOM      6  C   UNL     1      35.134 -12.221   5.315  1.00  0.00     0.134 A 
ATOM      7  C   UNL     1      35.447 -11.881   3.990  1.00  0.00     0.093 A 
ATOM      8  C   UNL     1      36.692 -11.337   3.669  1.00  0.00     0.123 A 
ATOM      9  C   UNL     1      37.641 -11.126   4.674  1.00  0.00     0.094 A 
ATOM     10  C   UNL     1      37.349 -11.457   6.000  1.00  0.00     0.146 A 
ATOM     11  O   UNL     1      38.268 -11.247   6.938  1.00  0.00    -0.456 OA
ENDROOT
BRANCH   1  12
ATOM     12  C   UNL     1      39.173 -11.251   9.187  1.00  0.00     0.021 A 
ATOM     13  C   UNL     1      40.450 -11.824   9.038  1.00  0.00     0.016 A 
ATOM     14  C   UNL     1      41.460 -11.554   9.964  1.00  0.00     0.051 A 
ATOM     15  C   UNL     1      41.215 -10.716  11.056  1.00  0.00     0.157 A 
ATOM     16  C   UNL     1      38.928 -10.420  10.295  1.00  0.00     0.062 A 
ATOM     17  C   UNL     1      39.942 -10.148  11.225  1.00  0.00     0.158 A 
BRANCH  15  18
ATOM     18  O   UNL     1      42.244 -10.465  11.963  1.00  0.00    -0.504 OA
ATOM     19  H   UNL     1      42.903 -11.182  12.243  1.00  0.00     0.293 HD
ENDBRANCH  15  18
BRANCH  17  20
ATOM     20  O   UNL     1      39.689  -9.315  12.314  1.00  0.00    -0.504 OA
ATOM     21  H   UNL     1      38.847  -9.409  12.870  1.00  0.00     0.293 HD
ENDBRANCH  17  20
ENDBRANCH   1  12
BRANCH   6  22
ATOM     22  O   UNL     1      33.882 -12.763   5.606  1.00  0.00    -0.507 OA
ATOM     23  H   UNL     1      33.586 -12.940   6.559  1.00  0.00     0.293 HD
ENDBRANCH   6  22
BRANCH   8  24
ATOM     24  O   UNL     1      36.976 -11.008   2.345  1.00  0.00    -0.508 OA
ATOM     25  H   UNL     1      37.857 -10.580   2.083  1.00  0.00     0.293 HD
ENDBRANCH   8  24
TORSDOF 5
ENDMDL
MODEL 6
REMARK VINA RESULT:    -7.279      2.665      7.728
REMARK INTER + INTRA:          -8.862
REMARK INTER:                  -8.544
REMARK INTRA:                  -0.318
REMARK UNBOUND:                -0.307
REMARK SMILES O=c1cc(-c2ccc(O)c(O)c2)oc2cc(O)cc(O)c12
REMARK SMILES IDX 4 1 3 2 2 3 1 4 21 5 19 6 18 7 16 8 15 9 14 10 13 11 5 12
REMARK SMILES IDX 6 13 7 14 8 15 12 16 10 17 9 18 11 20 20 22 17 24
REMARK H PARENT 9 19 11 21 20 23 17 25
REMARK Flexibility Score: inf
ROOT
ATOM      1  C   UNL     1      36.956 -11.970   7.535  1.00  0.00     0.138 A 
ATOM      2  C   UNL     1      36.441 -13.269   7.687  1.00  0.00     0.100 A 
ATOM      3  C   UNL     1      35.783 -13.877   6.617  1.00  0.00     0.197 A 
ATOM      4  O   UNL     1      35.325 -15.042   6.763  1.00  0.00    -0.289 OA
ATOM      5  C   UNL     1      35.649 -13.182   5.398  1.00  0.00     0.107 A 
ATOM      6  C   UNL     1      34.997 -13.724   4.265  1.00  0.00     0.134 A 
ATOM      7  C   UNL     1      34.911 -12.969   3.086  1.00  0.00     0.093 A 
ATOM      8  C   UNL     1      35.463 -11.688   3.018  1.00  0.00     0.123 A 
ATOM      9  C   UNL     1      36.108 -11.147   4.134  1.00  0.00     0.094 A 
ATOM     10  C   UNL     1      36.203 -11.882   5.319  1.00  0.00     0.146 A 
ATOM     11  O   UNL     1      36.822 -11.346   6.367  1.00  0.00    -0.456 OA
ENDROOT
BRANCH   1  12
ATOM     12  C   UNL     1      37.666 -11.275   8.638  1.00  0.00     0.021 A 
ATOM     13  C   UNL     1      37.948 -11.919   9.858  1.00  0.00     0.016 A 
ATOM     14  C   UNL     1      38.608 -11.237  10.883  1.00  0.00     0.051 A 
ATOM     15  C   UNL     1      38.991  -9.903  10.715  1.00  0.00     0.157 A 
ATOM     16  C   UNL     1      38.041  -9.929   8.480  1.00  0.00     0.062 A 
ATOM     17  C   UNL     1      38.704  -9.244   9.508  1.00  0.00     0.158 A 
BRANCH  15  18
ATOM     18  O   UNL     1      39.649  -9.249  11.756  1.00  0.00    -0.504 OA
ATOM     19  H   UNL     1      39.831  -9.699  12.645  1.00  0.00     0.293 HD
ENDBRANCH  15  18
BRANCH  17  20
ATOM     20  O   UNL     1      39.079  -7.912   9.335  1.00  0.00    -0.504 OA
ATOM     21  H   UNL     1      39.603  -7.411  10.043  1.00  0.00     0.293 HD
ENDBRANCH  17  20
ENDBRANCH   1  12
BRANCH   6  22
ATOM     22  O   UNL     1      34.437 -15.001   4.303  1.00  0.00    -0.507 OA
ATOM     23  H   UNL     1      34.069 -15.397   5.162  1.00  0.00     0.293 HD
ENDBRANCH   6  22
BRANCH   8  24
ATOM     24  O   UNL     1      35.362 -10.960   1.834  1.00  0.00    -0.508 OA
ATOM     25  H   UNL     1      36.153 -10.449   1.459  1.00  0.00     0.293 HD
ENDBRANCH   8  24
TORSDOF 5
ENDMDL
MODEL 7
REMARK VINA RESULT:    -7.250      6.601     10.021
REMARK INTER + INTRA:          -8.829
REMARK INTER:                  -8.546
REMARK INTRA:                  -0.283
REMARK UNBOUND:                -0.307
REMARK SMILES O=c1cc(-c2ccc(O)c(O)c2)oc2cc(O)cc(O)c12
REMARK SMILES IDX 4 1 3 2 2 3 1 4 21 5 19 6 18 7 16 8 15 9 14 10 13 11 5 12
REMARK SMILES IDX 6 13 7 14 8 15 12 16 10 17 9 18 11 20 20 22 17 24
REMARK H PARENT 9 19 11 21 20 23 17 25
REMARK Flexibility Score: inf
ROOT
ATOM      1  C   UNL     1      31.404 -14.175   1.197  1.00  0.00     0.138 A 
ATOM      2  C   UNL     1      31.973 -13.035   0.602  1.00  0.00     0.100 A 
ATOM      3  C   UNL     1      33.155 -12.506   1.122  1.00  0.00     0.197 A 
ATOM      4  O   UNL     1      33.657 -11.485   0.581  1.00  0.00    -0.289 OA
ATOM      5  C   UNL     1      33.764 -13.124   2.233  1.00  0.00     0.107 A 
ATOM      6  C   UNL     1      34.961 -12.652   2.821  1.00  0.00     0.134 A 
ATOM      7  C   UNL     1      35.507 -13.328   3.923  1.00  0.00     0.093 A 
ATOM      8  C   UNL     1      34.881 -14.463   4.444  1.00  0.00     0.123 A 
ATOM      9  C   UNL     1      33.697 -14.933   3.867  1.00  0.00     0.094 A 
ATOM     10  C   UNL     1      33.137 -14.273   2.770  1.00  0.00     0.146 A 
ATOM     11  O   UNL     1      32.011 -14.740   2.239  1.00  0.00    -0.456 OA
ENDROOT
BRANCH   1  12
ATOM     12  C   UNL     1      30.149 -14.781   0.686  1.00  0.00     0.021 A 
ATOM     13  C   UNL     1      30.008 -15.166  -0.660  1.00  0.00     0.016 A 
ATOM     14  C   UNL     1      28.812 -15.725  -1.116  1.00  0.00     0.051 A 
ATOM     15  C   UNL     1      27.735 -15.904  -0.242  1.00  0.00     0.157 A 
ATOM     16  C   UNL     1      29.059 -14.951   1.557  1.00  0.00     0.062 A 
ATOM     17  C   UNL     1      27.857 -15.513   1.101  1.00  0.00     0.158 A 
BRANCH  15  18
ATOM     18  O   UNL     1      26.554 -16.466  -0.726  1.00  0.00    -0.504 OA
ATOM     19  H   UNL     1      26.550 -17.306  -1.292  1.00  0.00     0.293 HD
ENDBRANCH  15  18
BRANCH  17  20
ATOM     20  O   UNL     1      26.786 -15.684   1.977  1.00  0.00    -0.504 OA
ATOM     21  H   UNL     1      25.940 -15.132   1.896  1.00  0.00     0.293 HD
ENDBRANCH  17  20
ENDBRANCH   1  12
BRANCH   6  22
ATOM     22  O   UNL     1      35.609 -11.522   2.322  1.00  0.00    -0.507 OA
ATOM     23  H   UNL     1      35.474 -11.208   1.367  1.00  0.00     0.293 HD
ENDBRANCH   6  22
BRANCH   8  24
ATOM     24  O   UNL     1      35.445 -15.115   5.539  1.00  0.00    -0.508 OA
ATOM     25  H   UNL     1      36.443 -15.281   5.599  1.00  0.00     0.293 HD
ENDBRANCH   8  24
TORSDOF 5
ENDMDL
MODEL 8
REMARK VINA RESULT:    -7.098      3.379      8.544
REMARK INTER + INTRA:          -8.650
REMARK INTER:                  -8.356
REMARK INTRA:                  -0.294
REMARK UNBOUND:                -0.307
REMARK SMILES O=c1cc(-c2ccc(O)c(O)c2)oc2cc(O)cc(O)c12
REMARK SMILES IDX 4 1 3 2 2 3 1 4 21 5 19 6 18 7 16 8 15 9 14 10 13 11 5 12
REMARK SMILES IDX 6 13 7 14 8 15 12 16 10 17 9 18 11 20 20 22 17 24
REMARK H PARENT 9 19 11 21 20 23 17 25
REMARK Flexibility Score: inf
ROOT
ATOM      1  C   UNL     1      35.370 -12.498   5.281  1.00  0.00     0.138 A 
ATOM      2  C   UNL     1      35.511 -11.513   4.288  1.00  0.00     0.100 A 
ATOM      3  C   UNL     1      34.951 -11.724   3.027  1.00  0.00     0.197 A 
ATOM      4  O   UNL     1      35.081 -10.834   2.144  1.00  0.00    -0.289 OA
ATOM      5  C   UNL     1      34.248 -12.918   2.769  1.00  0.00     0.107 A 
ATOM      6  C   UNL     1      33.652 -13.211   1.519  1.00  0.00     0.134 A 
ATOM      7  C   UNL     1      32.965 -14.421   1.345  1.00  0.00     0.093 A 
ATOM      8  C   UNL     1      32.863 -15.341   2.391  1.00  0.00     0.123 A 
ATOM      9  C   UNL     1      33.451 -15.057   3.627  1.00  0.00     0.094 A 
ATOM     10  C   UNL     1      34.141 -13.857   3.822  1.00  0.00     0.146 A 
ATOM     11  O   UNL     1      34.692 -13.610   5.006  1.00  0.00    -0.456 OA
ENDROOT
BRANCH   1  12
ATOM     12  C   UNL     1      35.944 -12.328   6.639  1.00  0.00     0.021 A 
ATOM     13  C   UNL     1      35.970 -13.385   7.568  1.00  0.00     0.016 A 
ATOM     14  C   UNL     1      36.507 -13.194   8.844  1.00  0.00     0.051 A 
ATOM     15  C   UNL     1      37.021 -11.948   9.218  1.00  0.00     0.157 A 
ATOM     16  C   UNL     1      36.449 -11.074   7.025  1.00  0.00     0.062 A 
ATOM     17  C   UNL     1      36.989 -10.881   8.305  1.00  0.00     0.158 A 
BRANCH  15  18
ATOM     18  O   UNL     1      37.551 -11.788  10.497  1.00  0.00    -0.504 OA
ATOM     19  H   UNL     1      37.296 -12.397  11.265  1.00  0.00     0.293 HD
ENDBRANCH  15  18
BRANCH  17  20
ATOM     20  O   UNL     1      37.496  -9.635   8.671  1.00  0.00    -0.504 OA
ATOM     21  H   UNL     1      38.431  -9.344   8.411  1.00  0.00     0.293 HD
ENDBRANCH  17  20
ENDBRANCH   1  12
BRANCH   6  22
ATOM     22  O   UNL     1      33.736 -12.311   0.456  1.00  0.00    -0.507 OA
ATOM     23  H   UNL     1      33.950 -12.618  -0.486  1.00  0.00     0.293 HD
ENDBRANCH   6  22
BRANCH   8  24
ATOM     24  O   UNL     1      32.175 -16.536   2.190  1.00  0.00    -0.508 OA
ATOM     25  H   UNL     1      32.295 -17.326   2.812  1.00  0.00     0.293 HD
ENDBRANCH   8  24
TORSDOF 5
ENDMDL
MODEL 9
REMARK VINA RESULT:    -7.057      3.028      8.391
REMARK INTER + INTRA:          -8.602
REMARK INTER:                  -8.292
REMARK INTRA:                  -0.309
REMARK UNBOUND:                -0.307
REMARK SMILES O=c1cc(-c2ccc(O)c(O)c2)oc2cc(O)cc(O)c12
REMARK SMILES IDX 4 1 3 2 2 3 1 4 21 5 19 6 18 7 16 8 15 9 14 10 13 11 5 12
REMARK SMILES IDX 6 13 7 14 8 15 12 16 10 17 9 18 11 20 20 22 17 24
REMARK H PARENT 9 19 11 21 20 23 17 25
REMARK Flexibility Score: inf
ROOT
ATOM      1  C   UNL     1      35.861 -12.897   6.097  1.00  0.00     0.138 A 
ATOM      2  C   UNL     1      35.495 -14.234   5.862  1.00  0.00     0.100 A 
ATOM      3  C   UNL     1      34.861 -14.573   4.665  1.00  0.00     0.197 A 
ATOM      4  O   UNL     1      34.538 -15.774   4.464  1.00  0.00    -0.289 OA
ATOM      5  C   UNL     1      34.602 -13.571   3.708  1.00  0.00     0.107 A 
ATOM      6  C   UNL     1      33.964 -13.829   2.471  1.00  0.00     0.134 A 
ATOM      7  C   UNL     1      33.748 -12.777   1.569  1.00  0.00     0.093 A 
ATOM      8  C   UNL     1      34.156 -11.477   1.878  1.00  0.00     0.123 A 
ATOM      9  C   UNL     1      34.786 -11.217   3.099  1.00  0.00     0.094 A 
ATOM     10  C   UNL     1      35.010 -12.251   4.012  1.00  0.00     0.146 A 
ATOM     11  O   UNL     1      35.611 -11.978   5.166  1.00  0.00    -0.456 OA
ENDROOT
BRANCH   1  12
ATOM     12  C   UNL     1      36.537 -12.479   7.350  1.00  0.00     0.021 A 
ATOM     13  C   UNL     1      36.351 -13.176   8.559  1.00  0.00     0.016 A 
ATOM     14  C   UNL     1      36.993 -12.754   9.726  1.00  0.00     0.051 A 
ATOM     15  C   UNL     1      37.823 -11.629   9.711  1.00  0.00     0.157 A 
ATOM     16  C   UNL     1      37.363 -11.341   7.344  1.00  0.00     0.062 A 
ATOM     17  C   UNL     1      38.008 -10.917   8.515  1.00  0.00     0.158 A 
BRANCH  15  18
ATOM     18  O   UNL     1      38.451 -11.233  10.892  1.00  0.00    -0.504 OA
ATOM     19  H   UNL     1      39.351 -11.603  11.173  1.00  0.00     0.293 HD
ENDBRANCH  15  18
BRANCH  17  20
ATOM     20  O   UNL     1      38.831  -9.792   8.493  1.00  0.00    -0.504 OA
ATOM     21  H   UNL     1      39.517  -9.622   9.220  1.00  0.00     0.293 HD
ENDBRANCH  17  20
ENDBRANCH   1  12
BRANCH   6  22
ATOM     22  O   UNL     1      33.547 -15.117   2.134  1.00  0.00    -0.507 OA
ATOM     23  H   UNL     1      32.758 -15.278   1.517  1.00  0.00     0.293 HD
ENDBRANCH   6  22
BRANCH   8  24
ATOM     24  O   UNL     1      33.928 -10.451   0.964  1.00  0.00    -0.508 OA
ATOM     25  H   UNL     1      33.027 -10.334   0.514  1.00  0.00     0.293 HD
ENDBRANCH   8  24
TORSDOF 5
ENDMDL
