MODEL 1
REMARK VINA RESULT:    -3.470      0.000      0.000
REMARK INTER + INTRA:          -8.005
REMARK INTER:                  -6.715
REMARK INTRA:                  -1.290
REMARK UNBOUND:                -1.290
REMARK SMILES CCCCCCCCCCCCCCCCCC(=O)[O-]
REMARK SMILES IDX 10 1 11 2 12 3 13 4 14 5 15 6 16 7 17 8 18 9 19 10 20 11
REMARK SMILES IDX 9 12 8 13 7 14 6 15 5 16 4 17 3 18 2 19 1 20
REMARK H PARENT
REMARK Flexibility Score: inf
ROOT
ATOM      1  C   UNL     1      -5.377  37.252  20.371  1.00  0.00     0.000 C 
ENDROOT
BRANCH   1   2
ATOM      2  C   UNL     1      -5.817  36.008  21.163  1.00  0.00     0.000 C 
BRANCH   2   3
ATOM      3  C   UNL     1      -4.734  35.512  22.135  1.00  0.00     0.000 C 
BRANCH   3   4
ATOM      4  C   UNL     1      -5.277  35.254  23.548  1.00  0.00     0.000 C 
BRANCH   4   5
ATOM      5  C   UNL     1      -6.120  36.442  24.036  1.00  0.00     0.000 C 
BRANCH   5   6
ATOM      6  C   UNL     1      -5.453  37.223  25.182  1.00  0.00     0.000 C 
BRANCH   6   7
ATOM      7  C   UNL     1      -5.174  38.708  24.883  1.00  0.00     0.006 C 
BRANCH   7   8
ATOM      8  C   UNL     1      -5.528  39.105  23.444  1.00  0.00     0.053 C 
BRANCH   8   9
ATOM      9  C   UNL     1      -5.541  40.594  23.302  1.00  0.00     0.041 C 
ATOM     10  O   UNL     1      -5.369  41.125  22.173  1.00  0.00    -0.550 OA
ATOM     11  O   UNL     1      -5.694  41.398  24.424  1.00  0.00    -0.550 OA
ENDBRANCH   8   9
ENDBRANCH   7   8
ENDBRANCH   6   7
ENDBRANCH   5   6
ENDBRANCH   4   5
ENDBRANCH   3   4
ENDBRANCH   2   3
ENDBRANCH   1   2
BRANCH   1  12
ATOM     12  C   UNL     1      -4.138  36.989  19.500  1.00  0.00     0.000 C 
BRANCH  12  13
ATOM     13  C   UNL     1      -2.824  37.336  20.219  1.00  0.00    -0.000 C 
BRANCH  13  14
ATOM     14  C   UNL     1      -1.911  38.177  19.318  1.00  0.00    -0.000 C 
BRANCH  14  15
ATOM     15  C   UNL     1      -2.341  38.069  17.846  1.00  0.00    -0.000 C 
BRANCH  15  16
ATOM     16  C   UNL     1      -1.260  37.431  16.960  1.00  0.00    -0.000 C 
BRANCH  16  17
ATOM     17  C   UNL     1      -1.825  36.342  16.031  1.00  0.00    -0.000 C 
BRANCH  17  18
ATOM     18  C   UNL     1      -3.194  36.721  15.443  1.00  0.00    -0.000 C 
BRANCH  18  19
ATOM     19  C   UNL     1      -3.075  37.556  14.161  1.00  0.00    -0.003 C 
ATOM     20  C   UNL     1      -4.086  38.698  14.152  1.00  0.00     0.004 C 
ENDBRANCH  18  19
ENDBRANCH  17  18
ENDBRANCH  16  17
ENDBRANCH  15  16
ENDBRANCH  14  15
ENDBRANCH  13  14
ENDBRANCH  12  13
ENDBRANCH   1  12
TORSDOF 16
ENDMDL
MODEL 2
REMARK VINA RESULT:    -2.891      1.006      2.061
REMARK INTER + INTRA:          -6.884
REMARK INTER:                  -6.214
REMARK INTRA:                  -0.671
REMARK UNBOUND:                -1.290
REMARK SMILES CCCCCCCCCCCCCCCCCC(=O)[O-]
REMARK SMILES IDX 10 1 11 2 12 3 13 4 14 5 15 6 16 7 17 8 18 9 19 10 20 11
REMARK SMILES IDX 9 12 8 13 7 14 6 15 5 16 4 17 3 18 2 19 1 20
REMARK H PARENT
REMARK Flexibility Score: inf
ROOT
ATOM      1  C   UNL     1      -5.969  35.991  22.206  1.00  0.00     0.000 C 
ENDROOT
BRANCH   1   2
ATOM      2  C   UNL     1      -5.416  34.948  23.194  1.00  0.00     0.000 C 
BRANCH   2   3
ATOM      3  C   UNL     1      -6.120  34.994  24.560  1.00  0.00     0.000 C 
BRANCH   3   4
ATOM      4  C   UNL     1      -6.125  36.400  25.178  1.00  0.00     0.000 C 
BRANCH   4   5
ATOM      5  C   UNL     1      -4.999  37.262  24.587  1.00  0.00     0.000 C 
BRANCH   5   6
ATOM      6  C   UNL     1      -4.956  38.683  25.178  1.00  0.00     0.000 C 
BRANCH   6   7
ATOM      7  C   UNL     1      -5.351  39.808  24.203  1.00  0.00     0.006 C 
BRANCH   7   8
ATOM      8  C   UNL     1      -5.500  39.319  22.756  1.00  0.00     0.053 C 
BRANCH   8   9
ATOM      9  C   UNL     1      -5.739  40.476  21.837  1.00  0.00     0.041 C 
ATOM     10  O   UNL     1      -5.684  41.655  22.275  1.00  0.00    -0.550 OA
ATOM     11  O   UNL     1      -6.070  40.250  20.508  1.00  0.00    -0.550 OA
ENDBRANCH   8   9
ENDBRANCH   7   8
ENDBRANCH   6   7
ENDBRANCH   5   6
ENDBRANCH   4   5
ENDBRANCH   3   4
ENDBRANCH   2   3
ENDBRANCH   1   2
BRANCH   1  12
ATOM     12  C   UNL     1      -5.946  35.496  20.751  1.00  0.00     0.000 C 
BRANCH  12  13
ATOM     13  C   UNL     1      -5.129  36.412  19.826  1.00  0.00    -0.000 C 
BRANCH  13  14
ATOM     14  C   UNL     1      -3.674  36.513  20.301  1.00  0.00    -0.000 C 
BRANCH  14  15
ATOM     15  C   UNL     1      -2.935  37.645  19.572  1.00  0.00    -0.000 C 
BRANCH  15  16
ATOM     16  C   UNL     1      -3.476  37.888  18.154  1.00  0.00    -0.000 C 
BRANCH  16  17
ATOM     17  C   UNL     1      -2.396  37.715  17.071  1.00  0.00    -0.000 C 
BRANCH  17  18
ATOM     18  C   UNL     1      -2.732  36.592  16.077  1.00  0.00    -0.000 C 
BRANCH  18  19
ATOM     19  C   UNL     1      -2.697  37.067  14.618  1.00  0.00    -0.003 C 
ATOM     20  C   UNL     1      -3.669  38.222  14.391  1.00  0.00     0.004 C 
ENDBRANCH  18  19
ENDBRANCH  17  18
ENDBRANCH  16  17
ENDBRANCH  15  16
ENDBRANCH  14  15
ENDBRANCH  13  14
ENDBRANCH  12  13
ENDBRANCH   1  12
TORSDOF 16
ENDMDL
MODEL 3
REMARK VINA RESULT:    -2.505      3.113      7.424
REMARK INTER + INTRA:          -6.138
REMARK INTER:                  -4.696
REMARK INTRA:                  -1.442
REMARK UNBOUND:                -1.290
REMARK SMILES CCCCCCCCCCCCCCCCCC(=O)[O-]
REMARK SMILES IDX 10 1 11 2 12 3 13 4 14 5 15 6 16 7 17 8 18 9 19 10 20 11
REMARK SMILES IDX 9 12 8 13 7 14 6 15 5 16 4 17 3 18 2 19 1 20
REMARK H PARENT
REMARK Flexibility Score: inf
ROOT
ATOM      1  C   UNL     1      -5.208  35.454  22.545  1.00  0.00     0.000 C 
ENDROOT
BRANCH   1   2
ATOM      2  C   UNL     1      -6.049  36.231  21.517  1.00  0.00     0.000 C 
BRANCH   2   3
ATOM      3  C   UNL     1      -5.192  37.124  20.605  1.00  0.00     0.000 C 
BRANCH   3   4
ATOM      4  C   UNL     1      -3.809  36.522  20.315  1.00  0.00     0.000 C 
BRANCH   4   5
ATOM      5  C   UNL     1      -2.694  37.520  20.659  1.00  0.00     0.000 C 
BRANCH   5   6
ATOM      6  C   UNL     1      -2.075  38.184  19.415  1.00  0.00     0.000 C 
BRANCH   6   7
ATOM      7  C   UNL     1      -2.176  37.360  18.118  1.00  0.00     0.006 C 
BRANCH   7   8
ATOM      8  C   UNL     1      -3.271  37.869  17.171  1.00  0.00     0.053 C 
BRANCH   8   9
ATOM      9  C   UNL     1      -2.911  37.571  15.749  1.00  0.00     0.041 C 
ATOM     10  O   UNL     1      -2.181  36.582  15.474  1.00  0.00    -0.550 OA
ATOM     11  O   UNL     1      -3.340  38.414  14.733  1.00  0.00    -0.550 OA
ENDBRANCH   8   9
ENDBRANCH   7   8
ENDBRANCH   6   7
ENDBRANCH   5   6
ENDBRANCH   4   5
ENDBRANCH   3   4
ENDBRANCH   2   3
ENDBRANCH   1   2
BRANCH   1  12
ATOM     12  C   UNL     1      -5.902  35.344  23.912  1.00  0.00     0.000 C 
BRANCH  12  13
ATOM     13  C   UNL     1      -5.113  36.037  25.035  1.00  0.00    -0.000 C 
BRANCH  13  14
ATOM     14  C   UNL     1      -5.740  37.392  25.388  1.00  0.00    -0.000 C 
BRANCH  14  15
ATOM     15  C   UNL     1      -4.937  38.548  24.771  1.00  0.00    -0.000 C 
BRANCH  15  16
ATOM     16  C   UNL     1      -5.732  39.316  23.704  1.00  0.00    -0.000 C 
BRANCH  16  17
ATOM     17  C   UNL     1      -5.049  40.631  23.290  1.00  0.00    -0.000 C 
BRANCH  17  18
ATOM     18  C   UNL     1      -5.997  41.575  22.532  1.00  0.00    -0.000 C 
BRANCH  18  19
ATOM     19  C   UNL     1      -6.122  42.949  23.205  1.00  0.00    -0.003 C 
ATOM     20  C   UNL     1      -5.654  42.896  24.656  1.00  0.00     0.004 C 
ENDBRANCH  18  19
ENDBRANCH  17  18
ENDBRANCH  16  17
ENDBRANCH  15  16
ENDBRANCH  14  15
ENDBRANCH  13  14
ENDBRANCH  12  13
ENDBRANCH   1  12
TORSDOF 16
ENDMDL
MODEL 4
REMARK VINA RESULT:    -2.395      3.111      7.721
REMARK INTER + INTRA:          -5.925
REMARK INTER:                  -4.388
REMARK INTRA:                  -1.537
REMARK UNBOUND:                -1.290
REMARK SMILES CCCCCCCCCCCCCCCCCC(=O)[O-]
REMARK SMILES IDX 10 1 11 2 12 3 13 4 14 5 15 6 16 7 17 8 18 9 19 10 20 11
REMARK SMILES IDX 9 12 8 13 7 14 6 15 5 16 4 17 3 18 2 19 1 20
REMARK H PARENT
REMARK Flexibility Score: inf
ROOT
ATOM      1  C   UNL     1      -3.370  36.186  20.954  1.00  0.00     0.000 C 
ENDROOT
BRANCH   1   2
ATOM      2  C   UNL     1      -3.127  37.586  20.364  1.00  0.00     0.000 C 
BRANCH   2   3
ATOM      3  C   UNL     1      -1.662  37.810  19.955  1.00  0.00     0.000 C 
BRANCH   3   4
ATOM      4  C   UNL     1      -1.480  37.912  18.433  1.00  0.00     0.000 C 
BRANCH   4   5
ATOM      5  C   UNL     1      -2.838  38.023  17.725  1.00  0.00     0.000 C 
BRANCH   5   6
ATOM      6  C   UNL     1      -3.238  36.734  16.984  1.00  0.00     0.000 C 
BRANCH   6   7
ATOM      7  C   UNL     1      -2.559  36.529  15.618  1.00  0.00     0.006 C 
BRANCH   7   8
ATOM      8  C   UNL     1      -2.462  37.823  14.799  1.00  0.00     0.053 C 
BRANCH   8   9
ATOM      9  C   UNL     1      -3.811  38.217  14.285  1.00  0.00     0.041 C 
ATOM     10  O   UNL     1      -4.151  39.429  14.262  1.00  0.00    -0.550 OA
ATOM     11  O   UNL     1      -4.712  37.242  13.876  1.00  0.00    -0.550 OA
ENDBRANCH   8   9
ENDBRANCH   7   8
ENDBRANCH   6   7
ENDBRANCH   5   6
ENDBRANCH   4   5
ENDBRANCH   3   4
ENDBRANCH   2   3
ENDBRANCH   1   2
BRANCH   1  12
ATOM     12  C   UNL     1      -4.804  35.685  20.713  1.00  0.00     0.000 C 
BRANCH  12  13
ATOM     13  C   UNL     1      -5.833  36.375  21.624  1.00  0.00    -0.000 C 
BRANCH  13  14
ATOM     14  C   UNL     1      -6.056  35.567  22.908  1.00  0.00    -0.000 C 
BRANCH  14  15
ATOM     15  C   UNL     1      -5.150  36.074  24.041  1.00  0.00    -0.000 C 
BRANCH  15  16
ATOM     16  C   UNL     1      -5.781  37.233  24.829  1.00  0.00    -0.000 C 
BRANCH  16  17
ATOM     17  C   UNL     1      -4.925  38.511  24.789  1.00  0.00    -0.000 C 
BRANCH  17  18
ATOM     18  C   UNL     1      -5.631  39.671  24.068  1.00  0.00    -0.000 C 
BRANCH  18  19
ATOM     19  C   UNL     1      -5.049  39.939  22.673  1.00  0.00    -0.003 C 
ATOM     20  C   UNL     1      -6.006  40.776  21.830  1.00  0.00     0.004 C 
ENDBRANCH  18  19
ENDBRANCH  17  18
ENDBRANCH  16  17
ENDBRANCH  15  16
ENDBRANCH  14  15
ENDBRANCH  13  14
ENDBRANCH  12  13
ENDBRANCH   1  12
TORSDOF 16
ENDMDL
MODEL 5
REMARK VINA RESULT:    -2.351      2.235      3.420
REMARK INTER + INTRA:          -5.840
REMARK INTER:                  -4.863
REMARK INTRA:                  -0.978
REMARK UNBOUND:                -1.290
REMARK SMILES CCCCCCCCCCCCCCCCCC(=O)[O-]
REMARK SMILES IDX 10 1 11 2 12 3 13 4 14 5 15 6 16 7 17 8 18 9 19 10 20 11
REMARK SMILES IDX 9 12 8 13 7 14 6 15 5 16 4 17 3 18 2 19 1 20
REMARK H PARENT
REMARK Flexibility Score: inf
ROOT
ATOM      1  C   UNL     1      -5.738  38.822  21.402  1.00  0.00     0.000 C 
ENDROOT
BRANCH   1   2
ATOM      2  C   UNL     1      -5.114  40.221  21.540  1.00  0.00     0.000 C 
BRANCH   2   3
ATOM      3  C   UNL     1      -5.626  40.979  22.776  1.00  0.00     0.000 C 
BRANCH   3   4
ATOM      4  C   UNL     1      -5.032  40.446  24.088  1.00  0.00     0.000 C 
BRANCH   4   5
ATOM      5  C   UNL     1      -5.806  39.213  24.579  1.00  0.00     0.000 C 
BRANCH   5   6
ATOM      6  C   UNL     1      -4.935  38.242  25.397  1.00  0.00     0.000 C 
BRANCH   6   7
ATOM      7  C   UNL     1      -5.356  36.763  25.317  1.00  0.00     0.006 C 
BRANCH   7   8
ATOM      8  C   UNL     1      -6.084  36.419  24.011  1.00  0.00     0.053 C 
BRANCH   8   9
ATOM      9  C   UNL     1      -5.453  35.227  23.361  1.00  0.00     0.041 C 
ATOM     10  O   UNL     1      -5.668  34.072  23.813  1.00  0.00    -0.550 OA
ATOM     11  O   UNL     1      -4.590  35.397  22.287  1.00  0.00    -0.550 OA
ENDBRANCH   8   9
ENDBRANCH   7   8
ENDBRANCH   6   7
ENDBRANCH   5   6
ENDBRANCH   4   5
ENDBRANCH   3   4
ENDBRANCH   2   3
ENDBRANCH   1   2
BRANCH   1  12
ATOM     12  C   UNL     1      -5.308  38.108  20.110  1.00  0.00     0.000 C 
BRANCH  12  13
ATOM     13  C   UNL     1      -3.794  37.851  20.050  1.00  0.00    -0.000 C 
BRANCH  13  14
ATOM     14  C   UNL     1      -3.425  37.042  18.800  1.00  0.00    -0.000 C 
BRANCH  14  15
ATOM     15  C   UNL     1      -2.979  37.967  17.658  1.00  0.00    -0.000 C 
BRANCH  15  16
ATOM     16  C   UNL     1      -1.584  37.612  17.120  1.00  0.00    -0.000 C 
BRANCH  16  17
ATOM     17  C   UNL     1      -1.643  36.690  15.888  1.00  0.00    -0.000 C 
BRANCH  17  18
ATOM     18  C   UNL     1      -3.046  36.629  15.265  1.00  0.00    -0.000 C 
BRANCH  18  19
ATOM     19  C   UNL     1      -3.136  37.395  13.938  1.00  0.00    -0.003 C 
ATOM     20  C   UNL     1      -4.085  38.584  14.052  1.00  0.00     0.004 C 
ENDBRANCH  18  19
ENDBRANCH  17  18
ENDBRANCH  16  17
ENDBRANCH  15  16
ENDBRANCH  14  15
ENDBRANCH  13  14
ENDBRANCH  12  13
ENDBRANCH   1  12
TORSDOF 16
ENDMDL
MODEL 6
REMARK VINA RESULT:    -2.253      2.986      7.269
REMARK INTER + INTRA:          -5.650
REMARK INTER:                  -4.160
REMARK INTRA:                  -1.490
REMARK UNBOUND:                -1.290
REMARK SMILES CCCCCCCCCCCCCCCCCC(=O)[O-]
REMARK SMILES IDX 10 1 11 2 12 3 13 4 14 5 15 6 16 7 17 8 18 9 19 10 20 11
REMARK SMILES IDX 9 12 8 13 7 14 6 15 5 16 4 17 3 18 2 19 1 20
REMARK H PARENT
REMARK Flexibility Score: inf
ROOT
ATOM      1  C   UNL     1      -5.384  35.112  22.799  1.00  0.00     0.000 C 
ENDROOT
BRANCH   1   2
ATOM      2  C   UNL     1      -5.204  36.419  22.007  1.00  0.00     0.000 C 
BRANCH   2   3
ATOM      3  C   UNL     1      -5.718  36.311  20.561  1.00  0.00     0.000 C 
BRANCH   3   4
ATOM      4  C   UNL     1      -4.805  35.456  19.670  1.00  0.00     0.000 C 
BRANCH   4   5
ATOM      5  C   UNL     1      -4.401  36.225  18.403  1.00  0.00     0.000 C 
BRANCH   5   6
ATOM      6  C   UNL     1      -3.682  37.551  18.708  1.00  0.00     0.000 C 
BRANCH   6   7
ATOM      7  C   UNL     1      -2.428  37.825  17.857  1.00  0.00     0.006 C 
BRANCH   7   8
ATOM      8  C   UNL     1      -2.237  36.802  16.729  1.00  0.00     0.053 C 
BRANCH   8   9
ATOM      9  C   UNL     1      -2.585  37.413  15.407  1.00  0.00     0.041 C 
ATOM     10  O   UNL     1      -3.447  38.328  15.339  1.00  0.00    -0.550 OA
ATOM     11  O   UNL     1      -1.994  36.936  14.245  1.00  0.00    -0.550 OA
ENDBRANCH   8   9
ENDBRANCH   7   8
ENDBRANCH   6   7
ENDBRANCH   5   6
ENDBRANCH   4   5
ENDBRANCH   3   4
ENDBRANCH   2   3
ENDBRANCH   1   2
BRANCH   1  12
ATOM     12  C   UNL     1      -5.812  35.359  24.255  1.00  0.00     0.000 C 
BRANCH  12  13
ATOM     13  C   UNL     1      -6.071  36.845  24.553  1.00  0.00    -0.000 C 
BRANCH  13  14
ATOM     14  C   UNL     1      -5.102  37.366  25.623  1.00  0.00    -0.000 C 
BRANCH  14  15
ATOM     15  C   UNL     1      -4.785  38.853  25.401  1.00  0.00    -0.000 C 
BRANCH  15  16
ATOM     16  C   UNL     1      -5.558  39.451  24.215  1.00  0.00    -0.000 C 
BRANCH  16  17
ATOM     17  C   UNL     1      -5.369  40.974  24.095  1.00  0.00    -0.000 C 
BRANCH  17  18
ATOM     18  C   UNL     1      -5.741  41.505  22.701  1.00  0.00    -0.000 C 
BRANCH  18  19
ATOM     19  C   UNL     1      -6.125  40.384  21.726  1.00  0.00    -0.003 C 
ATOM     20  C   UNL     1      -4.928  39.955  20.881  1.00  0.00     0.004 C 
ENDBRANCH  18  19
ENDBRANCH  17  18
ENDBRANCH  16  17
ENDBRANCH  15  16
ENDBRANCH  14  15
ENDBRANCH  13  14
ENDBRANCH  12  13
ENDBRANCH   1  12
TORSDOF 16
ENDMDL
MODEL 7
REMARK VINA RESULT:    -2.008      2.132      7.167
REMARK INTER + INTRA:          -5.176
REMARK INTER:                  -3.655
REMARK INTRA:                  -1.521
REMARK UNBOUND:                -1.290
REMARK SMILES CCCCCCCCCCCCCCCCCC(=O)[O-]
REMARK SMILES IDX 10 1 11 2 12 3 13 4 14 5 15 6 16 7 17 8 18 9 19 10 20 11
REMARK SMILES IDX 9 12 8 13 7 14 6 15 5 16 4 17 3 18 2 19 1 20
REMARK H PARENT
REMARK Flexibility Score: inf
ROOT
ATOM      1  C   UNL     1      -5.118  36.645  20.601  1.00  0.00     0.000 C 
ENDROOT
BRANCH   1   2
ATOM      2  C   UNL     1      -4.370  35.623  19.728  1.00  0.00     0.000 C 
BRANCH   2   3
ATOM      3  C   UNL     1      -4.737  35.736  18.239  1.00  0.00     0.000 C 
BRANCH   3   4
ATOM      4  C   UNL     1      -3.504  35.805  17.327  1.00  0.00     0.000 C 
BRANCH   4   5
ATOM      5  C   UNL     1      -3.609  36.985  16.350  1.00  0.00     0.000 C 
BRANCH   5   6
ATOM      6  C   UNL     1      -2.260  37.685  16.103  1.00  0.00     0.000 C 
BRANCH   6   7
ATOM      7  C   UNL     1      -1.131  37.284  17.070  1.00  0.00     0.006 C 
BRANCH   7   8
ATOM      8  C   UNL     1      -0.764  38.400  18.057  1.00  0.00     0.053 C 
BRANCH   8   9
ATOM      9  C   UNL     1      -1.375  38.133  19.396  1.00  0.00     0.041 C 
ATOM     10  O   UNL     1      -2.547  38.521  19.648  1.00  0.00    -0.550 OA
ATOM     11  O   UNL     1      -0.633  37.499  20.384  1.00  0.00    -0.550 OA
ENDBRANCH   8   9
ENDBRANCH   7   8
ENDBRANCH   6   7
ENDBRANCH   5   6
ENDBRANCH   4   5
ENDBRANCH   3   4
ENDBRANCH   2   3
ENDBRANCH   1   2
BRANCH   1  12
ATOM     12  C   UNL     1      -6.057  35.977  21.618  1.00  0.00     0.000 C 
BRANCH  12  13
ATOM     13  C   UNL     1      -5.323  35.506  22.884  1.00  0.00    -0.000 C 
BRANCH  13  14
ATOM     14  C   UNL     1      -5.988  36.072  24.145  1.00  0.00    -0.000 C 
BRANCH  14  15
ATOM     15  C   UNL     1      -5.053  37.054  24.868  1.00  0.00    -0.000 C 
BRANCH  15  16
ATOM     16  C   UNL     1      -5.685  38.443  25.053  1.00  0.00    -0.000 C 
BRANCH  16  17
ATOM     17  C   UNL     1      -4.988  39.526  24.210  1.00  0.00    -0.000 C 
BRANCH  17  18
ATOM     18  C   UNL     1      -5.543  39.607  22.779  1.00  0.00    -0.000 C 
BRANCH  18  19
ATOM     19  C   UNL     1      -5.844  41.048  22.344  1.00  0.00    -0.003 C 
ATOM     20  C   UNL     1      -5.930  41.980  23.549  1.00  0.00     0.004 C 
ENDBRANCH  18  19
ENDBRANCH  17  18
ENDBRANCH  16  17
ENDBRANCH  15  16
ENDBRANCH  14  15
ENDBRANCH  13  14
ENDBRANCH  12  13
ENDBRANCH   1  12
TORSDOF 16
ENDMDL
