MODEL 1
REMARK VINA RESULT:    -7.021      0.000      0.000
REMARK INTER + INTRA:         -11.477
REMARK INTER:                 -10.099
REMARK INTRA:                  -1.378
REMARK UNBOUND:                -1.378
REMARK SMILES O=c1c(O[C@H]2O[C@H](CO)[C@H](O)[C@H](O)[C@@H]2O)c(-c2ccc(O)cc2)oc2cc(O)cc(O)c12
REMARK SMILES IDX 4 1 3 2 16 3 24 4 2 5 25 6 1 7 32 8 26 9 30 10 27 11 29 12
REMARK SMILES IDX 17 13 18 14 19 15 20 16 23 17 22 18 21 19 31 21 28 23 5 25
REMARK SMILES IDX 14 26 6 27 12 28 7 29 10 30 15 31 13 33 8 35 9 36 11 38
REMARK H PARENT 21 20 31 22 28 24 15 32 13 34 9 37 11 39
REMARK Flexibility Score: inf
ROOT
ATOM      1  O   UNL     1     -15.073  38.679  -1.715  1.00  0.00    -0.454 OA
ENDROOT
BRANCH   1   2
ATOM      2  C   UNL     1     -14.077  38.851  -2.699  1.00  0.00     0.214 A 
ATOM      3  C   UNL     1     -13.191  37.780  -2.937  1.00  0.00     0.180 A 
ATOM      4  O   UNL     1     -12.204  37.908  -3.817  1.00  0.00    -0.452 OA
ATOM      5  C   UNL     1     -13.894  40.044  -3.436  1.00  0.00     0.239 A 
ATOM      6  C   UNL     1     -12.000  39.008  -4.529  1.00  0.00     0.146 A 
ATOM      7  O   UNL     1     -14.655  41.030  -3.253  1.00  0.00    -0.285 OA
ATOM      8  C   UNL     1     -12.844  40.131  -4.375  1.00  0.00     0.111 A 
ATOM      9  C   UNL     1     -10.937  39.041  -5.436  1.00  0.00     0.094 A 
ATOM     10  C   UNL     1     -12.598  41.287  -5.158  1.00  0.00     0.134 A 
ATOM     11  C   UNL     1     -10.699  40.185  -6.204  1.00  0.00     0.123 A 
ATOM     12  C   UNL     1     -11.527  41.300  -6.064  1.00  0.00     0.093 A 
BRANCH   3  13
ATOM     13  C   UNL     1     -13.305  36.495  -2.210  1.00  0.00     0.021 A 
ATOM     14  C   UNL     1     -14.060  35.450  -2.767  1.00  0.00     0.016 A 
ATOM     15  C   UNL     1     -14.188  34.233  -2.091  1.00  0.00     0.047 A 
ATOM     16  C   UNL     1     -13.577  34.050  -0.846  1.00  0.00     0.115 A 
ATOM     17  C   UNL     1     -12.713  36.315  -0.948  1.00  0.00     0.016 A 
ATOM     18  C   UNL     1     -12.841  35.096  -0.275  1.00  0.00     0.047 A 
BRANCH  16  19
ATOM     19  O   UNL     1     -13.711  32.831  -0.186  1.00  0.00    -0.508 OA
ATOM     20  H   UNL     1     -12.971  32.463   0.399  1.00  0.00     0.293 HD
ENDBRANCH  16  19
ENDBRANCH   3  13
BRANCH  10  21
ATOM     21  O   UNL     1     -13.406  42.420  -5.043  1.00  0.00    -0.507 OA
ATOM     22  H   UNL     1     -14.331  42.457  -5.452  1.00  0.00     0.293 HD
ENDBRANCH  10  21
BRANCH  11  23
ATOM     23  O   UNL     1      -9.642  40.224  -7.111  1.00  0.00    -0.508 OA
ATOM     24  H   UNL     1      -9.797  40.383  -8.100  1.00  0.00     0.293 HD
ENDBRANCH  11  23
ENDBRANCH   1   2
BRANCH   1  25
ATOM     25  C   UNL     1     -16.431  38.269  -1.909  1.00  0.00     0.339 C 
ATOM     26  C   UNL     1     -17.363  39.500  -1.845  1.00  0.00     0.214 C 
ATOM     27  O   UNL     1     -16.818  37.277  -0.966  1.00  0.00    -0.332 OA
ATOM     28  C   UNL     1     -17.479  40.036  -0.401  1.00  0.00     0.180 C 
ATOM     29  C   UNL     1     -16.729  37.756   0.366  1.00  0.00     0.179 C 
ATOM     30  C   UNL     1     -17.741  38.900   0.605  1.00  0.00     0.177 C 
BRANCH  26  31
ATOM     31  O   UNL     1     -18.630  39.218  -2.392  1.00  0.00    -0.384 OA
ATOM     32  H   UNL     1     -19.120  40.073  -2.507  1.00  0.00     0.211 HD
ENDBRANCH  26  31
BRANCH  28  33
ATOM     33  O   UNL     1     -18.493  41.004  -0.311  1.00  0.00    -0.387 OA
ATOM     34  H   UNL     1     -18.262  41.722  -0.957  1.00  0.00     0.211 HD
ENDBRANCH  28  33
BRANCH  29  35
ATOM     35  C   UNL     1     -16.967  36.578   1.323  1.00  0.00     0.191 C 
BRANCH  35  36
ATOM     36  O   UNL     1     -18.028  35.774   0.880  1.00  0.00    -0.394 OA
ATOM     37  H   UNL     1     -18.678  36.381   0.435  1.00  0.00     0.210 HD
ENDBRANCH  35  36
ENDBRANCH  29  35
BRANCH  30  38
ATOM     38  O   UNL     1     -19.056  38.416   0.478  1.00  0.00    -0.387 OA
ATOM     39  H   UNL     1     -19.576  38.781   1.240  1.00  0.00     0.211 HD
ENDBRANCH  30  38
ENDBRANCH   1  25
TORSDOF 11
ENDMDL
MODEL 2
REMARK VINA RESULT:    -6.665      1.603      4.624
REMARK INTER + INTRA:         -10.965
REMARK INTER:                  -9.343
REMARK INTRA:                  -1.622
REMARK UNBOUND:                -1.378
REMARK SMILES O=c1c(O[C@H]2O[C@H](CO)[C@H](O)[C@H](O)[C@@H]2O)c(-c2ccc(O)cc2)oc2cc(O)cc(O)c12
REMARK SMILES IDX 4 1 3 2 16 3 24 4 2 5 25 6 1 7 32 8 26 9 30 10 27 11 29 12
REMARK SMILES IDX 17 13 18 14 19 15 20 16 23 17 22 18 21 19 31 21 28 23 5 25
REMARK SMILES IDX 14 26 6 27 12 28 7 29 10 30 15 31 13 33 8 35 9 36 11 38
REMARK H PARENT 21 20 31 22 28 24 15 32 13 34 9 37 11 39
REMARK Flexibility Score: inf
ROOT
ATOM      1  O   UNL     1     -14.071  36.577  -1.661  1.00  0.00    -0.454 OA
ENDROOT
BRANCH   1   2
ATOM      2  C   UNL     1     -13.491  37.441  -2.613  1.00  0.00     0.214 A 
ATOM      3  C   UNL     1     -14.306  38.441  -3.182  1.00  0.00     0.180 A 
ATOM      4  O   UNL     1     -13.822  39.248  -4.119  1.00  0.00    -0.452 OA
ATOM      5  C   UNL     1     -12.150  37.343  -3.052  1.00  0.00     0.239 A 
ATOM      6  C   UNL     1     -12.571  39.190  -4.557  1.00  0.00     0.146 A 
ATOM      7  O   UNL     1     -11.387  36.462  -2.578  1.00  0.00    -0.285 OA
ATOM      8  C   UNL     1     -11.671  38.234  -4.037  1.00  0.00     0.111 A 
ATOM      9  C   UNL     1     -12.156  40.091  -5.543  1.00  0.00     0.094 A 
ATOM     10  C   UNL     1     -10.341  38.205  -4.526  1.00  0.00     0.134 A 
ATOM     11  C   UNL     1     -10.842  40.056  -6.022  1.00  0.00     0.123 A 
ATOM     12  C   UNL     1      -9.942  39.118  -5.513  1.00  0.00     0.093 A 
BRANCH   3  13
ATOM     13  C   UNL     1     -15.722  38.616  -2.785  1.00  0.00     0.021 A 
ATOM     14  C   UNL     1     -16.725  37.921  -3.479  1.00  0.00     0.016 A 
ATOM     15  C   UNL     1     -18.068  38.080  -3.127  1.00  0.00     0.047 A 
ATOM     16  C   UNL     1     -18.427  38.945  -2.087  1.00  0.00     0.115 A 
ATOM     17  C   UNL     1     -16.088  39.501  -1.757  1.00  0.00     0.016 A 
ATOM     18  C   UNL     1     -17.432  39.658  -1.405  1.00  0.00     0.047 A 
BRANCH  16  19
ATOM     19  O   UNL     1     -19.768  39.091  -1.744  1.00  0.00    -0.508 OA
ATOM     20  H   UNL     1     -20.458  39.392  -2.422  1.00  0.00     0.293 HD
ENDBRANCH  16  19
ENDBRANCH   3  13
BRANCH  10  21
ATOM     21  O   UNL     1      -9.415  37.280  -4.040  1.00  0.00    -0.507 OA
ATOM     22  H   UNL     1      -9.684  36.334  -3.799  1.00  0.00     0.293 HD
ENDBRANCH  10  21
BRANCH  11  23
ATOM     23  O   UNL     1     -10.421  40.952  -7.003  1.00  0.00    -0.508 OA
ATOM     24  H   UNL     1      -9.462  41.277  -7.048  1.00  0.00     0.293 HD
ENDBRANCH  11  23
ENDBRANCH   1   2
BRANCH   1  25
ATOM     25  C   UNL     1     -13.859  36.568  -0.245  1.00  0.00     0.339 C 
ATOM     26  C   UNL     1     -13.371  35.171   0.201  1.00  0.00     0.214 C 
ATOM     27  O   UNL     1     -15.030  36.957   0.462  1.00  0.00    -0.332 OA
ATOM     28  C   UNL     1     -14.510  34.132   0.124  1.00  0.00     0.180 C 
ATOM     29  C   UNL     1     -16.112  36.075   0.213  1.00  0.00     0.179 C 
ATOM     30  C   UNL     1     -15.807  34.663   0.764  1.00  0.00     0.177 C 
BRANCH  26  31
ATOM     31  O   UNL     1     -12.798  35.210   1.488  1.00  0.00    -0.384 OA
ATOM     32  H   UNL     1     -12.336  36.080   1.599  1.00  0.00     0.211 HD
ENDBRANCH  26  31
BRANCH  28  33
ATOM     33  O   UNL     1     -14.127  32.928   0.738  1.00  0.00    -0.387 OA
ATOM     34  H   UNL     1     -14.933  32.568   1.193  1.00  0.00     0.211 HD
ENDBRANCH  28  33
BRANCH  29  35
ATOM     35  C   UNL     1     -17.380  36.669   0.845  1.00  0.00     0.191 C 
BRANCH  35  36
ATOM     36  O   UNL     1     -18.291  35.660   1.193  1.00  0.00    -0.394 OA
ATOM     37  H   UNL     1     -17.884  34.799   0.908  1.00  0.00     0.210 HD
ENDBRANCH  35  36
ENDBRANCH  29  35
BRANCH  30  38
ATOM     38  O   UNL     1     -15.687  34.707   2.165  1.00  0.00    -0.387 OA
ATOM     39  H   UNL     1     -16.047  33.851   2.515  1.00  0.00     0.211 HD
ENDBRANCH  30  38
ENDBRANCH   1  25
TORSDOF 11
ENDMDL
MODEL 3
REMARK VINA RESULT:    -6.537      1.947      4.505
REMARK INTER + INTRA:         -10.781
REMARK INTER:                  -9.657
REMARK INTRA:                  -1.124
REMARK UNBOUND:                -1.378
REMARK SMILES O=c1c(O[C@H]2O[C@H](CO)[C@H](O)[C@H](O)[C@@H]2O)c(-c2ccc(O)cc2)oc2cc(O)cc(O)c12
REMARK SMILES IDX 4 1 3 2 16 3 24 4 2 5 25 6 1 7 32 8 26 9 30 10 27 11 29 12
REMARK SMILES IDX 17 13 18 14 19 15 20 16 23 17 22 18 21 19 31 21 28 23 5 25
REMARK SMILES IDX 14 26 6 27 12 28 7 29 10 30 15 31 13 33 8 35 9 36 11 38
REMARK H PARENT 21 20 31 22 28 24 15 32 13 34 9 37 11 39
REMARK Flexibility Score: inf
ROOT
ATOM      1  O   UNL     1     -14.527  37.060  -0.445  1.00  0.00    -0.454 OA
ENDROOT
BRANCH   1   2
ATOM      2  C   UNL     1     -13.861  37.547  -1.588  1.00  0.00     0.214 A 
ATOM      3  C   UNL     1     -14.624  38.228  -2.559  1.00  0.00     0.180 A 
ATOM      4  O   UNL     1     -14.054  38.663  -3.677  1.00  0.00    -0.452 OA
ATOM      5  C   UNL     1     -12.480  37.365  -1.833  1.00  0.00     0.239 A 
ATOM      6  C   UNL     1     -12.763  38.513  -3.944  1.00  0.00     0.146 A 
ATOM      7  O   UNL     1     -11.759  36.756  -0.999  1.00  0.00    -0.285 OA
ATOM      8  C   UNL     1     -11.911  37.859  -3.026  1.00  0.00     0.111 A 
ATOM      9  C   UNL     1     -12.258  39.014  -5.147  1.00  0.00     0.094 A 
ATOM     10  C   UNL     1     -10.536  37.723  -3.344  1.00  0.00     0.134 A 
ATOM     11  C   UNL     1     -10.901  38.875  -5.455  1.00  0.00     0.123 A 
ATOM     12  C   UNL     1     -10.047  38.234  -4.555  1.00  0.00     0.093 A 
BRANCH   3  13
ATOM     13  C   UNL     1     -16.076  38.462  -2.388  1.00  0.00     0.021 A 
ATOM     14  C   UNL     1     -16.991  37.705  -3.137  1.00  0.00     0.016 A 
ATOM     15  C   UNL     1     -18.366  37.917  -2.998  1.00  0.00     0.047 A 
ATOM     16  C   UNL     1     -18.842  38.898  -2.121  1.00  0.00     0.115 A 
ATOM     17  C   UNL     1     -16.559  39.462  -1.526  1.00  0.00     0.016 A 
ATOM     18  C   UNL     1     -17.934  39.672  -1.387  1.00  0.00     0.047 A 
BRANCH  16  19
ATOM     19  O   UNL     1     -20.214  39.097  -1.990  1.00  0.00    -0.508 OA
ATOM     20  H   UNL     1     -20.857  38.857  -2.735  1.00  0.00     0.293 HD
ENDBRANCH  16  19
ENDBRANCH   3  13
BRANCH  10  21
ATOM     21  O   UNL     1      -9.654  37.087  -2.468  1.00  0.00    -0.507 OA
ATOM     22  H   UNL     1      -8.815  37.543  -2.133  1.00  0.00     0.293 HD
ENDBRANCH  10  21
BRANCH  11  23
ATOM     23  O   UNL     1     -10.390  39.373  -6.652  1.00  0.00    -0.508 OA
ATOM     24  H   UNL     1      -9.933  40.276  -6.698  1.00  0.00     0.293 HD
ENDBRANCH  11  23
ENDBRANCH   1   2
BRANCH   1  25
ATOM     25  C   UNL     1     -15.496  36.008  -0.380  1.00  0.00     0.339 C 
ATOM     26  C   UNL     1     -16.635  36.406   0.587  1.00  0.00     0.214 C 
ATOM     27  O   UNL     1     -14.904  34.772  -0.001  1.00  0.00    -0.332 OA
ATOM     28  C   UNL     1     -16.155  36.378   2.054  1.00  0.00     0.180 C 
ATOM     29  C   UNL     1     -14.307  34.848   1.284  1.00  0.00     0.179 C 
ATOM     30  C   UNL     1     -15.379  35.087   2.373  1.00  0.00     0.177 C 
BRANCH  26  31
ATOM     31  O   UNL     1     -17.775  35.598   0.404  1.00  0.00    -0.384 OA
ATOM     32  H   UNL     1     -18.215  35.472   1.283  1.00  0.00     0.211 HD
ENDBRANCH  26  31
BRANCH  28  33
ATOM     33  O   UNL     1     -17.241  36.519   2.934  1.00  0.00    -0.387 OA
ATOM     34  H   UNL     1     -16.996  37.232   3.580  1.00  0.00     0.211 HD
ENDBRANCH  28  33
BRANCH  29  35
ATOM     35  C   UNL     1     -13.524  33.550   1.534  1.00  0.00     0.191 C 
BRANCH  35  36
ATOM     36  O   UNL     1     -14.332  32.424   1.320  1.00  0.00    -0.394 OA
ATOM     37  H   UNL     1     -13.776  31.630   1.539  1.00  0.00     0.210 HD
ENDBRANCH  35  36
ENDBRANCH  29  35
BRANCH  30  38
ATOM     38  O   UNL     1     -16.252  33.986   2.440  1.00  0.00    -0.387 OA
ATOM     39  H   UNL     1     -16.490  33.861   3.395  1.00  0.00     0.211 HD
ENDBRANCH  30  38
ENDBRANCH   1  25
TORSDOF 11
ENDMDL
MODEL 4
REMARK VINA RESULT:    -6.522      1.528      4.765
REMARK INTER + INTRA:         -10.760
REMARK INTER:                  -9.234
REMARK INTRA:                  -1.526
REMARK UNBOUND:                -1.378
REMARK SMILES O=c1c(O[C@H]2O[C@H](CO)[C@H](O)[C@H](O)[C@@H]2O)c(-c2ccc(O)cc2)oc2cc(O)cc(O)c12
REMARK SMILES IDX 4 1 3 2 16 3 24 4 2 5 25 6 1 7 32 8 26 9 30 10 27 11 29 12
REMARK SMILES IDX 17 13 18 14 19 15 20 16 23 17 22 18 21 19 31 21 28 23 5 25
REMARK SMILES IDX 14 26 6 27 12 28 7 29 10 30 15 31 13 33 8 35 9 36 11 38
REMARK H PARENT 21 20 31 22 28 24 15 32 13 34 9 37 11 39
REMARK Flexibility Score: inf
ROOT
ATOM      1  O   UNL     1     -13.389  36.888  -2.896  1.00  0.00    -0.454 OA
ENDROOT
BRANCH   1   2
ATOM      2  C   UNL     1     -12.995  38.047  -3.596  1.00  0.00     0.214 A 
ATOM      3  C   UNL     1     -13.921  39.106  -3.697  1.00  0.00     0.180 A 
ATOM      4  O   UNL     1     -13.618  40.199  -4.388  1.00  0.00    -0.452 OA
ATOM      5  C   UNL     1     -11.739  38.196  -4.229  1.00  0.00     0.239 A 
ATOM      6  C   UNL     1     -12.451  40.379  -4.994  1.00  0.00     0.146 A 
ATOM      7  O   UNL     1     -10.882  37.276  -4.172  1.00  0.00    -0.285 OA
ATOM      8  C   UNL     1     -11.451  39.383  -4.937  1.00  0.00     0.111 A 
ATOM      9  C   UNL     1     -12.227  41.570  -5.691  1.00  0.00     0.094 A 
ATOM     10  C   UNL     1     -10.215  39.613  -5.593  1.00  0.00     0.134 A 
ATOM     11  C   UNL     1     -11.006  41.790  -6.336  1.00  0.00     0.123 A 
ATOM     12  C   UNL     1     -10.007  40.815  -6.285  1.00  0.00     0.093 A 
BRANCH   3  13
ATOM     13  C   UNL     1     -15.260  39.035  -3.069  1.00  0.00     0.021 A 
ATOM     14  C   UNL     1     -16.296  38.350  -3.724  1.00  0.00     0.016 A 
ATOM     15  C   UNL     1     -17.570  38.281  -3.153  1.00  0.00     0.047 A 
ATOM     16  C   UNL     1     -17.828  38.907  -1.929  1.00  0.00     0.115 A 
ATOM     17  C   UNL     1     -15.531  39.683  -1.851  1.00  0.00     0.016 A 
ATOM     18  C   UNL     1     -16.805  39.611  -1.281  1.00  0.00     0.047 A 
BRANCH  16  19
ATOM     19  O   UNL     1     -19.101  38.827  -1.370  1.00  0.00    -0.508 OA
ATOM     20  H   UNL     1     -19.453  37.963  -0.976  1.00  0.00     0.293 HD
ENDBRANCH  16  19
ENDBRANCH   3  13
BRANCH  10  21
ATOM     21  O   UNL     1      -9.196  38.660  -5.562  1.00  0.00    -0.507 OA
ATOM     22  H   UNL     1      -9.166  37.891  -6.220  1.00  0.00     0.293 HD
ENDBRANCH  10  21
BRANCH  11  23
ATOM     23  O   UNL     1     -10.774  42.975  -7.031  1.00  0.00    -0.508 OA
ATOM     24  H   UNL     1     -11.457  43.352  -7.679  1.00  0.00     0.293 HD
ENDBRANCH  11  23
ENDBRANCH   1   2
BRANCH   1  25
ATOM     25  C   UNL     1     -12.962  36.463  -1.597  1.00  0.00     0.339 C 
ATOM     26  C   UNL     1     -12.449  35.007  -1.665  1.00  0.00     0.214 C 
ATOM     27  O   UNL     1     -13.998  36.603  -0.633  1.00  0.00    -0.332 OA
ATOM     28  C   UNL     1     -13.616  34.015  -1.868  1.00  0.00     0.180 C 
ATOM     29  C   UNL     1     -15.130  35.814  -0.961  1.00  0.00     0.179 C 
ATOM     30  C   UNL     1     -14.783  34.308  -0.906  1.00  0.00     0.177 C 
BRANCH  26  31
ATOM     31  O   UNL     1     -11.684  34.674  -0.530  1.00  0.00    -0.384 OA
ATOM     32  H   UNL     1     -11.040  35.408  -0.360  1.00  0.00     0.211 HD
ENDBRANCH  26  31
BRANCH  28  33
ATOM     33  O   UNL     1     -13.176  32.691  -1.705  1.00  0.00    -0.387 OA
ATOM     34  H   UNL     1     -12.202  32.687  -1.899  1.00  0.00     0.211 HD
ENDBRANCH  28  33
BRANCH  29  35
ATOM     35  C   UNL     1     -16.268  36.169   0.008  1.00  0.00     0.191 C 
BRANCH  35  36
ATOM     36  O   UNL     1     -17.515  35.810  -0.525  1.00  0.00    -0.394 OA
ATOM     37  H   UNL     1     -17.394  35.741  -1.508  1.00  0.00     0.210 HD
ENDBRANCH  35  36
ENDBRANCH  29  35
BRANCH  30  38
ATOM     38  O   UNL     1     -14.447  33.938   0.409  1.00  0.00    -0.387 OA
ATOM     39  H   UNL     1     -14.579  32.957   0.477  1.00  0.00     0.211 HD
ENDBRANCH  30  38
ENDBRANCH   1  25
TORSDOF 11
ENDMDL
MODEL 5
REMARK VINA RESULT:    -6.447      1.775      5.202
REMARK INTER + INTRA:         -10.651
REMARK INTER:                  -9.254
REMARK INTRA:                  -1.397
REMARK UNBOUND:                -1.378
REMARK SMILES O=c1c(O[C@H]2O[C@H](CO)[C@H](O)[C@H](O)[C@@H]2O)c(-c2ccc(O)cc2)oc2cc(O)cc(O)c12
REMARK SMILES IDX 4 1 3 2 16 3 24 4 2 5 25 6 1 7 32 8 26 9 30 10 27 11 29 12
REMARK SMILES IDX 17 13 18 14 19 15 20 16 23 17 22 18 21 19 31 21 28 23 5 25
REMARK SMILES IDX 14 26 6 27 12 28 7 29 10 30 15 31 13 33 8 35 9 36 11 38
REMARK H PARENT 21 20 31 22 28 24 15 32 13 34 9 37 11 39
REMARK Flexibility Score: inf
ROOT
ATOM      1  O   UNL     1     -13.284  37.172  -2.637  1.00  0.00    -0.454 OA
ENDROOT
BRANCH   1   2
ATOM      2  C   UNL     1     -12.993  38.350  -3.356  1.00  0.00     0.214 A 
ATOM      3  C   UNL     1     -13.974  39.363  -3.390  1.00  0.00     0.180 A 
ATOM      4  O   UNL     1     -13.770  40.471  -4.093  1.00  0.00    -0.452 OA
ATOM      5  C   UNL     1     -11.790  38.562  -4.068  1.00  0.00     0.239 A 
ATOM      6  C   UNL     1     -12.656  40.709  -4.774  1.00  0.00     0.146 A 
ATOM      7  O   UNL     1     -10.888  37.683  -4.073  1.00  0.00    -0.285 OA
ATOM      8  C   UNL     1     -11.607  39.763  -4.788  1.00  0.00     0.111 A 
ATOM      9  C   UNL     1     -12.535  41.911  -5.477  1.00  0.00     0.094 A 
ATOM     10  C   UNL     1     -10.429  40.054  -5.522  1.00  0.00     0.134 A 
ATOM     11  C   UNL     1     -11.371  42.191  -6.200  1.00  0.00     0.123 A 
ATOM     12  C   UNL     1     -10.326  41.266  -6.220  1.00  0.00     0.093 A 
BRANCH   3  13
ATOM     13  C   UNL     1     -15.264  39.227  -2.676  1.00  0.00     0.021 A 
ATOM     14  C   UNL     1     -16.370  38.679  -3.345  1.00  0.00     0.016 A 
ATOM     15  C   UNL     1     -17.599  38.551  -2.692  1.00  0.00     0.047 A 
ATOM     16  C   UNL     1     -17.742  38.982  -1.369  1.00  0.00     0.115 A 
ATOM     17  C   UNL     1     -15.419  39.680  -1.354  1.00  0.00     0.016 A 
ATOM     18  C   UNL     1     -16.648  39.550  -0.702  1.00  0.00     0.047 A 
BRANCH  16  19
ATOM     19  O   UNL     1     -18.971  38.845  -0.729  1.00  0.00    -0.508 OA
ATOM     20  H   UNL     1     -19.037  38.513   0.225  1.00  0.00     0.293 HD
ENDBRANCH  16  19
ENDBRANCH   3  13
BRANCH  10  21
ATOM     21  O   UNL     1      -9.365  39.151  -5.564  1.00  0.00    -0.507 OA
ATOM     22  H   UNL     1      -9.126  38.649  -6.410  1.00  0.00     0.293 HD
ENDBRANCH  10  21
BRANCH  11  23
ATOM     23  O   UNL     1     -11.243  43.388  -6.903  1.00  0.00    -0.508 OA
ATOM     24  H   UNL     1     -10.390  43.933  -6.870  1.00  0.00     0.293 HD
ENDBRANCH  11  23
ENDBRANCH   1   2
BRANCH   1  25
ATOM     25  C   UNL     1     -13.866  35.964  -3.139  1.00  0.00     0.339 C 
ATOM     26  C   UNL     1     -14.699  35.284  -2.029  1.00  0.00     0.214 C 
ATOM     27  O   UNL     1     -12.877  35.082  -3.658  1.00  0.00    -0.332 OA
ATOM     28  C   UNL     1     -13.786  34.676  -0.942  1.00  0.00     0.180 C 
ATOM     29  C   UNL     1     -11.945  34.695  -2.661  1.00  0.00     0.179 C 
ATOM     30  C   UNL     1     -12.636  33.859  -1.559  1.00  0.00     0.177 C 
BRANCH  26  31
ATOM     31  O   UNL     1     -15.579  34.321  -2.559  1.00  0.00    -0.384 OA
ATOM     32  H   UNL     1     -15.483  33.485  -2.035  1.00  0.00     0.211 HD
ENDBRANCH  26  31
BRANCH  28  33
ATOM     33  O   UNL     1     -14.530  33.872  -0.062  1.00  0.00    -0.387 OA
ATOM     34  H   UNL     1     -13.988  33.773   0.764  1.00  0.00     0.211 HD
ENDBRANCH  28  33
BRANCH  29  35
ATOM     35  C   UNL     1     -10.808  33.914  -3.337  1.00  0.00     0.191 C 
BRANCH  35  36
ATOM     36  O   UNL     1     -10.462  32.779  -2.590  1.00  0.00    -0.394 OA
ATOM     37  H   UNL     1      -9.556  32.504  -2.892  1.00  0.00     0.210 HD
ENDBRANCH  35  36
ENDBRANCH  29  35
BRANCH  30  38
ATOM     38  O   UNL     1     -13.116  32.652  -2.099  1.00  0.00    -0.387 OA
ATOM     39  H   UNL     1     -12.469  31.944  -1.848  1.00  0.00     0.211 HD
ENDBRANCH  30  38
ENDBRANCH   1  25
TORSDOF 11
ENDMDL
MODEL 6
REMARK VINA RESULT:    -6.436      1.312      1.481
REMARK INTER + INTRA:         -10.636
REMARK INTER:                  -9.059
REMARK INTRA:                  -1.576
REMARK UNBOUND:                -1.378
REMARK SMILES O=c1c(O[C@H]2O[C@H](CO)[C@H](O)[C@H](O)[C@@H]2O)c(-c2ccc(O)cc2)oc2cc(O)cc(O)c12
REMARK SMILES IDX 4 1 3 2 16 3 24 4 2 5 25 6 1 7 32 8 26 9 30 10 27 11 29 12
REMARK SMILES IDX 17 13 18 14 19 15 20 16 23 17 22 18 21 19 31 21 28 23 5 25
REMARK SMILES IDX 14 26 6 27 12 28 7 29 10 30 15 31 13 33 8 35 9 36 11 38
REMARK H PARENT 21 20 31 22 28 24 15 32 13 34 9 37 11 39
REMARK Flexibility Score: inf
ROOT
ATOM      1  O   UNL     1     -14.250  39.053  -2.656  1.00  0.00    -0.454 OA
ENDROOT
BRANCH   1   2
ATOM      2  C   UNL     1     -13.260  39.338  -3.619  1.00  0.00     0.214 A 
ATOM      3  C   UNL     1     -12.335  38.322  -3.937  1.00  0.00     0.180 A 
ATOM      4  O   UNL     1     -11.353  38.556  -4.800  1.00  0.00    -0.452 OA
ATOM      5  C   UNL     1     -13.122  40.591  -4.260  1.00  0.00     0.239 A 
ATOM      6  C   UNL     1     -11.189  39.715  -5.423  1.00  0.00     0.146 A 
ATOM      7  O   UNL     1     -13.919  41.530  -4.003  1.00  0.00    -0.285 OA
ATOM      8  C   UNL     1     -12.074  40.790  -5.185  1.00  0.00     0.111 A 
ATOM      9  C   UNL     1     -10.127  39.858  -6.321  1.00  0.00     0.094 A 
ATOM     10  C   UNL     1     -11.871  42.013  -5.874  1.00  0.00     0.134 A 
ATOM     11  C   UNL     1      -9.931  41.068  -6.996  1.00  0.00     0.123 A 
ATOM     12  C   UNL     1     -10.801  42.136  -6.772  1.00  0.00     0.093 A 
BRANCH   3  13
ATOM     13  C   UNL     1     -12.401  36.981  -3.313  1.00  0.00     0.021 A 
ATOM     14  C   UNL     1     -13.002  35.922  -4.013  1.00  0.00     0.016 A 
ATOM     15  C   UNL     1     -13.084  34.651  -3.437  1.00  0.00     0.047 A 
ATOM     16  C   UNL     1     -12.581  34.426  -2.152  1.00  0.00     0.115 A 
ATOM     17  C   UNL     1     -11.919  36.755  -2.013  1.00  0.00     0.016 A 
ATOM     18  C   UNL     1     -12.000  35.483  -1.439  1.00  0.00     0.047 A 
BRANCH  16  19
ATOM     19  O   UNL     1     -12.667  33.154  -1.592  1.00  0.00    -0.508 OA
ATOM     20  H   UNL     1     -12.170  32.366  -1.990  1.00  0.00     0.293 HD
ENDBRANCH  16  19
ENDBRANCH   3  13
BRANCH  10  21
ATOM     21  O   UNL     1     -12.721  43.102  -5.673  1.00  0.00    -0.507 OA
ATOM     22  H   UNL     1     -13.679  42.980  -5.371  1.00  0.00     0.293 HD
ENDBRANCH  10  21
BRANCH  11  23
ATOM     23  O   UNL     1      -8.875  41.217  -7.893  1.00  0.00    -0.508 OA
ATOM     24  H   UNL     1      -7.972  41.568  -7.596  1.00  0.00     0.293 HD
ENDBRANCH  11  23
ENDBRANCH   1   2
BRANCH   1  25
ATOM     25  C   UNL     1     -15.543  38.479  -2.875  1.00  0.00     0.339 C 
ATOM     26  C   UNL     1     -16.638  39.461  -2.402  1.00  0.00     0.214 C 
ATOM     27  O   UNL     1     -15.670  37.214  -2.237  1.00  0.00    -0.332 OA
ATOM     28  C   UNL     1     -16.676  39.551  -0.860  1.00  0.00     0.180 C 
ATOM     29  C   UNL     1     -15.510  37.318  -0.831  1.00  0.00     0.179 C 
ATOM     30  C   UNL     1     -16.652  38.156  -0.210  1.00  0.00     0.177 C 
BRANCH  26  31
ATOM     31  O   UNL     1     -17.901  39.122  -2.927  1.00  0.00    -0.384 OA
ATOM     32  H   UNL     1     -18.599  39.456  -2.308  1.00  0.00     0.211 HD
ENDBRANCH  26  31
BRANCH  28  33
ATOM     33  O   UNL     1     -17.809  40.264  -0.432  1.00  0.00    -0.387 OA
ATOM     34  H   UNL     1     -17.790  41.140  -0.900  1.00  0.00     0.211 HD
ENDBRANCH  28  33
BRANCH  29  35
ATOM     35  C   UNL     1     -15.462  35.900  -0.242  1.00  0.00     0.191 C 
BRANCH  35  36
ATOM     36  O   UNL     1     -15.949  35.883   1.073  1.00  0.00    -0.394 OA
ATOM     37  H   UNL     1     -16.876  36.239   1.037  1.00  0.00     0.210 HD
ENDBRANCH  35  36
ENDBRANCH  29  35
BRANCH  30  38
ATOM     38  O   UNL     1     -17.883  37.501  -0.390  1.00  0.00    -0.387 OA
ATOM     39  H   UNL     1     -17.718  36.531  -0.263  1.00  0.00     0.211 HD
ENDBRANCH  30  38
ENDBRANCH   1  25
TORSDOF 11
ENDMDL
MODEL 7
REMARK VINA RESULT:    -6.386      1.870      4.526
REMARK INTER + INTRA:         -10.564
REMARK INTER:                  -9.562
REMARK INTRA:                  -1.002
REMARK UNBOUND:                -1.378
REMARK SMILES O=c1c(O[C@H]2O[C@H](CO)[C@H](O)[C@H](O)[C@@H]2O)c(-c2ccc(O)cc2)oc2cc(O)cc(O)c12
REMARK SMILES IDX 4 1 3 2 16 3 24 4 2 5 25 6 1 7 32 8 26 9 30 10 27 11 29 12
REMARK SMILES IDX 17 13 18 14 19 15 20 16 23 17 22 18 21 19 31 21 28 23 5 25
REMARK SMILES IDX 14 26 6 27 12 28 7 29 10 30 15 31 13 33 8 35 9 36 11 38
REMARK H PARENT 21 20 31 22 28 24 15 32 13 34 9 37 11 39
REMARK Flexibility Score: inf
ROOT
ATOM      1  O   UNL     1     -14.626  36.318  -2.353  1.00  0.00    -0.454 OA
ENDROOT
BRANCH   1   2
ATOM      2  C   UNL     1     -13.990  37.313  -3.124  1.00  0.00     0.214 A 
ATOM      3  C   UNL     1     -14.751  38.434  -3.515  1.00  0.00     0.180 A 
ATOM      4  O   UNL     1     -14.213  39.375  -4.284  1.00  0.00    -0.452 OA
ATOM      5  C   UNL     1     -12.645  37.237  -3.554  1.00  0.00     0.239 A 
ATOM      6  C   UNL     1     -12.956  39.341  -4.707  1.00  0.00     0.146 A 
ATOM      7  O   UNL     1     -11.928  36.252  -3.236  1.00  0.00    -0.285 OA
ATOM      8  C   UNL     1     -12.108  38.268  -4.354  1.00  0.00     0.111 A 
ATOM      9  C   UNL     1     -12.482  40.386  -5.507  1.00  0.00     0.094 A 
ATOM     10  C   UNL     1     -10.768  38.270  -4.821  1.00  0.00     0.134 A 
ATOM     11  C   UNL     1     -11.161  40.380  -5.964  1.00  0.00     0.123 A 
ATOM     12  C   UNL     1     -10.311  39.327  -5.621  1.00  0.00     0.093 A 
BRANCH   3  13
ATOM     13  C   UNL     1     -16.166  38.597  -3.114  1.00  0.00     0.021 A 
ATOM     14  C   UNL     1     -16.511  39.588  -2.181  1.00  0.00     0.016 A 
ATOM     15  C   UNL     1     -17.841  39.750  -1.782  1.00  0.00     0.047 A 
ATOM     16  C   UNL     1     -18.839  38.916  -2.297  1.00  0.00     0.115 A 
ATOM     17  C   UNL     1     -17.169  37.746  -3.611  1.00  0.00     0.016 A 
ATOM     18  C   UNL     1     -18.498  37.911  -3.211  1.00  0.00     0.047 A 
BRANCH  16  19
ATOM     19  O   UNL     1     -20.159  39.092  -1.892  1.00  0.00    -0.508 OA
ATOM     20  H   UNL     1     -20.652  38.377  -1.371  1.00  0.00     0.293 HD
ENDBRANCH  16  19
ENDBRANCH   3  13
BRANCH  10  21
ATOM     21  O   UNL     1      -9.892  37.232  -4.497  1.00  0.00    -0.507 OA
ATOM     22  H   UNL     1      -9.024  37.403  -4.005  1.00  0.00     0.293 HD
ENDBRANCH  10  21
BRANCH  11  23
ATOM     23  O   UNL     1     -10.681  41.418  -6.761  1.00  0.00    -0.508 OA
ATOM     24  H   UNL     1     -10.199  42.214  -6.361  1.00  0.00     0.293 HD
ENDBRANCH  11  23
ENDBRANCH   1   2
BRANCH   1  25
ATOM     25  C   UNL     1     -14.181  35.755  -1.114  1.00  0.00     0.339 C 
ATOM     26  C   UNL     1     -15.355  35.028  -0.419  1.00  0.00     0.214 C 
ATOM     27  O   UNL     1     -13.608  36.743  -0.266  1.00  0.00    -0.332 OA
ATOM     28  C   UNL     1     -16.385  36.037   0.134  1.00  0.00     0.180 C 
ATOM     29  C   UNL     1     -14.544  37.756   0.067  1.00  0.00     0.179 C 
ATOM     30  C   UNL     1     -15.701  37.177   0.912  1.00  0.00     0.177 C 
BRANCH  26  31
ATOM     31  O   UNL     1     -14.898  34.156   0.588  1.00  0.00    -0.384 OA
ATOM     32  H   UNL     1     -14.720  34.686   1.406  1.00  0.00     0.211 HD
ENDBRANCH  26  31
BRANCH  28  33
ATOM     33  O   UNL     1     -17.324  35.389   0.953  1.00  0.00    -0.387 OA
ATOM     34  H   UNL     1     -16.861  34.608   1.357  1.00  0.00     0.211 HD
ENDBRANCH  28  33
BRANCH  29  35
ATOM     35  C   UNL     1     -13.802  38.877   0.812  1.00  0.00     0.191 C 
BRANCH  35  36
ATOM     36  O   UNL     1     -12.826  38.351   1.671  1.00  0.00    -0.394 OA
ATOM     37  H   UNL     1     -12.362  37.631   1.167  1.00  0.00     0.210 HD
ENDBRANCH  35  36
ENDBRANCH  29  35
BRANCH  30  38
ATOM     38  O   UNL     1     -15.212  36.712   2.146  1.00  0.00    -0.387 OA
ATOM     39  H   UNL     1     -15.987  36.652   2.763  1.00  0.00     0.211 HD
ENDBRANCH  30  38
ENDBRANCH   1  25
TORSDOF 11
ENDMDL
MODEL 8
REMARK VINA RESULT:    -6.304      1.919      4.736
REMARK INTER + INTRA:         -10.446
REMARK INTER:                  -9.470
REMARK INTRA:                  -0.976
REMARK UNBOUND:                -1.378
REMARK SMILES O=c1c(O[C@H]2O[C@H](CO)[C@H](O)[C@H](O)[C@@H]2O)c(-c2ccc(O)cc2)oc2cc(O)cc(O)c12
REMARK SMILES IDX 4 1 3 2 16 3 24 4 2 5 25 6 1 7 32 8 26 9 30 10 27 11 29 12
REMARK SMILES IDX 17 13 18 14 19 15 20 16 23 17 22 18 21 19 31 21 28 23 5 25
REMARK SMILES IDX 14 26 6 27 12 28 7 29 10 30 15 31 13 33 8 35 9 36 11 38
REMARK H PARENT 21 20 31 22 28 24 15 32 13 34 9 37 11 39
REMARK Flexibility Score: inf
ROOT
ATOM      1  O   UNL     1     -14.684  36.228  -2.149  1.00  0.00    -0.454 OA
ENDROOT
BRANCH   1   2
ATOM      2  C   UNL     1     -14.008  37.158  -2.965  1.00  0.00     0.214 A 
ATOM      3  C   UNL     1     -14.731  38.276  -3.432  1.00  0.00     0.180 A 
ATOM      4  O   UNL     1     -14.155  39.155  -4.244  1.00  0.00    -0.452 OA
ATOM      5  C   UNL     1     -12.660  37.019  -3.369  1.00  0.00     0.239 A 
ATOM      6  C   UNL     1     -12.894  39.062  -4.645  1.00  0.00     0.146 A 
ATOM      7  O   UNL     1     -11.977  36.034  -2.985  1.00  0.00    -0.285 OA
ATOM      8  C   UNL     1     -12.082  37.987  -4.219  1.00  0.00     0.111 A 
ATOM      9  C   UNL     1     -12.379  40.044  -5.496  1.00  0.00     0.094 A 
ATOM     10  C   UNL     1     -10.737  37.924  -4.664  1.00  0.00     0.134 A 
ATOM     11  C   UNL     1     -11.052  39.975  -5.932  1.00  0.00     0.123 A 
ATOM     12  C   UNL     1     -10.238  38.920  -5.515  1.00  0.00     0.093 A 
BRANCH   3  13
ATOM     13  C   UNL     1     -16.146  38.501  -3.063  1.00  0.00     0.021 A 
ATOM     14  C   UNL     1     -16.466  39.492  -2.121  1.00  0.00     0.016 A 
ATOM     15  C   UNL     1     -17.796  39.713  -1.751  1.00  0.00     0.047 A 
ATOM     16  C   UNL     1     -18.820  38.938  -2.305  1.00  0.00     0.115 A 
ATOM     17  C   UNL     1     -17.176  37.709  -3.599  1.00  0.00     0.016 A 
ATOM     18  C   UNL     1     -18.506  37.933  -3.229  1.00  0.00     0.047 A 
BRANCH  16  19
ATOM     19  O   UNL     1     -20.141  39.172  -1.930  1.00  0.00    -0.508 OA
ATOM     20  H   UNL     1     -20.490  40.110  -1.780  1.00  0.00     0.293 HD
ENDBRANCH  16  19
ENDBRANCH   3  13
BRANCH  10  21
ATOM     21  O   UNL     1      -9.896  36.882  -4.268  1.00  0.00    -0.507 OA
ATOM     22  H   UNL     1      -9.351  36.933  -3.416  1.00  0.00     0.293 HD
ENDBRANCH  10  21
BRANCH  11  23
ATOM     23  O   UNL     1     -10.531  40.952  -6.778  1.00  0.00    -0.508 OA
ATOM     24  H   UNL     1      -9.662  41.428  -6.568  1.00  0.00     0.293 HD
ENDBRANCH  11  23
ENDBRANCH   1   2
BRANCH   1  25
ATOM     25  C   UNL     1     -15.113  36.403  -0.795  1.00  0.00     0.339 C 
ATOM     26  C   UNL     1     -14.179  37.402  -0.075  1.00  0.00     0.214 C 
ATOM     27  O   UNL     1     -15.178  35.163  -0.101  1.00  0.00    -0.332 OA
ATOM     28  C   UNL     1     -12.794  36.774   0.193  1.00  0.00     0.180 C 
ATOM     29  C   UNL     1     -13.911  34.528  -0.041  1.00  0.00     0.179 C 
ATOM     30  C   UNL     1     -12.918  35.363   0.799  1.00  0.00     0.177 C 
BRANCH  26  31
ATOM     31  O   UNL     1     -14.760  37.891   1.112  1.00  0.00    -0.384 OA
ATOM     32  H   UNL     1     -15.214  37.140   1.571  1.00  0.00     0.211 HD
ENDBRANCH  26  31
BRANCH  28  33
ATOM     33  O   UNL     1     -12.031  37.597   1.039  1.00  0.00    -0.387 OA
ATOM     34  H   UNL     1     -11.544  38.235   0.454  1.00  0.00     0.211 HD
ENDBRANCH  28  33
BRANCH  29  35
ATOM     35  C   UNL     1     -14.100  33.118   0.540  1.00  0.00     0.191 C 
BRANCH  35  36
ATOM     36  O   UNL     1     -14.915  33.148   1.681  1.00  0.00    -0.394 OA
ATOM     37  H   UNL     1     -15.722  33.675   1.441  1.00  0.00     0.210 HD
ENDBRANCH  35  36
ENDBRANCH  29  35
BRANCH  30  38
ATOM     38  O   UNL     1     -13.355  35.432   2.134  1.00  0.00    -0.387 OA
ATOM     39  H   UNL     1     -12.992  34.635   2.601  1.00  0.00     0.211 HD
ENDBRANCH  30  38
ENDBRANCH   1  25
TORSDOF 11
ENDMDL
MODEL 9
REMARK VINA RESULT:    -6.274      2.113      3.059
REMARK INTER + INTRA:         -10.402
REMARK INTER:                  -9.625
REMARK INTRA:                  -0.776
REMARK UNBOUND:                -1.378
REMARK SMILES O=c1c(O[C@H]2O[C@H](CO)[C@H](O)[C@H](O)[C@@H]2O)c(-c2ccc(O)cc2)oc2cc(O)cc(O)c12
REMARK SMILES IDX 4 1 3 2 16 3 24 4 2 5 25 6 1 7 32 8 26 9 30 10 27 11 29 12
REMARK SMILES IDX 17 13 18 14 19 15 20 16 23 17 22 18 21 19 31 21 28 23 5 25
REMARK SMILES IDX 14 26 6 27 12 28 7 29 10 30 15 31 13 33 8 35 9 36 11 38
REMARK H PARENT 21 20 31 22 28 24 15 32 13 34 9 37 11 39
REMARK Flexibility Score: inf
ROOT
ATOM      1  O   UNL     1     -13.786  37.988  -1.410  1.00  0.00    -0.454 OA
ENDROOT
BRANCH   1   2
ATOM      2  C   UNL     1     -13.309  38.767  -2.484  1.00  0.00     0.214 A 
ATOM      3  C   UNL     1     -12.404  38.169  -3.385  1.00  0.00     0.180 A 
ATOM      4  O   UNL     1     -11.887  38.875  -4.384  1.00  0.00    -0.452 OA
ATOM      5  C   UNL     1     -13.660  40.121  -2.692  1.00  0.00     0.239 A 
ATOM      6  C   UNL     1     -12.191  40.145  -4.615  1.00  0.00     0.146 A 
ATOM      7  O   UNL     1     -14.459  40.701  -1.910  1.00  0.00    -0.285 OA
ATOM      8  C   UNL     1     -13.101  40.829  -3.778  1.00  0.00     0.111 A 
ATOM      9  C   UNL     1     -11.597  40.798  -5.699  1.00  0.00     0.094 A 
ATOM     10  C   UNL     1     -13.406  42.185  -4.058  1.00  0.00     0.134 A 
ATOM     11  C   UNL     1     -11.901  42.137  -5.969  1.00  0.00     0.123 A 
ATOM     12  C   UNL     1     -12.802  42.823  -5.152  1.00  0.00     0.093 A 
BRANCH   3  13
ATOM     13  C   UNL     1     -11.978  36.758  -3.244  1.00  0.00     0.021 A 
ATOM     14  C   UNL     1     -10.621  36.462  -3.038  1.00  0.00     0.016 A 
ATOM     15  C   UNL     1     -10.197  35.137  -2.912  1.00  0.00     0.047 A 
ATOM     16  C   UNL     1     -11.120  34.090  -3.005  1.00  0.00     0.115 A 
ATOM     17  C   UNL     1     -12.898  35.702  -3.360  1.00  0.00     0.016 A 
ATOM     18  C   UNL     1     -12.473  34.376  -3.233  1.00  0.00     0.047 A 
BRANCH  16  19
ATOM     19  O   UNL     1     -10.684  32.774  -2.875  1.00  0.00    -0.508 OA
ATOM     20  H   UNL     1     -10.039  32.362  -3.537  1.00  0.00     0.293 HD
ENDBRANCH  16  19
ENDBRANCH   3  13
BRANCH  10  21
ATOM     21  O   UNL     1     -14.301  42.901  -3.262  1.00  0.00    -0.507 OA
ATOM     22  H   UNL     1     -14.109  43.851  -2.967  1.00  0.00     0.293 HD
ENDBRANCH  10  21
BRANCH  11  23
ATOM     23  O   UNL     1     -11.314  42.793  -7.049  1.00  0.00    -0.508 OA
ATOM     24  H   UNL     1     -10.522  43.413  -6.925  1.00  0.00     0.293 HD
ENDBRANCH  11  23
ENDBRANCH   1   2
BRANCH   1  25
ATOM     25  C   UNL     1     -14.990  38.177  -0.660  1.00  0.00     0.339 C 
ATOM     26  C   UNL     1     -14.966  37.285   0.602  1.00  0.00     0.214 C 
ATOM     27  O   UNL     1     -16.145  37.925  -1.451  1.00  0.00    -0.332 OA
ATOM     28  C   UNL     1     -15.146  35.796   0.235  1.00  0.00     0.180 C 
ATOM     29  C   UNL     1     -16.174  36.588  -1.925  1.00  0.00     0.179 C 
ATOM     30  C   UNL     1     -16.313  35.592  -0.750  1.00  0.00     0.177 C 
BRANCH  26  31
ATOM     31  O   UNL     1     -15.924  37.701   1.548  1.00  0.00    -0.384 OA
ATOM     32  H   UNL     1     -15.452  38.126   2.308  1.00  0.00     0.211 HD
ENDBRANCH  26  31
BRANCH  28  33
ATOM     33  O   UNL     1     -15.348  35.021   1.389  1.00  0.00    -0.387 OA
ATOM     34  H   UNL     1     -14.893  34.152   1.234  1.00  0.00     0.211 HD
ENDBRANCH  28  33
BRANCH  29  35
ATOM     35  C   UNL     1     -17.334  36.452  -2.924  1.00  0.00     0.191 C 
BRANCH  35  36
ATOM     36  O   UNL     1     -17.818  35.136  -2.958  1.00  0.00    -0.394 OA
ATOM     37  H   UNL     1     -18.376  35.017  -2.145  1.00  0.00     0.210 HD
ENDBRANCH  35  36
ENDBRANCH  29  35
BRANCH  30  38
ATOM     38  O   UNL     1     -17.548  35.778  -0.104  1.00  0.00    -0.387 OA
ATOM     39  H   UNL     1     -18.224  35.946  -0.811  1.00  0.00     0.211 HD
ENDBRANCH  30  38
ENDBRANCH   1  25
TORSDOF 11
ENDMDL
