MODEL 1
REMARK VINA RESULT:    10.103      0.000      0.000
REMARK INTER + INTRA:          15.681
REMARK INTER:                  16.009
REMARK INTRA:                  -0.329
REMARK UNBOUND:                -0.329
REMARK SMILES CCCCCCCCCCCC(=O)[O-]
REMARK SMILES IDX 7 1 8 2 9 3 10 4 11 5 12 6 13 7 14 8 6 9 5 10 4 11 3 12 2 13
REMARK SMILES IDX 1 14
REMARK H PARENT
REMARK Flexibility Score: inf
ROOT
ATOM      1  C   UNL     1      -7.211 -17.165  26.671  1.00  0.00     0.000 C 
ENDROOT
BRANCH   1   2
ATOM      2  C   UNL     1      -8.442 -17.988  27.084  1.00  0.00     0.000 C 
BRANCH   2   3
ATOM      3  C   UNL     1      -9.488 -17.152  27.838  1.00  0.00     0.000 C 
BRANCH   3   4
ATOM      4  C   UNL     1      -9.538 -17.481  29.340  1.00  0.00     0.006 C 
BRANCH   4   5
ATOM      5  C   UNL     1      -8.138 -17.542  29.966  1.00  0.00     0.053 C 
BRANCH   5   6
ATOM      6  C   UNL     1      -8.193 -17.470  31.461  1.00  0.00     0.041 C 
ATOM      7  O   UNL     1      -8.723 -18.401  32.123  1.00  0.00    -0.550 OA
ATOM      8  O   UNL     1      -7.685 -16.359  32.122  1.00  0.00    -0.550 OA
ENDBRANCH   5   6
ENDBRANCH   4   5
ENDBRANCH   3   4
ENDBRANCH   2   3
ENDBRANCH   1   2
BRANCH   1   9
ATOM      9  C   UNL     1      -5.931 -18.006  26.770  1.00  0.00     0.000 C 
BRANCH   9  10
ATOM     10  C   UNL     1      -5.821 -18.980  25.586  1.00  0.00    -0.000 C 
BRANCH  10  11
ATOM     11  C   UNL     1      -4.782 -18.534  24.545  1.00  0.00    -0.000 C 
BRANCH  11  12
ATOM     12  C   UNL     1      -5.037 -19.144  23.156  1.00  0.00    -0.000 C 
BRANCH  12  13
ATOM     13  C   UNL     1      -4.365 -20.515  22.983  1.00  0.00    -0.003 C 
ATOM     14  C   UNL     1      -2.974 -20.419  22.357  1.00  0.00     0.004 C 
ENDBRANCH  12  13
ENDBRANCH  11  12
ENDBRANCH  10  11
ENDBRANCH   9  10
ENDBRANCH   1   9
TORSDOF 10
ENDMDL
MODEL 2
REMARK VINA RESULT:    10.231      4.586      8.172
REMARK INTER + INTRA:          15.883
REMARK INTER:                  16.189
REMARK INTRA:                  -0.307
REMARK UNBOUND:                -0.329
REMARK SMILES CCCCCCCCCCCC(=O)[O-]
REMARK SMILES IDX 7 1 8 2 9 3 10 4 11 5 12 6 13 7 14 8 6 9 5 10 4 11 3 12 2 13
REMARK SMILES IDX 1 14
REMARK H PARENT
REMARK Flexibility Score: inf
ROOT
ATOM      1  C   UNL     1      -6.266 -18.239  26.531  1.00  0.00     0.000 C 
ENDROOT
BRANCH   1   2
ATOM      2  C   UNL     1      -5.972 -18.264  25.023  1.00  0.00     0.000 C 
BRANCH   2   3
ATOM      3  C   UNL     1      -5.019 -19.402  24.623  1.00  0.00     0.000 C 
BRANCH   3   4
ATOM      4  C   UNL     1      -4.746 -19.440  23.109  1.00  0.00     0.006 C 
BRANCH   4   5
ATOM      5  C   UNL     1      -4.224 -20.807  22.649  1.00  0.00     0.053 C 
BRANCH   5   6
ATOM      6  C   UNL     1      -2.735 -20.804  22.478  1.00  0.00     0.041 C 
ATOM      7  O   UNL     1      -2.019 -21.606  23.135  1.00  0.00    -0.550 OA
ATOM      8  O   UNL     1      -2.137 -19.897  21.613  1.00  0.00    -0.550 OA
ENDBRANCH   5   6
ENDBRANCH   4   5
ENDBRANCH   3   4
ENDBRANCH   2   3
ENDBRANCH   1   2
BRANCH   1   9
ATOM      9  C   UNL     1      -7.271 -17.132  26.876  1.00  0.00     0.000 C 
BRANCH   9  10
ATOM     10  C   UNL     1      -8.678 -17.714  27.084  1.00  0.00    -0.000 C 
BRANCH  10  11
ATOM     11  C   UNL     1      -9.274 -17.351  28.454  1.00  0.00    -0.000 C 
BRANCH  11  12
ATOM     12  C   UNL     1      -8.260 -17.506  29.600  1.00  0.00    -0.000 C 
BRANCH  12  13
ATOM     13  C   UNL     1      -8.939 -17.643  30.972  1.00  0.00    -0.003 C 
ATOM     14  C   UNL     1      -8.046 -17.184  32.125  1.00  0.00     0.004 C 
ENDBRANCH  12  13
ENDBRANCH  11  12
ENDBRANCH  10  11
ENDBRANCH   9  10
ENDBRANCH   1   9
TORSDOF 10
ENDMDL
MODEL 3
REMARK VINA RESULT:    10.838      4.789      7.967
REMARK INTER + INTRA:          16.845
REMARK INTER:                  17.313
REMARK INTRA:                  -0.468
REMARK UNBOUND:                -0.329
REMARK SMILES CCCCCCCCCCCC(=O)[O-]
REMARK SMILES IDX 7 1 8 2 9 3 10 4 11 5 12 6 13 7 14 8 6 9 5 10 4 11 3 12 2 13
REMARK SMILES IDX 1 14
REMARK H PARENT
REMARK Flexibility Score: inf
ROOT
ATOM      1  C   UNL     1      -5.458 -18.149  26.366  1.00  0.00     0.000 C 
ENDROOT
BRANCH   1   2
ATOM      2  C   UNL     1      -6.284 -18.628  25.162  1.00  0.00     0.000 C 
BRANCH   2   3
ATOM      3  C   UNL     1      -5.501 -18.564  23.841  1.00  0.00     0.000 C 
BRANCH   3   4
ATOM      4  C   UNL     1      -4.230 -19.432  23.865  1.00  0.00     0.006 C 
BRANCH   4   5
ATOM      5  C   UNL     1      -4.138 -20.358  22.645  1.00  0.00     0.053 C 
BRANCH   5   6
ATOM      6  C   UNL     1      -2.721 -20.738  22.342  1.00  0.00     0.041 C 
ATOM      7  O   UNL     1      -2.160 -21.664  22.986  1.00  0.00    -0.550 OA
ATOM      8  O   UNL     1      -2.011 -20.051  21.366  1.00  0.00    -0.550 OA
ENDBRANCH   5   6
ENDBRANCH   4   5
ENDBRANCH   3   4
ENDBRANCH   2   3
ENDBRANCH   1   2
BRANCH   1   9
ATOM      9  C   UNL     1      -6.363 -17.540  27.445  1.00  0.00     0.000 C 
BRANCH   9  10
ATOM     10  C   UNL     1      -7.741 -17.180  26.867  1.00  0.00    -0.000 C 
BRANCH  10  11
ATOM     11  C   UNL     1      -8.888 -17.449  27.854  1.00  0.00    -0.000 C 
BRANCH  11  12
ATOM     12  C   UNL     1      -9.995 -16.384  27.779  1.00  0.00    -0.000 C 
BRANCH  12  13
ATOM     13  C   UNL     1      -9.707 -15.310  26.717  1.00  0.00    -0.003 C 
ATOM     14  C   UNL     1     -10.695 -14.145  26.768  1.00  0.00     0.004 C 
ENDBRANCH  12  13
ENDBRANCH  11  12
ENDBRANCH  10  11
ENDBRANCH   9  10
ENDBRANCH   1   9
TORSDOF 10
ENDMDL
MODEL 4
REMARK VINA RESULT:    11.420      2.442      4.270
REMARK INTER + INTRA:          17.768
REMARK INTER:                  18.159
REMARK INTRA:                  -0.391
REMARK UNBOUND:                -0.329
REMARK SMILES CCCCCCCCCCCC(=O)[O-]
REMARK SMILES IDX 7 1 8 2 9 3 10 4 11 5 12 6 13 7 14 8 6 9 5 10 4 11 3 12 2 13
REMARK SMILES IDX 1 14
REMARK H PARENT
REMARK Flexibility Score: inf
ROOT
ATOM      1  C   UNL     1      -4.778 -20.008  24.043  1.00  0.00     0.000 C 
ENDROOT
BRANCH   1   2
ATOM      2  C   UNL     1      -5.404 -18.642  24.364  1.00  0.00     0.000 C 
BRANCH   2   3
ATOM      3  C   UNL     1      -5.890 -18.539  25.819  1.00  0.00     0.000 C 
BRANCH   3   4
ATOM      4  C   UNL     1      -7.199 -17.741  25.950  1.00  0.00     0.006 C 
BRANCH   4   5
ATOM      5  C   UNL     1      -7.413 -17.211  27.373  1.00  0.00     0.053 C 
BRANCH   5   6
ATOM      6  C   UNL     1      -8.862 -17.214  27.756  1.00  0.00     0.041 C 
ATOM      7  O   UNL     1      -9.341 -18.172  28.419  1.00  0.00    -0.550 OA
ATOM      8  O   UNL     1      -9.689 -16.173  27.355  1.00  0.00    -0.550 OA
ENDBRANCH   5   6
ENDBRANCH   4   5
ENDBRANCH   3   4
ENDBRANCH   2   3
ENDBRANCH   1   2
BRANCH   1   9
ATOM      9  C   UNL     1      -4.294 -20.061  22.588  1.00  0.00     0.000 C 
BRANCH   9  10
ATOM     10  C   UNL     1      -3.061 -20.968  22.452  1.00  0.00    -0.000 C 
BRANCH  10  11
ATOM     11  C   UNL     1      -1.755 -20.174  22.288  1.00  0.00    -0.000 C 
BRANCH  11  12
ATOM     12  C   UNL     1      -1.166 -19.720  23.635  1.00  0.00    -0.000 C 
BRANCH  12  13
ATOM     13  C   UNL     1      -0.279 -18.473  23.498  1.00  0.00    -0.003 C 
ATOM     14  C   UNL     1      -0.636 -17.378  24.503  1.00  0.00     0.004 C 
ENDBRANCH  12  13
ENDBRANCH  11  12
ENDBRANCH  10  11
ENDBRANCH   9  10
ENDBRANCH   1   9
TORSDOF 10
ENDMDL
MODEL 5
REMARK VINA RESULT:    11.741      4.620      7.711
REMARK INTER + INTRA:          18.275
REMARK INTER:                  18.792
REMARK INTRA:                  -0.517
REMARK UNBOUND:                -0.329
REMARK SMILES CCCCCCCCCCCC(=O)[O-]
REMARK SMILES IDX 7 1 8 2 9 3 10 4 11 5 12 6 13 7 14 8 6 9 5 10 4 11 3 12 2 13
REMARK SMILES IDX 1 14
REMARK H PARENT
REMARK Flexibility Score: inf
ROOT
ATOM      1  C   UNL     1      -5.765 -18.274  26.144  1.00  0.00     0.000 C 
ENDROOT
BRANCH   1   2
ATOM      2  C   UNL     1      -5.100 -17.562  27.333  1.00  0.00     0.000 C 
BRANCH   2   3
ATOM      3  C   UNL     1      -3.583 -17.804  27.396  1.00  0.00     0.000 C 
BRANCH   3   4
ATOM      4  C   UNL     1      -2.926 -17.805  26.005  1.00  0.00     0.006 C 
BRANCH   4   5
ATOM      5  C   UNL     1      -1.394 -17.800  26.088  1.00  0.00     0.053 C 
BRANCH   5   6
ATOM      6  C   UNL     1      -0.764 -18.044  24.751  1.00  0.00     0.041 C 
ATOM      7  O   UNL     1      -0.437 -17.074  24.017  1.00  0.00    -0.550 OA
ATOM      8  O   UNL     1      -0.563 -19.344  24.304  1.00  0.00    -0.550 OA
ENDBRANCH   5   6
ENDBRANCH   4   5
ENDBRANCH   3   4
ENDBRANCH   2   3
ENDBRANCH   1   2
BRANCH   1   9
ATOM      9  C   UNL     1      -7.256 -17.922  26.059  1.00  0.00     0.000 C 
BRANCH   9  10
ATOM     10  C   UNL     1      -7.725 -17.204  27.335  1.00  0.00    -0.000 C 
BRANCH  10  11
ATOM     11  C   UNL     1      -8.938 -17.885  27.989  1.00  0.00    -0.000 C 
BRANCH  11  12
ATOM     12  C   UNL     1      -9.255 -17.318  29.383  1.00  0.00    -0.000 C 
BRANCH  12  13
ATOM     13  C   UNL     1      -8.095 -17.507  30.373  1.00  0.00    -0.003 C 
ATOM     14  C   UNL     1      -8.529 -17.365  31.831  1.00  0.00     0.004 C 
ENDBRANCH  12  13
ENDBRANCH  11  12
ENDBRANCH  10  11
ENDBRANCH   9  10
ENDBRANCH   1   9
TORSDOF 10
ENDMDL
