MODEL 1
REMARK VINA RESULT:     0.440      0.000      0.000
REMARK INTER + INTRA:           0.047
REMARK INTER:                   0.800
REMARK INTRA:                  -0.753
REMARK UNBOUND:                -0.753
REMARK SMILES CCCCCCCCCCCCCCCC(=O)[O-]
REMARK SMILES IDX 9 1 10 2 11 3 12 4 13 5 14 6 15 7 16 8 17 9 18 10 8 11 7 12
REMARK SMILES IDX 6 13 5 14 4 15 3 16 2 17 1 18
REMARK H PARENT
REMARK Flexibility Score: inf
ROOT
ATOM      1  C   UNL     1      92.578  16.172 119.227  1.00  0.00     0.000 C 
ENDROOT
BRANCH   1   2
ATOM      2  C   UNL     1      93.927  15.935 118.521  1.00  0.00     0.000 C 
BRANCH   2   3
ATOM      3  C   UNL     1      94.968  15.209 119.401  1.00  0.00     0.000 C 
BRANCH   3   4
ATOM      4  C   UNL     1      94.407  14.822 120.780  1.00  0.00     0.000 C 
BRANCH   4   5
ATOM      5  C   UNL     1      94.638  13.341 121.125  1.00  0.00     0.000 C 
BRANCH   5   6
ATOM      6  C   UNL     1      93.361  12.478 121.021  1.00  0.00     0.006 C 
BRANCH   6   7
ATOM      7  C   UNL     1      93.682  10.996 120.791  1.00  0.00     0.053 C 
BRANCH   7   8
ATOM      8  C   UNL     1      92.432  10.228 120.499  1.00  0.00     0.041 C 
ATOM      9  O   UNL     1      91.314  10.807 120.518  1.00  0.00    -0.550 OA
ATOM     10  O   UNL     1      92.505   8.885 120.155  1.00  0.00    -0.550 OA
ENDBRANCH   7   8
ENDBRANCH   6   7
ENDBRANCH   5   6
ENDBRANCH   4   5
ENDBRANCH   3   4
ENDBRANCH   2   3
ENDBRANCH   1   2
BRANCH   1  11
ATOM     11  C   UNL     1      92.103  17.637 119.240  1.00  0.00     0.000 C 
BRANCH  11  12
ATOM     12  C   UNL     1      91.893  18.243 120.644  1.00  0.00    -0.000 C 
BRANCH  12  13
ATOM     13  C   UNL     1      90.431  18.280 121.124  1.00  0.00    -0.000 C 
BRANCH  13  14
ATOM     14  C   UNL     1      89.420  18.196 119.968  1.00  0.00    -0.000 C 
BRANCH  14  15
ATOM     15  C   UNL     1      88.055  18.798 120.334  1.00  0.00    -0.000 C 
BRANCH  15  16
ATOM     16  C   UNL     1      87.022  17.725 120.721  1.00  0.00    -0.000 C 
BRANCH  16  17
ATOM     17  C   UNL     1      85.599  18.290 120.835  1.00  0.00    -0.003 C 
ATOM     18  C   UNL     1      84.523  17.210 120.721  1.00  0.00     0.004 C 
ENDBRANCH  16  17
ENDBRANCH  15  16
ENDBRANCH  14  15
ENDBRANCH  13  14
ENDBRANCH  12  13
ENDBRANCH  11  12
ENDBRANCH   1  11
TORSDOF 14
ENDMDL
MODEL 2
REMARK VINA RESULT:     1.485      3.623      7.962
REMARK INTER + INTRA:           1.947
REMARK INTER:                   2.569
REMARK INTRA:                  -0.623
REMARK UNBOUND:                -0.753
REMARK SMILES CCCCCCCCCCCCCCCC(=O)[O-]
REMARK SMILES IDX 9 1 10 2 11 3 12 4 13 5 14 6 15 7 16 8 17 9 18 10 8 11 7 12
REMARK SMILES IDX 6 13 5 14 4 15 3 16 2 17 1 18
REMARK H PARENT
REMARK Flexibility Score: inf
ROOT
ATOM      1  C   UNL     1      92.045  17.030 119.521  1.00  0.00     0.000 C 
ENDROOT
BRANCH   1   2
ATOM      2  C   UNL     1      91.274  18.364 119.511  1.00  0.00     0.000 C 
BRANCH   2   3
ATOM      3  C   UNL     1      90.691  18.753 120.887  1.00  0.00     0.000 C 
BRANCH   3   4
ATOM      4  C   UNL     1      89.293  18.158 121.125  1.00  0.00     0.000 C 
BRANCH   4   5
ATOM      5  C   UNL     1      88.229  18.735 120.175  1.00  0.00     0.000 C 
BRANCH   5   6
ATOM      6  C   UNL     1      86.819  18.808 120.801  1.00  0.00     0.006 C 
BRANCH   6   7
ATOM      7  C   UNL     1      86.139  17.434 120.855  1.00  0.00     0.053 C 
BRANCH   7   8
ATOM      8  C   UNL     1      84.658  17.577 120.698  1.00  0.00     0.041 C 
ATOM      9  O   UNL     1      84.094  18.668 120.971  1.00  0.00    -0.550 OA
ATOM     10  O   UNL     1      83.906  16.519 120.202  1.00  0.00    -0.550 OA
ENDBRANCH   7   8
ENDBRANCH   6   7
ENDBRANCH   5   6
ENDBRANCH   4   5
ENDBRANCH   3   4
ENDBRANCH   2   3
ENDBRANCH   1   2
BRANCH   1  11
ATOM     11  C   UNL     1      93.284  17.003 120.435  1.00  0.00     0.000 C 
BRANCH  11  12
ATOM     12  C   UNL     1      93.595  15.634 121.074  1.00  0.00    -0.000 C 
BRANCH  12  13
ATOM     13  C   UNL     1      94.915  14.987 120.617  1.00  0.00    -0.000 C 
BRANCH  13  14
ATOM     14  C   UNL     1      94.756  13.502 120.247  1.00  0.00    -0.000 C 
BRANCH  14  15
ATOM     15  C   UNL     1      93.717  12.785 121.123  1.00  0.00    -0.000 C 
BRANCH  15  16
ATOM     16  C   UNL     1      93.380  11.377 120.604  1.00  0.00    -0.000 C 
BRANCH  16  17
ATOM     17  C   UNL     1      91.881  11.055 120.703  1.00  0.00    -0.003 C 
ATOM     18  C   UNL     1      91.531   9.687 120.119  1.00  0.00     0.004 C 
ENDBRANCH  16  17
ENDBRANCH  15  16
ENDBRANCH  14  15
ENDBRANCH  13  14
ENDBRANCH  12  13
ENDBRANCH  11  12
ENDBRANCH   1  11
TORSDOF 14
ENDMDL
MODEL 3
REMARK VINA RESULT:     2.491      4.472      9.014
REMARK INTER + INTRA:           3.776
REMARK INTER:                   3.955
REMARK INTRA:                  -0.178
REMARK UNBOUND:                -0.753
REMARK SMILES CCCCCCCCCCCCCCCC(=O)[O-]
REMARK SMILES IDX 9 1 10 2 11 3 12 4 13 5 14 6 15 7 16 8 17 9 18 10 8 11 7 12
REMARK SMILES IDX 6 13 5 14 4 15 3 16 2 17 1 18
REMARK H PARENT
REMARK Flexibility Score: inf
ROOT
ATOM      1  C   UNL     1      89.132  17.907 121.116  1.00  0.00     0.000 C 
ENDROOT
BRANCH   1   2
ATOM      2  C   UNL     1      88.639  19.123 120.310  1.00  0.00     0.000 C 
BRANCH   2   3
ATOM      3  C   UNL     1      87.544  19.941 121.029  1.00  0.00     0.000 C 
BRANCH   3   4
ATOM      4  C   UNL     1      86.208  19.184 121.122  1.00  0.00     0.000 C 
BRANCH   4   5
ATOM      5  C   UNL     1      86.209  17.870 120.323  1.00  0.00     0.000 C 
BRANCH   5   6
ATOM      6  C   UNL     1      84.961  16.996 120.573  1.00  0.00     0.006 C 
BRANCH   6   7
ATOM      7  C   UNL     1      83.785  17.812 121.125  1.00  0.00     0.053 C 
BRANCH   7   8
ATOM      8  C   UNL     1      82.692  17.909 120.108  1.00  0.00     0.041 C 
ATOM      9  O   UNL     1      82.709  17.173 119.087  1.00  0.00    -0.550 OA
ATOM     10  O   UNL     1      81.628  18.777 120.313  1.00  0.00    -0.550 OA
ENDBRANCH   7   8
ENDBRANCH   6   7
ENDBRANCH   5   6
ENDBRANCH   4   5
ENDBRANCH   3   4
ENDBRANCH   2   3
ENDBRANCH   1   2
BRANCH   1  11
ATOM     11  C   UNL     1      90.658  17.699 121.109  1.00  0.00     0.000 C 
BRANCH  11  12
ATOM     12  C   UNL     1      91.360  18.058 119.783  1.00  0.00    -0.000 C 
BRANCH  12  13
ATOM     13  C   UNL     1      92.827  17.606 119.681  1.00  0.00    -0.000 C 
BRANCH  13  14
ATOM     14  C   UNL     1      93.298  16.820 120.917  1.00  0.00    -0.000 C 
BRANCH  14  15
ATOM     15  C   UNL     1      93.828  15.423 120.560  1.00  0.00    -0.000 C 
BRANCH  15  16
ATOM     16  C   UNL     1      95.350  15.412 120.331  1.00  0.00    -0.000 C 
BRANCH  16  17
ATOM     17  C   UNL     1      95.966  16.817 120.391  1.00  0.00    -0.003 C 
ATOM     18  C   UNL     1      97.068  17.025 119.353  1.00  0.00     0.004 C 
ENDBRANCH  16  17
ENDBRANCH  15  16
ENDBRANCH  14  15
ENDBRANCH  13  14
ENDBRANCH  12  13
ENDBRANCH  11  12
ENDBRANCH   1  11
TORSDOF 14
ENDMDL
MODEL 4
REMARK VINA RESULT:     3.156      5.084      9.663
REMARK INTER + INTRA:           4.985
REMARK INTER:                   5.584
REMARK INTRA:                  -0.598
REMARK UNBOUND:                -0.753
REMARK SMILES CCCCCCCCCCCCCCCC(=O)[O-]
REMARK SMILES IDX 9 1 10 2 11 3 12 4 13 5 14 6 15 7 16 8 17 9 18 10 8 11 7 12
REMARK SMILES IDX 6 13 5 14 4 15 3 16 2 17 1 18
REMARK H PARENT
REMARK Flexibility Score: inf
ROOT
ATOM      1  C   UNL     1      87.996  18.422 120.058  1.00  0.00     0.000 C 
ENDROOT
BRANCH   1   2
ATOM      2  C   UNL     1      86.629  18.193 120.730  1.00  0.00     0.000 C 
BRANCH   2   3
ATOM      3  C   UNL     1      85.883  16.946 120.208  1.00  0.00     0.000 C 
BRANCH   3   4
ATOM      4  C   UNL     1      84.485  16.791 120.830  1.00  0.00     0.000 C 
BRANCH   4   5
ATOM      5  C   UNL     1      83.670  18.096 120.800  1.00  0.00     0.000 C 
BRANCH   5   6
ATOM      6  C   UNL     1      82.350  17.979 120.008  1.00  0.00     0.006 C 
BRANCH   6   7
ATOM      7  C   UNL     1      82.579  17.506 118.567  1.00  0.00     0.053 C 
BRANCH   7   8
ATOM      8  C   UNL     1      81.499  18.021 117.669  1.00  0.00     0.041 C 
ATOM      9  O   UNL     1      81.290  19.259 117.575  1.00  0.00    -0.550 OA
ATOM     10  O   UNL     1      80.757  17.138 116.896  1.00  0.00    -0.550 OA
ENDBRANCH   7   8
ENDBRANCH   6   7
ENDBRANCH   5   6
ENDBRANCH   4   5
ENDBRANCH   3   4
ENDBRANCH   2   3
ENDBRANCH   1   2
BRANCH   1  11
ATOM     11  C   UNL     1      89.096  18.962 120.992  1.00  0.00     0.000 C 
BRANCH  11  12
ATOM     12  C   UNL     1      90.341  18.061 121.125  1.00  0.00    -0.000 C 
BRANCH  12  13
ATOM     13  C   UNL     1      90.995  17.655 119.793  1.00  0.00    -0.000 C 
BRANCH  13  14
ATOM     14  C   UNL     1      92.533  17.682 119.850  1.00  0.00    -0.000 C 
BRANCH  14  15
ATOM     15  C   UNL     1      93.106  16.612 120.792  1.00  0.00    -0.000 C 
BRANCH  15  16
ATOM     16  C   UNL     1      93.987  15.589 120.054  1.00  0.00    -0.000 C 
BRANCH  16  17
ATOM     17  C   UNL     1      95.414  16.103 119.816  1.00  0.00    -0.003 C 
ATOM     18  C   UNL     1      96.131  16.479 121.112  1.00  0.00     0.004 C 
ENDBRANCH  16  17
ENDBRANCH  15  16
ENDBRANCH  14  15
ENDBRANCH  13  14
ENDBRANCH  12  13
ENDBRANCH  11  12
ENDBRANCH   1  11
TORSDOF 14
ENDMDL
