MODEL 1
REMARK VINA RESULT:    -3.938      0.000      0.000
REMARK INTER + INTRA:          -7.109
REMARK INTER:                  -6.240
REMARK INTRA:                  -0.869
REMARK UNBOUND:                -0.869
REMARK SMILES CCCCCCCCCCCC(=O)[O-]
REMARK SMILES IDX 7 1 8 2 9 3 10 4 11 5 12 6 13 7 14 8 6 9 5 10 4 11 3 12 2 13
REMARK SMILES IDX 1 14
REMARK H PARENT
REMARK Flexibility Score: inf
ROOT
ATOM      1  C   UNL     1      44.848  26.054   4.131  1.00  0.00     0.000 C 
ENDROOT
BRANCH   1   2
ATOM      2  C   UNL     1      44.247  26.832   2.947  1.00  0.00     0.000 C 
BRANCH   2   3
ATOM      3  C   UNL     1      44.420  28.360   3.015  1.00  0.00     0.000 C 
BRANCH   3   4
ATOM      4  C   UNL     1      45.379  28.904   1.944  1.00  0.00     0.006 C 
BRANCH   4   5
ATOM      5  C   UNL     1      45.844  27.809   0.973  1.00  0.00     0.053 C 
BRANCH   5   6
ATOM      6  C   UNL     1      45.588  28.188  -0.454  1.00  0.00     0.041 C 
ATOM      7  O   UNL     1      45.662  27.320  -1.363  1.00  0.00    -0.550 OA
ATOM      8  O   UNL     1      45.241  29.493  -0.776  1.00  0.00    -0.550 OA
ENDBRANCH   5   6
ENDBRANCH   4   5
ENDBRANCH   3   4
ENDBRANCH   2   3
ENDBRANCH   1   2
BRANCH   1   9
ATOM      9  C   UNL     1      46.384  26.031   4.117  1.00  0.00     0.000 C 
BRANCH   9  10
ATOM     10  C   UNL     1      46.958  26.816   5.302  1.00  0.00    -0.000 C 
BRANCH  10  11
ATOM     11  C   UNL     1      45.949  26.881   6.458  1.00  0.00    -0.000 C 
BRANCH  11  12
ATOM     12  C   UNL     1      45.941  28.248   7.161  1.00  0.00    -0.000 C 
BRANCH  12  13
ATOM     13  C   UNL     1      45.239  28.207   8.526  1.00  0.00    -0.003 C 
ATOM     14  C   UNL     1      45.367  26.827   9.168  1.00  0.00     0.004 C 
ENDBRANCH  12  13
ENDBRANCH  11  12
ENDBRANCH  10  11
ENDBRANCH   9  10
ENDBRANCH   1   9
TORSDOF 10
ENDMDL
MODEL 2
REMARK VINA RESULT:    -3.801      1.128      2.006
REMARK INTER + INTRA:          -6.892
REMARK INTER:                  -5.981
REMARK INTRA:                  -0.911
REMARK UNBOUND:                -0.869
REMARK SMILES CCCCCCCCCCCC(=O)[O-]
REMARK SMILES IDX 7 1 8 2 9 3 10 4 11 5 12 6 13 7 14 8 6 9 5 10 4 11 3 12 2 13
REMARK SMILES IDX 1 14
REMARK H PARENT
REMARK Flexibility Score: inf
ROOT
ATOM      1  C   UNL     1      45.742  26.418   5.659  1.00  0.00     0.000 C 
ENDROOT
BRANCH   1   2
ATOM      2  C   UNL     1      45.743  26.078   4.157  1.00  0.00     0.000 C 
BRANCH   2   3
ATOM      3  C   UNL     1      44.439  26.415   3.412  1.00  0.00     0.000 C 
BRANCH   3   4
ATOM      4  C   UNL     1      44.427  27.842   2.838  1.00  0.00     0.006 C 
BRANCH   4   5
ATOM      5  C   UNL     1      45.814  28.280   2.347  1.00  0.00     0.053 C 
BRANCH   5   6
ATOM      6  C   UNL     1      46.010  27.978   0.892  1.00  0.00     0.041 C 
ATOM      7  O   UNL     1      47.009  28.435   0.278  1.00  0.00    -0.550 OA
ATOM      8  O   UNL     1      45.102  27.167   0.222  1.00  0.00    -0.550 OA
ENDBRANCH   5   6
ENDBRANCH   4   5
ENDBRANCH   3   4
ENDBRANCH   2   3
ENDBRANCH   1   2
BRANCH   1   9
ATOM      9  C   UNL     1      46.727  27.540   6.021  1.00  0.00     0.000 C 
BRANCH   9  10
ATOM     10  C   UNL     1      45.986  28.852   6.307  1.00  0.00    -0.000 C 
BRANCH  10  11
ATOM     11  C   UNL     1      46.232  29.319   7.749  1.00  0.00    -0.000 C 
BRANCH  11  12
ATOM     12  C   UNL     1      44.962  29.262   8.614  1.00  0.00    -0.000 C 
BRANCH  12  13
ATOM     13  C   UNL     1      45.115  28.332   9.826  1.00  0.00    -0.003 C 
ATOM     14  C   UNL     1      45.234  26.874   9.389  1.00  0.00     0.004 C 
ENDBRANCH  12  13
ENDBRANCH  11  12
ENDBRANCH  10  11
ENDBRANCH   9  10
ENDBRANCH   1   9
TORSDOF 10
ENDMDL
MODEL 3
REMARK VINA RESULT:    -3.754      4.340      7.016
REMARK INTER + INTRA:          -6.818
REMARK INTER:                  -5.827
REMARK INTRA:                  -0.991
REMARK UNBOUND:                -0.869
REMARK SMILES CCCCCCCCCCCC(=O)[O-]
REMARK SMILES IDX 7 1 8 2 9 3 10 4 11 5 12 6 13 7 14 8 6 9 5 10 4 11 3 12 2 13
REMARK SMILES IDX 1 14
REMARK H PARENT
REMARK Flexibility Score: inf
ROOT
ATOM      1  C   UNL     1      46.358  28.768   6.050  1.00  0.00     0.000 C 
ENDROOT
BRANCH   1   2
ATOM      2  C   UNL     1      45.426  29.713   6.829  1.00  0.00     0.000 C 
BRANCH   2   3
ATOM      3  C   UNL     1      45.797  29.924   8.308  1.00  0.00     0.000 C 
BRANCH   3   4
ATOM      4  C   UNL     1      44.765  29.324   9.276  1.00  0.00     0.006 C 
BRANCH   4   5
ATOM      5  C   UNL     1      45.429  28.585  10.447  1.00  0.00     0.053 C 
BRANCH   5   6
ATOM      6  C   UNL     1      45.867  27.206  10.057  1.00  0.00     0.041 C 
ATOM      7  O   UNL     1      47.051  26.833  10.265  1.00  0.00    -0.550 OA
ATOM      8  O   UNL     1      44.958  26.322   9.489  1.00  0.00    -0.550 OA
ENDBRANCH   5   6
ENDBRANCH   4   5
ENDBRANCH   3   4
ENDBRANCH   2   3
ENDBRANCH   1   2
BRANCH   1   9
ATOM      9  C   UNL     1      46.047  27.283   6.295  1.00  0.00     0.000 C 
BRANCH   9  10
ATOM     10  C   UNL     1      46.833  26.389   5.328  1.00  0.00    -0.000 C 
BRANCH  10  11
ATOM     11  C   UNL     1      46.305  26.533   3.894  1.00  0.00    -0.000 C 
BRANCH  11  12
ATOM     12  C   UNL     1      44.839  26.092   3.756  1.00  0.00    -0.000 C 
BRANCH  12  13
ATOM     13  C   UNL     1      43.986  27.109   2.984  1.00  0.00    -0.003 C 
ATOM     14  C   UNL     1      44.790  28.365   2.658  1.00  0.00     0.004 C 
ENDBRANCH  12  13
ENDBRANCH  11  12
ENDBRANCH  10  11
ENDBRANCH   9  10
ENDBRANCH   1   9
TORSDOF 10
ENDMDL
MODEL 4
REMARK VINA RESULT:    -3.734      0.846      1.398
REMARK INTER + INTRA:          -6.786
REMARK INTER:                  -6.177
REMARK INTRA:                  -0.609
REMARK UNBOUND:                -0.869
REMARK SMILES CCCCCCCCCCCC(=O)[O-]
REMARK SMILES IDX 7 1 8 2 9 3 10 4 11 5 12 6 13 7 14 8 6 9 5 10 4 11 3 12 2 13
REMARK SMILES IDX 1 14
REMARK H PARENT
REMARK Flexibility Score: inf
ROOT
ATOM      1  C   UNL     1      44.271  26.883   3.006  1.00  0.00     0.000 C 
ENDROOT
BRANCH   1   2
ATOM      2  C   UNL     1      44.409  28.411   3.137  1.00  0.00     0.000 C 
BRANCH   2   3
ATOM      3  C   UNL     1      45.049  29.114   1.926  1.00  0.00     0.000 C 
BRANCH   3   4
ATOM      4  C   UNL     1      45.637  28.129   0.903  1.00  0.00     0.006 C 
BRANCH   4   5
ATOM      5  C   UNL     1      45.979  28.811  -0.429  1.00  0.00     0.053 C 
BRANCH   5   6
ATOM      6  C   UNL     1      45.551  27.985  -1.603  1.00  0.00     0.041 C 
ATOM      7  O   UNL     1      45.801  28.370  -2.775  1.00  0.00    -0.550 OA
ATOM      8  O   UNL     1      44.901  26.774  -1.402  1.00  0.00    -0.550 OA
ENDBRANCH   5   6
ENDBRANCH   4   5
ENDBRANCH   3   4
ENDBRANCH   2   3
ENDBRANCH   1   2
BRANCH   1   9
ATOM      9  C   UNL     1      44.967  26.119   4.143  1.00  0.00     0.000 C 
BRANCH   9  10
ATOM     10  C   UNL     1      46.058  26.976   4.796  1.00  0.00    -0.000 C 
BRANCH  10  11
ATOM     11  C   UNL     1      46.060  26.796   6.320  1.00  0.00    -0.000 C 
BRANCH  11  12
ATOM     12  C   UNL     1      46.131  28.133   7.075  1.00  0.00    -0.000 C 
BRANCH  12  13
ATOM     13  C   UNL     1      45.294  28.132   8.362  1.00  0.00    -0.003 C 
ATOM     14  C   UNL     1      45.436  26.807   9.107  1.00  0.00     0.004 C 
ENDBRANCH  12  13
ENDBRANCH  11  12
ENDBRANCH  10  11
ENDBRANCH   9  10
ENDBRANCH   1   9
TORSDOF 10
ENDMDL
MODEL 5
REMARK VINA RESULT:    -3.636      4.114      7.032
REMARK INTER + INTRA:          -6.630
REMARK INTER:                  -5.859
REMARK INTRA:                  -0.771
REMARK UNBOUND:                -0.869
REMARK SMILES CCCCCCCCCCCC(=O)[O-]
REMARK SMILES IDX 7 1 8 2 9 3 10 4 11 5 12 6 13 7 14 8 6 9 5 10 4 11 3 12 2 13
REMARK SMILES IDX 1 14
REMARK H PARENT
REMARK Flexibility Score: inf
ROOT
ATOM      1  C   UNL     1      45.092  25.995   4.207  1.00  0.00     0.000 C 
ENDROOT
BRANCH   1   2
ATOM      2  C   UNL     1      46.567  26.387   4.411  1.00  0.00     0.000 C 
BRANCH   2   3
ATOM      3  C   UNL     1      46.905  26.952   5.802  1.00  0.00     0.000 C 
BRANCH   3   4
ATOM      4  C   UNL     1      45.731  26.858   6.789  1.00  0.00     0.006 C 
BRANCH   4   5
ATOM      5  C   UNL     1      45.739  28.004   7.811  1.00  0.00     0.053 C 
BRANCH   5   6
ATOM      6  C   UNL     1      45.192  27.571   9.137  1.00  0.00     0.041 C 
ATOM      7  O   UNL     1      45.249  26.361   9.482  1.00  0.00    -0.550 OA
ATOM      8  O   UNL     1      44.647  28.508  10.005  1.00  0.00    -0.550 OA
ENDBRANCH   5   6
ENDBRANCH   4   5
ENDBRANCH   3   4
ENDBRANCH   2   3
ENDBRANCH   1   2
BRANCH   1   9
ATOM      9  C   UNL     1      44.388  26.843   3.137  1.00  0.00     0.000 C 
BRANCH   9  10
ATOM     10  C   UNL     1      44.771  28.322   3.267  1.00  0.00    -0.000 C 
BRANCH  10  11
ATOM     11  C   UNL     1      45.370  28.852   1.956  1.00  0.00    -0.000 C 
BRANCH  11  12
ATOM     12  C   UNL     1      45.722  27.728   0.969  1.00  0.00    -0.000 C 
BRANCH  12  13
ATOM     13  C   UNL     1      45.590  28.166  -0.497  1.00  0.00    -0.003 C 
ATOM     14  C   UNL     1      45.423  29.680  -0.605  1.00  0.00     0.004 C 
ENDBRANCH  12  13
ENDBRANCH  11  12
ENDBRANCH  10  11
ENDBRANCH   9  10
ENDBRANCH   1   9
TORSDOF 10
ENDMDL
MODEL 6
REMARK VINA RESULT:    -3.480      2.256      4.147
REMARK INTER + INTRA:          -6.384
REMARK INTER:                  -5.700
REMARK INTRA:                  -0.683
REMARK UNBOUND:                -0.869
REMARK SMILES CCCCCCCCCCCC(=O)[O-]
REMARK SMILES IDX 7 1 8 2 9 3 10 4 11 5 12 6 13 7 14 8 6 9 5 10 4 11 3 12 2 13
REMARK SMILES IDX 1 14
REMARK H PARENT
REMARK Flexibility Score: inf
ROOT
ATOM      1  C   UNL     1      45.911  27.949   0.833  1.00  0.00     0.000 C 
ENDROOT
BRANCH   1   2
ATOM      2  C   UNL     1      45.463  27.879  -0.638  1.00  0.00     0.000 C 
BRANCH   2   3
ATOM      3  C   UNL     1      45.329  29.240  -1.344  1.00  0.00     0.000 C 
BRANCH   3   4
ATOM      4  C   UNL     1      44.405  29.190  -2.572  1.00  0.00     0.006 C 
BRANCH   4   5
ATOM      5  C   UNL     1      44.917  28.217  -3.643  1.00  0.00     0.053 C 
BRANCH   5   6
ATOM      6  C   UNL     1      43.822  27.340  -4.167  1.00  0.00     0.041 C 
ATOM      7  O   UNL     1      43.364  26.405  -3.459  1.00  0.00    -0.550 OA
ATOM      8  O   UNL     1      43.286  27.573  -5.428  1.00  0.00    -0.550 OA
ENDBRANCH   5   6
ENDBRANCH   4   5
ENDBRANCH   3   4
ENDBRANCH   2   3
ENDBRANCH   1   2
BRANCH   1   9
ATOM      9  C   UNL     1      45.123  28.982   1.653  1.00  0.00     0.000 C 
BRANCH   9  10
ATOM     10  C   UNL     1      44.796  28.443   3.050  1.00  0.00    -0.000 C 
BRANCH  10  11
ATOM     11  C   UNL     1      44.237  27.015   2.972  1.00  0.00    -0.000 C 
BRANCH  11  12
ATOM     12  C   UNL     1      44.920  26.056   3.961  1.00  0.00    -0.000 C 
BRANCH  12  13
ATOM     13  C   UNL     1      46.166  26.671   4.614  1.00  0.00    -0.003 C 
ATOM     14  C   UNL     1      45.990  26.792   6.126  1.00  0.00     0.004 C 
ENDBRANCH  12  13
ENDBRANCH  11  12
ENDBRANCH  10  11
ENDBRANCH   9  10
ENDBRANCH   1   9
TORSDOF 10
ENDMDL
MODEL 7
REMARK VINA RESULT:    -3.336      3.251      5.455
REMARK INTER + INTRA:          -6.154
REMARK INTER:                  -5.491
REMARK INTRA:                  -0.664
REMARK UNBOUND:                -0.869
REMARK SMILES CCCCCCCCCCCC(=O)[O-]
REMARK SMILES IDX 7 1 8 2 9 3 10 4 11 5 12 6 13 7 14 8 6 9 5 10 4 11 3 12 2 13
REMARK SMILES IDX 1 14
REMARK H PARENT
REMARK Flexibility Score: inf
ROOT
ATOM      1  C   UNL     1      45.550  28.656  -0.770  1.00  0.00     0.000 C 
ENDROOT
BRANCH   1   2
ATOM      2  C   UNL     1      45.185  27.487  -1.702  1.00  0.00     0.000 C 
BRANCH   2   3
ATOM      3  C   UNL     1      44.982  27.870  -3.179  1.00  0.00     0.000 C 
BRANCH   3   4
ATOM      4  C   UNL     1      44.088  29.108  -3.360  1.00  0.00     0.006 C 
BRANCH   4   5
ATOM      5  C   UNL     1      43.576  29.249  -4.800  1.00  0.00     0.053 C 
BRANCH   5   6
ATOM      6  C   UNL     1      42.145  28.825  -4.925  1.00  0.00     0.041 C 
ATOM      7  O   UNL     1      41.659  27.986  -4.123  1.00  0.00    -0.550 OA
ATOM      8  O   UNL     1      41.339  29.381  -5.911  1.00  0.00    -0.550 OA
ENDBRANCH   5   6
ENDBRANCH   4   5
ENDBRANCH   3   4
ENDBRANCH   2   3
ENDBRANCH   1   2
BRANCH   1   9
ATOM      9  C   UNL     1      46.726  28.335   0.164  1.00  0.00     0.000 C 
BRANCH   9  10
ATOM     10  C   UNL     1      46.495  28.921   1.563  1.00  0.00    -0.000 C 
BRANCH  10  11
ATOM     11  C   UNL     1      45.032  29.347   1.745  1.00  0.00    -0.000 C 
BRANCH  11  12
ATOM     12  C   UNL     1      44.368  28.682   2.961  1.00  0.00    -0.000 C 
BRANCH  12  13
ATOM     13  C   UNL     1      44.072  27.193   2.732  1.00  0.00    -0.003 C 
ATOM     14  C   UNL     1      44.814  26.323   3.744  1.00  0.00     0.004 C 
ENDBRANCH  12  13
ENDBRANCH  11  12
ENDBRANCH  10  11
ENDBRANCH   9  10
ENDBRANCH   1   9
TORSDOF 10
ENDMDL
MODEL 8
REMARK VINA RESULT:    -3.296      3.361      7.256
REMARK INTER + INTRA:          -6.092
REMARK INTER:                  -5.503
REMARK INTRA:                  -0.589
REMARK UNBOUND:                -0.869
REMARK SMILES CCCCCCCCCCCC(=O)[O-]
REMARK SMILES IDX 7 1 8 2 9 3 10 4 11 5 12 6 13 7 14 8 6 9 5 10 4 11 3 12 2 13
REMARK SMILES IDX 1 14
REMARK H PARENT
REMARK Flexibility Score: inf
ROOT
ATOM      1  C   UNL     1      44.939  28.196   2.252  1.00  0.00     0.000 C 
ENDROOT
BRANCH   1   2
ATOM      2  C   UNL     1      44.120  27.059   2.890  1.00  0.00     0.000 C 
BRANCH   2   3
ATOM      3  C   UNL     1      44.904  26.156   3.860  1.00  0.00     0.000 C 
BRANCH   3   4
ATOM      4  C   UNL     1      46.353  26.623   4.075  1.00  0.00     0.006 C 
BRANCH   4   5
ATOM      5  C   UNL     1      46.825  26.401   5.519  1.00  0.00     0.053 C 
BRANCH   5   6
ATOM      6  C   UNL     1      46.048  27.235   6.492  1.00  0.00     0.041 C 
ATOM      7  O   UNL     1      45.672  26.746   7.588  1.00  0.00    -0.550 OA
ATOM      8  O   UNL     1      45.765  28.563   6.199  1.00  0.00    -0.550 OA
ENDBRANCH   5   6
ENDBRANCH   4   5
ENDBRANCH   3   4
ENDBRANCH   2   3
ENDBRANCH   1   2
BRANCH   1   9
ATOM      9  C   UNL     1      45.340  27.902   0.798  1.00  0.00     0.000 C 
BRANCH   9  10
ATOM     10  C   UNL     1      45.633  29.200   0.035  1.00  0.00    -0.000 C 
BRANCH  10  11
ATOM     11  C   UNL     1      45.353  29.031  -1.465  1.00  0.00    -0.000 C 
BRANCH  11  12
ATOM     12  C   UNL     1      45.221  27.557  -1.881  1.00  0.00    -0.000 C 
BRANCH  12  13
ATOM     13  C   UNL     1      44.503  27.384  -3.227  1.00  0.00    -0.003 C 
ATOM     14  C   UNL     1      43.691  28.628  -3.579  1.00  0.00     0.004 C 
ENDBRANCH  12  13
ENDBRANCH  11  12
ENDBRANCH  10  11
ENDBRANCH   9  10
ENDBRANCH   1   9
TORSDOF 10
ENDMDL
MODEL 9
REMARK VINA RESULT:    -3.106      1.814      2.944
REMARK INTER + INTRA:          -5.790
REMARK INTER:                  -5.483
REMARK INTRA:                  -0.307
REMARK UNBOUND:                -0.869
REMARK SMILES CCCCCCCCCCCC(=O)[O-]
REMARK SMILES IDX 7 1 8 2 9 3 10 4 11 5 12 6 13 7 14 8 6 9 5 10 4 11 3 12 2 13
REMARK SMILES IDX 1 14
REMARK H PARENT
REMARK Flexibility Score: inf
ROOT
ATOM      1  C   UNL     1      45.249  27.511   1.616  1.00  0.00     0.000 C 
ENDROOT
BRANCH   1   2
ATOM      2  C   UNL     1      45.419  28.878   0.927  1.00  0.00     0.000 C 
BRANCH   2   3
ATOM      3  C   UNL     1      46.209  28.849  -0.393  1.00  0.00     0.000 C 
BRANCH   3   4
ATOM      4  C   UNL     1      45.303  28.890  -1.635  1.00  0.00     0.006 C 
BRANCH   4   5
ATOM      5  C   UNL     1      45.103  27.499  -2.253  1.00  0.00     0.053 C 
BRANCH   5   6
ATOM      6  C   UNL     1      44.168  27.540  -3.423  1.00  0.00     0.041 C 
ATOM      7  O   UNL     1      44.170  28.529  -4.202  1.00  0.00    -0.550 OA
ATOM      8  O   UNL     1      43.316  26.472  -3.670  1.00  0.00    -0.550 OA
ENDBRANCH   5   6
ENDBRANCH   4   5
ENDBRANCH   3   4
ENDBRANCH   2   3
ENDBRANCH   1   2
BRANCH   1   9
ATOM      9  C   UNL     1      44.592  27.614   3.000  1.00  0.00     0.000 C 
BRANCH   9  10
ATOM     10  C   UNL     1      45.227  26.627   3.986  1.00  0.00    -0.000 C 
BRANCH  10  11
ATOM     11  C   UNL     1      46.087  27.362   5.024  1.00  0.00    -0.000 C 
BRANCH  11  12
ATOM     12  C   UNL     1      45.884  26.824   6.449  1.00  0.00    -0.000 C 
BRANCH  12  13
ATOM     13  C   UNL     1      46.288  27.840   7.528  1.00  0.00    -0.003 C 
ATOM     14  C   UNL     1      45.340  27.778   8.722  1.00  0.00     0.004 C 
ENDBRANCH  12  13
ENDBRANCH  11  12
ENDBRANCH  10  11
ENDBRANCH   9  10
ENDBRANCH   1   9
TORSDOF 10
ENDMDL
