MODEL 1
REMARK VINA RESULT:    -6.861      0.000      0.000
REMARK INTER + INTRA:          -8.628
REMARK INTER:                  -8.264
REMARK INTRA:                  -0.364
REMARK UNBOUND:                -0.364
REMARK SMILES O=c1c(O)c(-c2ccc(O)cc2O)oc2cc(O)cc(O)c12
REMARK SMILES IDX 5 1 3 2 2 3 1 4 22 5 20 6 19 7 17 8 16 9 15 10 14 11 6 12
REMARK SMILES IDX 8 13 7 14 9 15 11 16 12 17 10 18 13 20 4 22 21 24 18 26
REMARK H PARENT 10 19 13 21 4 23 21 25 18 27
REMARK Flexibility Score: inf
ROOT
ATOM      1  C   UNL     1      -6.262   7.058 -39.445  1.00  0.00     0.184 A 
ATOM      2  C   UNL     1      -6.624   6.133 -38.455  1.00  0.00     0.208 A 
ATOM      3  C   UNL     1      -5.748   5.076 -38.160  1.00  0.00     0.238 A 
ATOM      4  O   UNL     1      -6.106   4.214 -37.314  1.00  0.00    -0.285 OA
ATOM      5  C   UNL     1      -4.510   4.975 -38.839  1.00  0.00     0.111 A 
ATOM      6  C   UNL     1      -3.529   3.968 -38.594  1.00  0.00     0.134 A 
ATOM      7  C   UNL     1      -2.395   3.894 -39.411  1.00  0.00     0.093 A 
ATOM      8  C   UNL     1      -2.174   4.829 -40.423  1.00  0.00     0.123 A 
ATOM      9  C   UNL     1      -3.098   5.852 -40.636  1.00  0.00     0.094 A 
ATOM     10  C   UNL     1      -4.258   5.930 -39.860  1.00  0.00     0.146 A 
ATOM     11  O   UNL     1      -5.118   6.911 -40.103  1.00  0.00    -0.451 OA
ENDROOT
BRANCH   1  12
ATOM     12  C   UNL     1      -7.133   8.205 -39.783  1.00  0.00     0.063 A 
ATOM     13  C   UNL     1      -8.138  10.322 -39.126  1.00  0.00     0.047 A 
ATOM     14  C   UNL     1      -7.365   9.200 -38.817  1.00  0.00     0.020 A 
ATOM     15  C   UNL     1      -8.683  10.470 -40.403  1.00  0.00     0.119 A 
ATOM     16  C   UNL     1      -8.457   9.485 -41.373  1.00  0.00     0.093 A 
ATOM     17  C   UNL     1      -7.693   8.351 -41.073  1.00  0.00     0.130 A 
BRANCH  15  18
ATOM     18  O   UNL     1      -9.447  11.597 -40.698  1.00  0.00    -0.508 OA
ATOM     19  H   UNL     1     -10.227  11.875 -40.113  1.00  0.00     0.293 HD
ENDBRANCH  15  18
BRANCH  17  20
ATOM     20  O   UNL     1      -7.530   7.384 -42.067  1.00  0.00    -0.507 OA
ATOM     21  H   UNL     1      -6.636   7.176 -42.494  1.00  0.00     0.293 HD
ENDBRANCH  17  20
ENDBRANCH   1  12
BRANCH   2  22
ATOM     22  O   UNL     1      -7.850   6.259 -37.797  1.00  0.00    -0.502 OA
ATOM     23  H   UNL     1      -8.562   5.539 -37.833  1.00  0.00     0.293 HD
ENDBRANCH   2  22
BRANCH   6  24
ATOM     24  O   UNL     1      -3.606   3.040 -37.551  1.00  0.00    -0.507 OA
ATOM     25  H   UNL     1      -2.946   2.971 -36.791  1.00  0.00     0.293 HD
ENDBRANCH   6  24
BRANCH   8  26
ATOM     26  O   UNL     1      -1.027   4.734 -41.207  1.00  0.00    -0.508 OA
ATOM     27  H   UNL     1      -0.153   4.389 -40.829  1.00  0.00     0.293 HD
ENDBRANCH   8  26
TORSDOF 6
ENDMDL
MODEL 2
REMARK VINA RESULT:    -6.387      1.575      7.045
REMARK INTER + INTRA:          -8.057
REMARK INTER:                  -7.653
REMARK INTRA:                  -0.404
REMARK UNBOUND:                -0.364
REMARK SMILES O=c1c(O)c(-c2ccc(O)cc2O)oc2cc(O)cc(O)c12
REMARK SMILES IDX 5 1 3 2 2 3 1 4 22 5 20 6 19 7 17 8 16 9 15 10 14 11 6 12
REMARK SMILES IDX 8 13 7 14 9 15 11 16 12 17 10 18 13 20 4 22 21 24 18 26
REMARK H PARENT 10 19 13 21 4 23 21 25 18 27
REMARK Flexibility Score: inf
ROOT
ATOM      1  C   UNL     1      -6.464   7.717 -39.719  1.00  0.00     0.184 A 
ATOM      2  C   UNL     1      -7.219   7.934 -40.880  1.00  0.00     0.208 A 
ATOM      3  C   UNL     1      -8.032   9.075 -40.960  1.00  0.00     0.238 A 
ATOM      4  O   UNL     1      -8.755   9.232 -41.979  1.00  0.00    -0.285 OA
ATOM      5  C   UNL     1      -8.056   9.999 -39.886  1.00  0.00     0.111 A 
ATOM      6  C   UNL     1      -8.814  11.209 -39.874  1.00  0.00     0.134 A 
ATOM      7  C   UNL     1      -8.857  11.985 -38.709  1.00  0.00     0.093 A 
ATOM      8  C   UNL     1      -8.121  11.630 -37.580  1.00  0.00     0.123 A 
ATOM      9  C   UNL     1      -7.332  10.479 -37.599  1.00  0.00     0.094 A 
ATOM     10  C   UNL     1      -7.297   9.665 -38.733  1.00  0.00     0.146 A 
ATOM     11  O   UNL     1      -6.544   8.572 -38.707  1.00  0.00    -0.451 OA
ENDROOT
BRANCH   1  12
ATOM     12  C   UNL     1      -5.572   6.544 -39.588  1.00  0.00     0.063 A 
ATOM     13  C   UNL     1      -3.443   5.479 -40.095  1.00  0.00     0.047 A 
ATOM     14  C   UNL     1      -4.329   6.548 -40.245  1.00  0.00     0.020 A 
ATOM     15  C   UNL     1      -3.781   4.396 -39.282  1.00  0.00     0.119 A 
ATOM     16  C   UNL     1      -5.016   4.381 -38.621  1.00  0.00     0.093 A 
ATOM     17  C   UNL     1      -5.917   5.441 -38.772  1.00  0.00     0.130 A 
BRANCH  15  18
ATOM     18  O   UNL     1      -2.885   3.339 -39.137  1.00  0.00    -0.508 OA
ATOM     19  H   UNL     1      -3.204   2.378 -39.083  1.00  0.00     0.293 HD
ENDBRANCH  15  18
BRANCH  17  20
ATOM     20  O   UNL     1      -7.149   5.358 -38.119  1.00  0.00    -0.507 OA
ATOM     21  H   UNL     1      -7.633   4.483 -37.961  1.00  0.00     0.293 HD
ENDBRANCH  17  20
ENDBRANCH   1  12
BRANCH   2  22
ATOM     22  O   UNL     1      -7.173   7.008 -41.926  1.00  0.00    -0.502 OA
ATOM     23  H   UNL     1      -7.874   6.287 -42.044  1.00  0.00     0.293 HD
ENDBRANCH   2  22
BRANCH   6  24
ATOM     24  O   UNL     1      -9.513  11.704 -40.978  1.00  0.00    -0.507 OA
ATOM     25  H   UNL     1     -10.144  11.164 -41.550  1.00  0.00     0.293 HD
ENDBRANCH   6  24
BRANCH   8  26
ATOM     26  O   UNL     1      -8.175  12.434 -36.443  1.00  0.00    -0.508 OA
ATOM     27  H   UNL     1      -7.393  12.499 -35.802  1.00  0.00     0.293 HD
ENDBRANCH   8  26
TORSDOF 6
ENDMDL
MODEL 3
REMARK VINA RESULT:    -6.267      1.411      2.191
REMARK INTER + INTRA:          -7.913
REMARK INTER:                  -7.522
REMARK INTRA:                  -0.391
REMARK UNBOUND:                -0.364
REMARK SMILES O=c1c(O)c(-c2ccc(O)cc2O)oc2cc(O)cc(O)c12
REMARK SMILES IDX 5 1 3 2 2 3 1 4 22 5 20 6 19 7 17 8 16 9 15 10 14 11 6 12
REMARK SMILES IDX 8 13 7 14 9 15 11 16 12 17 10 18 13 20 4 22 21 24 18 26
REMARK H PARENT 10 19 13 21 4 23 21 25 18 27
REMARK Flexibility Score: inf
ROOT
ATOM      1  C   UNL     1      -7.682   8.600 -39.374  1.00  0.00     0.184 A 
ATOM      2  C   UNL     1      -8.326   7.682 -38.532  1.00  0.00     0.208 A 
ATOM      3  C   UNL     1      -7.689   6.465 -38.240  1.00  0.00     0.238 A 
ATOM      4  O   UNL     1      -8.298   5.619 -37.533  1.00  0.00    -0.285 OA
ATOM      5  C   UNL     1      -6.404   6.197 -38.772  1.00  0.00     0.111 A 
ATOM      6  C   UNL     1      -5.648   5.014 -38.512  1.00  0.00     0.134 A 
ATOM      7  C   UNL     1      -4.442   4.802 -39.190  1.00  0.00     0.093 A 
ATOM      8  C   UNL     1      -3.933   5.757 -40.069  1.00  0.00     0.123 A 
ATOM      9  C   UNL     1      -4.634   6.942 -40.289  1.00  0.00     0.094 A 
ATOM     10  C   UNL     1      -5.859   7.167 -39.655  1.00  0.00     0.146 A 
ATOM     11  O   UNL     1      -6.501   8.302 -39.901  1.00  0.00    -0.451 OA
ENDROOT
BRANCH   1  12
ATOM     12  C   UNL     1      -8.294   9.907 -39.697  1.00  0.00     0.063 A 
ATOM     13  C   UNL     1      -8.924  12.147 -38.984  1.00  0.00     0.047 A 
ATOM     14  C   UNL     1      -8.401  10.885 -38.693  1.00  0.00     0.020 A 
ATOM     15  C   UNL     1      -9.340  12.454 -40.281  1.00  0.00     0.119 A 
ATOM     16  C   UNL     1      -9.237  11.488 -41.290  1.00  0.00     0.093 A 
ATOM     17  C   UNL     1      -8.725  10.216 -41.009  1.00  0.00     0.130 A 
BRANCH  15  18
ATOM     18  O   UNL     1      -9.854  13.719 -40.557  1.00  0.00    -0.508 OA
ATOM     19  H   UNL     1      -9.435  14.318 -41.260  1.00  0.00     0.293 HD
ENDBRANCH  15  18
BRANCH  17  20
ATOM     20  O   UNL     1      -8.679   9.280 -42.045  1.00  0.00    -0.507 OA
ATOM     21  H   UNL     1      -7.941   8.593 -42.136  1.00  0.00     0.293 HD
ENDBRANCH  17  20
ENDBRANCH   1  12
BRANCH   2  22
ATOM     22  O   UNL     1      -9.592   7.974 -38.017  1.00  0.00    -0.502 OA
ATOM     23  H   UNL     1     -10.433   7.525 -38.357  1.00  0.00     0.293 HD
ENDBRANCH   2  22
BRANCH   6  24
ATOM     24  O   UNL     1      -6.021   4.038 -37.584  1.00  0.00    -0.507 OA
ATOM     25  H   UNL     1      -5.897   4.115 -36.586  1.00  0.00     0.293 HD
ENDBRANCH   6  24
BRANCH   8  26
ATOM     26  O   UNL     1      -2.722   5.519 -40.715  1.00  0.00    -0.508 OA
ATOM     27  H   UNL     1      -2.556   4.664 -41.233  1.00  0.00     0.293 HD
ENDBRANCH   8  26
TORSDOF 6
ENDMDL
MODEL 4
REMARK VINA RESULT:    -6.265      4.108      6.131
REMARK INTER + INTRA:          -7.910
REMARK INTER:                  -7.620
REMARK INTRA:                  -0.290
REMARK UNBOUND:                -0.364
REMARK SMILES O=c1c(O)c(-c2ccc(O)cc2O)oc2cc(O)cc(O)c12
REMARK SMILES IDX 5 1 3 2 2 3 1 4 22 5 20 6 19 7 17 8 16 9 15 10 14 11 6 12
REMARK SMILES IDX 8 13 7 14 9 15 11 16 12 17 10 18 13 20 4 22 21 24 18 26
REMARK H PARENT 10 19 13 21 4 23 21 25 18 27
REMARK Flexibility Score: inf
ROOT
ATOM      1  C   UNL     1      -8.897  10.177 -37.959  1.00  0.00     0.184 A 
ATOM      2  C   UNL     1      -8.515  10.350 -39.297  1.00  0.00     0.208 A 
ATOM      3  C   UNL     1      -8.428   9.224 -40.131  1.00  0.00     0.238 A 
ATOM      4  O   UNL     1      -8.025   9.379 -41.314  1.00  0.00    -0.285 OA
ATOM      5  C   UNL     1      -8.752   7.943 -39.621  1.00  0.00     0.111 A 
ATOM      6  C   UNL     1      -8.736   6.738 -40.385  1.00  0.00     0.134 A 
ATOM      7  C   UNL     1      -8.956   5.512 -39.746  1.00  0.00     0.093 A 
ATOM      8  C   UNL     1      -9.254   5.453 -38.385  1.00  0.00     0.123 A 
ATOM      9  C   UNL     1      -9.328   6.629 -37.639  1.00  0.00     0.094 A 
ATOM     10  C   UNL     1      -9.077   7.865 -38.241  1.00  0.00     0.146 A 
ATOM     11  O   UNL     1      -9.145   8.960 -37.493  1.00  0.00    -0.451 OA
ENDROOT
BRANCH   1  12
ATOM     12  C   UNL     1      -9.029  11.329 -37.041  1.00  0.00     0.063 A 
ATOM     13  C   UNL     1      -8.160  12.602 -35.157  1.00  0.00     0.047 A 
ATOM     14  C   UNL     1      -8.092  11.494 -36.005  1.00  0.00     0.020 A 
ATOM     15  C   UNL     1      -9.156  13.564 -35.335  1.00  0.00     0.119 A 
ATOM     16  C   UNL     1     -10.094  13.411 -36.365  1.00  0.00     0.093 A 
ATOM     17  C   UNL     1     -10.043  12.300 -37.215  1.00  0.00     0.130 A 
BRANCH  15  18
ATOM     18  O   UNL     1      -9.207  14.666 -34.485  1.00  0.00    -0.508 OA
ATOM     19  H   UNL     1      -9.953  14.776 -33.806  1.00  0.00     0.293 HD
ENDBRANCH  15  18
BRANCH  17  20
ATOM     20  O   UNL     1     -11.024  12.179 -38.201  1.00  0.00    -0.507 OA
ATOM     21  H   UNL     1     -11.988  11.946 -37.997  1.00  0.00     0.293 HD
ENDBRANCH  17  20
ENDBRANCH   1  12
BRANCH   2  22
ATOM     22  O   UNL     1      -8.205  11.627 -39.775  1.00  0.00    -0.502 OA
ATOM     23  H   UNL     1      -8.461  12.470 -39.277  1.00  0.00     0.293 HD
ENDBRANCH   2  22
BRANCH   6  24
ATOM     24  O   UNL     1      -8.538   6.692 -41.768  1.00  0.00    -0.507 OA
ATOM     25  H   UNL     1      -9.024   7.268 -42.439  1.00  0.00     0.293 HD
ENDBRANCH   6  24
BRANCH   8  26
ATOM     26  O   UNL     1      -9.482   4.216 -37.785  1.00  0.00    -0.508 OA
ATOM     27  H   UNL     1      -8.718   3.610 -37.512  1.00  0.00     0.293 HD
ENDBRANCH   8  26
TORSDOF 6
ENDMDL
MODEL 5
REMARK VINA RESULT:    -6.214      2.668      3.211
REMARK INTER + INTRA:          -7.849
REMARK INTER:                  -7.558
REMARK INTRA:                  -0.291
REMARK UNBOUND:                -0.364
REMARK SMILES O=c1c(O)c(-c2ccc(O)cc2O)oc2cc(O)cc(O)c12
REMARK SMILES IDX 5 1 3 2 2 3 1 4 22 5 20 6 19 7 17 8 16 9 15 10 14 11 6 12
REMARK SMILES IDX 8 13 7 14 9 15 11 16 12 17 10 18 13 20 4 22 21 24 18 26
REMARK H PARENT 10 19 13 21 4 23 21 25 18 27
REMARK Flexibility Score: inf
ROOT
ATOM      1  C   UNL     1      -6.713   5.404 -37.740  1.00  0.00     0.184 A 
ATOM      2  C   UNL     1      -6.137   4.497 -36.839  1.00  0.00     0.208 A 
ATOM      3  C   UNL     1      -4.847   4.007 -37.098  1.00  0.00     0.238 A 
ATOM      4  O   UNL     1      -4.361   3.146 -36.318  1.00  0.00    -0.285 OA
ATOM      5  C   UNL     1      -4.141   4.452 -38.242  1.00  0.00     0.111 A 
ATOM      6  C   UNL     1      -2.814   4.051 -38.584  1.00  0.00     0.134 A 
ATOM      7  C   UNL     1      -2.261   4.461 -39.803  1.00  0.00     0.093 A 
ATOM      8  C   UNL     1      -2.961   5.307 -40.663  1.00  0.00     0.123 A 
ATOM      9  C   UNL     1      -4.236   5.752 -40.314  1.00  0.00     0.094 A 
ATOM     10  C   UNL     1      -4.829   5.331 -39.121  1.00  0.00     0.146 A 
ATOM     11  O   UNL     1      -6.049   5.766 -38.832  1.00  0.00    -0.451 OA
ENDROOT
BRANCH   1  12
ATOM     12  C   UNL     1      -8.058   5.973 -37.506  1.00  0.00     0.063 A 
ATOM     13  C   UNL     1      -9.458   7.928 -37.132  1.00  0.00     0.047 A 
ATOM     14  C   UNL     1      -8.194   7.357 -37.300  1.00  0.00     0.020 A 
ATOM     15  C   UNL     1     -10.602   7.130 -37.175  1.00  0.00     0.119 A 
ATOM     16  C   UNL     1     -10.479   5.750 -37.381  1.00  0.00     0.093 A 
ATOM     17  C   UNL     1      -9.218   5.163 -37.540  1.00  0.00     0.130 A 
BRANCH  15  18
ATOM     18  O   UNL     1     -11.856   7.715 -37.012  1.00  0.00    -0.508 OA
ATOM     19  H   UNL     1     -12.103   8.204 -36.159  1.00  0.00     0.293 HD
ENDBRANCH  15  18
BRANCH  17  20
ATOM     20  O   UNL     1      -9.151   3.778 -37.707  1.00  0.00    -0.507 OA
ATOM     21  H   UNL     1      -9.968   3.200 -37.857  1.00  0.00     0.293 HD
ENDBRANCH  17  20
ENDBRANCH   1  12
BRANCH   2  22
ATOM     22  O   UNL     1      -6.855   4.078 -35.716  1.00  0.00    -0.502 OA
ATOM     23  H   UNL     1      -6.511   4.209 -34.772  1.00  0.00     0.293 HD
ENDBRANCH   2  22
BRANCH   6  24
ATOM     24  O   UNL     1      -1.993   3.281 -37.755  1.00  0.00    -0.507 OA
ATOM     25  H   UNL     1      -0.994   3.193 -37.855  1.00  0.00     0.293 HD
ENDBRANCH   6  24
BRANCH   8  26
ATOM     26  O   UNL     1      -2.373   5.707 -41.861  1.00  0.00    -0.508 OA
ATOM     27  H   UNL     1      -2.832   6.362 -42.484  1.00  0.00     0.293 HD
ENDBRANCH   8  26
TORSDOF 6
ENDMDL
MODEL 6
REMARK VINA RESULT:    -6.196      2.465      6.793
REMARK INTER + INTRA:          -7.828
REMARK INTER:                  -7.424
REMARK INTRA:                  -0.403
REMARK UNBOUND:                -0.364
REMARK SMILES O=c1c(O)c(-c2ccc(O)cc2O)oc2cc(O)cc(O)c12
REMARK SMILES IDX 5 1 3 2 2 3 1 4 22 5 20 6 19 7 17 8 16 9 15 10 14 11 6 12
REMARK SMILES IDX 8 13 7 14 9 15 11 16 12 17 10 18 13 20 4 22 21 24 18 26
REMARK H PARENT 10 19 13 21 4 23 21 25 18 27
REMARK Flexibility Score: inf
ROOT
ATOM      1  C   UNL     1      -3.559   6.572 -38.503  1.00  0.00     0.184 A 
ATOM      2  C   UNL     1      -3.845   7.849 -37.999  1.00  0.00     0.208 A 
ATOM      3  C   UNL     1      -5.028   8.489 -38.400  1.00  0.00     0.238 A 
ATOM      4  O   UNL     1      -5.249   9.660 -37.991  1.00  0.00    -0.285 OA
ATOM      5  C   UNL     1      -5.923   7.830 -39.278  1.00  0.00     0.111 A 
ATOM      6  C   UNL     1      -7.169   8.368 -39.721  1.00  0.00     0.134 A 
ATOM      7  C   UNL     1      -7.915   7.680 -40.685  1.00  0.00     0.093 A 
ATOM      8  C   UNL     1      -7.492   6.445 -41.177  1.00  0.00     0.123 A 
ATOM      9  C   UNL     1      -6.304   5.883 -40.710  1.00  0.00     0.094 A 
ATOM     10  C   UNL     1      -5.519   6.562 -39.774  1.00  0.00     0.146 A 
ATOM     11  O   UNL     1      -4.389   5.998 -39.366  1.00  0.00    -0.451 OA
ENDROOT
BRANCH   1  12
ATOM     12  C   UNL     1      -2.339   5.839 -38.098  1.00  0.00     0.063 A 
ATOM     13  C   UNL     1      -1.166   4.503 -36.436  1.00  0.00     0.047 A 
ATOM     14  C   UNL     1      -2.283   5.247 -36.824  1.00  0.00     0.020 A 
ATOM     15  C   UNL     1      -0.095   4.333 -37.315  1.00  0.00     0.119 A 
ATOM     16  C   UNL     1      -0.141   4.917 -38.587  1.00  0.00     0.093 A 
ATOM     17  C   UNL     1      -1.249   5.674 -38.985  1.00  0.00     0.130 A 
BRANCH  15  18
ATOM     18  O   UNL     1       1.009   3.583 -36.916  1.00  0.00    -0.508 OA
ATOM     19  H   UNL     1       1.225   3.440 -35.936  1.00  0.00     0.293 HD
ENDBRANCH  15  18
BRANCH  17  20
ATOM     20  O   UNL     1      -1.226   6.263 -40.250  1.00  0.00    -0.507 OA
ATOM     21  H   UNL     1      -2.046   6.664 -40.688  1.00  0.00     0.293 HD
ENDBRANCH  17  20
ENDBRANCH   1  12
BRANCH   2  22
ATOM     22  O   UNL     1      -2.946   8.474 -37.130  1.00  0.00    -0.502 OA
ATOM     23  H   UNL     1      -2.529   9.373 -37.335  1.00  0.00     0.293 HD
ENDBRANCH   2  22
BRANCH   6  24
ATOM     24  O   UNL     1      -7.729   9.550 -39.227  1.00  0.00    -0.507 OA
ATOM     25  H   UNL     1      -8.134  10.277 -39.797  1.00  0.00     0.293 HD
ENDBRANCH   6  24
BRANCH   8  26
ATOM     26  O   UNL     1      -8.267   5.782 -42.125  1.00  0.00    -0.508 OA
ATOM     27  H   UNL     1      -9.182   5.411 -41.897  1.00  0.00     0.293 HD
ENDBRANCH   8  26
TORSDOF 6
ENDMDL
MODEL 7
REMARK VINA RESULT:    -6.141      2.421      4.417
REMARK INTER + INTRA:          -7.761
REMARK INTER:                  -7.376
REMARK INTRA:                  -0.385
REMARK UNBOUND:                -0.364
REMARK SMILES O=c1c(O)c(-c2ccc(O)cc2O)oc2cc(O)cc(O)c12
REMARK SMILES IDX 5 1 3 2 2 3 1 4 22 5 20 6 19 7 17 8 16 9 15 10 14 11 6 12
REMARK SMILES IDX 8 13 7 14 9 15 11 16 12 17 10 18 13 20 4 22 21 24 18 26
REMARK H PARENT 10 19 13 21 4 23 21 25 18 27
REMARK Flexibility Score: inf
ROOT
ATOM      1  C   UNL     1      -3.720   5.887 -39.288  1.00  0.00     0.184 A 
ATOM      2  C   UNL     1      -2.641   5.643 -40.150  1.00  0.00     0.208 A 
ATOM      3  C   UNL     1      -1.420   5.215 -39.606  1.00  0.00     0.238 A 
ATOM      4  O   UNL     1      -0.437   5.057 -40.378  1.00  0.00    -0.285 OA
ATOM      5  C   UNL     1      -1.303   5.011 -38.209  1.00  0.00     0.111 A 
ATOM      6  C   UNL     1      -0.126   4.542 -37.552  1.00  0.00     0.134 A 
ATOM      7  C   UNL     1      -0.087   4.495 -36.154  1.00  0.00     0.093 A 
ATOM      8  C   UNL     1      -1.203   4.837 -35.390  1.00  0.00     0.123 A 
ATOM      9  C   UNL     1      -2.378   5.242 -36.023  1.00  0.00     0.094 A 
ATOM     10  C   UNL     1      -2.436   5.335 -37.416  1.00  0.00     0.146 A 
ATOM     11  O   UNL     1      -3.569   5.737 -37.978  1.00  0.00    -0.451 OA
ENDROOT
BRANCH   1  12
ATOM     12  C   UNL     1      -5.037   6.317 -39.806  1.00  0.00     0.063 A 
ATOM     13  C   UNL     1      -7.075   5.776 -41.021  1.00  0.00     0.047 A 
ATOM     14  C   UNL     1      -5.805   5.417 -40.566  1.00  0.00     0.020 A 
ATOM     15  C   UNL     1      -7.601   7.034 -40.718  1.00  0.00     0.119 A 
ATOM     16  C   UNL     1      -6.846   7.938 -39.961  1.00  0.00     0.093 A 
ATOM     17  C   UNL     1      -5.567   7.595 -39.508  1.00  0.00     0.130 A 
BRANCH  15  18
ATOM     18  O   UNL     1      -8.872   7.376 -41.175  1.00  0.00    -0.508 OA
ATOM     19  H   UNL     1      -9.336   8.221 -40.862  1.00  0.00     0.293 HD
ENDBRANCH  15  18
BRANCH  17  20
ATOM     20  O   UNL     1      -4.844   8.548 -38.787  1.00  0.00    -0.507 OA
ATOM     21  H   UNL     1      -4.118   9.119 -39.201  1.00  0.00     0.293 HD
ENDBRANCH  17  20
ENDBRANCH   1  12
BRANCH   2  22
ATOM     22  O   UNL     1      -2.785   5.849 -41.525  1.00  0.00    -0.502 OA
ATOM     23  H   UNL     1      -2.169   6.457 -42.050  1.00  0.00     0.293 HD
ENDBRANCH   2  22
BRANCH   6  24
ATOM     24  O   UNL     1       1.014   4.089 -38.223  1.00  0.00    -0.507 OA
ATOM     25  H   UNL     1       1.889   3.854 -37.778  1.00  0.00     0.293 HD
ENDBRANCH   6  24
BRANCH   8  26
ATOM     26  O   UNL     1      -1.133   4.763 -34.001  1.00  0.00    -0.508 OA
ATOM     27  H   UNL     1      -0.327   4.368 -33.531  1.00  0.00     0.293 HD
ENDBRANCH   8  26
TORSDOF 6
ENDMDL
MODEL 8
REMARK VINA RESULT:    -6.084      2.763      6.418
REMARK INTER + INTRA:          -7.692
REMARK INTER:                  -7.298
REMARK INTRA:                  -0.394
REMARK UNBOUND:                -0.364
REMARK SMILES O=c1c(O)c(-c2ccc(O)cc2O)oc2cc(O)cc(O)c12
REMARK SMILES IDX 5 1 3 2 2 3 1 4 22 5 20 6 19 7 17 8 16 9 15 10 14 11 6 12
REMARK SMILES IDX 8 13 7 14 9 15 11 16 12 17 10 18 13 20 4 22 21 24 18 26
REMARK H PARENT 10 19 13 21 4 23 21 25 18 27
REMARK Flexibility Score: inf
ROOT
ATOM      1  C   UNL     1      -4.525   5.688 -38.244  1.00  0.00     0.184 A 
ATOM      2  C   UNL     1      -5.183   6.075 -37.068  1.00  0.00     0.208 A 
ATOM      3  C   UNL     1      -6.564   6.325 -37.113  1.00  0.00     0.238 A 
ATOM      4  O   UNL     1      -7.138   6.731 -36.068  1.00  0.00    -0.285 OA
ATOM      5  C   UNL     1      -7.272   6.158 -38.328  1.00  0.00     0.111 A 
ATOM      6  C   UNL     1      -8.679   6.346 -38.480  1.00  0.00     0.134 A 
ATOM      7  C   UNL     1      -9.251   6.271 -39.756  1.00  0.00     0.093 A 
ATOM      8  C   UNL     1      -8.481   5.953 -40.873  1.00  0.00     0.123 A 
ATOM      9  C   UNL     1      -7.115   5.711 -40.729  1.00  0.00     0.094 A 
ATOM     10  C   UNL     1      -6.507   5.814 -39.475  1.00  0.00     0.146 A 
ATOM     11  O   UNL     1      -5.203   5.588 -39.382  1.00  0.00    -0.451 OA
ENDROOT
BRANCH   1  12
ATOM     12  C   UNL     1      -3.077   5.389 -38.253  1.00  0.00     0.063 A 
ATOM     13  C   UNL     1      -1.280   3.775 -37.947  1.00  0.00     0.047 A 
ATOM     14  C   UNL     1      -2.637   4.102 -37.895  1.00  0.00     0.020 A 
ATOM     15  C   UNL     1      -0.345   4.723 -38.365  1.00  0.00     0.119 A 
ATOM     16  C   UNL     1      -0.771   6.008 -38.726  1.00  0.00     0.093 A 
ATOM     17  C   UNL     1      -2.126   6.352 -38.668  1.00  0.00     0.130 A 
BRANCH  15  18
ATOM     18  O   UNL     1       1.005   4.380 -38.417  1.00  0.00    -0.508 OA
ATOM     19  H   UNL     1       1.381   3.626 -37.853  1.00  0.00     0.293 HD
ENDBRANCH  15  18
BRANCH  17  20
ATOM     20  O   UNL     1      -2.491   7.657 -39.004  1.00  0.00    -0.507 OA
ATOM     21  H   UNL     1      -2.586   8.398 -38.321  1.00  0.00     0.293 HD
ENDBRANCH  17  20
ENDBRANCH   1  12
BRANCH   2  22
ATOM     22  O   UNL     1      -4.461   6.229 -35.882  1.00  0.00    -0.502 OA
ATOM     23  H   UNL     1      -4.045   5.444 -35.394  1.00  0.00     0.293 HD
ENDBRANCH   2  22
BRANCH   6  24
ATOM     24  O   UNL     1      -9.555   6.579 -37.416  1.00  0.00    -0.507 OA
ATOM     25  H   UNL     1      -9.362   7.183 -36.632  1.00  0.00     0.293 HD
ENDBRANCH   6  24
BRANCH   8  26
ATOM     26  O   UNL     1      -9.087   5.872 -42.125  1.00  0.00    -0.508 OA
ATOM     27  H   UNL     1      -9.809   5.189 -42.321  1.00  0.00     0.293 HD
ENDBRANCH   8  26
TORSDOF 6
ENDMDL
MODEL 9
REMARK VINA RESULT:    -5.911      2.383      6.924
REMARK INTER + INTRA:          -7.484
REMARK INTER:                  -7.257
REMARK INTRA:                  -0.227
REMARK UNBOUND:                -0.364
REMARK SMILES O=c1c(O)c(-c2ccc(O)cc2O)oc2cc(O)cc(O)c12
REMARK SMILES IDX 5 1 3 2 2 3 1 4 22 5 20 6 19 7 17 8 16 9 15 10 14 11 6 12
REMARK SMILES IDX 8 13 7 14 9 15 11 16 12 17 10 18 13 20 4 22 21 24 18 26
REMARK H PARENT 10 19 13 21 4 23 21 25 18 27
REMARK Flexibility Score: inf
ROOT
ATOM      1  C   UNL     1      -4.491   5.559 -38.782  1.00  0.00     0.184 A 
ATOM      2  C   UNL     1      -4.862   6.018 -40.054  1.00  0.00     0.208 A 
ATOM      3  C   UNL     1      -6.198   6.385 -40.281  1.00  0.00     0.238 A 
ATOM      4  O   UNL     1      -6.539   6.737 -41.441  1.00  0.00    -0.285 OA
ATOM      5  C   UNL     1      -7.138   6.314 -39.224  1.00  0.00     0.111 A 
ATOM      6  C   UNL     1      -8.509   6.696 -39.329  1.00  0.00     0.134 A 
ATOM      7  C   UNL     1      -9.375   6.468 -38.253  1.00  0.00     0.093 A 
ATOM      8  C   UNL     1      -8.907   5.931 -37.054  1.00  0.00     0.123 A 
ATOM      9  C   UNL     1      -7.557   5.606 -36.919  1.00  0.00     0.094 A 
ATOM     10  C   UNL     1      -6.676   5.788 -37.988  1.00  0.00     0.146 A 
ATOM     11  O   UNL     1      -5.402   5.454 -37.823  1.00  0.00    -0.451 OA
ENDROOT
BRANCH   1  12
ATOM     12  C   UNL     1      -3.093   5.181 -38.478  1.00  0.00     0.063 A 
ATOM     13  C   UNL     1      -1.483   3.455 -37.887  1.00  0.00     0.047 A 
ATOM     14  C   UNL     1      -2.801   3.852 -38.126  1.00  0.00     0.020 A 
ATOM     15  C   UNL     1      -0.439   4.375 -38.004  1.00  0.00     0.119 A 
ATOM     16  C   UNL     1      -0.719   5.702 -38.355  1.00  0.00     0.093 A 
ATOM     17  C   UNL     1      -2.036   6.115 -38.586  1.00  0.00     0.130 A 
BRANCH  15  18
ATOM     18  O   UNL     1       0.870   3.962 -37.768  1.00  0.00    -0.508 OA
ATOM     19  H   UNL     1       1.319   4.114 -36.871  1.00  0.00     0.293 HD
ENDBRANCH  15  18
BRANCH  17  20
ATOM     20  O   UNL     1      -2.260   7.458 -38.898  1.00  0.00    -0.507 OA
ATOM     21  H   UNL     1      -2.599   7.766 -39.801  1.00  0.00     0.293 HD
ENDBRANCH  17  20
ENDBRANCH   1  12
BRANCH   2  22
ATOM     22  O   UNL     1      -3.913   6.082 -41.078  1.00  0.00    -0.502 OA
ATOM     23  H   UNL     1      -3.161   6.760 -41.079  1.00  0.00     0.293 HD
ENDBRANCH   2  22
BRANCH   6  24
ATOM     24  O   UNL     1      -9.060   7.324 -40.450  1.00  0.00    -0.507 OA
ATOM     25  H   UNL     1      -9.647   8.144 -40.420  1.00  0.00     0.293 HD
ENDBRANCH   6  24
BRANCH   8  26
ATOM     26  O   UNL     1      -9.794   5.732 -35.999  1.00  0.00    -0.508 OA
ATOM     27  H   UNL     1      -9.902   4.824 -35.561  1.00  0.00     0.293 HD
ENDBRANCH   8  26
TORSDOF 6
ENDMDL
