MODEL 1
REMARK VINA RESULT:     9.553      0.000      0.000
REMARK INTER + INTRA:          18.646
REMARK INTER:                  18.489
REMARK INTRA:                   0.158
REMARK UNBOUND:                 0.158
REMARK SMILES CCCCCCCCCCCCCCCCCC(=O)[O-]
REMARK SMILES IDX 10 1 11 2 12 3 13 4 14 5 15 6 16 7 17 8 18 9 19 10 20 11
REMARK SMILES IDX 9 12 8 13 7 14 6 15 5 16 4 17 3 18 2 19 1 20
REMARK H PARENT
REMARK Flexibility Score: inf
ROOT
ATOM      1  C   UNL     1       4.215  41.864  12.450  1.00  0.00     0.000 C 
ENDROOT
BRANCH   1   2
ATOM      2  C   UNL     1       4.953  41.870  11.101  1.00  0.00     0.000 C 
BRANCH   2   3
ATOM      3  C   UNL     1       4.194  42.652  10.017  1.00  0.00     0.000 C 
BRANCH   3   4
ATOM      4  C   UNL     1       5.137  43.316   9.001  1.00  0.00     0.000 C 
BRANCH   4   5
ATOM      5  C   UNL     1       6.370  42.456   8.677  1.00  0.00     0.000 C 
BRANCH   5   6
ATOM      6  C   UNL     1       6.836  42.573   7.211  1.00  0.00     0.000 C 
BRANCH   6   7
ATOM      7  C   UNL     1       8.355  42.371   7.065  1.00  0.00     0.006 C 
BRANCH   7   8
ATOM      8  C   UNL     1       8.819  42.480   5.606  1.00  0.00     0.053 C 
BRANCH   8   9
ATOM      9  C   UNL     1       8.921  41.135   4.955  1.00  0.00     0.041 C 
ATOM     10  O   UNL     1       9.698  40.959   3.980  1.00  0.00    -0.550 OA
ATOM     11  O   UNL     1       8.132  40.084   5.403  1.00  0.00    -0.550 OA
ENDBRANCH   8   9
ENDBRANCH   7   8
ENDBRANCH   6   7
ENDBRANCH   5   6
ENDBRANCH   4   5
ENDBRANCH   3   4
ENDBRANCH   2   3
ENDBRANCH   1   2
BRANCH   1  12
ATOM     12  C   UNL     1       4.676  40.725  13.378  1.00  0.00     0.000 C 
BRANCH  12  13
ATOM     13  C   UNL     1       3.611  40.234  14.376  1.00  0.00    -0.000 C 
BRANCH  13  14
ATOM     14  C   UNL     1       4.214  39.459  15.561  1.00  0.00    -0.000 C 
BRANCH  14  15
ATOM     15  C   UNL     1       5.717  39.192  15.385  1.00  0.00    -0.000 C 
BRANCH  15  16
ATOM     16  C   UNL     1       6.554  40.480  15.429  1.00  0.00    -0.000 C 
BRANCH  16  17
ATOM     17  C   UNL     1       7.879  40.358  14.658  1.00  0.00    -0.000 C 
BRANCH  17  18
ATOM     18  C   UNL     1       9.030  39.764  15.498  1.00  0.00    -0.000 C 
BRANCH  18  19
ATOM     19  C   UNL     1       9.339  38.310  15.117  1.00  0.00    -0.003 C 
ATOM     20  C   UNL     1      10.710  37.883  15.633  1.00  0.00     0.004 C 
ENDBRANCH  18  19
ENDBRANCH  17  18
ENDBRANCH  16  17
ENDBRANCH  15  16
ENDBRANCH  14  15
ENDBRANCH  13  14
ENDBRANCH  12  13
ENDBRANCH   1  12
TORSDOF 16
ENDMDL
MODEL 2
REMARK VINA RESULT:     9.904      0.908      1.666
REMARK INTER + INTRA:          19.326
REMARK INTER:                  19.948
REMARK INTRA:                  -0.621
REMARK UNBOUND:                 0.158
REMARK SMILES CCCCCCCCCCCCCCCCCC(=O)[O-]
REMARK SMILES IDX 10 1 11 2 12 3 13 4 14 5 15 6 16 7 17 8 18 9 19 10 20 11
REMARK SMILES IDX 9 12 8 13 7 14 6 15 5 16 4 17 3 18 2 19 1 20
REMARK H PARENT
REMARK Flexibility Score: inf
ROOT
ATOM      1  C   UNL     1       5.047  42.102  10.868  1.00  0.00     0.000 C 
ENDROOT
BRANCH   1   2
ATOM      2  C   UNL     1       4.264  42.965   9.864  1.00  0.00     0.000 C 
BRANCH   2   3
ATOM      3  C   UNL     1       5.084  43.299   8.608  1.00  0.00     0.000 C 
BRANCH   3   4
ATOM      4  C   UNL     1       6.401  42.510   8.538  1.00  0.00     0.000 C 
BRANCH   4   5
ATOM      5  C   UNL     1       7.007  42.481   7.125  1.00  0.00     0.000 C 
BRANCH   5   6
ATOM      6  C   UNL     1       8.526  42.206   7.111  1.00  0.00     0.000 C 
BRANCH   6   7
ATOM      7  C   UNL     1       8.907  41.092   6.119  1.00  0.00     0.006 C 
BRANCH   7   8
ATOM      8  C   UNL     1       8.973  41.600   4.672  1.00  0.00     0.053 C 
BRANCH   8   9
ATOM      9  C   UNL     1       9.705  40.643   3.782  1.00  0.00     0.041 C 
ATOM     10  O   UNL     1      10.274  39.631   4.269  1.00  0.00    -0.550 OA
ATOM     11  O   UNL     1       9.787  40.888   2.417  1.00  0.00    -0.550 OA
ENDBRANCH   8   9
ENDBRANCH   7   8
ENDBRANCH   6   7
ENDBRANCH   5   6
ENDBRANCH   4   5
ENDBRANCH   3   4
ENDBRANCH   2   3
ENDBRANCH   1   2
BRANCH   1  12
ATOM     12  C   UNL     1       4.209  41.706  12.096  1.00  0.00     0.000 C 
BRANCH  12  13
ATOM     13  C   UNL     1       4.995  40.998  13.214  1.00  0.00    -0.000 C 
BRANCH  13  14
ATOM     14  C   UNL     1       4.111  40.607  14.412  1.00  0.00    -0.000 C 
BRANCH  14  15
ATOM     15  C   UNL     1       4.833  39.672  15.395  1.00  0.00    -0.000 C 
BRANCH  15  16
ATOM     16  C   UNL     1       6.044  40.341  16.064  1.00  0.00    -0.000 C 
BRANCH  16  17
ATOM     17  C   UNL     1       7.276  39.423  16.124  1.00  0.00    -0.000 C 
BRANCH  17  18
ATOM     18  C   UNL     1       8.453  39.912  15.254  1.00  0.00    -0.000 C 
BRANCH  18  19
ATOM     19  C   UNL     1       9.369  38.761  14.813  1.00  0.00    -0.003 C 
ATOM     20  C   UNL     1      10.791  38.959  15.330  1.00  0.00     0.004 C 
ENDBRANCH  18  19
ENDBRANCH  17  18
ENDBRANCH  16  17
ENDBRANCH  15  16
ENDBRANCH  14  15
ENDBRANCH  13  14
ENDBRANCH  12  13
ENDBRANCH   1  12
TORSDOF 16
ENDMDL
MODEL 3
REMARK VINA RESULT:    10.542      1.828      2.312
REMARK INTER + INTRA:          20.560
REMARK INTER:                  21.160
REMARK INTRA:                  -0.600
REMARK UNBOUND:                 0.158
REMARK SMILES CCCCCCCCCCCCCCCCCC(=O)[O-]
REMARK SMILES IDX 10 1 11 2 12 3 13 4 14 5 15 6 16 7 17 8 18 9 19 10 20 11
REMARK SMILES IDX 9 12 8 13 7 14 6 15 5 16 4 17 3 18 2 19 1 20
REMARK H PARENT
REMARK Flexibility Score: inf
ROOT
ATOM      1  C   UNL     1       3.905  41.948  11.698  1.00  0.00     0.000 C 
ENDROOT
BRANCH   1   2
ATOM      2  C   UNL     1       4.925  42.344  10.617  1.00  0.00     0.000 C 
BRANCH   2   3
ATOM      3  C   UNL     1       4.441  43.518   9.753  1.00  0.00     0.000 C 
BRANCH   3   4
ATOM      4  C   UNL     1       4.955  43.434   8.306  1.00  0.00     0.000 C 
BRANCH   4   5
ATOM      5  C   UNL     1       6.225  42.579   8.170  1.00  0.00     0.000 C 
BRANCH   5   6
ATOM      6  C   UNL     1       6.893  42.683   6.782  1.00  0.00     0.000 C 
BRANCH   6   7
ATOM      7  C   UNL     1       7.763  41.454   6.461  1.00  0.00     0.006 C 
BRANCH   7   8
ATOM      8  C   UNL     1       9.242  41.819   6.281  1.00  0.00     0.053 C 
BRANCH   8   9
ATOM      9  C   UNL     1       9.532  43.208   6.758  1.00  0.00     0.041 C 
ATOM     10  O   UNL     1      10.111  43.393   7.861  1.00  0.00    -0.550 OA
ATOM     11  O   UNL     1       9.133  44.302   6.001  1.00  0.00    -0.550 OA
ENDBRANCH   8   9
ENDBRANCH   7   8
ENDBRANCH   6   7
ENDBRANCH   5   6
ENDBRANCH   4   5
ENDBRANCH   3   4
ENDBRANCH   2   3
ENDBRANCH   1   2
BRANCH   1  12
ATOM     12  C   UNL     1       4.546  41.192  12.876  1.00  0.00     0.000 C 
BRANCH  12  13
ATOM     13  C   UNL     1       3.644  41.042  14.115  1.00  0.00    -0.000 C 
BRANCH  13  14
ATOM     14  C   UNL     1       3.490  39.580  14.569  1.00  0.00    -0.000 C 
BRANCH  14  15
ATOM     15  C   UNL     1       4.146  39.316  15.934  1.00  0.00    -0.000 C 
BRANCH  15  16
ATOM     16  C   UNL     1       4.737  37.901  16.040  1.00  0.00    -0.000 C 
BRANCH  16  17
ATOM     17  C   UNL     1       6.262  37.875  15.848  1.00  0.00    -0.000 C 
BRANCH  17  18
ATOM     18  C   UNL     1       6.942  39.232  16.125  1.00  0.00    -0.000 C 
BRANCH  18  19
ATOM     19  C   UNL     1       7.814  39.697  14.950  1.00  0.00    -0.003 C 
ATOM     20  C   UNL     1       8.161  41.178  15.072  1.00  0.00     0.004 C 
ENDBRANCH  18  19
ENDBRANCH  17  18
ENDBRANCH  16  17
ENDBRANCH  15  16
ENDBRANCH  14  15
ENDBRANCH  13  14
ENDBRANCH  12  13
ENDBRANCH   1  12
TORSDOF 16
ENDMDL
MODEL 4
REMARK VINA RESULT:    10.912      3.786      8.762
REMARK INTER + INTRA:          21.276
REMARK INTER:                  22.416
REMARK INTRA:                  -1.140
REMARK UNBOUND:                 0.158
REMARK SMILES CCCCCCCCCCCCCCCCCC(=O)[O-]
REMARK SMILES IDX 10 1 11 2 12 3 13 4 14 5 15 6 16 7 17 8 18 9 19 10 20 11
REMARK SMILES IDX 9 12 8 13 7 14 6 15 5 16 4 17 3 18 2 19 1 20
REMARK H PARENT
REMARK Flexibility Score: inf
ROOT
ATOM      1  C   UNL     1       6.825  40.705  12.755  1.00  0.00     0.000 C 
ENDROOT
BRANCH   1   2
ATOM      2  C   UNL     1       8.151  40.890  13.513  1.00  0.00     0.000 C 
BRANCH   2   3
ATOM      3  C   UNL     1       7.948  41.455  14.927  1.00  0.00     0.000 C 
BRANCH   3   4
ATOM      4  C   UNL     1       7.992  40.364  16.009  1.00  0.00     0.000 C 
BRANCH   4   5
ATOM      5  C   UNL     1       8.701  39.084  15.538  1.00  0.00     0.000 C 
BRANCH   5   6
ATOM      6  C   UNL     1       7.754  37.875  15.382  1.00  0.00     0.000 C 
BRANCH   6   7
ATOM      7  C   UNL     1       6.421  38.080  16.125  1.00  0.00     0.006 C 
BRANCH   7   8
ATOM      8  C   UNL     1       5.208  37.917  15.200  1.00  0.00     0.053 C 
BRANCH   8   9
ATOM      9  C   UNL     1       4.193  38.995  15.421  1.00  0.00     0.041 C 
ATOM     10  O   UNL     1       3.061  38.714  15.895  1.00  0.00    -0.550 OA
ATOM     11  O   UNL     1       4.485  40.307  15.071  1.00  0.00    -0.550 OA
ENDBRANCH   8   9
ENDBRANCH   7   8
ENDBRANCH   6   7
ENDBRANCH   5   6
ENDBRANCH   4   5
ENDBRANCH   3   4
ENDBRANCH   2   3
ENDBRANCH   1   2
BRANCH   1  12
ATOM     12  C   UNL     1       6.762  41.522  11.452  1.00  0.00     0.000 C 
BRANCH  12  13
ATOM     13  C   UNL     1       5.351  41.984  11.047  1.00  0.00    -0.000 C 
BRANCH  13  14
ATOM     14  C   UNL     1       5.328  42.718   9.694  1.00  0.00    -0.000 C 
BRANCH  14  15
ATOM     15  C   UNL     1       6.563  42.406   8.834  1.00  0.00    -0.000 C 
BRANCH  15  16
ATOM     16  C   UNL     1       6.544  43.143   7.486  1.00  0.00    -0.000 C 
BRANCH  16  17
ATOM     17  C   UNL     1       7.185  42.328   6.350  1.00  0.00    -0.000 C 
BRANCH  17  18
ATOM     18  C   UNL     1       8.721  42.224   6.457  1.00  0.00    -0.000 C 
BRANCH  18  19
ATOM     19  C   UNL     1       9.361  41.710   5.160  1.00  0.00    -0.003 C 
ATOM     20  C   UNL     1       9.338  40.186   5.099  1.00  0.00     0.004 C 
ENDBRANCH  18  19
ENDBRANCH  17  18
ENDBRANCH  16  17
ENDBRANCH  15  16
ENDBRANCH  14  15
ENDBRANCH  13  14
ENDBRANCH  12  13
ENDBRANCH   1  12
TORSDOF 16
ENDMDL
MODEL 5
REMARK VINA RESULT:    11.147      3.702      8.851
REMARK INTER + INTRA:          21.730
REMARK INTER:                  22.367
REMARK INTRA:                  -0.637
REMARK UNBOUND:                 0.158
REMARK SMILES CCCCCCCCCCCCCCCCCC(=O)[O-]
REMARK SMILES IDX 10 1 11 2 12 3 13 4 14 5 15 6 16 7 17 8 18 9 19 10 20 11
REMARK SMILES IDX 9 12 8 13 7 14 6 15 5 16 4 17 3 18 2 19 1 20
REMARK H PARENT
REMARK Flexibility Score: inf
ROOT
ATOM      1  C   UNL     1       4.820  42.696  10.726  1.00  0.00     0.000 C 
ENDROOT
BRANCH   1   2
ATOM      2  C   UNL     1       4.092  41.632  11.564  1.00  0.00     0.000 C 
BRANCH   2   3
ATOM      3  C   UNL     1       4.724  41.440  12.951  1.00  0.00     0.000 C 
BRANCH   3   4
ATOM      4  C   UNL     1       3.840  40.603  13.890  1.00  0.00     0.000 C 
BRANCH   4   5
ATOM      5  C   UNL     1       4.572  40.168  15.170  1.00  0.00     0.000 C 
BRANCH   5   6
ATOM      6  C   UNL     1       5.074  38.709  15.127  1.00  0.00     0.000 C 
BRANCH   6   7
ATOM      7  C   UNL     1       6.230  38.461  16.113  1.00  0.00     0.006 C 
BRANCH   7   8
ATOM      8  C   UNL     1       7.545  38.129  15.397  1.00  0.00     0.053 C 
BRANCH   8   9
ATOM      9  C   UNL     1       8.638  39.081  15.773  1.00  0.00     0.041 C 
ATOM     10  O   UNL     1       8.414  40.319  15.816  1.00  0.00    -0.550 OA
ATOM     11  O   UNL     1       9.914  38.603  16.042  1.00  0.00    -0.550 OA
ENDBRANCH   8   9
ENDBRANCH   7   8
ENDBRANCH   6   7
ENDBRANCH   5   6
ENDBRANCH   4   5
ENDBRANCH   3   4
ENDBRANCH   2   3
ENDBRANCH   1   2
BRANCH   1  12
ATOM     12  C   UNL     1       4.210  42.873   9.324  1.00  0.00     0.000 C 
BRANCH  12  13
ATOM     13  C   UNL     1       5.178  43.428   8.263  1.00  0.00    -0.000 C 
BRANCH  13  14
ATOM     14  C   UNL     1       6.487  42.625   8.169  1.00  0.00    -0.000 C 
BRANCH  14  15
ATOM     15  C   UNL     1       7.129  42.707   6.776  1.00  0.00    -0.000 C 
BRANCH  15  16
ATOM     16  C   UNL     1       8.663  42.631   6.829  1.00  0.00    -0.000 C 
BRANCH  16  17
ATOM     17  C   UNL     1       9.215  41.308   6.271  1.00  0.00    -0.000 C 
BRANCH  17  18
ATOM     18  C   UNL     1       8.457  40.799   5.028  1.00  0.00    -0.000 C 
BRANCH  18  19
ATOM     19  C   UNL     1       9.218  41.079   3.725  1.00  0.00    -0.003 C 
ATOM     20  C   UNL     1      10.278  40.013   3.464  1.00  0.00     0.004 C 
ENDBRANCH  18  19
ENDBRANCH  17  18
ENDBRANCH  16  17
ENDBRANCH  15  16
ENDBRANCH  14  15
ENDBRANCH  13  14
ENDBRANCH  12  13
ENDBRANCH   1  12
TORSDOF 16
ENDMDL
MODEL 6
REMARK VINA RESULT:    11.319      1.675      3.629
REMARK INTER + INTRA:          22.063
REMARK INTER:                  22.797
REMARK INTRA:                  -0.733
REMARK UNBOUND:                 0.158
REMARK SMILES CCCCCCCCCCCCCCCCCC(=O)[O-]
REMARK SMILES IDX 10 1 11 2 12 3 13 4 14 5 15 6 16 7 17 8 18 9 19 10 20 11
REMARK SMILES IDX 9 12 8 13 7 14 6 15 5 16 4 17 3 18 2 19 1 20
REMARK H PARENT
REMARK Flexibility Score: inf
ROOT
ATOM      1  C   UNL     1       7.648  41.740  11.915  1.00  0.00     0.000 C 
ENDROOT
BRANCH   1   2
ATOM      2  C   UNL     1       6.739  41.594  10.683  1.00  0.00     0.000 C 
BRANCH   2   3
ATOM      3  C   UNL     1       6.877  42.771   9.705  1.00  0.00     0.000 C 
BRANCH   3   4
ATOM      4  C   UNL     1       5.752  42.802   8.658  1.00  0.00     0.000 C 
BRANCH   4   5
ATOM      5  C   UNL     1       6.277  42.942   7.220  1.00  0.00     0.000 C 
BRANCH   5   6
ATOM      6  C   UNL     1       7.795  43.212   7.141  1.00  0.00     0.000 C 
BRANCH   6   7
ATOM      7  C   UNL     1       8.588  41.962   6.720  1.00  0.00     0.006 C 
BRANCH   7   8
ATOM      8  C   UNL     1       8.305  41.556   5.267  1.00  0.00     0.053 C 
BRANCH   8   9
ATOM      9  C   UNL     1       9.196  40.438   4.820  1.00  0.00     0.041 C 
ATOM     10  O   UNL     1       9.713  40.458   3.673  1.00  0.00    -0.550 OA
ATOM     11  O   UNL     1       9.428  39.356   5.660  1.00  0.00    -0.550 OA
ENDBRANCH   8   9
ENDBRANCH   7   8
ENDBRANCH   6   7
ENDBRANCH   5   6
ENDBRANCH   4   5
ENDBRANCH   3   4
ENDBRANCH   2   3
ENDBRANCH   1   2
BRANCH   1  12
ATOM     12  C   UNL     1       7.305  40.738  13.033  1.00  0.00     0.000 C 
BRANCH  12  13
ATOM     13  C   UNL     1       8.406  40.549  14.091  1.00  0.00    -0.000 C 
BRANCH  13  14
ATOM     14  C   UNL     1       7.863  40.028  15.433  1.00  0.00    -0.000 C 
BRANCH  14  15
ATOM     15  C   UNL     1       6.341  39.816  15.409  1.00  0.00    -0.000 C 
BRANCH  15  16
ATOM     16  C   UNL     1       5.952  38.329  15.440  1.00  0.00    -0.000 C 
BRANCH  16  17
ATOM     17  C   UNL     1       4.598  38.080  16.125  1.00  0.00    -0.000 C 
BRANCH  17  18
ATOM     18  C   UNL     1       3.441  38.907  15.524  1.00  0.00    -0.000 C 
BRANCH  18  19
ATOM     19  C   UNL     1       2.188  38.057  15.271  1.00  0.00    -0.003 C 
ATOM     20  C   UNL     1       1.937  37.876  13.777  1.00  0.00     0.004 C 
ENDBRANCH  18  19
ENDBRANCH  17  18
ENDBRANCH  16  17
ENDBRANCH  15  16
ENDBRANCH  14  15
ENDBRANCH  13  14
ENDBRANCH  12  13
ENDBRANCH   1  12
TORSDOF 16
ENDMDL
MODEL 7
REMARK VINA RESULT:    11.341      1.290      1.601
REMARK INTER + INTRA:          22.108
REMARK INTER:                  22.967
REMARK INTRA:                  -0.860
REMARK UNBOUND:                 0.158
REMARK SMILES CCCCCCCCCCCCCCCCCC(=O)[O-]
REMARK SMILES IDX 10 1 11 2 12 3 13 4 14 5 15 6 16 7 17 8 18 9 19 10 20 11
REMARK SMILES IDX 9 12 8 13 7 14 6 15 5 16 4 17 3 18 2 19 1 20
REMARK H PARENT
REMARK Flexibility Score: inf
ROOT
ATOM      1  C   UNL     1       4.735  41.221  12.765  1.00  0.00     0.000 C 
ENDROOT
BRANCH   1   2
ATOM      2  C   UNL     1       3.982  41.679  11.504  1.00  0.00     0.000 C 
BRANCH   2   3
ATOM      3  C   UNL     1       4.799  42.666  10.656  1.00  0.00     0.000 C 
BRANCH   3   4
ATOM      4  C   UNL     1       4.080  43.060   9.356  1.00  0.00     0.000 C 
BRANCH   4   5
ATOM      5  C   UNL     1       5.043  43.566   8.269  1.00  0.00     0.000 C 
BRANCH   5   6
ATOM      6  C   UNL     1       6.054  42.501   7.796  1.00  0.00     0.000 C 
BRANCH   6   7
ATOM      7  C   UNL     1       6.664  42.844   6.426  1.00  0.00     0.006 C 
BRANCH   7   8
ATOM      8  C   UNL     1       8.072  43.443   6.549  1.00  0.00     0.053 C 
BRANCH   8   9
ATOM      9  C   UNL     1       9.125  42.379   6.584  1.00  0.00     0.041 C 
ATOM     10  O   UNL     1      10.226  42.595   7.155  1.00  0.00    -0.550 OA
ATOM     11  O   UNL     1       8.905  41.161   5.955  1.00  0.00    -0.550 OA
ENDBRANCH   8   9
ENDBRANCH   7   8
ENDBRANCH   6   7
ENDBRANCH   5   6
ENDBRANCH   4   5
ENDBRANCH   3   4
ENDBRANCH   2   3
ENDBRANCH   1   2
BRANCH   1  12
ATOM     12  C   UNL     1       3.805  41.021  13.976  1.00  0.00     0.000 C 
BRANCH  12  13
ATOM     13  C   UNL     1       3.148  39.631  14.062  1.00  0.00    -0.000 C 
BRANCH  13  14
ATOM     14  C   UNL     1       3.354  38.957  15.430  1.00  0.00    -0.000 C 
BRANCH  14  15
ATOM     15  C   UNL     1       4.494  37.926  15.412  1.00  0.00    -0.000 C 
BRANCH  15  16
ATOM     16  C   UNL     1       5.758  38.433  16.125  1.00  0.00    -0.000 C 
BRANCH  16  17
ATOM     17  C   UNL     1       6.870  38.848  15.146  1.00  0.00    -0.000 C 
BRANCH  17  18
ATOM     18  C   UNL     1       8.139  39.380  15.844  1.00  0.00    -0.000 C 
BRANCH  18  19
ATOM     19  C   UNL     1       9.301  38.379  15.783  1.00  0.00    -0.003 C 
ATOM     20  C   UNL     1      10.501  38.970  15.048  1.00  0.00     0.004 C 
ENDBRANCH  18  19
ENDBRANCH  17  18
ENDBRANCH  16  17
ENDBRANCH  15  16
ENDBRANCH  14  15
ENDBRANCH  13  14
ENDBRANCH  12  13
ENDBRANCH   1  12
TORSDOF 16
ENDMDL
MODEL 8
REMARK VINA RESULT:    11.352      3.249      8.599
REMARK INTER + INTRA:          22.127
REMARK INTER:                  22.972
REMARK INTRA:                  -0.844
REMARK UNBOUND:                 0.158
REMARK SMILES CCCCCCCCCCCCCCCCCC(=O)[O-]
REMARK SMILES IDX 10 1 11 2 12 3 13 4 14 5 15 6 16 7 17 8 18 9 19 10 20 11
REMARK SMILES IDX 9 12 8 13 7 14 6 15 5 16 4 17 3 18 2 19 1 20
REMARK H PARENT
REMARK Flexibility Score: inf
ROOT
ATOM      1  C   UNL     1       4.589  42.048  12.094  1.00  0.00     0.000 C 
ENDROOT
BRANCH   1   2
ATOM      2  C   UNL     1       4.731  40.721  12.860  1.00  0.00     0.000 C 
BRANCH   2   3
ATOM      3  C   UNL     1       4.300  40.842  14.330  1.00  0.00     0.000 C 
BRANCH   3   4
ATOM      4  C   UNL     1       3.461  39.642  14.798  1.00  0.00     0.000 C 
BRANCH   4   5
ATOM      5  C   UNL     1       4.295  38.364  14.984  1.00  0.00     0.000 C 
BRANCH   5   6
ATOM      6  C   UNL     1       5.419  38.508  16.032  1.00  0.00     0.000 C 
BRANCH   6   7
ATOM      7  C   UNL     1       6.817  38.518  15.389  1.00  0.00     0.006 C 
BRANCH   7   8
ATOM      8  C   UNL     1       7.789  39.450  16.124  1.00  0.00     0.053 C 
BRANCH   8   9
ATOM      9  C   UNL     1       7.914  40.775  15.438  1.00  0.00     0.041 C 
ATOM     10  O   UNL     1       7.566  41.832  16.028  1.00  0.00    -0.550 OA
ATOM     11  O   UNL     1       8.382  40.840  14.132  1.00  0.00    -0.550 OA
ENDBRANCH   8   9
ENDBRANCH   7   8
ENDBRANCH   6   7
ENDBRANCH   5   6
ENDBRANCH   4   5
ENDBRANCH   3   4
ENDBRANCH   2   3
ENDBRANCH   1   2
BRANCH   1  12
ATOM     12  C   UNL     1       4.740  41.876  10.571  1.00  0.00     0.000 C 
BRANCH  12  13
ATOM     13  C   UNL     1       4.807  43.193   9.777  1.00  0.00    -0.000 C 
BRANCH  13  14
ATOM     14  C   UNL     1       5.294  42.995   8.331  1.00  0.00    -0.000 C 
BRANCH  14  15
ATOM     15  C   UNL     1       6.805  42.725   8.251  1.00  0.00    -0.000 C 
BRANCH  15  16
ATOM     16  C   UNL     1       7.286  42.485   6.811  1.00  0.00    -0.000 C 
BRANCH  16  17
ATOM     17  C   UNL     1       8.409  41.439   6.722  1.00  0.00    -0.000 C 
BRANCH  17  18
ATOM     18  C   UNL     1       9.320  41.614   5.489  1.00  0.00    -0.000 C 
BRANCH  18  19
ATOM     19  C   UNL     1       9.054  40.553   4.412  1.00  0.00    -0.003 C 
ATOM     20  C   UNL     1      10.028  40.693   3.246  1.00  0.00     0.004 C 
ENDBRANCH  18  19
ENDBRANCH  17  18
ENDBRANCH  16  17
ENDBRANCH  15  16
ENDBRANCH  14  15
ENDBRANCH  13  14
ENDBRANCH  12  13
ENDBRANCH   1  12
TORSDOF 16
ENDMDL
MODEL 9
REMARK VINA RESULT:    11.455      1.882      3.389
REMARK INTER + INTRA:          22.327
REMARK INTER:                  23.204
REMARK INTRA:                  -0.878
REMARK UNBOUND:                 0.158
REMARK SMILES CCCCCCCCCCCCCCCCCC(=O)[O-]
REMARK SMILES IDX 10 1 11 2 12 3 13 4 14 5 15 6 16 7 17 8 18 9 19 10 20 11
REMARK SMILES IDX 9 12 8 13 7 14 6 15 5 16 4 17 3 18 2 19 1 20
REMARK H PARENT
REMARK Flexibility Score: inf
ROOT
ATOM      1  C   UNL     1       6.862  42.339  10.297  1.00  0.00     0.000 C 
ENDROOT
BRANCH   1   2
ATOM      2  C   UNL     1       5.657  42.425   9.344  1.00  0.00     0.000 C 
BRANCH   2   3
ATOM      3  C   UNL     1       5.994  43.148   8.031  1.00  0.00     0.000 C 
BRANCH   3   4
ATOM      4  C   UNL     1       7.013  42.375   7.178  1.00  0.00     0.000 C 
BRANCH   4   5
ATOM      5  C   UNL     1       8.361  43.103   7.050  1.00  0.00     0.000 C 
BRANCH   5   6
ATOM      6  C   UNL     1       9.504  42.200   6.538  1.00  0.00     0.000 C 
BRANCH   6   7
ATOM      7  C   UNL     1       8.985  41.044   5.664  1.00  0.00     0.006 C 
BRANCH   7   8
ATOM      8  C   UNL     1       8.970  41.403   4.173  1.00  0.00     0.053 C 
BRANCH   8   9
ATOM      9  C   UNL     1       9.790  40.447   3.363  1.00  0.00     0.041 C 
ATOM     10  O   UNL     1       9.822  40.543   2.108  1.00  0.00    -0.550 OA
ATOM     11  O   UNL     1      10.493  39.429   3.993  1.00  0.00    -0.550 OA
ENDBRANCH   8   9
ENDBRANCH   7   8
ENDBRANCH   6   7
ENDBRANCH   5   6
ENDBRANCH   4   5
ENDBRANCH   3   4
ENDBRANCH   2   3
ENDBRANCH   1   2
BRANCH   1  12
ATOM     12  C   UNL     1       6.686  41.266  11.386  1.00  0.00     0.000 C 
BRANCH  12  13
ATOM     13  C   UNL     1       7.441  41.548  12.698  1.00  0.00    -0.000 C 
BRANCH  13  14
ATOM     14  C   UNL     1       7.437  40.346  13.660  1.00  0.00    -0.000 C 
BRANCH  14  15
ATOM     15  C   UNL     1       7.444  40.775  15.136  1.00  0.00    -0.000 C 
BRANCH  15  16
ATOM     16  C   UNL     1       6.995  39.647  16.079  1.00  0.00    -0.000 C 
BRANCH  16  17
ATOM     17  C   UNL     1       6.702  38.331  15.339  1.00  0.00    -0.000 C 
BRANCH  17  18
ATOM     18  C   UNL     1       5.231  37.879  15.444  1.00  0.00    -0.000 C 
BRANCH  18  19
ATOM     19  C   UNL     1       4.265  39.064  15.581  1.00  0.00    -0.003 C 
ATOM     20  C   UNL     1       2.912  38.614  16.125  1.00  0.00     0.004 C 
ENDBRANCH  18  19
ENDBRANCH  17  18
ENDBRANCH  16  17
ENDBRANCH  15  16
ENDBRANCH  14  15
ENDBRANCH  13  14
ENDBRANCH  12  13
ENDBRANCH   1  12
TORSDOF 16
ENDMDL
