MODEL 1
REMARK VINA RESULT:    -5.672      0.000      0.000
REMARK INTER + INTRA:          -6.942
REMARK INTER:                  -6.667
REMARK INTRA:                  -0.275
REMARK UNBOUND:                -0.275
REMARK SMILES O=c1c(O)c(-c2ccc(O)cc2)oc2cc(O)cc(O)c12
REMARK SMILES IDX 5 1 3 2 2 3 1 4 21 5 19 6 18 7 16 8 15 9 14 10 13 11 6 12
REMARK SMILES IDX 7 13 8 14 9 15 12 16 11 17 10 18 4 20 20 22 17 24
REMARK H PARENT 10 19 4 21 20 23 17 25
REMARK Flexibility Score: inf
ROOT
ATOM      1  C   UNL     1     125.453 133.075 111.513  1.00  0.00     0.180 A 
ATOM      2  C   UNL     1     126.516 132.163 111.624  1.00  0.00     0.208 A 
ATOM      3  C   UNL     1     127.819 132.597 111.332  1.00  0.00     0.238 A 
ATOM      4  O   UNL     1     128.774 131.791 111.487  1.00  0.00    -0.285 OA
ATOM      5  C   UNL     1     128.040 133.932 110.917  1.00  0.00     0.111 A 
ATOM      6  C   UNL     1     129.313 134.468 110.557  1.00  0.00     0.134 A 
ATOM      7  C   UNL     1     129.435 135.838 110.288  1.00  0.00     0.093 A 
ATOM      8  C   UNL     1     128.321 136.675 110.302  1.00  0.00     0.123 A 
ATOM      9  C   UNL     1     127.062 136.151 110.594  1.00  0.00     0.094 A 
ATOM     10  C   UNL     1     126.914 134.796 110.903  1.00  0.00     0.146 A 
ATOM     11  O   UNL     1     125.701 134.338 111.185  1.00  0.00    -0.452 OA
ENDROOT
BRANCH   1  12
ATOM     12  C   UNL     1     124.049 132.686 111.779  1.00  0.00     0.021 A 
ATOM     13  C   UNL     1     123.172 132.346 110.732  1.00  0.00     0.016 A 
ATOM     14  C   UNL     1     121.843 132.005 111.005  1.00  0.00     0.047 A 
ATOM     15  C   UNL     1     121.372 132.011 112.322  1.00  0.00     0.115 A 
ATOM     16  C   UNL     1     123.562 132.710 113.096  1.00  0.00     0.016 A 
ATOM     17  C   UNL     1     122.234 132.367 113.367  1.00  0.00     0.047 A 
BRANCH  15  18
ATOM     18  O   UNL     1     120.046 131.668 112.579  1.00  0.00    -0.508 OA
ATOM     19  H   UNL     1     119.445 132.260 113.140  1.00  0.00     0.293 HD
ENDBRANCH  15  18
ENDBRANCH   1  12
BRANCH   2  20
ATOM     20  O   UNL     1     126.278 130.856 112.057  1.00  0.00    -0.502 OA
ATOM     21  H   UNL     1     125.409 130.370 111.871  1.00  0.00     0.293 HD
ENDBRANCH   2  20
BRANCH   6  22
ATOM     22  O   UNL     1     130.474 133.701 110.425  1.00  0.00    -0.507 OA
ATOM     23  H   UNL     1     131.357 134.048 110.081  1.00  0.00     0.293 HD
ENDBRANCH   6  22
BRANCH   8  24
ATOM     24  O   UNL     1     128.476 138.030 110.013  1.00  0.00    -0.508 OA
ATOM     25  H   UNL     1     128.216 138.747 110.681  1.00  0.00     0.293 HD
ENDBRANCH   8  24
TORSDOF 5
ENDMDL
MODEL 2
REMARK VINA RESULT:    -5.562      1.816      6.987
REMARK INTER + INTRA:          -6.812
REMARK INTER:                  -6.528
REMARK INTRA:                  -0.285
REMARK UNBOUND:                -0.275
REMARK SMILES O=c1c(O)c(-c2ccc(O)cc2)oc2cc(O)cc(O)c12
REMARK SMILES IDX 5 1 3 2 2 3 1 4 21 5 19 6 18 7 16 8 15 9 14 10 13 11 6 12
REMARK SMILES IDX 7 13 8 14 9 15 12 16 11 17 10 18 4 20 20 22 17 24
REMARK H PARENT 10 19 4 21 20 23 17 25
REMARK Flexibility Score: inf
ROOT
ATOM      1  C   UNL     1     125.004 132.535 111.325  1.00  0.00     0.180 A 
ATOM      2  C   UNL     1     124.401 132.619 112.590  1.00  0.00     0.208 A 
ATOM      3  C   UNL     1     123.019 132.389 112.703  1.00  0.00     0.238 A 
ATOM      4  O   UNL     1     122.494 132.412 113.847  1.00  0.00    -0.285 OA
ATOM      5  C   UNL     1     122.258 132.095 111.547  1.00  0.00     0.111 A 
ATOM      6  C   UNL     1     120.846 131.884 111.539  1.00  0.00     0.134 A 
ATOM      7  C   UNL     1     120.217 131.469 110.358  1.00  0.00     0.093 A 
ATOM      8  C   UNL     1     120.936 131.322 109.173  1.00  0.00     0.123 A 
ATOM      9  C   UNL     1     122.306 131.583 109.155  1.00  0.00     0.094 A 
ATOM     10  C   UNL     1     122.969 131.962 110.325  1.00  0.00     0.146 A 
ATOM     11  O   UNL     1     124.275 132.192 110.269  1.00  0.00    -0.452 OA
ENDROOT
BRANCH   1  12
ATOM     12  C   UNL     1     126.449 132.789 111.122  1.00  0.00     0.021 A 
ATOM     13  C   UNL     1     127.388 131.741 111.148  1.00  0.00     0.016 A 
ATOM     14  C   UNL     1     128.750 132.008 110.978  1.00  0.00     0.047 A 
ATOM     15  C   UNL     1     129.192 133.321 110.792  1.00  0.00     0.115 A 
ATOM     16  C   UNL     1     126.903 134.108 110.955  1.00  0.00     0.016 A 
ATOM     17  C   UNL     1     128.265 134.372 110.784  1.00  0.00     0.047 A 
BRANCH  15  18
ATOM     18  O   UNL     1     130.552 133.572 110.622  1.00  0.00    -0.508 OA
ATOM     19  H   UNL     1     130.882 134.387 110.117  1.00  0.00     0.293 HD
ENDBRANCH  15  18
ENDBRANCH   1  12
BRANCH   2  20
ATOM     20  O   UNL     1     125.174 132.890 113.722  1.00  0.00    -0.502 OA
ATOM     21  H   UNL     1     125.938 132.292 114.015  1.00  0.00     0.293 HD
ENDBRANCH   2  20
BRANCH   6  22
ATOM     22  O   UNL     1     120.020 132.092 112.646  1.00  0.00    -0.507 OA
ATOM     23  H   UNL     1     119.123 131.652 112.786  1.00  0.00     0.293 HD
ENDBRANCH   6  22
BRANCH   8  24
ATOM     24  O   UNL     1     120.274 130.923 108.013  1.00  0.00    -0.508 OA
ATOM     25  H   UNL     1     120.024 129.954 107.852  1.00  0.00     0.293 HD
ENDBRANCH   8  24
TORSDOF 5
ENDMDL
MODEL 3
REMARK VINA RESULT:    -5.406      2.112      3.268
REMARK INTER + INTRA:          -6.630
REMARK INTER:                  -6.347
REMARK INTRA:                  -0.283
REMARK UNBOUND:                -0.275
REMARK SMILES O=c1c(O)c(-c2ccc(O)cc2)oc2cc(O)cc(O)c12
REMARK SMILES IDX 5 1 3 2 2 3 1 4 21 5 19 6 18 7 16 8 15 9 14 10 13 11 6 12
REMARK SMILES IDX 7 13 8 14 9 15 12 16 11 17 10 18 4 20 20 22 17 24
REMARK H PARENT 10 19 4 21 20 23 17 25
REMARK Flexibility Score: inf
ROOT
ATOM      1  C   UNL     1     126.686 134.563 110.943  1.00  0.00     0.180 A 
ATOM      2  C   UNL     1     126.612 134.803 109.561  1.00  0.00     0.208 A 
ATOM      3  C   UNL     1     127.478 135.749 108.987  1.00  0.00     0.238 A 
ATOM      4  O   UNL     1     127.445 135.920 107.740  1.00  0.00    -0.285 OA
ATOM      5  C   UNL     1     128.394 136.452 109.805  1.00  0.00     0.111 A 
ATOM      6  C   UNL     1     129.289 137.460 109.336  1.00  0.00     0.134 A 
ATOM      7  C   UNL     1     130.243 137.997 110.211  1.00  0.00     0.093 A 
ATOM      8  C   UNL     1     130.290 137.612 111.549  1.00  0.00     0.123 A 
ATOM      9  C   UNL     1     129.381 136.670 112.033  1.00  0.00     0.094 A 
ATOM     10  C   UNL     1     128.442 136.090 111.177  1.00  0.00     0.146 A 
ATOM     11  O   UNL     1     127.601 135.191 111.673  1.00  0.00    -0.452 OA
ENDROOT
BRANCH   1  12
ATOM     12  C   UNL     1     125.790 133.600 111.625  1.00  0.00     0.021 A 
ATOM     13  C   UNL     1     126.172 132.261 111.828  1.00  0.00     0.016 A 
ATOM     14  C   UNL     1     125.300 131.364 112.453  1.00  0.00     0.047 A 
ATOM     15  C   UNL     1     124.034 131.788 112.870  1.00  0.00     0.115 A 
ATOM     16  C   UNL     1     124.509 134.014 112.028  1.00  0.00     0.016 A 
ATOM     17  C   UNL     1     123.640 133.115 112.653  1.00  0.00     0.047 A 
BRANCH  15  18
ATOM     18  O   UNL     1     123.176 130.885 113.493  1.00  0.00    -0.508 OA
ATOM     19  H   UNL     1     123.444 129.919 113.647  1.00  0.00     0.293 HD
ENDBRANCH  15  18
ENDBRANCH   1  12
BRANCH   2  20
ATOM     20  O   UNL     1     125.716 134.082 108.768  1.00  0.00    -0.502 OA
ATOM     21  H   UNL     1     125.377 133.162 109.028  1.00  0.00     0.293 HD
ENDBRANCH   2  20
BRANCH   6  22
ATOM     22  O   UNL     1     129.266 137.984 108.041  1.00  0.00    -0.507 OA
ATOM     23  H   UNL     1     128.811 138.845 107.776  1.00  0.00     0.293 HD
ENDBRANCH   6  22
BRANCH   8  24
ATOM     24  O   UNL     1     131.242 138.178 112.395  1.00  0.00    -0.508 OA
ATOM     25  H   UNL     1     131.544 137.711 113.241  1.00  0.00     0.293 HD
ENDBRANCH   8  24
TORSDOF 5
ENDMDL
MODEL 4
REMARK VINA RESULT:    -5.390      2.178      7.112
REMARK INTER + INTRA:          -6.610
REMARK INTER:                  -6.317
REMARK INTRA:                  -0.293
REMARK UNBOUND:                -0.275
REMARK SMILES O=c1c(O)c(-c2ccc(O)cc2)oc2cc(O)cc(O)c12
REMARK SMILES IDX 5 1 3 2 2 3 1 4 21 5 19 6 18 7 16 8 15 9 14 10 13 11 6 12
REMARK SMILES IDX 7 13 8 14 9 15 12 16 11 17 10 18 4 20 20 22 17 24
REMARK H PARENT 10 19 4 21 20 23 17 25
REMARK Flexibility Score: inf
ROOT
ATOM      1  C   UNL     1     124.482 132.800 110.285  1.00  0.00     0.180 A 
ATOM      2  C   UNL     1     124.141 132.361 108.995  1.00  0.00     0.208 A 
ATOM      3  C   UNL     1     122.834 131.907 108.753  1.00  0.00     0.238 A 
ATOM      4  O   UNL     1     122.519 131.566 107.583  1.00  0.00    -0.285 OA
ATOM      5  C   UNL     1     121.891 131.883 109.808  1.00  0.00     0.111 A 
ATOM      6  C   UNL     1     120.551 131.405 109.686  1.00  0.00     0.134 A 
ATOM      7  C   UNL     1     119.666 131.550 110.763  1.00  0.00     0.093 A 
ATOM      8  C   UNL     1     120.089 132.094 111.974  1.00  0.00     0.123 A 
ATOM      9  C   UNL     1     121.412 132.509 112.124  1.00  0.00     0.094 A 
ATOM     10  C   UNL     1     122.309 132.412 111.057  1.00  0.00     0.146 A 
ATOM     11  O   UNL     1     123.556 132.827 111.237  1.00  0.00    -0.452 OA
ENDROOT
BRANCH   1  12
ATOM     12  C   UNL     1     125.846 133.269 110.623  1.00  0.00     0.021 A 
ATOM     13  C   UNL     1     126.865 132.365 110.973  1.00  0.00     0.016 A 
ATOM     14  C   UNL     1     128.139 132.833 111.312  1.00  0.00     0.047 A 
ATOM     15  C   UNL     1     128.406 134.205 111.319  1.00  0.00     0.115 A 
ATOM     16  C   UNL     1     126.115 134.648 110.652  1.00  0.00     0.016 A 
ATOM     17  C   UNL     1     127.390 135.112 110.990  1.00  0.00     0.047 A 
BRANCH  15  18
ATOM     18  O   UNL     1     129.680 134.657 111.657  1.00  0.00    -0.508 OA
ATOM     19  H   UNL     1     129.924 134.888 112.614  1.00  0.00     0.293 HD
ENDBRANCH  15  18
ENDBRANCH   1  12
BRANCH   2  20
ATOM     20  O   UNL     1     125.081 132.413 107.962  1.00  0.00    -0.502 OA
ATOM     21  H   UNL     1     125.340 133.280 107.505  1.00  0.00     0.293 HD
ENDBRANCH   2  20
BRANCH   6  22
ATOM     22  O   UNL     1     120.052 130.761 108.550  1.00  0.00    -0.507 OA
ATOM     23  H   UNL     1     119.930 131.197 107.649  1.00  0.00     0.293 HD
ENDBRANCH   6  22
BRANCH   8  24
ATOM     24  O   UNL     1     119.185 132.208 113.028  1.00  0.00    -0.508 OA
ATOM     25  H   UNL     1     118.218 131.921 112.931  1.00  0.00     0.293 HD
ENDBRANCH   8  24
TORSDOF 5
ENDMDL
MODEL 5
REMARK VINA RESULT:    -5.330      1.409      3.171
REMARK INTER + INTRA:          -6.539
REMARK INTER:                  -6.250
REMARK INTRA:                  -0.290
REMARK UNBOUND:                -0.275
REMARK SMILES O=c1c(O)c(-c2ccc(O)cc2)oc2cc(O)cc(O)c12
REMARK SMILES IDX 5 1 3 2 2 3 1 4 21 5 19 6 18 7 16 8 15 9 14 10 13 11 6 12
REMARK SMILES IDX 7 13 8 14 9 15 12 16 11 17 10 18 4 20 20 22 17 24
REMARK H PARENT 10 19 4 21 20 23 17 25
REMARK Flexibility Score: inf
ROOT
ATOM      1  C   UNL     1     124.941 132.941 111.499  1.00  0.00     0.180 A 
ATOM      2  C   UNL     1     125.367 134.265 111.300  1.00  0.00     0.208 A 
ATOM      3  C   UNL     1     126.737 134.522 111.130  1.00  0.00     0.238 A 
ATOM      4  O   UNL     1     127.106 135.703 110.898  1.00  0.00    -0.285 OA
ATOM      5  C   UNL     1     127.665 133.454 111.178  1.00  0.00     0.111 A 
ATOM      6  C   UNL     1     129.079 133.604 111.059  1.00  0.00     0.134 A 
ATOM      7  C   UNL     1     129.891 132.464 110.989  1.00  0.00     0.093 A 
ATOM      8  C   UNL     1     129.348 131.186 111.100  1.00  0.00     0.123 A 
ATOM      9  C   UNL     1     127.973 131.029 111.277  1.00  0.00     0.094 A 
ATOM     10  C   UNL     1     127.133 132.145 111.313  1.00  0.00     0.146 A 
ATOM     11  O   UNL     1     125.829 131.953 111.473  1.00  0.00    -0.452 OA
ENDROOT
BRANCH   1  12
ATOM     12  C   UNL     1     123.517 132.594 111.711  1.00  0.00     0.021 A 
ATOM     13  C   UNL     1     122.663 132.311 110.629  1.00  0.00     0.016 A 
ATOM     14  C   UNL     1     121.316 132.009 110.851  1.00  0.00     0.047 A 
ATOM     15  C   UNL     1     120.803 131.998 112.152  1.00  0.00     0.115 A 
ATOM     16  C   UNL     1     122.990 132.600 113.013  1.00  0.00     0.016 A 
ATOM     17  C   UNL     1     121.643 132.297 113.232  1.00  0.00     0.047 A 
BRANCH  15  18
ATOM     18  O   UNL     1     119.459 131.694 112.359  1.00  0.00    -0.508 OA
ATOM     19  H   UNL     1     118.721 132.304 112.028  1.00  0.00     0.293 HD
ENDBRANCH  15  18
ENDBRANCH   1  12
BRANCH   2  20
ATOM     20  O   UNL     1     124.432 135.302 111.234  1.00  0.00    -0.502 OA
ATOM     21  H   UNL     1     123.549 135.209 110.746  1.00  0.00     0.293 HD
ENDBRANCH   2  20
BRANCH   6  22
ATOM     22  O   UNL     1     129.734 134.839 111.032  1.00  0.00    -0.507 OA
ATOM     23  H   UNL     1     130.248 135.201 110.244  1.00  0.00     0.293 HD
ENDBRANCH   6  22
BRANCH   8  24
ATOM     24  O   UNL     1     130.187 130.075 111.043  1.00  0.00    -0.508 OA
ATOM     25  H   UNL     1     130.336 129.481 111.850  1.00  0.00     0.293 HD
ENDBRANCH   8  24
TORSDOF 5
ENDMDL
MODEL 6
REMARK VINA RESULT:    -5.290      1.797      3.521
REMARK INTER + INTRA:          -6.493
REMARK INTER:                  -6.221
REMARK INTRA:                  -0.272
REMARK UNBOUND:                -0.275
REMARK SMILES O=c1c(O)c(-c2ccc(O)cc2)oc2cc(O)cc(O)c12
REMARK SMILES IDX 5 1 3 2 2 3 1 4 21 5 19 6 18 7 16 8 15 9 14 10 13 11 6 12
REMARK SMILES IDX 7 13 8 14 9 15 12 16 11 17 10 18 4 20 20 22 17 24
REMARK H PARENT 10 19 4 21 20 23 17 25
REMARK Flexibility Score: inf
ROOT
ATOM      1  C   UNL     1     126.796 134.336 110.749  1.00  0.00     0.180 A 
ATOM      2  C   UNL     1     126.524 135.677 110.432  1.00  0.00     0.208 A 
ATOM      3  C   UNL     1     127.539 136.460 109.857  1.00  0.00     0.238 A 
ATOM      4  O   UNL     1     127.273 137.645 109.524  1.00  0.00    -0.285 OA
ATOM      5  C   UNL     1     128.815 135.896 109.622  1.00  0.00     0.111 A 
ATOM      6  C   UNL     1     129.928 136.608 109.082  1.00  0.00     0.134 A 
ATOM      7  C   UNL     1     131.106 135.915 108.770  1.00  0.00     0.093 A 
ATOM      8  C   UNL     1     131.232 134.554 109.039  1.00  0.00     0.123 A 
ATOM      9  C   UNL     1     130.171 133.860 109.623  1.00  0.00     0.094 A 
ATOM     10  C   UNL     1     128.972 134.515 109.911  1.00  0.00     0.146 A 
ATOM     11  O   UNL     1     127.983 133.818 110.456  1.00  0.00    -0.452 OA
ENDROOT
BRANCH   1  12
ATOM     12  C   UNL     1     125.786 133.455 111.381  1.00  0.00     0.021 A 
ATOM     13  C   UNL     1     124.803 132.801 110.615  1.00  0.00     0.016 A 
ATOM     14  C   UNL     1     123.845 131.993 111.236  1.00  0.00     0.047 A 
ATOM     15  C   UNL     1     123.849 131.838 112.626  1.00  0.00     0.115 A 
ATOM     16  C   UNL     1     125.771 133.311 112.778  1.00  0.00     0.016 A 
ATOM     17  C   UNL     1     124.813 132.502 113.396  1.00  0.00     0.047 A 
BRANCH  15  18
ATOM     18  O   UNL     1     122.890 131.029 113.230  1.00  0.00    -0.508 OA
ATOM     19  H   UNL     1     122.272 130.440 112.684  1.00  0.00     0.293 HD
ENDBRANCH  15  18
ENDBRANCH   1  12
BRANCH   2  20
ATOM     20  O   UNL     1     125.250 136.208 110.652  1.00  0.00    -0.502 OA
ATOM     21  H   UNL     1     125.018 136.740 111.483  1.00  0.00     0.293 HD
ENDBRANCH   2  20
BRANCH   6  22
ATOM     22  O   UNL     1     129.939 137.988 108.860  1.00  0.00    -0.507 OA
ATOM     23  H   UNL     1     129.698 138.684 109.549  1.00  0.00     0.293 HD
ENDBRANCH   6  22
BRANCH   8  24
ATOM     24  O   UNL     1     132.424 133.901 108.731  1.00  0.00    -0.508 OA
ATOM     25  H   UNL     1     133.272 134.415 108.527  1.00  0.00     0.293 HD
ENDBRANCH   8  24
TORSDOF 5
ENDMDL
MODEL 7
REMARK VINA RESULT:    -5.188      1.651      6.584
REMARK INTER + INTRA:          -6.373
REMARK INTER:                  -6.131
REMARK INTRA:                  -0.242
REMARK UNBOUND:                -0.275
REMARK SMILES O=c1c(O)c(-c2ccc(O)cc2)oc2cc(O)cc(O)c12
REMARK SMILES IDX 5 1 3 2 2 3 1 4 21 5 19 6 18 7 16 8 15 9 14 10 13 11 6 12
REMARK SMILES IDX 7 13 8 14 9 15 12 16 11 17 10 18 4 20 20 22 17 24
REMARK H PARENT 10 19 4 21 20 23 17 25
REMARK Flexibility Score: inf
ROOT
ATOM      1  C   UNL     1     125.684 134.303 110.625  1.00  0.00     0.180 A 
ATOM      2  C   UNL     1     126.275 133.370 111.493  1.00  0.00     0.208 A 
ATOM      3  C   UNL     1     125.451 132.467 112.185  1.00  0.00     0.238 A 
ATOM      4  O   UNL     1     125.989 131.598 112.920  1.00  0.00    -0.285 OA
ATOM      5  C   UNL     1     124.047 132.521 112.013  1.00  0.00     0.111 A 
ATOM      6  C   UNL     1     123.114 131.682 112.694  1.00  0.00     0.134 A 
ATOM      7  C   UNL     1     121.758 131.734 112.348  1.00  0.00     0.093 A 
ATOM      8  C   UNL     1     121.292 132.638 111.395  1.00  0.00     0.123 A 
ATOM      9  C   UNL     1     122.186 133.504 110.765  1.00  0.00     0.094 A 
ATOM     10  C   UNL     1     123.550 133.451 111.062  1.00  0.00     0.146 A 
ATOM     11  O   UNL     1     124.369 134.285 110.434  1.00  0.00    -0.452 OA
ENDROOT
BRANCH   1  12
ATOM     12  C   UNL     1     126.484 135.303 109.880  1.00  0.00     0.021 A 
ATOM     13  C   UNL     1     127.037 136.425 110.523  1.00  0.00     0.016 A 
ATOM     14  C   UNL     1     127.769 137.368 109.795  1.00  0.00     0.047 A 
ATOM     15  C   UNL     1     127.945 137.210 108.417  1.00  0.00     0.115 A 
ATOM     16  C   UNL     1     126.648 135.162 108.492  1.00  0.00     0.016 A 
ATOM     17  C   UNL     1     127.380 136.106 107.766  1.00  0.00     0.047 A 
BRANCH  15  18
ATOM     18  O   UNL     1     128.677 138.158 107.704  1.00  0.00    -0.508 OA
ATOM     19  H   UNL     1     129.648 138.350 107.921  1.00  0.00     0.293 HD
ENDBRANCH  15  18
ENDBRANCH   1  12
BRANCH   2  20
ATOM     20  O   UNL     1     127.664 133.319 111.632  1.00  0.00    -0.502 OA
ATOM     21  H   UNL     1     128.210 132.511 111.356  1.00  0.00     0.293 HD
ENDBRANCH   2  20
BRANCH   6  22
ATOM     22  O   UNL     1     123.461 130.808 113.729  1.00  0.00    -0.507 OA
ATOM     23  H   UNL     1     123.016 129.921 113.906  1.00  0.00     0.293 HD
ENDBRANCH   6  22
BRANCH   8  24
ATOM     24  O   UNL     1     119.934 132.673 111.087  1.00  0.00    -0.508 OA
ATOM     25  H   UNL     1     119.225 132.562 111.803  1.00  0.00     0.293 HD
ENDBRANCH   8  24
TORSDOF 5
ENDMDL
MODEL 8
REMARK VINA RESULT:    -5.162     10.054     12.991
REMARK INTER + INTRA:          -6.342
REMARK INTER:                  -6.059
REMARK INTRA:                  -0.284
REMARK UNBOUND:                -0.275
REMARK SMILES O=c1c(O)c(-c2ccc(O)cc2)oc2cc(O)cc(O)c12
REMARK SMILES IDX 5 1 3 2 2 3 1 4 21 5 19 6 18 7 16 8 15 9 14 10 13 11 6 12
REMARK SMILES IDX 7 13 8 14 9 15 12 16 11 17 10 18 4 20 20 22 17 24
REMARK H PARENT 10 19 4 21 20 23 17 25
REMARK Flexibility Score: inf
ROOT
ATOM      1  C   UNL     1     131.820 124.073 111.160  1.00  0.00     0.180 A 
ATOM      2  C   UNL     1     132.092 123.658 109.846  1.00  0.00     0.208 A 
ATOM      3  C   UNL     1     131.323 122.625 109.285  1.00  0.00     0.238 A 
ATOM      4  O   UNL     1     131.534 122.295 108.089  1.00  0.00    -0.285 OA
ATOM      5  C   UNL     1     130.304 122.010 110.052  1.00  0.00     0.111 A 
ATOM      6  C   UNL     1     129.491 120.928 109.599  1.00  0.00     0.134 A 
ATOM      7  C   UNL     1     128.426 120.485 110.394  1.00  0.00     0.093 A 
ATOM      8  C   UNL     1     128.186 121.039 111.650  1.00  0.00     0.123 A 
ATOM      9  C   UNL     1     129.011 122.057 112.128  1.00  0.00     0.094 A 
ATOM     10  C   UNL     1     130.059 122.546 111.344  1.00  0.00     0.146 A 
ATOM     11  O   UNL     1     130.815 123.522 111.831  1.00  0.00    -0.452 OA
ENDROOT
BRANCH   1  12
ATOM     12  C   UNL     1     132.604 125.138 111.829  1.00  0.00     0.021 A 
ATOM     13  C   UNL     1     133.849 124.866 112.426  1.00  0.00     0.016 A 
ATOM     14  C   UNL     1     134.560 125.882 113.072  1.00  0.00     0.047 A 
ATOM     15  C   UNL     1     134.033 127.175 113.142  1.00  0.00     0.115 A 
ATOM     16  C   UNL     1     132.071 126.434 111.921  1.00  0.00     0.016 A 
ATOM     17  C   UNL     1     132.785 127.448 112.567  1.00  0.00     0.047 A 
BRANCH  15  18
ATOM     18  O   UNL     1     134.752 128.178 113.788  1.00  0.00    -0.508 OA
ATOM     19  H   UNL     1     134.679 128.322 114.789  1.00  0.00     0.293 HD
ENDBRANCH  15  18
ENDBRANCH   1  12
BRANCH   2  20
ATOM     20  O   UNL     1     133.087 124.294 109.099  1.00  0.00    -0.502 OA
ATOM     21  H   UNL     1     133.716 123.786 108.487  1.00  0.00     0.293 HD
ENDBRANCH   2  20
BRANCH   6  22
ATOM     22  O   UNL     1     129.702 120.242 108.399  1.00  0.00    -0.507 OA
ATOM     23  H   UNL     1     129.053 120.220 107.628  1.00  0.00     0.293 HD
ENDBRANCH   6  22
BRANCH   8  24
ATOM     24  O   UNL     1     127.127 120.562 112.420  1.00  0.00    -0.508 OA
ATOM     25  H   UNL     1     127.063 119.587 112.686  1.00  0.00     0.293 HD
ENDBRANCH   8  24
TORSDOF 5
ENDMDL
MODEL 9
REMARK VINA RESULT:    -5.136      4.365      6.864
REMARK INTER + INTRA:          -6.312
REMARK INTER:                  -6.345
REMARK INTRA:                   0.033
REMARK UNBOUND:                -0.275
REMARK SMILES O=c1c(O)c(-c2ccc(O)cc2)oc2cc(O)cc(O)c12
REMARK SMILES IDX 5 1 3 2 2 3 1 4 21 5 19 6 18 7 16 8 15 9 14 10 13 11 6 12
REMARK SMILES IDX 7 13 8 14 9 15 12 16 11 17 10 18 4 20 20 22 17 24
REMARK H PARENT 10 19 4 21 20 23 17 25
REMARK Flexibility Score: inf
ROOT
ATOM      1  C   UNL     1     128.094 129.429 113.302  1.00  0.00     0.180 A 
ATOM      2  C   UNL     1     128.536 128.698 112.187  1.00  0.00     0.208 A 
ATOM      3  C   UNL     1     127.857 128.843 110.965  1.00  0.00     0.238 A 
ATOM      4  O   UNL     1     128.291 128.228 109.956  1.00  0.00    -0.285 OA
ATOM      5  C   UNL     1     126.736 129.704 110.881  1.00  0.00     0.111 A 
ATOM      6  C   UNL     1     125.950 129.896 109.705  1.00  0.00     0.134 A 
ATOM      7  C   UNL     1     124.944 130.871 109.699  1.00  0.00     0.093 A 
ATOM      8  C   UNL     1     124.653 131.613 110.843  1.00  0.00     0.123 A 
ATOM      9  C   UNL     1     125.376 131.391 112.015  1.00  0.00     0.094 A 
ATOM     10  C   UNL     1     126.410 130.452 112.042  1.00  0.00     0.146 A 
ATOM     11  O   UNL     1     127.080 130.278 113.174  1.00  0.00    -0.452 OA
ENDROOT
BRANCH   1  12
ATOM     12  C   UNL     1     128.742 129.310 114.629  1.00  0.00     0.021 A 
ATOM     13  C   UNL     1     127.990 129.056 115.791  1.00  0.00     0.016 A 
ATOM     14  C   UNL     1     128.620 128.972 117.037  1.00  0.00     0.047 A 
ATOM     15  C   UNL     1     130.003 129.153 117.139  1.00  0.00     0.115 A 
ATOM     16  C   UNL     1     130.127 129.512 114.743  1.00  0.00     0.016 A 
ATOM     17  C   UNL     1     130.755 129.426 115.989  1.00  0.00     0.047 A 
BRANCH  15  18
ATOM     18  O   UNL     1     130.618 129.065 118.386  1.00  0.00    -0.508 OA
ATOM     19  H   UNL     1     130.092 128.835 119.222  1.00  0.00     0.293 HD
ENDBRANCH  15  18
ENDBRANCH   1  12
BRANCH   2  20
ATOM     20  O   UNL     1     129.657 127.871 112.287  1.00  0.00    -0.502 OA
ATOM     21  H   UNL     1     130.554 128.208 112.616  1.00  0.00     0.293 HD
ENDBRANCH   2  20
BRANCH   6  22
ATOM     22  O   UNL     1     126.097 129.144 108.536  1.00  0.00    -0.507 OA
ATOM     23  H   UNL     1     126.223 128.144 108.508  1.00  0.00     0.293 HD
ENDBRANCH   6  22
BRANCH   8  24
ATOM     24  O   UNL     1     123.635 132.563 110.806  1.00  0.00    -0.508 OA
ATOM     25  H   UNL     1     122.971 132.658 111.565  1.00  0.00     0.293 HD
ENDBRANCH   8  24
TORSDOF 5
ENDMDL
