MODEL 1
REMARK VINA RESULT:    -6.651      0.000      0.000
REMARK INTER + INTRA:          -8.130
REMARK INTER:                  -7.817
REMARK INTRA:                  -0.312
REMARK UNBOUND:                -0.312
REMARK SMILES O=c1cc(-c2ccc(O)c(O)c2)oc2cc(O)cc(O)c12
REMARK SMILES IDX 4 1 3 2 2 3 1 4 21 5 19 6 18 7 16 8 15 9 14 10 13 11 5 12
REMARK SMILES IDX 6 13 7 14 8 15 12 16 10 17 9 18 11 20 20 22 17 24
REMARK H PARENT 9 19 11 21 20 23 17 25
REMARK Flexibility Score: inf
ROOT
ATOM      1  C   UNL     1      30.394  46.777 140.323  1.00  0.00     0.138 A 
ATOM      2  C   UNL     1      30.623  48.163 140.368  1.00  0.00     0.100 A 
ATOM      3  C   UNL     1      31.858  48.640 140.807  1.00  0.00     0.197 A 
ATOM      4  O   UNL     1      32.054  49.885 140.845  1.00  0.00    -0.289 OA
ATOM      5  C   UNL     1      32.857  47.728 141.200  1.00  0.00     0.107 A 
ATOM      6  C   UNL     1      34.136  48.129 141.656  1.00  0.00     0.134 A 
ATOM      7  C   UNL     1      35.074  47.157 142.036  1.00  0.00     0.093 A 
ATOM      8  C   UNL     1      34.757  45.795 141.968  1.00  0.00     0.123 A 
ATOM      9  C   UNL     1      33.496  45.396 141.519  1.00  0.00     0.094 A 
ATOM     10  C   UNL     1      32.548  46.348 141.136  1.00  0.00     0.146 A 
ATOM     11  O   UNL     1      31.355  45.942 140.711  1.00  0.00    -0.456 OA
ENDROOT
BRANCH   1  12
ATOM     12  C   UNL     1      29.100  46.211 139.866  1.00  0.00     0.021 A 
ATOM     13  C   UNL     1      28.241  46.996 139.078  1.00  0.00     0.016 A 
ATOM     14  C   UNL     1      27.015  46.488 138.642  1.00  0.00     0.051 A 
ATOM     15  C   UNL     1      26.620  45.194 138.991  1.00  0.00     0.157 A 
ATOM     16  C   UNL     1      28.693  44.911 140.227  1.00  0.00     0.062 A 
ATOM     17  C   UNL     1      27.460  44.402 139.790  1.00  0.00     0.158 A 
BRANCH  15  18
ATOM     18  O   UNL     1      25.391  44.716 138.539  1.00  0.00    -0.504 OA
ATOM     19  H   UNL     1      24.860  45.191 137.818  1.00  0.00     0.293 HD
ENDBRANCH  15  18
BRANCH  17  20
ATOM     20  O   UNL     1      27.066  43.114 140.152  1.00  0.00    -0.504 OA
ATOM     21  H   UNL     1      27.415  42.669 140.994  1.00  0.00     0.293 HD
ENDBRANCH  17  20
ENDBRANCH   1  12
BRANCH   6  22
ATOM     22  O   UNL     1      34.480  49.478 141.733  1.00  0.00    -0.507 OA
ATOM     23  H   UNL     1      34.959  49.951 140.976  1.00  0.00     0.293 HD
ENDBRANCH   6  22
BRANCH   8  24
ATOM     24  O   UNL     1      35.688  44.830 142.346  1.00  0.00    -0.508 OA
ATOM     25  H   UNL     1      36.385  45.017 143.057  1.00  0.00     0.293 HD
ENDBRANCH   8  24
TORSDOF 5
ENDMDL
MODEL 2
REMARK VINA RESULT:    -6.562      1.744      2.489
REMARK INTER + INTRA:          -8.025
REMARK INTER:                  -7.745
REMARK INTRA:                  -0.280
REMARK UNBOUND:                -0.312
REMARK SMILES O=c1cc(-c2ccc(O)c(O)c2)oc2cc(O)cc(O)c12
REMARK SMILES IDX 4 1 3 2 2 3 1 4 21 5 19 6 18 7 16 8 15 9 14 10 13 11 5 12
REMARK SMILES IDX 6 13 7 14 8 15 12 16 10 17 9 18 11 20 20 22 17 24
REMARK H PARENT 9 19 11 21 20 23 17 25
REMARK Flexibility Score: inf
ROOT
ATOM      1  C   UNL     1      28.894  47.574 140.057  1.00  0.00     0.138 A 
ATOM      2  C   UNL     1      28.369  48.811 140.468  1.00  0.00     0.100 A 
ATOM      3  C   UNL     1      29.221  49.770 141.016  1.00  0.00     0.197 A 
ATOM      4  O   UNL     1      28.741  50.877 141.383  1.00  0.00    -0.289 OA
ATOM      5  C   UNL     1      30.594  49.485 141.152  1.00  0.00     0.107 A 
ATOM      6  C   UNL     1      31.525  50.401 141.696  1.00  0.00     0.134 A 
ATOM      7  C   UNL     1      32.876  50.037 141.803  1.00  0.00     0.093 A 
ATOM      8  C   UNL     1      33.311  48.777 141.376  1.00  0.00     0.123 A 
ATOM      9  C   UNL     1      32.395  47.870 140.840  1.00  0.00     0.094 A 
ATOM     10  C   UNL     1      31.046  48.213 140.724  1.00  0.00     0.146 A 
ATOM     11  O   UNL     1      30.194  47.332 140.208  1.00  0.00    -0.456 OA
ENDROOT
BRANCH   1  12
ATOM     12  C   UNL     1      28.036  46.516 139.468  1.00  0.00     0.021 A 
ATOM     13  C   UNL     1      27.275  46.801 138.321  1.00  0.00     0.016 A 
ATOM     14  C   UNL     1      26.455  45.823 137.752  1.00  0.00     0.051 A 
ATOM     15  C   UNL     1      26.371  44.550 138.321  1.00  0.00     0.157 A 
ATOM     16  C   UNL     1      27.939  45.234 140.046  1.00  0.00     0.062 A 
ATOM     17  C   UNL     1      27.114  44.254 139.476  1.00  0.00     0.158 A 
BRANCH  15  18
ATOM     18  O   UNL     1      25.545  43.596 137.729  1.00  0.00    -0.504 OA
ATOM     19  H   UNL     1      25.790  43.135 136.860  1.00  0.00     0.293 HD
ENDBRANCH  15  18
BRANCH  17  20
ATOM     20  O   UNL     1      27.025  42.989 140.056  1.00  0.00    -0.504 OA
ATOM     21  H   UNL     1      26.407  42.804 140.837  1.00  0.00     0.293 HD
ENDBRANCH  17  20
ENDBRANCH   1  12
BRANCH   6  22
ATOM     22  O   UNL     1      31.121  51.663 142.129  1.00  0.00    -0.507 OA
ATOM     23  H   UNL     1      30.285  51.794 142.685  1.00  0.00     0.293 HD
ENDBRANCH   6  22
BRANCH   8  24
ATOM     24  O   UNL     1      34.653  48.415 141.484  1.00  0.00    -0.508 OA
ATOM     25  H   UNL     1      35.339  49.041 141.888  1.00  0.00     0.293 HD
ENDBRANCH   8  24
TORSDOF 5
ENDMDL
MODEL 3
REMARK VINA RESULT:    -6.315      1.731      6.864
REMARK INTER + INTRA:          -7.735
REMARK INTER:                  -7.428
REMARK INTRA:                  -0.308
REMARK UNBOUND:                -0.312
REMARK SMILES O=c1cc(-c2ccc(O)c(O)c2)oc2cc(O)cc(O)c12
REMARK SMILES IDX 4 1 3 2 2 3 1 4 21 5 19 6 18 7 16 8 15 9 14 10 13 11 5 12
REMARK SMILES IDX 6 13 7 14 8 15 12 16 10 17 9 18 11 20 20 22 17 24
REMARK H PARENT 9 19 11 21 20 23 17 25
REMARK Flexibility Score: inf
ROOT
ATOM      1  C   UNL     1      29.989  48.039 140.287  1.00  0.00     0.138 A 
ATOM      2  C   UNL     1      28.954  48.767 139.674  1.00  0.00     0.100 A 
ATOM      3  C   UNL     1      27.842  48.090 139.175  1.00  0.00     0.197 A 
ATOM      4  O   UNL     1      26.918  48.752 138.627  1.00  0.00    -0.289 OA
ATOM      5  C   UNL     1      27.771  46.687 139.289  1.00  0.00     0.107 A 
ATOM      6  C   UNL     1      26.679  45.925 138.811  1.00  0.00     0.134 A 
ATOM      7  C   UNL     1      26.688  44.530 138.957  1.00  0.00     0.093 A 
ATOM      8  C   UNL     1      27.768  43.885 139.572  1.00  0.00     0.123 A 
ATOM      9  C   UNL     1      28.847  44.633 140.045  1.00  0.00     0.094 A 
ATOM     10  C   UNL     1      28.857  46.024 139.909  1.00  0.00     0.146 A 
ATOM     11  O   UNL     1      29.896  46.714 140.369  1.00  0.00    -0.456 OA
ENDROOT
BRANCH   1  12
ATOM     12  C   UNL     1      31.197  48.704 140.835  1.00  0.00     0.021 A 
ATOM     13  C   UNL     1      31.111  50.034 141.283  1.00  0.00     0.016 A 
ATOM     14  C   UNL     1      32.236  50.684 141.798  1.00  0.00     0.051 A 
ATOM     15  C   UNL     1      33.465  50.025 141.864  1.00  0.00     0.157 A 
ATOM     16  C   UNL     1      32.442  48.047 140.892  1.00  0.00     0.062 A 
ATOM     17  C   UNL     1      33.572  48.702 141.406  1.00  0.00     0.158 A 
BRANCH  15  18
ATOM     18  O   UNL     1      34.569  50.701 142.384  1.00  0.00    -0.504 OA
ATOM     19  H   UNL     1      34.540  51.689 142.606  1.00  0.00     0.293 HD
ENDBRANCH  15  18
BRANCH  17  20
ATOM     20  O   UNL     1      34.800  48.042 141.459  1.00  0.00    -0.504 OA
ATOM     21  H   UNL     1      34.923  47.116 141.066  1.00  0.00     0.293 HD
ENDBRANCH  17  20
ENDBRANCH   1  12
BRANCH   6  22
ATOM     22  O   UNL     1      25.589  46.541 138.194  1.00  0.00    -0.507 OA
ATOM     23  H   UNL     1      25.493  47.549 138.165  1.00  0.00     0.293 HD
ENDBRANCH   6  22
BRANCH   8  24
ATOM     24  O   UNL     1      27.777  42.499 139.716  1.00  0.00    -0.508 OA
ATOM     25  H   UNL     1      27.060  42.016 140.245  1.00  0.00     0.293 HD
ENDBRANCH   8  24
TORSDOF 5
ENDMDL
MODEL 4
REMARK VINA RESULT:    -6.295      4.266      5.802
REMARK INTER + INTRA:          -7.711
REMARK INTER:                  -7.414
REMARK INTRA:                  -0.298
REMARK UNBOUND:                -0.312
REMARK SMILES O=c1cc(-c2ccc(O)c(O)c2)oc2cc(O)cc(O)c12
REMARK SMILES IDX 4 1 3 2 2 3 1 4 21 5 19 6 18 7 16 8 15 9 14 10 13 11 5 12
REMARK SMILES IDX 6 13 7 14 8 15 12 16 10 17 9 18 11 20 20 22 17 24
REMARK H PARENT 9 19 11 21 20 23 17 25
REMARK Flexibility Score: inf
ROOT
ATOM      1  C   UNL     1      27.288  47.392 138.527  1.00  0.00     0.138 A 
ATOM      2  C   UNL     1      26.359  47.981 137.652  1.00  0.00     0.100 A 
ATOM      3  C   UNL     1      26.500  49.324 137.304  1.00  0.00     0.197 A 
ATOM      4  O   UNL     1      25.661  49.843 136.518  1.00  0.00    -0.289 OA
ATOM      5  C   UNL     1      27.568  50.073 137.836  1.00  0.00     0.107 A 
ATOM      6  C   UNL     1      27.783  51.439 137.533  1.00  0.00     0.134 A 
ATOM      7  C   UNL     1      28.868  52.115 138.110  1.00  0.00     0.093 A 
ATOM      8  C   UNL     1      29.740  51.452 138.982  1.00  0.00     0.123 A 
ATOM      9  C   UNL     1      29.531  50.105 139.283  1.00  0.00     0.094 A 
ATOM     10  C   UNL     1      28.456  49.413 138.719  1.00  0.00     0.146 A 
ATOM     11  O   UNL     1      28.280  48.130 139.020  1.00  0.00    -0.456 OA
ENDROOT
BRANCH   1  12
ATOM     12  C   UNL     1      27.188  45.969 138.933  1.00  0.00     0.021 A 
ATOM     13  C   UNL     1      26.803  45.004 137.986  1.00  0.00     0.016 A 
ATOM     14  C   UNL     1      26.696  43.658 138.346  1.00  0.00     0.051 A 
ATOM     15  C   UNL     1      26.961  43.253 139.656  1.00  0.00     0.157 A 
ATOM     16  C   UNL     1      27.442  45.557 140.257  1.00  0.00     0.062 A 
ATOM     17  C   UNL     1      27.333  44.206 140.618  1.00  0.00     0.158 A 
BRANCH  15  18
ATOM     18  O   UNL     1      26.847  41.902 139.984  1.00  0.00    -0.504 OA
ATOM     19  H   UNL     1      26.972  41.566 140.932  1.00  0.00     0.293 HD
ENDBRANCH  15  18
BRANCH  17  20
ATOM     20  O   UNL     1      27.587  43.809 141.931  1.00  0.00    -0.504 OA
ATOM     21  H   UNL     1      28.467  43.380 142.196  1.00  0.00     0.293 HD
ENDBRANCH  17  20
ENDBRANCH   1  12
BRANCH   6  22
ATOM     22  O   UNL     1      26.931  52.125 136.668  1.00  0.00    -0.507 OA
ATOM     23  H   UNL     1      26.982  53.131 136.557  1.00  0.00     0.293 HD
ENDBRANCH   6  22
BRANCH   8  24
ATOM     24  O   UNL     1      30.817  52.125 139.556  1.00  0.00    -0.508 OA
ATOM     25  H   UNL     1      31.618  51.625 139.924  1.00  0.00     0.293 HD
ENDBRANCH   8  24
TORSDOF 5
ENDMDL
MODEL 5
REMARK VINA RESULT:    -6.241      3.967      6.351
REMARK INTER + INTRA:          -7.648
REMARK INTER:                  -7.351
REMARK INTRA:                  -0.297
REMARK UNBOUND:                -0.312
REMARK SMILES O=c1cc(-c2ccc(O)c(O)c2)oc2cc(O)cc(O)c12
REMARK SMILES IDX 4 1 3 2 2 3 1 4 21 5 19 6 18 7 16 8 15 9 14 10 13 11 5 12
REMARK SMILES IDX 6 13 7 14 8 15 12 16 10 17 9 18 11 20 20 22 17 24
REMARK H PARENT 9 19 11 21 20 23 17 25
REMARK Flexibility Score: inf
ROOT
ATOM      1  C   UNL     1      27.288  43.859 138.620  1.00  0.00     0.138 A 
ATOM      2  C   UNL     1      28.242  44.087 139.626  1.00  0.00     0.100 A 
ATOM      3  C   UNL     1      28.568  45.397 139.978  1.00  0.00     0.197 A 
ATOM      4  O   UNL     1      29.426  45.592 140.882  1.00  0.00    -0.289 OA
ATOM      5  C   UNL     1      27.939  46.472 139.319  1.00  0.00     0.107 A 
ATOM      6  C   UNL     1      28.211  47.828 139.616  1.00  0.00     0.134 A 
ATOM      7  C   UNL     1      27.546  48.841 138.909  1.00  0.00     0.093 A 
ATOM      8  C   UNL     1      26.615  48.522 137.913  1.00  0.00     0.123 A 
ATOM      9  C   UNL     1      26.345  47.185 137.617  1.00  0.00     0.094 A 
ATOM     10  C   UNL     1      26.996  46.161 138.310  1.00  0.00     0.146 A 
ATOM     11  O   UNL     1      26.719  44.896 138.010  1.00  0.00    -0.456 OA
ENDROOT
BRANCH   1  12
ATOM     12  C   UNL     1      26.902  42.488 138.203  1.00  0.00     0.021 A 
ATOM     13  C   UNL     1      25.871  42.315 137.264  1.00  0.00     0.016 A 
ATOM     14  C   UNL     1      25.485  41.034 136.859  1.00  0.00     0.051 A 
ATOM     15  C   UNL     1      26.112  39.906 137.391  1.00  0.00     0.157 A 
ATOM     16  C   UNL     1      27.523  41.346 138.747  1.00  0.00     0.062 A 
ATOM     17  C   UNL     1      27.134  40.060 138.342  1.00  0.00     0.158 A 
BRANCH  15  18
ATOM     18  O   UNL     1      25.705  38.641 136.967  1.00  0.00    -0.504 OA
ATOM     19  H   UNL     1      25.558  37.877 137.617  1.00  0.00     0.293 HD
ENDBRANCH  15  18
BRANCH  17  20
ATOM     20  O   UNL     1      27.756  38.936 138.886  1.00  0.00    -0.504 OA
ATOM     21  H   UNL     1      27.222  38.134 139.200  1.00  0.00     0.293 HD
ENDBRANCH  17  20
ENDBRANCH   1  12
BRANCH   6  22
ATOM     22  O   UNL     1      29.133  48.176 140.604  1.00  0.00    -0.507 OA
ATOM     23  H   UNL     1      28.876  48.213 141.583  1.00  0.00     0.293 HD
ENDBRANCH   6  22
BRANCH   8  24
ATOM     24  O   UNL     1      25.956  49.529 137.210  1.00  0.00    -0.508 OA
ATOM     25  H   UNL     1      24.979  49.442 136.954  1.00  0.00     0.293 HD
ENDBRANCH   8  24
TORSDOF 5
ENDMDL
MODEL 6
REMARK VINA RESULT:    -6.094      3.360      5.149
REMARK INTER + INTRA:          -7.475
REMARK INTER:                  -7.172
REMARK INTRA:                  -0.304
REMARK UNBOUND:                -0.312
REMARK SMILES O=c1cc(-c2ccc(O)c(O)c2)oc2cc(O)cc(O)c12
REMARK SMILES IDX 4 1 3 2 2 3 1 4 21 5 19 6 18 7 16 8 15 9 14 10 13 11 5 12
REMARK SMILES IDX 6 13 7 14 8 15 12 16 10 17 9 18 11 20 20 22 17 24
REMARK H PARENT 9 19 11 21 20 23 17 25
REMARK Flexibility Score: inf
ROOT
ATOM      1  C   UNL     1      27.127  45.935 138.515  1.00  0.00     0.138 A 
ATOM      2  C   UNL     1      26.162  46.896 138.167  1.00  0.00     0.100 A 
ATOM      3  C   UNL     1      26.354  48.226 138.538  1.00  0.00     0.197 A 
ATOM      4  O   UNL     1      25.482  49.081 138.222  1.00  0.00    -0.289 OA
ATOM      5  C   UNL     1      27.509  48.589 139.258  1.00  0.00     0.107 A 
ATOM      6  C   UNL     1      27.780  49.915 139.670  1.00  0.00     0.134 A 
ATOM      7  C   UNL     1      28.952  50.193 140.390  1.00  0.00     0.093 A 
ATOM      8  C   UNL     1      29.856  49.171 140.703  1.00  0.00     0.123 A 
ATOM      9  C   UNL     1      29.592  47.861 140.298  1.00  0.00     0.094 A 
ATOM     10  C   UNL     1      28.430  47.563 139.580  1.00  0.00     0.146 A 
ATOM     11  O   UNL     1      28.203  46.309 139.204  1.00  0.00    -0.456 OA
ENDROOT
BRANCH   1  12
ATOM     12  C   UNL     1      26.977  44.505 138.148  1.00  0.00     0.021 A 
ATOM     13  C   UNL     1      26.329  44.162 136.949  1.00  0.00     0.016 A 
ATOM     14  C   UNL     1      26.170  42.822 136.585  1.00  0.00     0.051 A 
ATOM     15  C   UNL     1      26.643  41.803 137.414  1.00  0.00     0.157 A 
ATOM     16  C   UNL     1      27.442  43.473 138.988  1.00  0.00     0.062 A 
ATOM     17  C   UNL     1      27.279  42.128 138.623  1.00  0.00     0.158 A 
BRANCH  15  18
ATOM     18  O   UNL     1      26.470  40.476 137.023  1.00  0.00    -0.504 OA
ATOM     19  H   UNL     1      27.253  39.846 136.893  1.00  0.00     0.293 HD
ENDBRANCH  15  18
BRANCH  17  20
ATOM     20  O   UNL     1      27.744  41.114 139.461  1.00  0.00    -0.504 OA
ATOM     21  H   UNL     1      27.560  40.137 139.265  1.00  0.00     0.293 HD
ENDBRANCH  17  20
ENDBRANCH   1  12
BRANCH   6  22
ATOM     22  O   UNL     1      26.898  50.954 139.373  1.00  0.00    -0.507 OA
ATOM     23  H   UNL     1      27.216  51.910 139.270  1.00  0.00     0.293 HD
ENDBRANCH   6  22
BRANCH   8  24
ATOM     24  O   UNL     1      31.019  49.446 141.419  1.00  0.00    -0.508 OA
ATOM     25  H   UNL     1      31.456  48.748 142.009  1.00  0.00     0.293 HD
ENDBRANCH   8  24
TORSDOF 5
ENDMDL
MODEL 7
REMARK VINA RESULT:    -6.074      3.242      4.662
REMARK INTER + INTRA:          -7.451
REMARK INTER:                  -7.183
REMARK INTRA:                  -0.268
REMARK UNBOUND:                -0.312
REMARK SMILES O=c1cc(-c2ccc(O)c(O)c2)oc2cc(O)cc(O)c12
REMARK SMILES IDX 4 1 3 2 2 3 1 4 21 5 19 6 18 7 16 8 15 9 14 10 13 11 5 12
REMARK SMILES IDX 6 13 7 14 8 15 12 16 10 17 9 18 11 20 20 22 17 24
REMARK H PARENT 9 19 11 21 20 23 17 25
REMARK Flexibility Score: inf
ROOT
ATOM      1  C   UNL     1      28.946  48.727 139.842  1.00  0.00     0.138 A 
ATOM      2  C   UNL     1      28.803  47.330 139.897  1.00  0.00     0.100 A 
ATOM      3  C   UNL     1      29.889  46.544 140.282  1.00  0.00     0.197 A 
ATOM      4  O   UNL     1      29.751  45.291 140.328  1.00  0.00    -0.289 OA
ATOM      5  C   UNL     1      31.114  47.160 140.608  1.00  0.00     0.107 A 
ATOM      6  C   UNL     1      32.262  46.436 141.008  1.00  0.00     0.134 A 
ATOM      7  C   UNL     1      33.447  47.125 141.309  1.00  0.00     0.093 A 
ATOM      8  C   UNL     1      33.504  48.520 141.217  1.00  0.00     0.123 A 
ATOM      9  C   UNL     1      32.373  49.237 140.822  1.00  0.00     0.094 A 
ATOM     10  C   UNL     1      31.183  48.571 140.518  1.00  0.00     0.146 A 
ATOM     11  O   UNL     1      30.120  49.277 140.146  1.00  0.00    -0.456 OA
ENDROOT
BRANCH   1  12
ATOM     12  C   UNL     1      27.827  49.614 139.439  1.00  0.00     0.021 A 
ATOM     13  C   UNL     1      26.808  49.905 140.362  1.00  0.00     0.016 A 
ATOM     14  C   UNL     1      25.740  50.732 140.004  1.00  0.00     0.051 A 
ATOM     15  C   UNL     1      25.665  51.275 138.720  1.00  0.00     0.157 A 
ATOM     16  C   UNL     1      27.741  50.154 138.140  1.00  0.00     0.062 A 
ATOM     17  C   UNL     1      26.667  50.982 137.781  1.00  0.00     0.158 A 
BRANCH  15  18
ATOM     18  O   UNL     1      24.587  52.098 138.394  1.00  0.00    -0.504 OA
ATOM     19  H   UNL     1      24.185  52.748 139.059  1.00  0.00     0.293 HD
ENDBRANCH  15  18
BRANCH  17  20
ATOM     20  O   UNL     1      26.592  51.512 136.493  1.00  0.00    -0.504 OA
ATOM     21  H   UNL     1      25.704  51.629 136.018  1.00  0.00     0.293 HD
ENDBRANCH  17  20
ENDBRANCH   1  12
BRANCH   6  22
ATOM     22  O   UNL     1      32.235  45.045 141.108  1.00  0.00    -0.507 OA
ATOM     23  H   UNL     1      31.799  44.576 141.893  1.00  0.00     0.293 HD
ENDBRANCH   6  22
BRANCH   8  24
ATOM     24  O   UNL     1      34.681  49.204 141.515  1.00  0.00    -0.508 OA
ATOM     25  H   UNL     1      34.980  49.351 142.472  1.00  0.00     0.293 HD
ENDBRANCH   8  24
TORSDOF 5
ENDMDL
MODEL 8
REMARK VINA RESULT:    -6.041      2.376      7.299
REMARK INTER + INTRA:          -7.413
REMARK INTER:                  -7.118
REMARK INTRA:                  -0.295
REMARK UNBOUND:                -0.312
REMARK SMILES O=c1cc(-c2ccc(O)c(O)c2)oc2cc(O)cc(O)c12
REMARK SMILES IDX 4 1 3 2 2 3 1 4 21 5 19 6 18 7 16 8 15 9 14 10 13 11 5 12
REMARK SMILES IDX 6 13 7 14 8 15 12 16 10 17 9 18 11 20 20 22 17 24
REMARK H PARENT 9 19 11 21 20 23 17 25
REMARK Flexibility Score: inf
ROOT
ATOM      1  C   UNL     1      30.019  47.491 140.096  1.00  0.00     0.138 A 
ATOM      2  C   UNL     1      29.198  46.353 140.009  1.00  0.00     0.100 A 
ATOM      3  C   UNL     1      27.910  46.475 139.489  1.00  0.00     0.197 A 
ATOM      4  O   UNL     1      27.181  45.448 139.415  1.00  0.00    -0.289 OA
ATOM      5  C   UNL     1      27.447  47.735 139.061  1.00  0.00     0.107 A 
ATOM      6  C   UNL     1      26.156  47.944 138.521  1.00  0.00     0.134 A 
ATOM      7  C   UNL     1      25.770  49.233 138.124  1.00  0.00     0.093 A 
ATOM      8  C   UNL     1      26.649  50.314 138.256  1.00  0.00     0.123 A 
ATOM      9  C   UNL     1      27.924  50.111 138.789  1.00  0.00     0.094 A 
ATOM     10  C   UNL     1      28.329  48.835 139.190  1.00  0.00     0.146 A 
ATOM     11  O   UNL     1      29.548  48.669 139.692  1.00  0.00    -0.456 OA
ENDROOT
BRANCH   1  12
ATOM     12  C   UNL     1      31.398  47.423 140.641  1.00  0.00     0.021 A 
ATOM     13  C   UNL     1      32.064  48.612 140.986  1.00  0.00     0.016 A 
ATOM     14  C   UNL     1      33.365  48.574 141.495  1.00  0.00     0.051 A 
ATOM     15  C   UNL     1      34.026  47.355 141.660  1.00  0.00     0.157 A 
ATOM     16  C   UNL     1      32.073  46.196 140.797  1.00  0.00     0.062 A 
ATOM     17  C   UNL     1      33.380  46.160 141.306  1.00  0.00     0.158 A 
BRANCH  15  18
ATOM     18  O   UNL     1      35.323  47.351 142.171  1.00  0.00    -0.504 OA
ATOM     19  H   UNL     1      35.606  46.726 142.917  1.00  0.00     0.293 HD
ENDBRANCH  15  18
BRANCH  17  20
ATOM     20  O   UNL     1      34.039  44.940 141.456  1.00  0.00    -0.504 OA
ATOM     21  H   UNL     1      34.867  44.851 142.034  1.00  0.00     0.293 HD
ENDBRANCH  17  20
ENDBRANCH   1  12
BRANCH   6  22
ATOM     22  O   UNL     1      25.259  46.886 138.377  1.00  0.00    -0.507 OA
ATOM     23  H   UNL     1      25.190  46.148 139.067  1.00  0.00     0.293 HD
ENDBRANCH   6  22
BRANCH   8  24
ATOM     24  O   UNL     1      26.265  51.594 137.863  1.00  0.00    -0.508 OA
ATOM     25  H   UNL     1      26.255  51.868 136.887  1.00  0.00     0.293 HD
ENDBRANCH   8  24
TORSDOF 5
ENDMDL
