MODEL 1
REMARK VINA RESULT:    -6.353      0.000      0.000
REMARK INTER + INTRA:          -7.557
REMARK INTER:                  -7.653
REMARK INTRA:                   0.096
REMARK UNBOUND:                 0.096
REMARK SMILES Oc1cc(O)c2cc(O)c(-c3ccc(O)c(O)c3)[o+]c2c1.[Cl-]
REMARK SMILES IDX 10 1 19 2 20 3 21 4 2 5 3 6 4 7 6 8 7 9 8 10 11 11 12 12
REMARK SMILES IDX 13 13 14 14 18 15 16 16 15 17 17 19 9 21 1 23 5 25
REMARK H PARENT 15 18 17 20 9 22 1 24 5 26
REMARK Flexibility Score: inf
ROOT
ATOM      1  C   UNL     1     -38.721  75.442 -25.954  1.00  0.00     0.402 A 
ATOM      2  O   UNL     1     -37.617  75.946 -25.410  1.00  0.00    -0.202 OA
ATOM      3  C   UNL     1     -36.392  75.600 -25.793  1.00  0.00     0.368 A 
ATOM      4  C   UNL     1     -35.292  76.183 -25.158  1.00  0.00     0.162 A 
ATOM      5  C   UNL     1     -33.992  75.836 -25.538  1.00  0.00     0.128 A 
ATOM      6  C   UNL     1     -33.792  74.899 -26.556  1.00  0.00     0.093 A 
ATOM      7  C   UNL     1     -34.878  74.300 -27.206  1.00  0.00     0.136 A 
ATOM      8  C   UNL     1     -36.199  74.652 -26.826  1.00  0.00     0.125 A 
ATOM      9  C   UNL     1     -37.346  74.113 -27.432  1.00  0.00     0.078 A 
ATOM     10  C   UNL     1     -38.616  74.512 -27.005  1.00  0.00     0.223 A 
ENDROOT
BRANCH   1  11
ATOM     11  C   UNL     1     -40.029  75.900 -25.434  1.00  0.00     0.087 A 
ATOM     12  C   UNL     1     -40.224  76.004 -24.048  1.00  0.00     0.022 A 
ATOM     13  C   UNL     1     -41.456  76.415 -23.534  1.00  0.00     0.051 A 
ATOM     14  C   UNL     1     -42.516  76.714 -24.394  1.00  0.00     0.157 A 
ATOM     15  C   UNL     1     -41.104  76.182 -26.297  1.00  0.00     0.068 A 
ATOM     16  C   UNL     1     -42.343  76.593 -25.783  1.00  0.00     0.158 A 
BRANCH  14  17
ATOM     17  O   UNL     1     -43.734  77.125 -23.853  1.00  0.00    -0.504 OA
ATOM     18  H   UNL     1     -44.423  77.628 -24.398  1.00  0.00     0.293 HD
ENDBRANCH  14  17
BRANCH  16  19
ATOM     19  O   UNL     1     -43.400  76.876 -26.646  1.00  0.00    -0.504 OA
ATOM     20  H   UNL     1     -43.596  76.296 -27.454  1.00  0.00     0.293 HD
ENDBRANCH  16  19
ENDBRANCH   1  11
BRANCH  10  21
ATOM     21  O   UNL     1     -39.755  74.015 -27.640  1.00  0.00    -0.500 OA
ATOM     22  H   UNL     1     -40.215  74.524 -28.385  1.00  0.00     0.294 HD
ENDBRANCH  10  21
BRANCH   5  23
ATOM     23  O   UNL     1     -32.890  76.413 -24.911  1.00  0.00    -0.507 OA
ATOM     24  H   UNL     1     -32.799  76.421 -23.902  1.00  0.00     0.293 HD
ENDBRANCH   5  23
BRANCH   7  25
ATOM     25  O   UNL     1     -34.594  73.371 -28.211  1.00  0.00    -0.507 OA
ATOM     26  H   UNL     1     -34.671  73.557 -29.200  1.00  0.00     0.293 HD
ENDBRANCH   7  25
TORSDOF 6
ENDMDL
MODEL 2
REMARK VINA RESULT:    -6.064      1.356      6.877
REMARK INTER + INTRA:          -7.209
REMARK INTER:                  -6.918
REMARK INTRA:                  -0.291
REMARK UNBOUND:                 0.096
REMARK SMILES Oc1cc(O)c2cc(O)c(-c3ccc(O)c(O)c3)[o+]c2c1.[Cl-]
REMARK SMILES IDX 10 1 19 2 20 3 21 4 2 5 3 6 4 7 6 8 7 9 8 10 11 11 12 12
REMARK SMILES IDX 13 13 14 14 18 15 16 16 15 17 17 19 9 21 1 23 5 25
REMARK H PARENT 15 18 17 20 9 22 1 24 5 26
REMARK Flexibility Score: inf
ROOT
ATOM      1  C   UNL     1     -37.787  75.890 -26.485  1.00  0.00     0.402 A 
ATOM      2  O   UNL     1     -38.334  75.984 -25.276  1.00  0.00    -0.202 OA
ATOM      3  C   UNL     1     -39.647  76.004 -25.070  1.00  0.00     0.368 A 
ATOM      4  C   UNL     1     -40.128  76.108 -23.762  1.00  0.00     0.162 A 
ATOM      5  C   UNL     1     -41.504  76.134 -23.516  1.00  0.00     0.128 A 
ATOM      6  C   UNL     1     -42.402  76.058 -24.583  1.00  0.00     0.093 A 
ATOM      7  C   UNL     1     -41.946  75.955 -25.902  1.00  0.00     0.136 A 
ATOM      8  C   UNL     1     -40.550  75.924 -26.157  1.00  0.00     0.125 A 
ATOM      9  C   UNL     1     -40.003  75.808 -27.445  1.00  0.00     0.078 A 
ATOM     10  C   UNL     1     -38.615  75.781 -27.617  1.00  0.00     0.223 A 
ENDROOT
BRANCH   1  11
ATOM     11  C   UNL     1     -36.310  75.888 -26.585  1.00  0.00     0.087 A 
ATOM     12  C   UNL     1     -35.608  77.100 -26.488  1.00  0.00     0.022 A 
ATOM     13  C   UNL     1     -34.216  77.124 -26.599  1.00  0.00     0.051 A 
ATOM     14  C   UNL     1     -33.505  75.942 -26.825  1.00  0.00     0.157 A 
ATOM     15  C   UNL     1     -35.593  74.702 -26.833  1.00  0.00     0.068 A 
ATOM     16  C   UNL     1     -34.195  74.725 -26.948  1.00  0.00     0.158 A 
BRANCH  14  17
ATOM     17  O   UNL     1     -32.115  75.996 -26.929  1.00  0.00    -0.504 OA
ATOM     18  H   UNL     1     -31.635  76.794 -27.326  1.00  0.00     0.293 HD
ENDBRANCH  14  17
BRANCH  16  19
ATOM     19  O   UNL     1     -33.494  73.545 -27.187  1.00  0.00    -0.504 OA
ATOM     20  H   UNL     1     -33.475  72.791 -26.510  1.00  0.00     0.293 HD
ENDBRANCH  16  19
ENDBRANCH   1  11
BRANCH  10  21
ATOM     21  O   UNL     1     -38.071  75.615 -28.891  1.00  0.00    -0.500 OA
ATOM     22  H   UNL     1     -38.172  74.748 -29.405  1.00  0.00     0.294 HD
ENDBRANCH  10  21
BRANCH   5  23
ATOM     23  O   UNL     1     -41.992  76.237 -22.215  1.00  0.00    -0.507 OA
ATOM     24  H   UNL     1     -41.932  77.105 -21.694  1.00  0.00     0.293 HD
ENDBRANCH   5  23
BRANCH   7  25
ATOM     25  O   UNL     1     -42.909  75.886 -26.914  1.00  0.00    -0.507 OA
ATOM     26  H   UNL     1     -42.965  76.525 -27.693  1.00  0.00     0.293 HD
ENDBRANCH   7  25
TORSDOF 6
ENDMDL
MODEL 3
REMARK VINA RESULT:    -5.207      1.463      7.243
REMARK INTER + INTRA:          -6.176
REMARK INTER:                  -6.164
REMARK INTRA:                  -0.013
REMARK UNBOUND:                 0.096
REMARK SMILES Oc1cc(O)c2cc(O)c(-c3ccc(O)c(O)c3)[o+]c2c1.[Cl-]
REMARK SMILES IDX 10 1 19 2 20 3 21 4 2 5 3 6 4 7 6 8 7 9 8 10 11 11 12 12
REMARK SMILES IDX 13 13 14 14 18 15 16 16 15 17 17 19 9 21 1 23 5 25
REMARK H PARENT 15 18 17 20 9 22 1 24 5 26
REMARK Flexibility Score: inf
ROOT
ATOM      1  C   UNL     1     -38.454  75.904 -25.660  1.00  0.00     0.402 A 
ATOM      2  O   UNL     1     -39.487  75.557 -26.423  1.00  0.00    -0.202 OA
ATOM      3  C   UNL     1     -40.749  75.610 -26.009  1.00  0.00     0.368 A 
ATOM      4  C   UNL     1     -41.768  75.222 -26.884  1.00  0.00     0.162 A 
ATOM      5  C   UNL     1     -43.104  75.263 -26.474  1.00  0.00     0.128 A 
ATOM      6  C   UNL     1     -43.422  75.693 -25.183  1.00  0.00     0.093 A 
ATOM      7  C   UNL     1     -42.420  76.085 -24.288  1.00  0.00     0.136 A 
ATOM      8  C   UNL     1     -41.062  76.049 -24.700  1.00  0.00     0.125 A 
ATOM      9  C   UNL     1     -39.994  76.436 -23.875  1.00  0.00     0.078 A 
ATOM     10  C   UNL     1     -38.682  76.375 -24.354  1.00  0.00     0.223 A 
ENDROOT
BRANCH   1  11
ATOM     11  C   UNL     1     -37.093  75.792 -26.232  1.00  0.00     0.087 A 
ATOM     12  C   UNL     1     -36.232  76.900 -26.187  1.00  0.00     0.022 A 
ATOM     13  C   UNL     1     -34.951  76.824 -26.738  1.00  0.00     0.051 A 
ATOM     14  C   UNL     1     -34.516  75.648 -27.356  1.00  0.00     0.157 A 
ATOM     15  C   UNL     1     -36.661  74.616 -26.872  1.00  0.00     0.068 A 
ATOM     16  C   UNL     1     -35.375  74.539 -27.428  1.00  0.00     0.158 A 
BRANCH  14  17
ATOM     17  O   UNL     1     -33.230  75.600 -27.895  1.00  0.00    -0.504 OA
ATOM     18  H   UNL     1     -32.877  74.781 -28.373  1.00  0.00     0.293 HD
ENDBRANCH  14  17
BRANCH  16  19
ATOM     19  O   UNL     1     -34.953  73.368 -28.055  1.00  0.00    -0.504 OA
ATOM     20  H   UNL     1     -33.998  73.040 -27.979  1.00  0.00     0.293 HD
ENDBRANCH  16  19
ENDBRANCH   1  11
BRANCH  10  21
ATOM     21  O   UNL     1     -37.624  76.808 -23.552  1.00  0.00    -0.500 OA
ATOM     22  H   UNL     1     -37.772  77.126 -22.602  1.00  0.00     0.294 HD
ENDBRANCH  10  21
BRANCH   5  23
ATOM     23  O   UNL     1     -44.125  74.879 -27.340  1.00  0.00    -0.507 OA
ATOM     24  H   UNL     1     -44.705  75.564 -27.812  1.00  0.00     0.293 HD
ENDBRANCH   5  23
BRANCH   7  25
ATOM     25  O   UNL     1     -42.820  76.500 -23.013  1.00  0.00    -0.507 OA
ATOM     26  H   UNL     1     -43.724  76.307 -22.608  1.00  0.00     0.293 HD
ENDBRANCH   7  25
TORSDOF 6
ENDMDL
MODEL 4
REMARK VINA RESULT:    -5.156      1.830      6.813
REMARK INTER + INTRA:          -6.115
REMARK INTER:                  -5.918
REMARK INTRA:                  -0.198
REMARK UNBOUND:                 0.096
REMARK SMILES Oc1cc(O)c2cc(O)c(-c3ccc(O)c(O)c3)[o+]c2c1.[Cl-]
REMARK SMILES IDX 10 1 19 2 20 3 21 4 2 5 3 6 4 7 6 8 7 9 8 10 11 11 12 12
REMARK SMILES IDX 13 13 14 14 18 15 16 16 15 17 17 19 9 21 1 23 5 25
REMARK H PARENT 15 18 17 20 9 22 1 24 5 26
REMARK Flexibility Score: inf
ROOT
ATOM      1  C   UNL     1     -39.347  75.988 -25.256  1.00  0.00     0.402 A 
ATOM      2  O   UNL     1     -39.255  76.164 -23.940  1.00  0.00    -0.202 OA
ATOM      3  C   UNL     1     -40.295  76.466 -23.170  1.00  0.00     0.368 A 
ATOM      4  C   UNL     1     -40.098  76.634 -21.797  1.00  0.00     0.162 A 
ATOM      5  C   UNL     1     -41.174  76.956 -20.964  1.00  0.00     0.128 A 
ATOM      6  C   UNL     1     -42.451  77.111 -21.507  1.00  0.00     0.093 A 
ATOM      7  C   UNL     1     -42.674  76.948 -22.879  1.00  0.00     0.136 A 
ATOM      8  C   UNL     1     -41.586  76.618 -23.729  1.00  0.00     0.125 A 
ATOM      9  C   UNL     1     -41.720  76.424 -25.113  1.00  0.00     0.078 A 
ATOM     10  C   UNL     1     -40.600  76.097 -25.885  1.00  0.00     0.223 A 
ENDROOT
BRANCH   1  11
ATOM     11  C   UNL     1     -38.113  75.664 -26.006  1.00  0.00     0.087 A 
ATOM     12  C   UNL     1     -37.106  76.634 -26.133  1.00  0.00     0.022 A 
ATOM     13  C   UNL     1     -35.942  76.357 -26.854  1.00  0.00     0.051 A 
ATOM     14  C   UNL     1     -35.771  75.114 -27.471  1.00  0.00     0.157 A 
ATOM     15  C   UNL     1     -37.948  74.421 -26.645  1.00  0.00     0.068 A 
ATOM     16  C   UNL     1     -36.780  74.141 -27.371  1.00  0.00     0.158 A 
BRANCH  14  17
ATOM     17  O   UNL     1     -34.597  74.864 -28.181  1.00  0.00    -0.504 OA
ATOM     18  H   UNL     1     -34.520  74.103 -28.843  1.00  0.00     0.293 HD
ENDBRANCH  14  17
BRANCH  16  19
ATOM     19  O   UNL     1     -36.623  72.905 -27.995  1.00  0.00    -0.504 OA
ATOM     20  H   UNL     1     -35.960  72.771 -28.749  1.00  0.00     0.293 HD
ENDBRANCH  16  19
ENDBRANCH   1  11
BRANCH  10  21
ATOM     21  O   UNL     1     -40.741  75.853 -27.252  1.00  0.00    -0.500 OA
ATOM     22  H   UNL     1     -41.520  76.224 -27.782  1.00  0.00     0.294 HD
ENDBRANCH  10  21
BRANCH   5  23
ATOM     23  O   UNL     1     -40.985  77.125 -19.594  1.00  0.00    -0.507 OA
ATOM     24  H   UNL     1     -40.558  77.964 -19.217  1.00  0.00     0.293 HD
ENDBRANCH   5  23
BRANCH   7  25
ATOM     25  O   UNL     1     -43.982  77.123 -23.345  1.00  0.00    -0.507 OA
ATOM     26  H   UNL     1     -44.394  78.017 -23.566  1.00  0.00     0.293 HD
ENDBRANCH   7  25
TORSDOF 6
ENDMDL
MODEL 5
REMARK VINA RESULT:    -5.132      3.994      6.318
REMARK INTER + INTRA:          -6.086
REMARK INTER:                  -5.772
REMARK INTRA:                  -0.314
REMARK UNBOUND:                 0.096
REMARK SMILES Oc1cc(O)c2cc(O)c(-c3ccc(O)c(O)c3)[o+]c2c1.[Cl-]
REMARK SMILES IDX 10 1 19 2 20 3 21 4 2 5 3 6 4 7 6 8 7 9 8 10 11 11 12 12
REMARK SMILES IDX 13 13 14 14 18 15 16 16 15 17 17 19 9 21 1 23 5 25
REMARK H PARENT 15 18 17 20 9 22 1 24 5 26
REMARK Flexibility Score: inf
ROOT
ATOM      1  C   UNL     1     -39.669  76.079 -21.989  1.00  0.00     0.402 A 
ATOM      2  O   UNL     1     -38.794  76.328 -22.960  1.00  0.00    -0.202 OA
ATOM      3  C   UNL     1     -39.130  76.404 -24.243  1.00  0.00     0.368 A 
ATOM      4  C   UNL     1     -38.138  76.667 -25.192  1.00  0.00     0.162 A 
ATOM      5  C   UNL     1     -38.463  76.749 -26.549  1.00  0.00     0.128 A 
ATOM      6  C   UNL     1     -39.785  76.565 -26.959  1.00  0.00     0.093 A 
ATOM      7  C   UNL     1     -40.797  76.300 -26.030  1.00  0.00     0.136 A 
ATOM      8  C   UNL     1     -40.474  76.219 -24.650  1.00  0.00     0.125 A 
ATOM      9  C   UNL     1     -41.425  75.970 -23.647  1.00  0.00     0.078 A 
ATOM     10  C   UNL     1     -41.029  75.909 -22.307  1.00  0.00     0.223 A 
ENDROOT
BRANCH   1  11
ATOM     11  C   UNL     1     -39.170  76.010 -20.598  1.00  0.00     0.087 A 
ATOM     12  C   UNL     1     -39.310  77.125 -19.757  1.00  0.00     0.022 A 
ATOM     13  C   UNL     1     -38.829  77.089 -18.446  1.00  0.00     0.051 A 
ATOM     14  C   UNL     1     -38.186  75.946 -17.960  1.00  0.00     0.157 A 
ATOM     15  C   UNL     1     -38.505  74.868 -20.113  1.00  0.00     0.068 A 
ATOM     16  C   UNL     1     -38.019  74.831 -18.797  1.00  0.00     0.158 A 
BRANCH  14  17
ATOM     17  O   UNL     1     -37.719  75.938 -16.646  1.00  0.00    -0.504 OA
ATOM     18  H   UNL     1     -38.101  76.547 -15.934  1.00  0.00     0.293 HD
ENDBRANCH  14  17
BRANCH  16  19
ATOM     19  O   UNL     1     -37.367  73.694 -18.324  1.00  0.00    -0.504 OA
ATOM     20  H   UNL     1     -37.179  73.561 -17.338  1.00  0.00     0.293 HD
ENDBRANCH  16  19
ENDBRANCH   1  11
BRANCH  10  21
ATOM     21  O   UNL     1     -41.981  75.712 -21.306  1.00  0.00    -0.500 OA
ATOM     22  H   UNL     1     -42.730  76.375 -21.145  1.00  0.00     0.294 HD
ENDBRANCH  10  21
BRANCH   5  23
ATOM     23  O   UNL     1     -37.479  77.011 -27.500  1.00  0.00    -0.507 OA
ATOM     24  H   UNL     1     -37.707  77.121 -28.482  1.00  0.00     0.293 HD
ENDBRANCH   5  23
BRANCH   7  25
ATOM     25  O   UNL     1     -42.095  76.125 -26.521  1.00  0.00    -0.507 OA
ATOM     26  H   UNL     1     -42.916  76.563 -26.132  1.00  0.00     0.293 HD
ENDBRANCH   7  25
TORSDOF 6
ENDMDL
MODEL 6
REMARK VINA RESULT:    -5.102      1.735      6.973
REMARK INTER + INTRA:          -6.050
REMARK INTER:                  -6.536
REMARK INTRA:                   0.486
REMARK UNBOUND:                 0.096
REMARK SMILES Oc1cc(O)c2cc(O)c(-c3ccc(O)c(O)c3)[o+]c2c1.[Cl-]
REMARK SMILES IDX 10 1 19 2 20 3 21 4 2 5 3 6 4 7 6 8 7 9 8 10 11 11 12 12
REMARK SMILES IDX 13 13 14 14 18 15 16 16 15 17 17 19 9 21 1 23 5 25
REMARK H PARENT 15 18 17 20 9 22 1 24 5 26
REMARK Flexibility Score: inf
ROOT
ATOM      1  C   UNL     1     -37.343  76.138 -25.529  1.00  0.00     0.402 A 
ATOM      2  O   UNL     1     -37.593  76.331 -24.237  1.00  0.00    -0.202 OA
ATOM      3  C   UNL     1     -38.819  76.345 -23.726  1.00  0.00     0.368 A 
ATOM      4  C   UNL     1     -38.982  76.558 -22.354  1.00  0.00     0.162 A 
ATOM      5  C   UNL     1     -40.261  76.582 -21.790  1.00  0.00     0.128 A 
ATOM      6  C   UNL     1     -41.382  76.394 -22.602  1.00  0.00     0.093 A 
ATOM      7  C   UNL     1     -41.246  76.180 -23.979  1.00  0.00     0.136 A 
ATOM      8  C   UNL     1     -39.950  76.151 -24.556  1.00  0.00     0.125 A 
ATOM      9  C   UNL     1     -39.718  75.929 -25.923  1.00  0.00     0.078 A 
ATOM     10  C   UNL     1     -38.410  75.912 -26.418  1.00  0.00     0.223 A 
ENDROOT
BRANCH   1  11
ATOM     11  C   UNL     1     -35.932  76.153 -25.978  1.00  0.00     0.087 A 
ATOM     12  C   UNL     1     -35.631  75.872 -27.320  1.00  0.00     0.022 A 
ATOM     13  C   UNL     1     -34.306  75.861 -27.763  1.00  0.00     0.051 A 
ATOM     14  C   UNL     1     -33.261  76.115 -26.870  1.00  0.00     0.157 A 
ATOM     15  C   UNL     1     -34.878  76.389 -25.077  1.00  0.00     0.068 A 
ATOM     16  C   UNL     1     -33.546  76.376 -25.519  1.00  0.00     0.158 A 
BRANCH  14  17
ATOM     17  O   UNL     1     -31.948  76.101 -27.340  1.00  0.00    -0.504 OA
ATOM     18  H   UNL     1     -31.679  76.563 -28.199  1.00  0.00     0.293 HD
ENDBRANCH  14  17
BRANCH  16  19
ATOM     19  O   UNL     1     -32.509  76.617 -24.620  1.00  0.00    -0.504 OA
ATOM     20  H   UNL     1     -31.566  76.292 -24.797  1.00  0.00     0.293 HD
ENDBRANCH  16  19
ENDBRANCH   1  11
BRANCH  10  21
ATOM     21  O   UNL     1     -38.176  75.641 -27.767  1.00  0.00    -0.500 OA
ATOM     22  H   UNL     1     -37.283  75.838 -28.202  1.00  0.00     0.294 HD
ENDBRANCH  10  21
BRANCH   5  23
ATOM     23  O   UNL     1     -40.431  76.793 -20.424  1.00  0.00    -0.507 OA
ATOM     24  H   UNL     1     -40.937  76.133 -19.844  1.00  0.00     0.293 HD
ENDBRANCH   5  23
BRANCH   7  25
ATOM     25  O   UNL     1     -42.417  76.003 -24.722  1.00  0.00    -0.507 OA
ATOM     26  H   UNL     1     -43.094  75.273 -24.556  1.00  0.00     0.293 HD
ENDBRANCH   7  25
TORSDOF 6
ENDMDL
MODEL 7
REMARK VINA RESULT:    -5.083      1.614      2.090
REMARK INTER + INTRA:          -6.027
REMARK INTER:                  -6.242
REMARK INTRA:                   0.215
REMARK UNBOUND:                 0.096
REMARK SMILES Oc1cc(O)c2cc(O)c(-c3ccc(O)c(O)c3)[o+]c2c1.[Cl-]
REMARK SMILES IDX 10 1 19 2 20 3 21 4 2 5 3 6 4 7 6 8 7 9 8 10 11 11 12 12
REMARK SMILES IDX 13 13 14 14 18 15 16 16 15 17 17 19 9 21 1 23 5 25
REMARK H PARENT 15 18 17 20 9 22 1 24 5 26
REMARK Flexibility Score: inf
ROOT
ATOM      1  C   UNL     1     -39.207  76.169 -24.948  1.00  0.00     0.402 A 
ATOM      2  O   UNL     1     -37.927  76.140 -24.587  1.00  0.00    -0.202 OA
ATOM      3  C   UNL     1     -36.927  76.013 -25.454  1.00  0.00     0.368 A 
ATOM      4  C   UNL     1     -35.614  75.990 -24.978  1.00  0.00     0.162 A 
ATOM      5  C   UNL     1     -34.543  75.854 -25.867  1.00  0.00     0.128 A 
ATOM      6  C   UNL     1     -34.788  75.739 -27.238  1.00  0.00     0.093 A 
ATOM      7  C   UNL     1     -36.095  75.759 -27.739  1.00  0.00     0.136 A 
ATOM      8  C   UNL     1     -37.185  75.900 -26.841  1.00  0.00     0.125 A 
ATOM      9  C   UNL     1     -38.526  75.943 -27.256  1.00  0.00     0.078 A 
ATOM     10  C   UNL     1     -39.547  76.088 -26.311  1.00  0.00     0.223 A 
ENDROOT
BRANCH   1  11
ATOM     11  C   UNL     1     -40.230  76.305 -23.887  1.00  0.00     0.087 A 
ATOM     12  C   UNL     1     -39.889  76.922 -22.673  1.00  0.00     0.022 A 
ATOM     13  C   UNL     1     -40.833  77.043 -21.650  1.00  0.00     0.051 A 
ATOM     14  C   UNL     1     -42.125  76.537 -21.817  1.00  0.00     0.157 A 
ATOM     15  C   UNL     1     -41.526  75.778 -24.045  1.00  0.00     0.068 A 
ATOM     16  C   UNL     1     -42.474  75.898 -23.018  1.00  0.00     0.158 A 
BRANCH  14  17
ATOM     17  O   UNL     1     -43.047  76.676 -20.780  1.00  0.00    -0.504 OA
ATOM     18  H   UNL     1     -43.048  77.479 -20.164  1.00  0.00     0.293 HD
ENDBRANCH  14  17
BRANCH  16  19
ATOM     19  O   UNL     1     -43.756  75.379 -23.187  1.00  0.00    -0.504 OA
ATOM     20  H   UNL     1     -44.580  75.962 -23.104  1.00  0.00     0.293 HD
ENDBRANCH  16  19
ENDBRANCH   1  11
BRANCH  10  21
ATOM     21  O   UNL     1     -40.876  76.181 -26.727  1.00  0.00    -0.500 OA
ATOM     22  H   UNL     1     -41.446  76.990 -26.510  1.00  0.00     0.294 HD
ENDBRANCH  10  21
BRANCH   5  23
ATOM     23  O   UNL     1     -33.231  75.831 -25.400  1.00  0.00    -0.507 OA
ATOM     24  H   UNL     1     -32.468  75.500 -25.980  1.00  0.00     0.293 HD
ENDBRANCH   5  23
BRANCH   7  25
ATOM     25  O   UNL     1     -36.256  75.635 -29.123  1.00  0.00    -0.507 OA
ATOM     26  H   UNL     1     -36.407  74.762 -29.604  1.00  0.00     0.293 HD
ENDBRANCH   7  25
TORSDOF 6
ENDMDL
MODEL 8
REMARK VINA RESULT:    -4.764      7.465     10.094
REMARK INTER + INTRA:          -5.643
REMARK INTER:                  -5.673
REMARK INTRA:                   0.030
REMARK UNBOUND:                 0.096
REMARK SMILES Oc1cc(O)c2cc(O)c(-c3ccc(O)c(O)c3)[o+]c2c1.[Cl-]
REMARK SMILES IDX 10 1 19 2 20 3 21 4 2 5 3 6 4 7 6 8 7 9 8 10 11 11 12 12
REMARK SMILES IDX 13 13 14 14 18 15 16 16 15 17 17 19 9 21 1 23 5 25
REMARK H PARENT 15 18 17 20 9 22 1 24 5 26
REMARK Flexibility Score: inf
ROOT
ATOM      1  C   UNL     1     -36.838  72.276 -18.935  1.00  0.00     0.402 A 
ATOM      2  O   UNL     1     -37.886  72.444 -19.737  1.00  0.00    -0.202 OA
ATOM      3  C   UNL     1     -38.531  73.599 -19.861  1.00  0.00     0.368 A 
ATOM      4  C   UNL     1     -39.624  73.677 -20.729  1.00  0.00     0.162 A 
ATOM      5  C   UNL     1     -40.324  74.879 -20.876  1.00  0.00     0.128 A 
ATOM      6  C   UNL     1     -39.930  76.006 -20.151  1.00  0.00     0.093 A 
ATOM      7  C   UNL     1     -38.840  75.953 -19.275  1.00  0.00     0.136 A 
ATOM      8  C   UNL     1     -38.123  74.737 -19.124  1.00  0.00     0.125 A 
ATOM      9  C   UNL     1     -37.011  74.596 -18.279  1.00  0.00     0.078 A 
ATOM     10  C   UNL     1     -36.354  73.365 -18.187  1.00  0.00     0.223 A 
ENDROOT
BRANCH   1  11
ATOM     11  C   UNL     1     -36.209  70.937 -18.876  1.00  0.00     0.087 A 
ATOM     12  C   UNL     1     -37.014  69.804 -18.679  1.00  0.00     0.022 A 
ATOM     13  C   UNL     1     -36.440  68.532 -18.601  1.00  0.00     0.051 A 
ATOM     14  C   UNL     1     -35.055  68.375 -18.703  1.00  0.00     0.157 A 
ATOM     15  C   UNL     1     -34.813  70.778 -18.959  1.00  0.00     0.068 A 
ATOM     16  C   UNL     1     -34.235  69.502 -18.879  1.00  0.00     0.158 A 
BRANCH  14  17
ATOM     17  O   UNL     1     -34.510  67.093 -18.625  1.00  0.00    -0.504 OA
ATOM     18  H   UNL     1     -34.083  66.640 -19.423  1.00  0.00     0.293 HD
ENDBRANCH  14  17
BRANCH  16  19
ATOM     19  O   UNL     1     -32.853  69.354 -18.968  1.00  0.00    -0.504 OA
ATOM     20  H   UNL     1     -32.220  69.931 -18.426  1.00  0.00     0.293 HD
ENDBRANCH  16  19
ENDBRANCH   1  11
BRANCH  10  21
ATOM     21  O   UNL     1     -35.217  73.237 -17.386  1.00  0.00    -0.500 OA
ATOM     22  H   UNL     1     -34.619  72.422 -17.437  1.00  0.00     0.294 HD
ENDBRANCH  10  21
BRANCH   5  23
ATOM     23  O   UNL     1     -41.414  74.964 -21.739  1.00  0.00    -0.507 OA
ATOM     24  H   UNL     1     -41.295  74.956 -22.746  1.00  0.00     0.293 HD
ENDBRANCH   5  23
BRANCH   7  25
ATOM     25  O   UNL     1     -38.511  77.124 -18.583  1.00  0.00    -0.507 OA
ATOM     26  H   UNL     1     -38.536  78.049 -18.984  1.00  0.00     0.293 HD
ENDBRANCH   7  25
TORSDOF 6
ENDMDL
