MODEL 1
REMARK VINA RESULT:    -6.080      0.000      0.000
REMARK INTER + INTRA:          -7.391
REMARK INTER:                  -7.147
REMARK INTRA:                  -0.245
REMARK UNBOUND:                -0.245
REMARK SMILES O=c1c(O)c(-c2ccc(O)cc2)oc2cc(O)cc(O)c12
REMARK SMILES IDX 5 1 3 2 2 3 1 4 21 5 19 6 18 7 16 8 15 9 14 10 13 11 6 12
REMARK SMILES IDX 7 13 8 14 9 15 12 16 11 17 10 18 4 20 20 22 17 24
REMARK H PARENT 10 19 4 21 20 23 17 25
REMARK Flexibility Score: inf
ROOT
ATOM      1  C   UNL     1       9.043  -7.356  -8.177  1.00  0.00     0.180 A 
ATOM      2  C   UNL     1      10.397  -7.454  -8.539  1.00  0.00     0.208 A 
ATOM      3  C   UNL     1      10.725  -7.765  -9.869  1.00  0.00     0.238 A 
ATOM      4  O   UNL     1      11.939  -7.905 -10.175  1.00  0.00    -0.285 OA
ATOM      5  C   UNL     1       9.697  -7.957 -10.822  1.00  0.00     0.111 A 
ATOM      6  C   UNL     1       9.916  -8.237 -12.204  1.00  0.00     0.134 A 
ATOM      7  C   UNL     1       8.823  -8.538 -13.029  1.00  0.00     0.093 A 
ATOM      8  C   UNL     1       7.520  -8.505 -12.538  1.00  0.00     0.123 A 
ATOM      9  C   UNL     1       7.291  -8.176 -11.201  1.00  0.00     0.094 A 
ATOM     10  C   UNL     1       8.361  -7.905 -10.345  1.00  0.00     0.146 A 
ATOM     11  O   UNL     1       8.100  -7.606  -9.078  1.00  0.00    -0.452 OA
ENDROOT
BRANCH   1  12
ATOM     12  C   UNL     1       8.619  -7.007  -6.801  1.00  0.00     0.021 A 
ATOM     13  C   UNL     1       8.194  -7.994  -5.893  1.00  0.00     0.016 A 
ATOM     14  C   UNL     1       7.822  -7.644  -4.591  1.00  0.00     0.047 A 
ATOM     15  C   UNL     1       7.882  -6.310  -4.177  1.00  0.00     0.115 A 
ATOM     16  C   UNL     1       8.697  -5.672  -6.371  1.00  0.00     0.016 A 
ATOM     17  C   UNL     1       8.324  -5.324  -5.069  1.00  0.00     0.047 A 
BRANCH  15  18
ATOM     18  O   UNL     1       7.507  -5.975  -2.877  1.00  0.00    -0.508 OA
ATOM     19  H   UNL     1       6.789  -6.494  -2.383  1.00  0.00     0.293 HD
ENDBRANCH  15  18
ENDBRANCH   1  12
BRANCH   2  20
ATOM     20  O   UNL     1      11.397  -7.282  -7.577  1.00  0.00    -0.502 OA
ATOM     21  H   UNL     1      12.308  -7.716  -7.656  1.00  0.00     0.293 HD
ENDBRANCH   2  20
BRANCH   6  22
ATOM     22  O   UNL     1      11.171  -8.204 -12.819  1.00  0.00    -0.507 OA
ATOM     23  H   UNL     1      11.599  -8.984 -13.293  1.00  0.00     0.293 HD
ENDBRANCH   6  22
BRANCH   8  24
ATOM     24  O   UNL     1       6.456  -8.795 -13.390  1.00  0.00    -0.508 OA
ATOM     25  H   UNL     1       6.204  -8.177 -14.151  1.00  0.00     0.293 HD
ENDBRANCH   8  24
TORSDOF 5
ENDMDL
MODEL 2
REMARK VINA RESULT:    -6.005     12.346     14.131
REMARK INTER + INTRA:          -7.303
REMARK INTER:                  -7.016
REMARK INTRA:                  -0.287
REMARK UNBOUND:                -0.245
REMARK SMILES O=c1c(O)c(-c2ccc(O)cc2)oc2cc(O)cc(O)c12
REMARK SMILES IDX 5 1 3 2 2 3 1 4 21 5 19 6 18 7 16 8 15 9 14 10 13 11 6 12
REMARK SMILES IDX 7 13 8 14 9 15 12 16 11 17 10 18 4 20 20 22 17 24
REMARK H PARENT 10 19 4 21 20 23 17 25
REMARK Flexibility Score: inf
ROOT
ATOM      1  C   UNL     1      17.924  -0.317 -15.482  1.00  0.00     0.180 A 
ATOM      2  C   UNL     1      19.004   0.405 -14.946  1.00  0.00     0.208 A 
ATOM      3  C   UNL     1      20.082   0.738 -15.782  1.00  0.00     0.238 A 
ATOM      4  O   UNL     1      21.071   1.337 -15.283  1.00  0.00    -0.285 OA
ATOM      5  C   UNL     1      20.059   0.361 -17.146  1.00  0.00     0.111 A 
ATOM      6  C   UNL     1      21.079   0.680 -18.092  1.00  0.00     0.134 A 
ATOM      7  C   UNL     1      21.014   0.143 -19.384  1.00  0.00     0.093 A 
ATOM      8  C   UNL     1      19.937  -0.646 -19.783  1.00  0.00     0.123 A 
ATOM      9  C   UNL     1      18.905  -0.917 -18.883  1.00  0.00     0.094 A 
ATOM     10  C   UNL     1      18.958  -0.425 -17.576  1.00  0.00     0.146 A 
ATOM     11  O   UNL     1      17.962  -0.714 -16.749  1.00  0.00    -0.452 OA
ENDROOT
BRANCH   1  12
ATOM     12  C   UNL     1      16.741  -0.683 -14.670  1.00  0.00     0.021 A 
ATOM     13  C   UNL     1      16.676  -1.908 -13.980  1.00  0.00     0.016 A 
ATOM     14  C   UNL     1      15.558  -2.221 -13.200  1.00  0.00     0.047 A 
ATOM     15  C   UNL     1      14.502  -1.313 -13.087  1.00  0.00     0.115 A 
ATOM     16  C   UNL     1      15.684   0.233 -14.535  1.00  0.00     0.016 A 
ATOM     17  C   UNL     1      14.568  -0.082 -13.754  1.00  0.00     0.047 A 
BRANCH  15  18
ATOM     18  O   UNL     1      13.394  -1.639 -12.307  1.00  0.00    -0.508 OA
ATOM     19  H   UNL     1      13.306  -2.548 -11.866  1.00  0.00     0.293 HD
ENDBRANCH  15  18
ENDBRANCH   1  12
BRANCH   2  20
ATOM     20  O   UNL     1      19.016   0.749 -13.591  1.00  0.00    -0.502 OA
ATOM     21  H   UNL     1      19.272   0.090 -12.865  1.00  0.00     0.293 HD
ENDBRANCH   2  20
BRANCH   6  22
ATOM     22  O   UNL     1      22.151   1.536 -17.825  1.00  0.00    -0.507 OA
ATOM     23  H   UNL     1      22.870   1.782 -18.489  1.00  0.00     0.293 HD
ENDBRANCH   6  22
BRANCH   8  24
ATOM     24  O   UNL     1      19.898  -1.152 -21.081  1.00  0.00    -0.508 OA
ATOM     25  H   UNL     1      20.622  -1.766 -21.432  1.00  0.00     0.293 HD
ENDBRANCH   8  24
TORSDOF 5
ENDMDL
MODEL 3
REMARK VINA RESULT:    -5.974      3.021      5.760
REMARK INTER + INTRA:          -7.266
REMARK INTER:                  -6.986
REMARK INTRA:                  -0.280
REMARK UNBOUND:                -0.245
REMARK SMILES O=c1c(O)c(-c2ccc(O)cc2)oc2cc(O)cc(O)c12
REMARK SMILES IDX 5 1 3 2 2 3 1 4 21 5 19 6 18 7 16 8 15 9 14 10 13 11 6 12
REMARK SMILES IDX 7 13 8 14 9 15 12 16 11 17 10 18 4 20 20 22 17 24
REMARK H PARENT 10 19 4 21 20 23 17 25
REMARK Flexibility Score: inf
ROOT
ATOM      1  C   UNL     1      11.058  -6.229 -10.708  1.00  0.00     0.180 A 
ATOM      2  C   UNL     1      10.789  -6.434  -9.344  1.00  0.00     0.208 A 
ATOM      3  C   UNL     1       9.659  -7.183  -8.978  1.00  0.00     0.238 A 
ATOM      4  O   UNL     1       9.392  -7.318  -7.755  1.00  0.00    -0.285 OA
ATOM      5  C   UNL     1       8.822  -7.731  -9.980  1.00  0.00     0.111 A 
ATOM      6  C   UNL     1       7.674  -8.540  -9.724  1.00  0.00     0.134 A 
ATOM      7  C   UNL     1       6.846  -8.919 -10.789  1.00  0.00     0.093 A 
ATOM      8  C   UNL     1       7.159  -8.575 -12.103  1.00  0.00     0.123 A 
ATOM      9  C   UNL     1       8.311  -7.835 -12.369  1.00  0.00     0.094 A 
ATOM     10  C   UNL     1       9.138  -7.411 -11.326  1.00  0.00     0.146 A 
ATOM     11  O   UNL     1      10.219  -6.700 -11.623  1.00  0.00    -0.452 OA
ENDROOT
BRANCH   1  12
ATOM     12  C   UNL     1      12.244  -5.471 -11.171  1.00  0.00     0.021 A 
ATOM     13  C   UNL     1      13.516  -6.070 -11.238  1.00  0.00     0.016 A 
ATOM     14  C   UNL     1      14.616  -5.342 -11.702  1.00  0.00     0.047 A 
ATOM     15  C   UNL     1      14.458  -4.016 -12.117  1.00  0.00     0.115 A 
ATOM     16  C   UNL     1      12.089  -4.145 -11.610  1.00  0.00     0.016 A 
ATOM     17  C   UNL     1      13.191  -3.420 -12.073  1.00  0.00     0.047 A 
BRANCH  15  18
ATOM     18  O   UNL     1      15.564  -3.302 -12.576  1.00  0.00    -0.508 OA
ATOM     19  H   UNL     1      15.818  -3.293 -13.557  1.00  0.00     0.293 HD
ENDBRANCH  15  18
ENDBRANCH   1  12
BRANCH   2  20
ATOM     20  O   UNL     1      11.616  -5.866  -8.370  1.00  0.00    -0.502 OA
ATOM     21  H   UNL     1      11.348  -5.809  -7.395  1.00  0.00     0.293 HD
ENDBRANCH   2  20
BRANCH   6  22
ATOM     22  O   UNL     1       7.322  -9.017  -8.459  1.00  0.00    -0.507 OA
ATOM     23  H   UNL     1       6.412  -9.376  -8.213  1.00  0.00     0.293 HD
ENDBRANCH   6  22
BRANCH   8  24
ATOM     24  O   UNL     1       6.321  -8.982 -13.138  1.00  0.00    -0.508 OA
ATOM     25  H   UNL     1       5.315  -9.024 -13.021  1.00  0.00     0.293 HD
ENDBRANCH   8  24
TORSDOF 5
ENDMDL
MODEL 4
REMARK VINA RESULT:    -5.915     11.409     14.514
REMARK INTER + INTRA:          -7.197
REMARK INTER:                  -6.981
REMARK INTRA:                  -0.217
REMARK UNBOUND:                -0.245
REMARK SMILES O=c1c(O)c(-c2ccc(O)cc2)oc2cc(O)cc(O)c12
REMARK SMILES IDX 5 1 3 2 2 3 1 4 21 5 19 6 18 7 16 8 15 9 14 10 13 11 6 12
REMARK SMILES IDX 7 13 8 14 9 15 12 16 11 17 10 18 4 20 20 22 17 24
REMARK H PARENT 10 19 4 21 20 23 17 25
REMARK Flexibility Score: inf
ROOT
ATOM      1  C   UNL     1      18.401  -1.448 -16.696  1.00  0.00     0.180 A 
ATOM      2  C   UNL     1      17.653  -0.671 -15.795  1.00  0.00     0.208 A 
ATOM      3  C   UNL     1      16.973  -1.312 -14.746  1.00  0.00     0.238 A 
ATOM      4  O   UNL     1      16.261  -0.617 -13.974  1.00  0.00    -0.285 OA
ATOM      5  C   UNL     1      17.062  -2.717 -14.603  1.00  0.00     0.111 A 
ATOM      6  C   UNL     1      16.447  -3.465 -13.555  1.00  0.00     0.134 A 
ATOM      7  C   UNL     1      16.494  -4.865 -13.587  1.00  0.00     0.093 A 
ATOM      8  C   UNL     1      17.187  -5.540 -14.590  1.00  0.00     0.123 A 
ATOM      9  C   UNL     1      17.842  -4.816 -15.587  1.00  0.00     0.094 A 
ATOM     10  C   UNL     1      17.784  -3.420 -15.602  1.00  0.00     0.146 A 
ATOM     11  O   UNL     1      18.411  -2.770 -16.575  1.00  0.00    -0.452 OA
ENDROOT
BRANCH   1  12
ATOM     12  C   UNL     1      19.165  -0.842 -17.812  1.00  0.00     0.021 A 
ATOM     13  C   UNL     1      20.332  -0.092 -17.578  1.00  0.00     0.016 A 
ATOM     14  C   UNL     1      21.050   0.449 -18.649  1.00  0.00     0.047 A 
ATOM     15  C   UNL     1      20.622   0.237 -19.963  1.00  0.00     0.115 A 
ATOM     16  C   UNL     1      18.753  -1.070 -19.136  1.00  0.00     0.016 A 
ATOM     17  C   UNL     1      19.473  -0.527 -20.204  1.00  0.00     0.047 A 
BRANCH  15  18
ATOM     18  O   UNL     1      21.347   0.784 -21.020  1.00  0.00    -0.508 OA
ATOM     19  H   UNL     1      21.888   1.634 -20.907  1.00  0.00     0.293 HD
ENDBRANCH  15  18
ENDBRANCH   1  12
BRANCH   2  20
ATOM     20  O   UNL     1      17.561   0.713 -15.967  1.00  0.00    -0.502 OA
ATOM     21  H   UNL     1      16.679   1.182 -16.137  1.00  0.00     0.293 HD
ENDBRANCH   2  20
BRANCH   6  22
ATOM     22  O   UNL     1      15.808  -2.887 -12.454  1.00  0.00    -0.507 OA
ATOM     23  H   UNL     1      15.572  -3.376 -11.604  1.00  0.00     0.293 HD
ENDBRANCH   6  22
BRANCH   8  24
ATOM     24  O   UNL     1      17.226  -6.932 -14.582  1.00  0.00    -0.508 OA
ATOM     25  H   UNL     1      18.102  -7.439 -14.627  1.00  0.00     0.293 HD
ENDBRANCH   8  24
TORSDOF 5
ENDMDL
MODEL 5
REMARK VINA RESULT:    -5.838     11.028     13.356
REMARK INTER + INTRA:          -7.106
REMARK INTER:                  -6.806
REMARK INTRA:                  -0.300
REMARK UNBOUND:                -0.245
REMARK SMILES O=c1c(O)c(-c2ccc(O)cc2)oc2cc(O)cc(O)c12
REMARK SMILES IDX 5 1 3 2 2 3 1 4 21 5 19 6 18 7 16 8 15 9 14 10 13 11 6 12
REMARK SMILES IDX 7 13 8 14 9 15 12 16 11 17 10 18 4 20 20 22 17 24
REMARK H PARENT 10 19 4 21 20 23 17 25
REMARK Flexibility Score: inf
ROOT
ATOM      1  C   UNL     1      19.160  -2.099  -8.275  1.00  0.00     0.180 A 
ATOM      2  C   UNL     1      19.079  -2.624  -6.974  1.00  0.00     0.208 A 
ATOM      3  C   UNL     1      20.259  -3.022  -6.325  1.00  0.00     0.238 A 
ATOM      4  O   UNL     1      20.175  -3.542  -5.181  1.00  0.00    -0.285 OA
ATOM      5  C   UNL     1      21.506  -2.873  -6.978  1.00  0.00     0.111 A 
ATOM      6  C   UNL     1      22.768  -3.205  -6.399  1.00  0.00     0.134 A 
ATOM      7  C   UNL     1      23.926  -3.139  -7.185  1.00  0.00     0.093 A 
ATOM      8  C   UNL     1      23.877  -2.693  -8.504  1.00  0.00     0.123 A 
ATOM      9  C   UNL     1      22.656  -2.310  -9.061  1.00  0.00     0.094 A 
ATOM     10  C   UNL     1      21.479  -2.398  -8.315  1.00  0.00     0.146 A 
ATOM     11  O   UNL     1      20.337  -2.033  -8.886  1.00  0.00    -0.452 OA
ENDROOT
BRANCH   1  12
ATOM     12  C   UNL     1      17.963  -1.636  -9.013  1.00  0.00     0.021 A 
ATOM     13  C   UNL     1      17.496  -0.313  -8.897  1.00  0.00     0.016 A 
ATOM     14  C   UNL     1      16.378   0.108  -9.623  1.00  0.00     0.047 A 
ATOM     15  C   UNL     1      15.722  -0.778 -10.483  1.00  0.00     0.115 A 
ATOM     16  C   UNL     1      17.311  -2.515  -9.895  1.00  0.00     0.016 A 
ATOM     17  C   UNL     1      16.193  -2.091 -10.619  1.00  0.00     0.047 A 
BRANCH  15  18
ATOM     18  O   UNL     1      14.608  -0.345 -11.199  1.00  0.00    -0.508 OA
ATOM     19  H   UNL     1      14.687  -0.018 -12.155  1.00  0.00     0.293 HD
ENDBRANCH  15  18
ENDBRANCH   1  12
BRANCH   2  20
ATOM     20  O   UNL     1      17.835  -2.783  -6.355  1.00  0.00    -0.502 OA
ATOM     21  H   UNL     1      17.726  -3.252  -5.465  1.00  0.00     0.293 HD
ENDBRANCH   2  20
BRANCH   6  22
ATOM     22  O   UNL     1      22.941  -3.574  -5.062  1.00  0.00    -0.507 OA
ATOM     23  H   UNL     1      22.850  -2.948  -4.277  1.00  0.00     0.293 HD
ENDBRANCH   6  22
BRANCH   8  24
ATOM     24  O   UNL     1      25.051  -2.626  -9.252  1.00  0.00    -0.508 OA
ATOM     25  H   UNL     1      25.962  -2.694  -8.815  1.00  0.00     0.293 HD
ENDBRANCH   8  24
TORSDOF 5
ENDMDL
MODEL 6
REMARK VINA RESULT:    -5.709     10.767     13.476
REMARK INTER + INTRA:          -6.954
REMARK INTER:                  -6.804
REMARK INTRA:                  -0.151
REMARK UNBOUND:                -0.245
REMARK SMILES O=c1c(O)c(-c2ccc(O)cc2)oc2cc(O)cc(O)c12
REMARK SMILES IDX 5 1 3 2 2 3 1 4 21 5 19 6 18 7 16 8 15 9 14 10 13 11 6 12
REMARK SMILES IDX 7 13 8 14 9 15 12 16 11 17 10 18 4 20 20 22 17 24
REMARK H PARENT 10 19 4 21 20 23 17 25
REMARK Flexibility Score: inf
ROOT
ATOM      1  C   UNL     1      17.331  -0.514 -15.230  1.00  0.00     0.180 A 
ATOM      2  C   UNL     1      16.415   0.461 -14.798  1.00  0.00     0.208 A 
ATOM      3  C   UNL     1      15.364   0.079 -13.950  1.00  0.00     0.238 A 
ATOM      4  O   UNL     1      14.515   0.946 -13.610  1.00  0.00    -0.285 OA
ATOM      5  C   UNL     1      15.250  -1.269 -13.531  1.00  0.00     0.111 A 
ATOM      6  C   UNL     1      14.248  -1.759 -12.640  1.00  0.00     0.134 A 
ATOM      7  C   UNL     1      14.154  -3.135 -12.398  1.00  0.00     0.093 A 
ATOM      8  C   UNL     1      15.062  -4.030 -12.960  1.00  0.00     0.123 A 
ATOM      9  C   UNL     1      16.082  -3.554 -13.786  1.00  0.00     0.094 A 
ATOM     10  C   UNL     1      16.181  -2.191 -14.075  1.00  0.00     0.146 A 
ATOM     11  O   UNL     1      17.160  -1.782 -14.873  1.00  0.00    -0.452 OA
ENDROOT
BRANCH   1  12
ATOM     12  C   UNL     1      18.479  -0.183 -16.105  1.00  0.00     0.021 A 
ATOM     13  C   UNL     1      19.504   0.679 -15.674  1.00  0.00     0.016 A 
ATOM     14  C   UNL     1      20.591   0.957 -16.509  1.00  0.00     0.047 A 
ATOM     15  C   UNL     1      20.676   0.369 -17.774  1.00  0.00     0.115 A 
ATOM     16  C   UNL     1      18.582  -0.787 -17.370  1.00  0.00     0.016 A 
ATOM     17  C   UNL     1      19.669  -0.507 -18.202  1.00  0.00     0.047 A 
BRANCH  15  18
ATOM     18  O   UNL     1      21.764   0.657 -18.595  1.00  0.00    -0.508 OA
ATOM     19  H   UNL     1      22.671   0.895 -18.209  1.00  0.00     0.293 HD
ENDBRANCH  15  18
ENDBRANCH   1  12
BRANCH   2  20
ATOM     20  O   UNL     1      16.533   1.782 -15.241  1.00  0.00    -0.502 OA
ATOM     21  H   UNL     1      16.459   2.574 -14.615  1.00  0.00     0.293 HD
ENDBRANCH   2  20
BRANCH   6  22
ATOM     22  O   UNL     1      13.348  -0.940 -11.952  1.00  0.00    -0.507 OA
ATOM     23  H   UNL     1      13.439   0.059 -11.853  1.00  0.00     0.293 HD
ENDBRANCH   6  22
BRANCH   8  24
ATOM     24  O   UNL     1      14.948  -5.391 -12.686  1.00  0.00    -0.508 OA
ATOM     25  H   UNL     1      15.035  -5.750 -11.743  1.00  0.00     0.293 HD
ENDBRANCH   8  24
TORSDOF 5
ENDMDL
MODEL 7
REMARK VINA RESULT:    -5.693     10.316     12.092
REMARK INTER + INTRA:          -6.936
REMARK INTER:                  -6.696
REMARK INTRA:                  -0.240
REMARK UNBOUND:                -0.245
REMARK SMILES O=c1c(O)c(-c2ccc(O)cc2)oc2cc(O)cc(O)c12
REMARK SMILES IDX 5 1 3 2 2 3 1 4 21 5 19 6 18 7 16 8 15 9 14 10 13 11 6 12
REMARK SMILES IDX 7 13 8 14 9 15 12 16 11 17 10 18 4 20 20 22 17 24
REMARK H PARENT 10 19 4 21 20 23 17 25
REMARK Flexibility Score: inf
ROOT
ATOM      1  C   UNL     1      18.511  -1.712  -8.162  1.00  0.00     0.180 A 
ATOM      2  C   UNL     1      17.611  -2.558  -8.833  1.00  0.00     0.208 A 
ATOM      3  C   UNL     1      16.538  -1.989  -9.537  1.00  0.00     0.238 A 
ATOM      4  O   UNL     1      15.705  -2.755 -10.091  1.00  0.00    -0.285 OA
ATOM      5  C   UNL     1      16.387  -0.583  -9.575  1.00  0.00     0.111 A 
ATOM      6  C   UNL     1      15.360   0.103 -10.291  1.00  0.00     0.134 A 
ATOM      7  C   UNL     1      15.230   1.491 -10.151  1.00  0.00     0.093 A 
ATOM      8  C   UNL     1      16.126   2.224  -9.377  1.00  0.00     0.123 A 
ATOM      9  C   UNL     1      17.170   1.570  -8.720  1.00  0.00     0.094 A 
ATOM     10  C   UNL     1      17.305   0.183  -8.810  1.00  0.00     0.146 A 
ATOM     11  O   UNL     1      18.305  -0.400  -8.161  1.00  0.00    -0.452 OA
ENDROOT
BRANCH   1  12
ATOM     12  C   UNL     1      19.680  -2.236  -7.419  1.00  0.00     0.021 A 
ATOM     13  C   UNL     1      20.983  -2.144  -7.944  1.00  0.00     0.016 A 
ATOM     14  C   UNL     1      22.075  -2.624  -7.213  1.00  0.00     0.047 A 
ATOM     15  C   UNL     1      21.882  -3.187  -5.948  1.00  0.00     0.115 A 
ATOM     16  C   UNL     1      19.497  -2.784  -6.138  1.00  0.00     0.016 A 
ATOM     17  C   UNL     1      20.591  -3.263  -5.410  1.00  0.00     0.047 A 
BRANCH  15  18
ATOM     18  O   UNL     1      22.979  -3.662  -5.232  1.00  0.00    -0.508 OA
ATOM     19  H   UNL     1      23.883  -3.204  -5.281  1.00  0.00     0.293 HD
ENDBRANCH  15  18
ENDBRANCH   1  12
BRANCH   2  20
ATOM     20  O   UNL     1      17.767  -3.946  -8.764  1.00  0.00    -0.502 OA
ATOM     21  H   UNL     1      16.983  -4.575  -8.636  1.00  0.00     0.293 HD
ENDBRANCH   2  20
BRANCH   6  22
ATOM     22  O   UNL     1      14.468  -0.523 -11.167  1.00  0.00    -0.507 OA
ATOM     23  H   UNL     1      13.536  -0.823 -10.921  1.00  0.00     0.293 HD
ENDBRANCH   6  22
BRANCH   8  24
ATOM     24  O   UNL     1      15.976   3.605  -9.272  1.00  0.00    -0.508 OA
ATOM     25  H   UNL     1      16.774   4.228  -9.290  1.00  0.00     0.293 HD
ENDBRANCH   8  24
TORSDOF 5
ENDMDL
MODEL 8
REMARK VINA RESULT:    -5.561      9.193     11.792
REMARK INTER + INTRA:          -6.781
REMARK INTER:                  -6.496
REMARK INTRA:                  -0.286
REMARK UNBOUND:                -0.245
REMARK SMILES O=c1c(O)c(-c2ccc(O)cc2)oc2cc(O)cc(O)c12
REMARK SMILES IDX 5 1 3 2 2 3 1 4 21 5 19 6 18 7 16 8 15 9 14 10 13 11 6 12
REMARK SMILES IDX 7 13 8 14 9 15 12 16 11 17 10 18 4 20 20 22 17 24
REMARK H PARENT 10 19 4 21 20 23 17 25
REMARK Flexibility Score: inf
ROOT
ATOM      1  C   UNL     1      15.920  -1.223 -11.533  1.00  0.00     0.180 A 
ATOM      2  C   UNL     1      15.864  -2.606 -11.291  1.00  0.00     0.208 A 
ATOM      3  C   UNL     1      16.556  -3.134 -10.189  1.00  0.00     0.238 A 
ATOM      4  O   UNL     1      16.546  -4.380 -10.010  1.00  0.00    -0.285 OA
ATOM      5  C   UNL     1      17.282  -2.271  -9.334  1.00  0.00     0.111 A 
ATOM      6  C   UNL     1      17.988  -2.692  -8.167  1.00  0.00     0.134 A 
ATOM      7  C   UNL     1      18.779  -1.770  -7.470  1.00  0.00     0.093 A 
ATOM      8  C   UNL     1      18.839  -0.433  -7.857  1.00  0.00     0.123 A 
ATOM      9  C   UNL     1      18.107   0.001  -8.963  1.00  0.00     0.094 A 
ATOM     10  C   UNL     1      17.336  -0.900  -9.700  1.00  0.00     0.146 A 
ATOM     11  O   UNL     1      16.663  -0.448 -10.751  1.00  0.00    -0.452 OA
ENDROOT
BRANCH   1  12
ATOM     12  C   UNL     1      15.196  -0.590 -12.659  1.00  0.00     0.021 A 
ATOM     13  C   UNL     1      13.830  -0.265 -12.562  1.00  0.00     0.016 A 
ATOM     14  C   UNL     1      13.174   0.355 -13.630  1.00  0.00     0.047 A 
ATOM     15  C   UNL     1      13.873   0.670 -14.799  1.00  0.00     0.115 A 
ATOM     16  C   UNL     1      15.897  -0.251 -13.829  1.00  0.00     0.016 A 
ATOM     17  C   UNL     1      15.238   0.368 -14.895  1.00  0.00     0.047 A 
BRANCH  15  18
ATOM     18  O   UNL     1      13.205   1.286 -15.856  1.00  0.00    -0.508 OA
ATOM     19  H   UNL     1      12.705   2.158 -15.729  1.00  0.00     0.293 HD
ENDBRANCH  15  18
ENDBRANCH   1  12
BRANCH   2  20
ATOM     20  O   UNL     1      15.158  -3.444 -12.160  1.00  0.00    -0.502 OA
ATOM     21  H   UNL     1      14.752  -4.322 -11.860  1.00  0.00     0.293 HD
ENDBRANCH   2  20
BRANCH   6  22
ATOM     22  O   UNL     1      17.922  -3.984  -7.639  1.00  0.00    -0.507 OA
ATOM     23  H   UNL     1      17.085  -4.414  -7.275  1.00  0.00     0.293 HD
ENDBRANCH   6  22
BRANCH   8  24
ATOM     24  O   UNL     1      19.625   0.459  -7.131  1.00  0.00    -0.508 OA
ATOM     25  H   UNL     1      20.528   0.769  -7.472  1.00  0.00     0.293 HD
ENDBRANCH   8  24
TORSDOF 5
ENDMDL
MODEL 9
REMARK VINA RESULT:    -5.545      9.798     11.401
REMARK INTER + INTRA:          -6.762
REMARK INTER:                  -6.510
REMARK INTRA:                  -0.252
REMARK UNBOUND:                -0.245
REMARK SMILES O=c1c(O)c(-c2ccc(O)cc2)oc2cc(O)cc(O)c12
REMARK SMILES IDX 5 1 3 2 2 3 1 4 21 5 19 6 18 7 16 8 15 9 14 10 13 11 6 12
REMARK SMILES IDX 7 13 8 14 9 15 12 16 11 17 10 18 4 20 20 22 17 24
REMARK H PARENT 10 19 4 21 20 23 17 25
REMARK Flexibility Score: inf
ROOT
ATOM      1  C   UNL     1      18.646  -1.941  -8.598  1.00  0.00     0.180 A 
ATOM      2  C   UNL     1      17.965  -0.720  -8.456  1.00  0.00     0.208 A 
ATOM      3  C   UNL     1      16.902  -0.427  -9.326  1.00  0.00     0.238 A 
ATOM      4  O   UNL     1      16.332   0.692  -9.228  1.00  0.00    -0.285 OA
ATOM      5  C   UNL     1      16.523  -1.365 -10.316  1.00  0.00     0.111 A 
ATOM      6  C   UNL     1      15.436  -1.189 -11.224  1.00  0.00     0.134 A 
ATOM      7  C   UNL     1      15.235  -2.125 -12.247  1.00  0.00     0.093 A 
ATOM      8  C   UNL     1      16.037  -3.259 -12.355  1.00  0.00     0.123 A 
ATOM      9  C   UNL     1      17.065  -3.470 -11.436  1.00  0.00     0.094 A 
ATOM     10  C   UNL     1      17.315  -2.538 -10.426  1.00  0.00     0.146 A 
ATOM     11  O   UNL     1      18.309  -2.771  -9.579  1.00  0.00    -0.452 OA
ENDROOT
BRANCH   1  12
ATOM     12  C   UNL     1      19.759  -2.331  -7.703  1.00  0.00     0.021 A 
ATOM     13  C   UNL     1      19.522  -2.783  -6.392  1.00  0.00     0.016 A 
ATOM     14  C   UNL     1      20.588  -3.169  -5.574  1.00  0.00     0.047 A 
ATOM     15  C   UNL     1      21.899  -3.123  -6.057  1.00  0.00     0.115 A 
ATOM     16  C   UNL     1      21.078  -2.307  -8.189  1.00  0.00     0.016 A 
ATOM     17  C   UNL     1      22.142  -2.694  -7.369  1.00  0.00     0.047 A 
BRANCH  15  18
ATOM     18  O   UNL     1      22.952  -3.509  -5.230  1.00  0.00    -0.508 OA
ATOM     19  H   UNL     1      22.822  -3.637  -4.232  1.00  0.00     0.293 HD
ENDBRANCH  15  18
ENDBRANCH   1  12
BRANCH   2  20
ATOM     20  O   UNL     1      18.369   0.202  -7.485  1.00  0.00    -0.502 OA
ATOM     21  H   UNL     1      18.301   1.203  -7.624  1.00  0.00     0.293 HD
ENDBRANCH   2  20
BRANCH   6  22
ATOM     22  O   UNL     1      14.517  -0.139 -11.148  1.00  0.00    -0.507 OA
ATOM     23  H   UNL     1      14.367   0.547 -11.873  1.00  0.00     0.293 HD
ENDBRANCH   6  22
BRANCH   8  24
ATOM     24  O   UNL     1      15.798  -4.176 -13.376  1.00  0.00    -0.508 OA
ATOM     25  H   UNL     1      14.921  -4.187 -13.884  1.00  0.00     0.293 HD
ENDBRANCH   8  24
TORSDOF 5
ENDMDL
