MODEL 1
REMARK VINA RESULT:    -5.045      0.000      0.000
REMARK INTER + INTRA:          -6.371
REMARK INTER:                  -6.077
REMARK INTRA:                  -0.294
REMARK UNBOUND:                -0.294
REMARK SMILES O=c1c(O)c(-c2ccc(O)c(O)c2)oc2cc(O)cc(O)c12
REMARK SMILES IDX 5 1 3 2 2 3 1 4 22 5 20 6 19 7 17 8 16 9 15 10 14 11 6 12
REMARK SMILES IDX 7 13 8 14 9 15 13 16 11 17 10 18 12 20 4 22 21 24 18 26
REMARK H PARENT 10 19 12 21 4 23 21 25 18 27
REMARK Flexibility Score: inf
ROOT
ATOM      1  C   UNL     1       2.710  17.084  29.918  1.00  0.00     0.180 A 
ATOM      2  C   UNL     1       1.621  17.937  30.168  1.00  0.00     0.208 A 
ATOM      3  C   UNL     1       0.440  17.396  30.700  1.00  0.00     0.238 A 
ATOM      4  O   UNL     1      -0.549  18.155  30.871  1.00  0.00    -0.285 OA
ATOM      5  C   UNL     1       0.368  16.013  30.991  1.00  0.00     0.111 A 
ATOM      6  C   UNL     1      -0.765  15.365  31.569  1.00  0.00     0.134 A 
ATOM      7  C   UNL     1      -0.774  13.969  31.692  1.00  0.00     0.093 A 
ATOM      8  C   UNL     1       0.334  13.206  31.318  1.00  0.00     0.123 A 
ATOM      9  C   UNL     1       1.467  13.835  30.808  1.00  0.00     0.094 A 
ATOM     10  C   UNL     1       1.493  15.222  30.639  1.00  0.00     0.146 A 
ATOM     11  O   UNL     1       2.588  15.781  30.140  1.00  0.00    -0.452 OA
ENDROOT
BRANCH   1  12
ATOM     12  C   UNL     1       3.996  17.585  29.382  1.00  0.00     0.025 A 
ATOM     13  C   UNL     1       4.167  17.845  28.011  1.00  0.00     0.016 A 
ATOM     14  C   UNL     1       5.382  18.339  27.531  1.00  0.00     0.051 A 
ATOM     15  C   UNL     1       6.440  18.593  28.415  1.00  0.00     0.157 A 
ATOM     16  C   UNL     1       5.053  17.861  30.265  1.00  0.00     0.062 A 
ATOM     17  C   UNL     1       6.272  18.355  29.788  1.00  0.00     0.158 A 
BRANCH  15  18
ATOM     18  O   UNL     1       7.653  19.085  27.932  1.00  0.00    -0.504 OA
ATOM     19  H   UNL     1       7.784  19.304  26.951  1.00  0.00     0.293 HD
ENDBRANCH  15  18
BRANCH  17  20
ATOM     20  O   UNL     1       7.303  18.604  30.694  1.00  0.00    -0.504 OA
ATOM     21  H   UNL     1       7.603  17.912  31.372  1.00  0.00     0.293 HD
ENDBRANCH  17  20
ENDBRANCH   1  12
BRANCH   2  22
ATOM     22  O   UNL     1       1.706  19.297  29.853  1.00  0.00    -0.502 OA
ATOM     23  H   UNL     1       2.158  19.968  30.461  1.00  0.00     0.293 HD
ENDBRANCH   2  22
BRANCH   6  24
ATOM     24  O   UNL     1      -1.885  16.041  32.060  1.00  0.00    -0.507 OA
ATOM     25  H   UNL     1      -2.813  15.975  31.670  1.00  0.00     0.293 HD
ENDBRANCH   6  24
BRANCH   8  26
ATOM     26  O   UNL     1       0.323  11.820  31.458  1.00  0.00    -0.508 OA
ATOM     27  H   UNL     1      -0.487  11.331  31.820  1.00  0.00     0.293 HD
ENDBRANCH   8  26
TORSDOF 6
ENDMDL
MODEL 2
REMARK VINA RESULT:    -5.023      4.898      8.488
REMARK INTER + INTRA:          -6.345
REMARK INTER:                  -6.049
REMARK INTRA:                  -0.296
REMARK UNBOUND:                -0.294
REMARK SMILES O=c1c(O)c(-c2ccc(O)c(O)c2)oc2cc(O)cc(O)c12
REMARK SMILES IDX 5 1 3 2 2 3 1 4 22 5 20 6 19 7 17 8 16 9 15 10 14 11 6 12
REMARK SMILES IDX 7 13 8 14 9 15 13 16 11 17 10 18 12 20 4 22 21 24 18 26
REMARK H PARENT 10 19 12 21 4 23 21 25 18 27
REMARK Flexibility Score: inf
ROOT
ATOM      1  C   UNL     1      -0.529  10.951  33.241  1.00  0.00     0.180 A 
ATOM      2  C   UNL     1       0.435  10.599  34.201  1.00  0.00     0.208 A 
ATOM      3  C   UNL     1       0.320   9.366  34.863  1.00  0.00     0.238 A 
ATOM      4  O   UNL     1       1.155   9.081  35.760  1.00  0.00    -0.285 OA
ATOM      5  C   UNL     1      -0.749   8.494  34.545  1.00  0.00     0.111 A 
ATOM      6  C   UNL     1      -0.941   7.203  35.124  1.00  0.00     0.134 A 
ATOM      7  C   UNL     1      -2.105   6.481  34.831  1.00  0.00     0.093 A 
ATOM      8  C   UNL     1      -3.050   6.975  33.929  1.00  0.00     0.123 A 
ATOM      9  C   UNL     1      -2.842   8.206  33.314  1.00  0.00     0.094 A 
ATOM     10  C   UNL     1      -1.709   8.967  33.614  1.00  0.00     0.146 A 
ATOM     11  O   UNL     1      -1.555  10.140  33.013  1.00  0.00    -0.452 OA
ENDROOT
BRANCH   1  12
ATOM     12  C   UNL     1      -0.460  12.222  32.484  1.00  0.00     0.025 A 
ATOM     13  C   UNL     1       0.426  12.384  31.405  1.00  0.00     0.016 A 
ATOM     14  C   UNL     1       0.457  13.584  30.690  1.00  0.00     0.051 A 
ATOM     15  C   UNL     1      -0.406  14.634  31.034  1.00  0.00     0.157 A 
ATOM     16  C   UNL     1      -1.336  13.269  32.811  1.00  0.00     0.062 A 
ATOM     17  C   UNL     1      -1.308  14.473  32.098  1.00  0.00     0.158 A 
BRANCH  15  18
ATOM     18  O   UNL     1      -0.371  15.831  30.319  1.00  0.00    -0.504 OA
ATOM     19  H   UNL     1      -0.678  16.704  30.731  1.00  0.00     0.293 HD
ENDBRANCH  15  18
BRANCH  17  20
ATOM     20  O   UNL     1      -2.184  15.496  32.460  1.00  0.00    -0.504 OA
ATOM     21  H   UNL     1      -2.078  16.014  33.324  1.00  0.00     0.293 HD
ENDBRANCH  17  20
ENDBRANCH   1  12
BRANCH   2  22
ATOM     22  O   UNL     1       1.470  11.485  34.517  1.00  0.00    -0.502 OA
ATOM     23  H   UNL     1       2.205  11.252  35.173  1.00  0.00     0.293 HD
ENDBRANCH   2  22
BRANCH   6  24
ATOM     24  O   UNL     1      -0.014   6.579  35.964  1.00  0.00    -0.507 OA
ATOM     25  H   UNL     1       0.791   7.032  36.370  1.00  0.00     0.293 HD
ENDBRANCH   6  24
BRANCH   8  26
ATOM     26  O   UNL     1      -4.198   6.243  33.631  1.00  0.00    -0.508 OA
ATOM     27  H   UNL     1      -4.376   5.341  34.057  1.00  0.00     0.293 HD
ENDBRANCH   8  26
TORSDOF 6
ENDMDL
MODEL 3
REMARK VINA RESULT:    -4.965      2.425      7.603
REMARK INTER + INTRA:          -6.275
REMARK INTER:                  -6.365
REMARK INTRA:                   0.090
REMARK UNBOUND:                -0.294
REMARK SMILES O=c1c(O)c(-c2ccc(O)c(O)c2)oc2cc(O)cc(O)c12
REMARK SMILES IDX 5 1 3 2 2 3 1 4 22 5 20 6 19 7 17 8 16 9 15 10 14 11 6 12
REMARK SMILES IDX 7 13 8 14 9 15 13 16 11 17 10 18 12 20 4 22 21 24 18 26
REMARK H PARENT 10 19 12 21 4 23 21 25 18 27
REMARK Flexibility Score: inf
ROOT
ATOM      1  C   UNL     1       0.155  13.592  32.223  1.00  0.00     0.180 A 
ATOM      2  C   UNL     1      -0.937  14.470  32.111  1.00  0.00     0.208 A 
ATOM      3  C   UNL     1      -0.759  15.699  31.456  1.00  0.00     0.238 A 
ATOM      4  O   UNL     1      -1.725  16.503  31.407  1.00  0.00    -0.285 OA
ATOM      5  C   UNL     1       0.505  16.028  30.909  1.00  0.00     0.111 A 
ATOM      6  C   UNL     1       0.788  17.229  30.190  1.00  0.00     0.134 A 
ATOM      7  C   UNL     1       2.106  17.509  29.807  1.00  0.00     0.093 A 
ATOM      8  C   UNL     1       3.138  16.602  30.059  1.00  0.00     0.123 A 
ATOM      9  C   UNL     1       2.860  15.401  30.707  1.00  0.00     0.094 A 
ATOM     10  C   UNL     1       1.562  15.109  31.134  1.00  0.00     0.146 A 
ATOM     11  O   UNL     1       1.343  13.958  31.757  1.00  0.00    -0.452 OA
ENDROOT
BRANCH   1  12
ATOM     12  C   UNL     1       0.038  12.268  32.876  1.00  0.00     0.025 A 
ATOM     13  C   UNL     1       0.976  11.837  33.831  1.00  0.00     0.016 A 
ATOM     14  C   UNL     1       0.832  10.594  34.452  1.00  0.00     0.051 A 
ATOM     15  C   UNL     1      -0.257   9.769  34.138  1.00  0.00     0.157 A 
ATOM     16  C   UNL     1      -1.062  11.447  32.581  1.00  0.00     0.062 A 
ATOM     17  C   UNL     1      -1.209  10.200  33.200  1.00  0.00     0.158 A 
BRANCH  15  18
ATOM     18  O   UNL     1      -0.396   8.527  34.758  1.00  0.00    -0.504 OA
ATOM     19  H   UNL     1       0.280   7.786  34.619  1.00  0.00     0.293 HD
ENDBRANCH  15  18
BRANCH  17  20
ATOM     20  O   UNL     1      -2.307   9.406  32.872  1.00  0.00    -0.504 OA
ATOM     21  H   UNL     1      -3.250   9.776  32.842  1.00  0.00     0.293 HD
ENDBRANCH  17  20
ENDBRANCH   1  12
BRANCH   2  22
ATOM     22  O   UNL     1      -2.170  14.134  32.678  1.00  0.00    -0.502 OA
ATOM     23  H   UNL     1      -2.302  13.303  33.240  1.00  0.00     0.293 HD
ENDBRANCH   2  22
BRANCH   6  24
ATOM     24  O   UNL     1      -0.184  18.157  29.807  1.00  0.00    -0.507 OA
ATOM     25  H   UNL     1      -0.154  18.704  28.961  1.00  0.00     0.293 HD
ENDBRANCH   6  24
BRANCH   8  26
ATOM     26  O   UNL     1       4.444  16.882  29.660  1.00  0.00    -0.508 OA
ATOM     27  H   UNL     1       4.684  17.758  29.213  1.00  0.00     0.293 HD
ENDBRANCH   8  26
TORSDOF 6
ENDMDL
MODEL 4
REMARK VINA RESULT:    -4.962      5.170      8.768
REMARK INTER + INTRA:          -6.271
REMARK INTER:                  -6.102
REMARK INTRA:                  -0.168
REMARK UNBOUND:                -0.294
REMARK SMILES O=c1c(O)c(-c2ccc(O)c(O)c2)oc2cc(O)cc(O)c12
REMARK SMILES IDX 5 1 3 2 2 3 1 4 22 5 20 6 19 7 17 8 16 9 15 10 14 11 6 12
REMARK SMILES IDX 7 13 8 14 9 15 13 16 11 17 10 18 12 20 4 22 21 24 18 26
REMARK H PARENT 10 19 12 21 4 23 21 25 18 27
REMARK Flexibility Score: inf
ROOT
ATOM      1  C   UNL     1      -0.063  10.815  33.590  1.00  0.00     0.180 A 
ATOM      2  C   UNL     1      -1.036   9.802  33.624  1.00  0.00     0.208 A 
ATOM      3  C   UNL     1      -0.793   8.648  34.386  1.00  0.00     0.238 A 
ATOM      4  O   UNL     1      -1.643   7.721  34.369  1.00  0.00    -0.285 OA
ATOM      5  C   UNL     1       0.413   8.530  35.118  1.00  0.00     0.111 A 
ATOM      6  C   UNL     1       0.747   7.423  35.956  1.00  0.00     0.134 A 
ATOM      7  C   UNL     1       2.023   7.351  36.530  1.00  0.00     0.093 A 
ATOM      8  C   UNL     1       2.953   8.378  36.348  1.00  0.00     0.123 A 
ATOM      9  C   UNL     1       2.615   9.490  35.581  1.00  0.00     0.094 A 
ATOM     10  C   UNL     1       1.363   9.573  34.966  1.00  0.00     0.146 A 
ATOM     11  O   UNL     1       1.085  10.646  34.234  1.00  0.00    -0.452 OA
ENDROOT
BRANCH   1  12
ATOM     12  C   UNL     1      -0.258  12.071  32.830  1.00  0.00     0.025 A 
ATOM     13  C   UNL     1       0.525  12.374  31.702  1.00  0.00     0.016 A 
ATOM     14  C   UNL     1       0.307  13.553  30.986  1.00  0.00     0.051 A 
ATOM     15  C   UNL     1      -0.705  14.440  31.377  1.00  0.00     0.157 A 
ATOM     16  C   UNL     1      -1.285  12.953  33.204  1.00  0.00     0.062 A 
ATOM     17  C   UNL     1      -1.506  14.136  32.490  1.00  0.00     0.158 A 
BRANCH  15  18
ATOM     18  O   UNL     1      -0.919  15.618  30.661  1.00  0.00    -0.504 OA
ATOM     19  H   UNL     1      -1.604  15.669  29.916  1.00  0.00     0.293 HD
ENDBRANCH  15  18
BRANCH  17  20
ATOM     20  O   UNL     1      -2.525  14.995  32.900  1.00  0.00    -0.504 OA
ATOM     21  H   UNL     1      -2.376  15.712  33.600  1.00  0.00     0.293 HD
ENDBRANCH  17  20
ENDBRANCH   1  12
BRANCH   2  22
ATOM     22  O   UNL     1      -2.210   9.929  32.875  1.00  0.00    -0.502 OA
ATOM     23  H   UNL     1      -2.337  10.656  32.182  1.00  0.00     0.293 HD
ENDBRANCH   2  22
BRANCH   6  24
ATOM     24  O   UNL     1      -0.140   6.392  36.277  1.00  0.00    -0.507 OA
ATOM     25  H   UNL     1      -0.261   5.549  35.736  1.00  0.00     0.293 HD
ENDBRANCH   6  24
BRANCH   8  26
ATOM     26  O   UNL     1       4.215   8.306  36.935  1.00  0.00    -0.508 OA
ATOM     27  H   UNL     1       4.416   7.649  37.680  1.00  0.00     0.293 HD
ENDBRANCH   8  26
TORSDOF 6
ENDMDL
MODEL 5
REMARK VINA RESULT:    -4.874      5.099      8.450
REMARK INTER + INTRA:          -6.165
REMARK INTER:                  -5.835
REMARK INTRA:                  -0.330
REMARK UNBOUND:                -0.294
REMARK SMILES O=c1c(O)c(-c2ccc(O)c(O)c2)oc2cc(O)cc(O)c12
REMARK SMILES IDX 5 1 3 2 2 3 1 4 22 5 20 6 19 7 17 8 16 9 15 10 14 11 6 12
REMARK SMILES IDX 7 13 8 14 9 15 13 16 11 17 10 18 12 20 4 22 21 24 18 26
REMARK H PARENT 10 19 12 21 4 23 21 25 18 27
REMARK Flexibility Score: inf
ROOT
ATOM      1  C   UNL     1      -0.651  12.515  33.054  1.00  0.00     0.180 A 
ATOM      2  C   UNL     1      -0.157  12.954  31.814  1.00  0.00     0.208 A 
ATOM      3  C   UNL     1      -0.475  14.248  31.372  1.00  0.00     0.238 A 
ATOM      4  O   UNL     1      -0.075  14.616  30.238  1.00  0.00    -0.285 OA
ATOM      5  C   UNL     1      -1.270  15.093  32.184  1.00  0.00     0.111 A 
ATOM      6  C   UNL     1      -1.621  16.437  31.855  1.00  0.00     0.134 A 
ATOM      7  C   UNL     1      -2.521  17.135  32.670  1.00  0.00     0.093 A 
ATOM      8  C   UNL     1      -3.030  16.561  33.837  1.00  0.00     0.123 A 
ATOM      9  C   UNL     1      -2.646  15.272  34.198  1.00  0.00     0.094 A 
ATOM     10  C   UNL     1      -1.779  14.536  33.386  1.00  0.00     0.146 A 
ATOM     11  O   UNL     1      -1.448  13.307  33.761  1.00  0.00    -0.452 OA
ENDROOT
BRANCH   1  12
ATOM     12  C   UNL     1      -0.337  11.174  33.597  1.00  0.00     0.025 A 
ATOM     13  C   UNL     1       0.840  10.937  34.328  1.00  0.00     0.016 A 
ATOM     14  C   UNL     1       1.103   9.668  34.852  1.00  0.00     0.051 A 
ATOM     15  C   UNL     1       0.189   8.623  34.665  1.00  0.00     0.157 A 
ATOM     16  C   UNL     1      -1.259  10.128  33.431  1.00  0.00     0.062 A 
ATOM     17  C   UNL     1      -0.998   8.856  33.953  1.00  0.00     0.158 A 
BRANCH  15  18
ATOM     18  O   UNL     1       0.457   7.357  35.187  1.00  0.00    -0.504 OA
ATOM     19  H   UNL     1       0.146   7.089  36.113  1.00  0.00     0.293 HD
ENDBRANCH  15  18
BRANCH  17  20
ATOM     20  O   UNL     1      -1.931   7.838  33.755  1.00  0.00    -0.504 OA
ATOM     21  H   UNL     1      -1.706   6.994  33.240  1.00  0.00     0.293 HD
ENDBRANCH  17  20
ENDBRANCH   1  12
BRANCH   2  22
ATOM     22  O   UNL     1       0.609  12.096  31.018  1.00  0.00    -0.502 OA
ATOM     23  H   UNL     1       1.321  12.434  30.384  1.00  0.00     0.293 HD
ENDBRANCH   2  22
BRANCH   6  24
ATOM     24  O   UNL     1      -1.097  17.135  30.763  1.00  0.00    -0.507 OA
ATOM     25  H   UNL     1      -1.620  17.389  29.939  1.00  0.00     0.293 HD
ENDBRANCH   6  24
BRANCH   8  26
ATOM     26  O   UNL     1      -3.912  17.269  34.651  1.00  0.00    -0.508 OA
ATOM     27  H   UNL     1      -4.292  18.164  34.368  1.00  0.00     0.293 HD
ENDBRANCH   8  26
TORSDOF 6
ENDMDL
MODEL 6
REMARK VINA RESULT:    -4.844      3.422      8.624
REMARK INTER + INTRA:          -6.129
REMARK INTER:                  -6.019
REMARK INTRA:                  -0.110
REMARK UNBOUND:                -0.294
REMARK SMILES O=c1c(O)c(-c2ccc(O)c(O)c2)oc2cc(O)cc(O)c12
REMARK SMILES IDX 5 1 3 2 2 3 1 4 22 5 20 6 19 7 17 8 16 9 15 10 14 11 6 12
REMARK SMILES IDX 7 13 8 14 9 15 13 16 11 17 10 18 12 20 4 22 21 24 18 26
REMARK H PARENT 10 19 12 21 4 23 21 25 18 27
REMARK Flexibility Score: inf
ROOT
ATOM      1  C   UNL     1      -0.453  12.049  33.024  1.00  0.00     0.180 A 
ATOM      2  C   UNL     1      -1.514  12.959  33.168  1.00  0.00     0.208 A 
ATOM      3  C   UNL     1      -1.418  14.220  32.559  1.00  0.00     0.238 A 
ATOM      4  O   UNL     1      -2.346  15.050  32.737  1.00  0.00    -0.285 OA
ATOM      5  C   UNL     1      -0.269  14.549  31.801  1.00  0.00     0.111 A 
ATOM      6  C   UNL     1      -0.082  15.783  31.108  1.00  0.00     0.134 A 
ATOM      7  C   UNL     1       1.150  16.053  30.497  1.00  0.00     0.093 A 
ATOM      8  C   UNL     1       2.177  15.107  30.500  1.00  0.00     0.123 A 
ATOM      9  C   UNL     1       1.983  13.876  31.122  1.00  0.00     0.094 A 
ATOM     10  C   UNL     1       0.779  13.592  31.772  1.00  0.00     0.146 A 
ATOM     11  O   UNL     1       0.639  12.411  32.362  1.00  0.00    -0.452 OA
ENDROOT
BRANCH   1  12
ATOM     12  C   UNL     1      -0.493  10.691  33.615  1.00  0.00     0.025 A 
ATOM     13  C   UNL     1       0.437  10.290  34.590  1.00  0.00     0.016 A 
ATOM     14  C   UNL     1       0.365   9.012  35.151  1.00  0.00     0.051 A 
ATOM     15  C   UNL     1      -0.643   8.122  34.756  1.00  0.00     0.157 A 
ATOM     16  C   UNL     1      -1.513   9.803  33.239  1.00  0.00     0.062 A 
ATOM     17  C   UNL     1      -1.588   8.522  33.798  1.00  0.00     0.158 A 
BRANCH  15  18
ATOM     18  O   UNL     1      -0.710   6.847  35.317  1.00  0.00    -0.504 OA
ATOM     19  H   UNL     1      -0.790   6.711  36.318  1.00  0.00     0.293 HD
ENDBRANCH  15  18
BRANCH  17  20
ATOM     20  O   UNL     1      -2.607   7.663  33.389  1.00  0.00    -0.504 OA
ATOM     21  H   UNL     1      -3.310   7.317  34.032  1.00  0.00     0.293 HD
ENDBRANCH  17  20
ENDBRANCH   1  12
BRANCH   2  22
ATOM     22  O   UNL     1      -2.630  12.621  33.940  1.00  0.00    -0.502 OA
ATOM     23  H   UNL     1      -3.424  13.240  34.047  1.00  0.00     0.293 HD
ENDBRANCH   2  22
BRANCH   6  24
ATOM     24  O   UNL     1      -1.074  16.757  30.966  1.00  0.00    -0.507 OA
ATOM     25  H   UNL     1      -1.263  17.267  30.117  1.00  0.00     0.293 HD
ENDBRANCH   6  24
BRANCH   8  26
ATOM     26  O   UNL     1       3.394  15.377  29.877  1.00  0.00    -0.508 OA
ATOM     27  H   UNL     1       3.876  16.257  30.015  1.00  0.00     0.293 HD
ENDBRANCH   8  26
TORSDOF 6
ENDMDL
MODEL 7
REMARK VINA RESULT:    -4.826     12.297     13.627
REMARK INTER + INTRA:          -6.108
REMARK INTER:                  -5.863
REMARK INTRA:                  -0.245
REMARK UNBOUND:                -0.294
REMARK SMILES O=c1c(O)c(-c2ccc(O)c(O)c2)oc2cc(O)cc(O)c12
REMARK SMILES IDX 5 1 3 2 2 3 1 4 22 5 20 6 19 7 17 8 16 9 15 10 14 11 6 12
REMARK SMILES IDX 7 13 8 14 9 15 13 16 11 17 10 18 12 20 4 22 21 24 18 26
REMARK H PARENT 10 19 12 21 4 23 21 25 18 27
REMARK Flexibility Score: inf
ROOT
ATOM      1  C   UNL     1       0.673  12.333  42.088  1.00  0.00     0.180 A 
ATOM      2  C   UNL     1       0.932  13.670  41.740  1.00  0.00     0.208 A 
ATOM      3  C   UNL     1      -0.054  14.640  41.978  1.00  0.00     0.238 A 
ATOM      4  O   UNL     1       0.163  15.825  41.615  1.00  0.00    -0.285 OA
ATOM      5  C   UNL     1      -1.281  14.263  42.575  1.00  0.00     0.111 A 
ATOM      6  C   UNL     1      -2.336  15.169  42.899  1.00  0.00     0.134 A 
ATOM      7  C   UNL     1      -3.558  14.668  43.367  1.00  0.00     0.093 A 
ATOM      8  C   UNL     1      -3.738  13.301  43.585  1.00  0.00     0.123 A 
ATOM      9  C   UNL     1      -2.695  12.415  43.329  1.00  0.00     0.094 A 
ATOM     10  C   UNL     1      -1.477  12.881  42.826  1.00  0.00     0.146 A 
ATOM     11  O   UNL     1      -0.512  12.001  42.586  1.00  0.00    -0.452 OA
ENDROOT
BRANCH   1  12
ATOM     12  C   UNL     1       1.673  11.259  41.891  1.00  0.00     0.025 A 
ATOM     13  C   UNL     1       1.545  10.320  40.852  1.00  0.00     0.016 A 
ATOM     14  C   UNL     1       2.514   9.330  40.671  1.00  0.00     0.051 A 
ATOM     15  C   UNL     1       3.631   9.271  41.516  1.00  0.00     0.157 A 
ATOM     16  C   UNL     1       2.805  11.208  42.721  1.00  0.00     0.062 A 
ATOM     17  C   UNL     1       3.777  10.216  42.543  1.00  0.00     0.158 A 
BRANCH  15  18
ATOM     18  O   UNL     1       4.595   8.279  41.333  1.00  0.00    -0.504 OA
ATOM     19  H   UNL     1       4.358   7.374  40.945  1.00  0.00     0.293 HD
ENDBRANCH  15  18
BRANCH  17  20
ATOM     20  O   UNL     1       4.880  10.189  43.396  1.00  0.00    -0.504 OA
ATOM     21  H   UNL     1       4.787  10.025  44.392  1.00  0.00     0.293 HD
ENDBRANCH  17  20
ENDBRANCH   1  12
BRANCH   2  22
ATOM     22  O   UNL     1       2.143  14.016  41.131  1.00  0.00    -0.502 OA
ATOM     23  H   UNL     1       2.283  14.904  40.666  1.00  0.00     0.293 HD
ENDBRANCH   2  22
BRANCH   6  24
ATOM     24  O   UNL     1      -2.227  16.560  42.806  1.00  0.00    -0.507 OA
ATOM     25  H   UNL     1      -2.525  17.108  42.013  1.00  0.00     0.293 HD
ENDBRANCH   6  24
BRANCH   8  26
ATOM     26  O   UNL     1      -4.952  12.812  44.066  1.00  0.00    -0.508 OA
ATOM     27  H   UNL     1      -5.822  13.304  43.903  1.00  0.00     0.293 HD
ENDBRANCH   8  26
TORSDOF 6
ENDMDL
MODEL 8
REMARK VINA RESULT:    -4.824      1.634      6.519
REMARK INTER + INTRA:          -6.104
REMARK INTER:                  -5.781
REMARK INTRA:                  -0.323
REMARK UNBOUND:                -0.294
REMARK SMILES O=c1c(O)c(-c2ccc(O)c(O)c2)oc2cc(O)cc(O)c12
REMARK SMILES IDX 5 1 3 2 2 3 1 4 22 5 20 6 19 7 17 8 16 9 15 10 14 11 6 12
REMARK SMILES IDX 7 13 8 14 9 15 13 16 11 17 10 18 12 20 4 22 21 24 18 26
REMARK H PARENT 10 19 12 21 4 23 21 25 18 27
REMARK Flexibility Score: inf
ROOT
ATOM      1  C   UNL     1       1.773  16.656  30.282  1.00  0.00     0.180 A 
ATOM      2  C   UNL     1       0.739  17.566  30.006  1.00  0.00     0.208 A 
ATOM      3  C   UNL     1       0.990  18.640  29.137  1.00  0.00     0.238 A 
ATOM      4  O   UNL     1       0.077  19.482  28.937  1.00  0.00    -0.285 OA
ATOM      5  C   UNL     1       2.267  18.781  28.543  1.00  0.00     0.111 A 
ATOM      6  C   UNL     1       2.622  19.808  27.618  1.00  0.00     0.134 A 
ATOM      7  C   UNL     1       3.952  19.928  27.194  1.00  0.00     0.093 A 
ATOM      8  C   UNL     1       4.925  19.018  27.613  1.00  0.00     0.123 A 
ATOM      9  C   UNL     1       4.576  17.977  28.469  1.00  0.00     0.094 A 
ATOM     10  C   UNL     1       3.266  17.853  28.938  1.00  0.00     0.146 A 
ATOM     11  O   UNL     1       2.978  16.852  29.761  1.00  0.00    -0.452 OA
ENDROOT
BRANCH   1  12
ATOM     12  C   UNL     1       1.577  15.485  31.167  1.00  0.00     0.025 A 
ATOM     13  C   UNL     1       1.822  15.562  32.549  1.00  0.00     0.016 A 
ATOM     14  C   UNL     1       1.607  14.451  33.368  1.00  0.00     0.051 A 
ATOM     15  C   UNL     1       1.132  13.251  32.821  1.00  0.00     0.157 A 
ATOM     16  C   UNL     1       1.081  14.286  30.628  1.00  0.00     0.062 A 
ATOM     17  C   UNL     1       0.866  13.171  31.445  1.00  0.00     0.158 A 
BRANCH  15  18
ATOM     18  O   UNL     1       0.921  12.143  33.642  1.00  0.00    -0.504 OA
ATOM     19  H   UNL     1       1.224  11.215  33.370  1.00  0.00     0.293 HD
ENDBRANCH  15  18
BRANCH  17  20
ATOM     20  O   UNL     1       0.386  11.993  30.872  1.00  0.00    -0.504 OA
ATOM     21  H   UNL     1       0.264  11.893  29.870  1.00  0.00     0.293 HD
ENDBRANCH  17  20
ENDBRANCH   1  12
BRANCH   2  22
ATOM     22  O   UNL     1      -0.509  17.421  30.620  1.00  0.00    -0.502 OA
ATOM     23  H   UNL     1      -0.684  16.727  31.336  1.00  0.00     0.293 HD
ENDBRANCH   2  22
BRANCH   6  24
ATOM     24  O   UNL     1       1.708  20.711  27.067  1.00  0.00    -0.507 OA
ATOM     25  H   UNL     1       1.957  21.512  26.507  1.00  0.00     0.293 HD
ENDBRANCH   6  24
BRANCH   8  26
ATOM     26  O   UNL     1       6.243  19.135  27.174  1.00  0.00    -0.508 OA
ATOM     27  H   UNL     1       6.471  19.180  26.188  1.00  0.00     0.293 HD
ENDBRANCH   8  26
TORSDOF 6
ENDMDL
MODEL 9
REMARK VINA RESULT:    -4.757     12.351     13.614
REMARK INTER + INTRA:          -6.025
REMARK INTER:                  -5.718
REMARK INTRA:                  -0.307
REMARK UNBOUND:                -0.294
REMARK SMILES O=c1c(O)c(-c2ccc(O)c(O)c2)oc2cc(O)cc(O)c12
REMARK SMILES IDX 5 1 3 2 2 3 1 4 22 5 20 6 19 7 17 8 16 9 15 10 14 11 6 12
REMARK SMILES IDX 7 13 8 14 9 15 13 16 11 17 10 18 12 20 4 22 21 24 18 26
REMARK H PARENT 10 19 12 21 4 23 21 25 18 27
REMARK Flexibility Score: inf
ROOT
ATOM      1  C   UNL     1       1.179  12.039  42.118  1.00  0.00     0.180 A 
ATOM      2  C   UNL     1      -0.006  11.462  42.604  1.00  0.00     0.208 A 
ATOM      3  C   UNL     1      -1.102  12.292  42.889  1.00  0.00     0.238 A 
ATOM      4  O   UNL     1      -2.142  11.775  43.375  1.00  0.00    -0.285 OA
ATOM      5  C   UNL     1      -1.004  13.687  42.670  1.00  0.00     0.111 A 
ATOM      6  C   UNL     1      -2.065  14.617  42.887  1.00  0.00     0.134 A 
ATOM      7  C   UNL     1      -1.815  15.990  42.762  1.00  0.00     0.093 A 
ATOM      8  C   UNL     1      -0.562  16.461  42.365  1.00  0.00     0.123 A 
ATOM      9  C   UNL     1       0.462  15.557  42.093  1.00  0.00     0.094 A 
ATOM     10  C   UNL     1       0.255  14.184  42.245  1.00  0.00     0.146 A 
ATOM     11  O   UNL     1       1.262  13.358  41.986  1.00  0.00    -0.452 OA
ENDROOT
BRANCH   1  12
ATOM     12  C   UNL     1       2.367  11.227  41.771  1.00  0.00     0.025 A 
ATOM     13  C   UNL     1       2.640  10.859  40.442  1.00  0.00     0.016 A 
ATOM     14  C   UNL     1       3.780  10.112  40.135  1.00  0.00     0.051 A 
ATOM     15  C   UNL     1       4.671   9.733  41.148  1.00  0.00     0.157 A 
ATOM     16  C   UNL     1       3.274  10.862  42.779  1.00  0.00     0.062 A 
ATOM     17  C   UNL     1       4.417  10.113  42.476  1.00  0.00     0.158 A 
BRANCH  15  18
ATOM     18  O   UNL     1       5.807   8.986  40.838  1.00  0.00    -0.504 OA
ATOM     19  H   UNL     1       5.747   8.003  40.598  1.00  0.00     0.293 HD
ENDBRANCH  15  18
BRANCH  17  20
ATOM     20  O   UNL     1       5.287   9.757  43.506  1.00  0.00    -0.504 OA
ATOM     21  H   UNL     1       6.137  10.276  43.696  1.00  0.00     0.293 HD
ENDBRANCH  17  20
ENDBRANCH   1  12
BRANCH   2  22
ATOM     22  O   UNL     1      -0.074  10.084  42.834  1.00  0.00    -0.502 OA
ATOM     23  H   UNL     1      -0.915   9.546  42.667  1.00  0.00     0.293 HD
ENDBRANCH   2  22
BRANCH   6  24
ATOM     24  O   UNL     1      -3.377  14.247  43.197  1.00  0.00    -0.507 OA
ATOM     25  H   UNL     1      -4.192  14.810  43.009  1.00  0.00     0.293 HD
ENDBRANCH   6  24
BRANCH   8  26
ATOM     26  O   UNL     1      -0.327  17.828  42.228  1.00  0.00    -0.508 OA
ATOM     27  H   UNL     1      -0.424  18.295  41.334  1.00  0.00     0.293 HD
ENDBRANCH   8  26
TORSDOF 6
ENDMDL
