MODEL 1
REMARK VINA RESULT:    -4.297      0.000      0.000
REMARK INTER + INTRA:          -7.857
REMARK INTER:                  -6.809
REMARK INTRA:                  -1.047
REMARK UNBOUND:                -1.047
REMARK SMILES CCCCCCCCCCCC(=O)[O-]
REMARK SMILES IDX 7 1 8 2 9 3 10 4 11 5 12 6 13 7 14 8 6 9 5 10 4 11 3 12 2 13
REMARK SMILES IDX 1 14
REMARK H PARENT
REMARK Flexibility Score: inf
ROOT
ATOM      1  C   UNL     1      14.247 -32.820  21.026  1.00  0.00     0.000 C 
ENDROOT
BRANCH   1   2
ATOM      2  C   UNL     1      14.973 -32.837  22.385  1.00  0.00     0.000 C 
BRANCH   2   3
ATOM      3  C   UNL     1      16.482 -32.543  22.317  1.00  0.00     0.000 C 
BRANCH   3   4
ATOM      4  C   UNL     1      16.906 -31.382  23.233  1.00  0.00     0.006 C 
BRANCH   4   5
ATOM      5  C   UNL     1      15.896 -30.227  23.207  1.00  0.00     0.053 C 
BRANCH   5   6
ATOM      6  C   UNL     1      16.158 -29.286  22.070  1.00  0.00     0.041 C 
ATOM      7  O   UNL     1      15.217 -28.609  21.579  1.00  0.00    -0.550 OA
ATOM      8  O   UNL     1      17.435 -29.185  21.531  1.00  0.00    -0.550 OA
ENDBRANCH   5   6
ENDBRANCH   4   5
ENDBRANCH   3   4
ENDBRANCH   2   3
ENDBRANCH   1   2
BRANCH   1   9
ATOM      9  C   UNL     1      13.284 -31.635  20.809  1.00  0.00     0.000 C 
BRANCH   9  10
ATOM     10  C   UNL     1      12.685 -31.037  22.095  1.00  0.00    -0.000 C 
BRANCH  10  11
ATOM     11  C   UNL     1      11.461 -30.147  21.824  1.00  0.00    -0.000 C 
BRANCH  11  12
ATOM     12  C   UNL     1      11.316 -29.014  22.853  1.00  0.00    -0.000 C 
BRANCH  12  13
ATOM     13  C   UNL     1      12.424 -29.034  23.917  1.00  0.00    -0.003 C 
ATOM     14  C   UNL     1      12.501 -27.700  24.654  1.00  0.00     0.004 C 
ENDBRANCH  12  13
ENDBRANCH  11  12
ENDBRANCH  10  11
ENDBRANCH   9  10
ENDBRANCH   1   9
TORSDOF 10
ENDMDL
MODEL 2
REMARK VINA RESULT:    -4.267      2.304      3.181
REMARK INTER + INTRA:          -7.809
REMARK INTER:                  -6.661
REMARK INTRA:                  -1.149
REMARK UNBOUND:                -1.047
REMARK SMILES CCCCCCCCCCCC(=O)[O-]
REMARK SMILES IDX 7 1 8 2 9 3 10 4 11 5 12 6 13 7 14 8 6 9 5 10 4 11 3 12 2 13
REMARK SMILES IDX 1 14
REMARK H PARENT
REMARK Flexibility Score: inf
ROOT
ATOM      1  C   UNL     1      15.102 -29.377  22.085  1.00  0.00     0.000 C 
ENDROOT
BRANCH   1   2
ATOM      2  C   UNL     1      16.113 -29.948  23.099  1.00  0.00     0.000 C 
BRANCH   2   3
ATOM      3  C   UNL     1      16.627 -31.362  22.775  1.00  0.00     0.000 C 
BRANCH   3   4
ATOM      4  C   UNL     1      16.354 -32.369  23.905  1.00  0.00     0.006 C 
BRANCH   4   5
ATOM      5  C   UNL     1      15.249 -33.369  23.535  1.00  0.00     0.053 C 
BRANCH   5   6
ATOM      6  C   UNL     1      15.559 -34.091  22.260  1.00  0.00     0.041 C 
ATOM      7  O   UNL     1      16.558 -34.856  22.192  1.00  0.00    -0.550 OA
ATOM      8  O   UNL     1      14.766 -33.892  21.137  1.00  0.00    -0.550 OA
ENDBRANCH   5   6
ENDBRANCH   4   5
ENDBRANCH   3   4
ENDBRANCH   2   3
ENDBRANCH   1   2
BRANCH   1   9
ATOM      9  C   UNL     1      14.179 -30.418  21.419  1.00  0.00     0.000 C 
BRANCH   9  10
ATOM     10  C   UNL     1      12.935 -30.807  22.239  1.00  0.00    -0.000 C 
BRANCH  10  11
ATOM     11  C   UNL     1      12.647 -29.825  23.387  1.00  0.00    -0.000 C 
BRANCH  11  12
ATOM     12  C   UNL     1      11.577 -28.784  23.018  1.00  0.00    -0.000 C 
BRANCH  12  13
ATOM     13  C   UNL     1      11.637 -27.533  23.907  1.00  0.00    -0.003 C 
ATOM     14  C   UNL     1      12.894 -27.535  24.773  1.00  0.00     0.004 C 
ENDBRANCH  12  13
ENDBRANCH  11  12
ENDBRANCH  10  11
ENDBRANCH   9  10
ENDBRANCH   1   9
TORSDOF 10
ENDMDL
MODEL 3
REMARK VINA RESULT:    -4.250      2.503      4.909
REMARK INTER + INTRA:          -7.782
REMARK INTER:                  -6.486
REMARK INTRA:                  -1.296
REMARK UNBOUND:                -1.047
REMARK SMILES CCCCCCCCCCCC(=O)[O-]
REMARK SMILES IDX 7 1 8 2 9 3 10 4 11 5 12 6 13 7 14 8 6 9 5 10 4 11 3 12 2 13
REMARK SMILES IDX 1 14
REMARK H PARENT
REMARK Flexibility Score: inf
ROOT
ATOM      1  C   UNL     1      14.595 -33.296  20.686  1.00  0.00     0.000 C 
ENDROOT
BRANCH   1   2
ATOM      2  C   UNL     1      14.005 -32.148  21.528  1.00  0.00     0.000 C 
BRANCH   2   3
ATOM      3  C   UNL     1      14.314 -32.225  23.034  1.00  0.00     0.000 C 
BRANCH   3   4
ATOM      4  C   UNL     1      13.704 -31.058  23.829  1.00  0.00     0.006 C 
BRANCH   4   5
ATOM      5  C   UNL     1      13.477 -29.817  22.953  1.00  0.00     0.053 C 
BRANCH   5   6
ATOM      6  C   UNL     1      12.048 -29.368  22.988  1.00  0.00     0.041 C 
ATOM      7  O   UNL     1      11.649 -28.598  23.901  1.00  0.00    -0.550 OA
ATOM      8  O   UNL     1      11.150 -29.828  22.033  1.00  0.00    -0.550 OA
ENDBRANCH   5   6
ENDBRANCH   4   5
ENDBRANCH   3   4
ENDBRANCH   2   3
ENDBRANCH   1   2
BRANCH   1   9
ATOM      9  C   UNL     1      15.333 -34.387  21.487  1.00  0.00     0.000 C 
BRANCH   9  10
ATOM     10  C   UNL     1      16.855 -34.449  21.258  1.00  0.00    -0.000 C 
BRANCH  10  11
ATOM     11  C   UNL     1      17.329 -33.493  20.151  1.00  0.00    -0.000 C 
BRANCH  11  12
ATOM     12  C   UNL     1      18.312 -32.431  20.671  1.00  0.00    -0.000 C 
BRANCH  12  13
ATOM     13  C   UNL     1      17.646 -31.065  20.891  1.00  0.00    -0.003 C 
ATOM     14  C   UNL     1      17.610 -30.705  22.374  1.00  0.00     0.004 C 
ENDBRANCH  12  13
ENDBRANCH  11  12
ENDBRANCH  10  11
ENDBRANCH   9  10
ENDBRANCH   1   9
TORSDOF 10
ENDMDL
MODEL 4
REMARK VINA RESULT:    -4.227      2.468      3.324
REMARK INTER + INTRA:          -7.746
REMARK INTER:                  -6.527
REMARK INTRA:                  -1.219
REMARK UNBOUND:                -1.047
REMARK SMILES CCCCCCCCCCCC(=O)[O-]
REMARK SMILES IDX 7 1 8 2 9 3 10 4 11 5 12 6 13 7 14 8 6 9 5 10 4 11 3 12 2 13
REMARK SMILES IDX 1 14
REMARK H PARENT
REMARK Flexibility Score: inf
ROOT
ATOM      1  C   UNL     1      15.695 -30.237  22.711  1.00  0.00     0.000 C 
ENDROOT
BRANCH   1   2
ATOM      2  C   UNL     1      17.173 -30.629  22.518  1.00  0.00     0.000 C 
BRANCH   2   3
ATOM      3  C   UNL     1      17.533 -31.122  21.105  1.00  0.00     0.000 C 
BRANCH   3   4
ATOM      4  C   UNL     1      17.761 -32.642  21.044  1.00  0.00     0.006 C 
BRANCH   4   5
ATOM      5  C   UNL     1      16.457 -33.414  20.799  1.00  0.00     0.053 C 
BRANCH   5   6
ATOM      6  C   UNL     1      16.024 -34.172  22.016  1.00  0.00     0.041 C 
ATOM      7  O   UNL     1      14.961 -33.857  22.614  1.00  0.00    -0.550 OA
ATOM      8  O   UNL     1      16.813 -35.203  22.511  1.00  0.00    -0.550 OA
ENDBRANCH   5   6
ENDBRANCH   4   5
ENDBRANCH   3   4
ENDBRANCH   2   3
ENDBRANCH   1   2
BRANCH   1   9
ATOM      9  C   UNL     1      14.910 -29.971  21.411  1.00  0.00     0.000 C 
BRANCH   9  10
ATOM     10  C   UNL     1      13.705 -30.900  21.173  1.00  0.00    -0.000 C 
BRANCH  10  11
ATOM     11  C   UNL     1      12.735 -30.934  22.365  1.00  0.00    -0.000 C 
BRANCH  11  12
ATOM     12  C   UNL     1      11.494 -30.054  22.140  1.00  0.00    -0.000 C 
BRANCH  12  13
ATOM     13  C   UNL     1      11.554 -28.734  22.922  1.00  0.00    -0.003 C 
ATOM     14  C   UNL     1      12.441 -28.867  24.157  1.00  0.00     0.004 C 
ENDBRANCH  12  13
ENDBRANCH  11  12
ENDBRANCH  10  11
ENDBRANCH   9  10
ENDBRANCH   1   9
TORSDOF 10
ENDMDL
MODEL 5
REMARK VINA RESULT:    -4.225      2.359      4.896
REMARK INTER + INTRA:          -7.742
REMARK INTER:                  -6.223
REMARK INTRA:                  -1.519
REMARK UNBOUND:                -1.047
REMARK SMILES CCCCCCCCCCCC(=O)[O-]
REMARK SMILES IDX 7 1 8 2 9 3 10 4 11 5 12 6 13 7 14 8 6 9 5 10 4 11 3 12 2 13
REMARK SMILES IDX 1 14
REMARK H PARENT
REMARK Flexibility Score: inf
ROOT
ATOM      1  C   UNL     1      17.301 -30.588  22.578  1.00  0.00     0.000 C 
ENDROOT
BRANCH   1   2
ATOM      2  C   UNL     1      15.924 -29.965  22.882  1.00  0.00     0.000 C 
BRANCH   2   3
ATOM      3  C   UNL     1      14.902 -30.063  21.737  1.00  0.00     0.000 C 
BRANCH   3   4
ATOM      4  C   UNL     1      13.470 -30.321  22.236  1.00  0.00     0.006 C 
BRANCH   4   5
ATOM      5  C   UNL     1      13.332 -30.084  23.746  1.00  0.00     0.053 C 
BRANCH   5   6
ATOM      6  C   UNL     1      12.422 -28.933  24.047  1.00  0.00     0.041 C 
ATOM      7  O   UNL     1      11.353 -28.784  23.398  1.00  0.00    -0.550 OA
ATOM      8  O   UNL     1      12.773 -28.004  25.019  1.00  0.00    -0.550 OA
ENDBRANCH   5   6
ENDBRANCH   4   5
ENDBRANCH   3   4
ENDBRANCH   2   3
ENDBRANCH   1   2
BRANCH   1   9
ATOM      9  C   UNL     1      17.542 -30.961  21.101  1.00  0.00     0.000 C 
BRANCH   9  10
ATOM     10  C   UNL     1      17.797 -32.457  20.840  1.00  0.00    -0.000 C 
BRANCH  10  11
ATOM     11  C   UNL     1      16.499 -33.273  20.727  1.00  0.00    -0.000 C 
BRANCH  11  12
ATOM     12  C   UNL     1      16.246 -34.153  21.962  1.00  0.00    -0.000 C 
BRANCH  12  13
ATOM     13  C   UNL     1      15.027 -33.696  22.776  1.00  0.00    -0.003 C 
ATOM     14  C   UNL     1      15.393 -33.492  24.244  1.00  0.00     0.004 C 
ENDBRANCH  12  13
ENDBRANCH  11  12
ENDBRANCH  10  11
ENDBRANCH   9  10
ENDBRANCH   1   9
TORSDOF 10
ENDMDL
MODEL 6
REMARK VINA RESULT:    -4.222      2.674      5.319
REMARK INTER + INTRA:          -7.738
REMARK INTER:                  -6.562
REMARK INTRA:                  -1.176
REMARK UNBOUND:                -1.047
REMARK SMILES CCCCCCCCCCCC(=O)[O-]
REMARK SMILES IDX 7 1 8 2 9 3 10 4 11 5 12 6 13 7 14 8 6 9 5 10 4 11 3 12 2 13
REMARK SMILES IDX 1 14
REMARK H PARENT
REMARK Flexibility Score: inf
ROOT
ATOM      1  C   UNL     1      15.830 -34.359  22.420  1.00  0.00     0.000 C 
ENDROOT
BRANCH   1   2
ATOM      2  C   UNL     1      15.017 -33.425  23.338  1.00  0.00     0.000 C 
BRANCH   2   3
ATOM      3  C   UNL     1      15.590 -32.005  23.488  1.00  0.00     0.000 C 
BRANCH   3   4
ATOM      4  C   UNL     1      14.528 -30.910  23.293  1.00  0.00     0.006 C 
BRANCH   4   5
ATOM      5  C   UNL     1      14.362 -30.521  21.817  1.00  0.00     0.053 C 
BRANCH   5   6
ATOM      6  C   UNL     1      13.107 -31.092  21.231  1.00  0.00     0.041 C 
ATOM      7  O   UNL     1      13.171 -31.953  20.314  1.00  0.00    -0.550 OA
ATOM      8  O   UNL     1      11.867 -30.647  21.672  1.00  0.00    -0.550 OA
ENDBRANCH   5   6
ENDBRANCH   4   5
ENDBRANCH   3   4
ENDBRANCH   2   3
ENDBRANCH   1   2
BRANCH   1   9
ATOM      9  C   UNL     1      15.200 -34.637  21.040  1.00  0.00     0.000 C 
BRANCH   9  10
ATOM     10  C   UNL     1      16.173 -35.178  19.976  1.00  0.00    -0.000 C 
BRANCH  10  11
ATOM     11  C   UNL     1      16.919 -34.062  19.228  1.00  0.00    -0.000 C 
BRANCH  11  12
ATOM     12  C   UNL     1      18.416 -34.017  19.577  1.00  0.00    -0.000 C 
BRANCH  12  13
ATOM     13  C   UNL     1      18.750 -32.937  20.617  1.00  0.00    -0.003 C 
ATOM     14  C   UNL     1      17.754 -31.782  20.548  1.00  0.00     0.004 C 
ENDBRANCH  12  13
ENDBRANCH  11  12
ENDBRANCH  10  11
ENDBRANCH   9  10
ENDBRANCH   1   9
TORSDOF 10
ENDMDL
MODEL 7
REMARK VINA RESULT:    -4.206      2.263      5.203
REMARK INTER + INTRA:          -7.712
REMARK INTER:                  -6.474
REMARK INTRA:                  -1.239
REMARK UNBOUND:                -1.047
REMARK SMILES CCCCCCCCCCCC(=O)[O-]
REMARK SMILES IDX 7 1 8 2 9 3 10 4 11 5 12 6 13 7 14 8 6 9 5 10 4 11 3 12 2 13
REMARK SMILES IDX 1 14
REMARK H PARENT
REMARK Flexibility Score: inf
ROOT
ATOM      1  C   UNL     1      16.304 -30.713  21.817  1.00  0.00     0.000 C 
ENDROOT
BRANCH   1   2
ATOM      2  C   UNL     1      14.967 -30.014  21.498  1.00  0.00     0.000 C 
BRANCH   2   3
ATOM      3  C   UNL     1      13.771 -30.963  21.303  1.00  0.00     0.000 C 
BRANCH   3   4
ATOM      4  C   UNL     1      12.623 -30.685  22.289  1.00  0.00     0.006 C 
BRANCH   4   5
ATOM      5  C   UNL     1      13.126 -30.082  23.608  1.00  0.00     0.053 C 
BRANCH   5   6
ATOM      6  C   UNL     1      12.371 -28.841  23.974  1.00  0.00     0.041 C 
ATOM      7  O   UNL     1      12.744 -28.137  24.949  1.00  0.00    -0.550 OA
ATOM      8  O   UNL     1      11.235 -28.482  23.259  1.00  0.00    -0.550 OA
ENDBRANCH   5   6
ENDBRANCH   4   5
ENDBRANCH   3   4
ENDBRANCH   2   3
ENDBRANCH   1   2
BRANCH   1   9
ATOM      9  C   UNL     1      16.799 -30.552  23.269  1.00  0.00     0.000 C 
BRANCH   9  10
ATOM     10  C   UNL     1      16.952 -31.867  24.055  1.00  0.00    -0.000 C 
BRANCH  10  11
ATOM     11  C   UNL     1      15.895 -32.917  23.673  1.00  0.00    -0.000 C 
BRANCH  11  12
ATOM     12  C   UNL     1      16.492 -34.325  23.517  1.00  0.00    -0.000 C 
BRANCH  12  13
ATOM     13  C   UNL     1      16.504 -34.805  22.059  1.00  0.00    -0.003 C 
ATOM     14  C   UNL     1      15.249 -34.347  21.320  1.00  0.00     0.004 C 
ENDBRANCH  12  13
ENDBRANCH  11  12
ENDBRANCH  10  11
ENDBRANCH   9  10
ENDBRANCH   1   9
TORSDOF 10
ENDMDL
MODEL 8
REMARK VINA RESULT:    -4.172      1.755      4.361
REMARK INTER + INTRA:          -7.659
REMARK INTER:                  -6.229
REMARK INTRA:                  -1.430
REMARK UNBOUND:                -1.047
REMARK SMILES CCCCCCCCCCCC(=O)[O-]
REMARK SMILES IDX 7 1 8 2 9 3 10 4 11 5 12 6 13 7 14 8 6 9 5 10 4 11 3 12 2 13
REMARK SMILES IDX 1 14
REMARK H PARENT
REMARK Flexibility Score: inf
ROOT
ATOM      1  C   UNL     1      15.277 -33.205  20.787  1.00  0.00     0.000 C 
ENDROOT
BRANCH   1   2
ATOM      2  C   UNL     1      13.874 -32.569  20.747  1.00  0.00     0.000 C 
BRANCH   2   3
ATOM      3  C   UNL     1      13.828 -31.079  21.128  1.00  0.00     0.000 C 
BRANCH   3   4
ATOM      4  C   UNL     1      12.667 -30.743  22.080  1.00  0.00     0.006 C 
BRANCH   4   5
ATOM      5  C   UNL     1      13.161 -30.344  23.477  1.00  0.00     0.053 C 
BRANCH   5   6
ATOM      6  C   UNL     1      12.949 -28.885  23.744  1.00  0.00     0.041 C 
ATOM      7  O   UNL     1      13.884 -28.063  23.551  1.00  0.00    -0.550 OA
ATOM      8  O   UNL     1      11.731 -28.438  24.241  1.00  0.00    -0.550 OA
ENDBRANCH   5   6
ENDBRANCH   4   5
ENDBRANCH   3   4
ENDBRANCH   2   3
ENDBRANCH   1   2
BRANCH   1   9
ATOM      9  C   UNL     1      15.537 -34.151  21.976  1.00  0.00     0.000 C 
BRANCH   9  10
ATOM     10  C   UNL     1      14.956 -33.681  23.323  1.00  0.00    -0.000 C 
BRANCH  10  11
ATOM     11  C   UNL     1      16.044 -33.368  24.364  1.00  0.00    -0.000 C 
BRANCH  11  12
ATOM     12  C   UNL     1      17.111 -32.399  23.829  1.00  0.00    -0.000 C 
BRANCH  12  13
ATOM     13  C   UNL     1      16.637 -30.938  23.830  1.00  0.00    -0.003 C 
ATOM     14  C   UNL     1      17.105 -30.209  22.573  1.00  0.00     0.004 C 
ENDBRANCH  12  13
ENDBRANCH  11  12
ENDBRANCH  10  11
ENDBRANCH   9  10
ENDBRANCH   1   9
TORSDOF 10
ENDMDL
MODEL 9
REMARK VINA RESULT:    -4.147      2.595      5.821
REMARK INTER + INTRA:          -7.618
REMARK INTER:                  -6.471
REMARK INTRA:                  -1.148
REMARK UNBOUND:                -1.047
REMARK SMILES CCCCCCCCCCCC(=O)[O-]
REMARK SMILES IDX 7 1 8 2 9 3 10 4 11 5 12 6 13 7 14 8 6 9 5 10 4 11 3 12 2 13
REMARK SMILES IDX 1 14
REMARK H PARENT
REMARK Flexibility Score: inf
ROOT
ATOM      1  C   UNL     1      16.513 -32.156  22.220  1.00  0.00     0.000 C 
ENDROOT
BRANCH   1   2
ATOM      2  C   UNL     1      15.160 -32.894  22.252  1.00  0.00     0.000 C 
BRANCH   2   3
ATOM      3  C   UNL     1      14.284 -32.694  21.003  1.00  0.00     0.000 C 
BRANCH   3   4
ATOM      4  C   UNL     1      13.583 -31.325  20.978  1.00  0.00     0.006 C 
BRANCH   4   5
ATOM      5  C   UNL     1      12.774 -31.066  22.256  1.00  0.00     0.053 C 
BRANCH   5   6
ATOM      6  C   UNL     1      13.257 -29.847  22.981  1.00  0.00     0.041 C 
ATOM      7  O   UNL     1      12.747 -29.522  24.085  1.00  0.00    -0.550 OA
ATOM      8  O   UNL     1      14.246 -29.049  22.417  1.00  0.00    -0.550 OA
ENDBRANCH   5   6
ENDBRANCH   4   5
ENDBRANCH   3   4
ENDBRANCH   2   3
ENDBRANCH   1   2
BRANCH   1   9
ATOM      9  C   UNL     1      17.183 -32.070  20.834  1.00  0.00     0.000 C 
BRANCH   9  10
ATOM     10  C   UNL     1      18.016 -33.302  20.434  1.00  0.00    -0.000 C 
BRANCH  10  11
ATOM     11  C   UNL     1      17.519 -33.961  19.137  1.00  0.00    -0.000 C 
BRANCH  11  12
ATOM     12  C   UNL     1      16.605 -35.168  19.400  1.00  0.00    -0.000 C 
BRANCH  12  13
ATOM     13  C   UNL     1      16.928 -35.878  20.723  1.00  0.00    -0.003 C 
ATOM     14  C   UNL     1      17.680 -37.183  20.477  1.00  0.00     0.004 C 
ENDBRANCH  12  13
ENDBRANCH  11  12
ENDBRANCH  10  11
ENDBRANCH   9  10
ENDBRANCH   1   9
TORSDOF 10
ENDMDL
