MODEL 1
REMARK VINA RESULT:    -5.638      0.000      0.000
REMARK INTER + INTRA:          -6.894
REMARK INTER:                  -6.792
REMARK INTRA:                  -0.102
REMARK UNBOUND:                -0.102
REMARK SMILES O=c1c(O)c(-c2ccc(O)c(O)c2)oc2cc(O)cc(O)c12
REMARK SMILES IDX 5 1 3 2 2 3 1 4 22 5 20 6 19 7 17 8 16 9 15 10 14 11 6 12
REMARK SMILES IDX 7 13 8 14 9 15 13 16 11 17 10 18 12 20 4 22 21 24 18 26
REMARK H PARENT 10 19 12 21 4 23 21 25 18 27
REMARK Flexibility Score: inf
ROOT
ATOM      1  C   UNL     1       0.742  10.912   4.403  1.00  0.00     0.180 A 
ATOM      2  C   UNL     1      -0.563  10.791   4.913  1.00  0.00     0.208 A 
ATOM      3  C   UNL     1      -1.380  11.930   4.971  1.00  0.00     0.238 A 
ATOM      4  O   UNL     1      -2.565  11.805   5.377  1.00  0.00    -0.285 OA
ATOM      5  C   UNL     1      -0.879  13.181   4.535  1.00  0.00     0.111 A 
ATOM      6  C   UNL     1      -1.606  14.408   4.586  1.00  0.00     0.134 A 
ATOM      7  C   UNL     1      -1.059  15.559   4.006  1.00  0.00     0.093 A 
ATOM      8  C   UNL     1       0.217  15.542   3.435  1.00  0.00     0.123 A 
ATOM      9  C   UNL     1       0.958  14.363   3.434  1.00  0.00     0.094 A 
ATOM     10  C   UNL     1       0.424  13.189   3.972  1.00  0.00     0.146 A 
ATOM     11  O   UNL     1       1.161  12.085   3.941  1.00  0.00    -0.452 OA
ENDROOT
BRANCH   1  12
ATOM     12  C   UNL     1       1.671   9.762   4.334  1.00  0.00     0.025 A 
ATOM     13  C   UNL     1       1.353   8.608   3.595  1.00  0.00     0.016 A 
ATOM     14  C   UNL     1       2.236   7.525   3.565  1.00  0.00     0.051 A 
ATOM     15  C   UNL     1       3.439   7.572   4.280  1.00  0.00     0.157 A 
ATOM     16  C   UNL     1       2.869   9.795   5.067  1.00  0.00     0.062 A 
ATOM     17  C   UNL     1       3.754   8.712   5.038  1.00  0.00     0.158 A 
BRANCH  15  18
ATOM     18  O   UNL     1       4.317   6.490   4.246  1.00  0.00    -0.504 OA
ATOM     19  H   UNL     1       4.978   6.318   4.994  1.00  0.00     0.293 HD
ENDBRANCH  15  18
BRANCH  17  20
ATOM     20  O   UNL     1       4.941   8.786   5.767  1.00  0.00    -0.504 OA
ATOM     21  H   UNL     1       5.728   8.177   5.579  1.00  0.00     0.293 HD
ENDBRANCH  17  20
ENDBRANCH   1  12
BRANCH   2  22
ATOM     22  O   UNL     1      -1.045   9.543   5.319  1.00  0.00    -0.502 OA
ATOM     23  H   UNL     1      -1.983   9.227   5.104  1.00  0.00     0.293 HD
ENDBRANCH   2  22
BRANCH   6  24
ATOM     24  O   UNL     1      -2.846  14.555   5.213  1.00  0.00    -0.507 OA
ATOM     25  H   UNL     1      -3.737  14.525   4.739  1.00  0.00     0.293 HD
ENDBRANCH   6  24
BRANCH   8  26
ATOM     26  O   UNL     1       0.760  16.696   2.875  1.00  0.00    -0.508 OA
ATOM     27  H   UNL     1       1.081  16.718   1.914  1.00  0.00     0.293 HD
ENDBRANCH   8  26
TORSDOF 6
ENDMDL
MODEL 2
REMARK VINA RESULT:    -5.524      1.231      2.882
REMARK INTER + INTRA:          -6.757
REMARK INTER:                  -6.524
REMARK INTRA:                  -0.233
REMARK UNBOUND:                -0.102
REMARK SMILES O=c1c(O)c(-c2ccc(O)c(O)c2)oc2cc(O)cc(O)c12
REMARK SMILES IDX 5 1 3 2 2 3 1 4 22 5 20 6 19 7 17 8 16 9 15 10 14 11 6 12
REMARK SMILES IDX 7 13 8 14 9 15 13 16 11 17 10 18 12 20 4 22 21 24 18 26
REMARK H PARENT 10 19 12 21 4 23 21 25 18 27
REMARK Flexibility Score: inf
ROOT
ATOM      1  C   UNL     1       0.990  11.131   4.286  1.00  0.00     0.180 A 
ATOM      2  C   UNL     1       1.349  12.289   3.574  1.00  0.00     0.208 A 
ATOM      3  C   UNL     1       0.485  13.396   3.593  1.00  0.00     0.238 A 
ATOM      4  O   UNL     1       0.838  14.448   2.998  1.00  0.00    -0.285 OA
ATOM      5  C   UNL     1      -0.734  13.326   4.309  1.00  0.00     0.111 A 
ATOM      6  C   UNL     1      -1.703  14.373   4.363  1.00  0.00     0.134 A 
ATOM      7  C   UNL     1      -2.811  14.244   5.210  1.00  0.00     0.093 A 
ATOM      8  C   UNL     1      -3.019  13.079   5.953  1.00  0.00     0.123 A 
ATOM      9  C   UNL     1      -2.110  12.029   5.860  1.00  0.00     0.094 A 
ATOM     10  C   UNL     1      -0.975  12.142   5.053  1.00  0.00     0.146 A 
ATOM     11  O   UNL     1      -0.129  11.120   5.002  1.00  0.00    -0.452 OA
ENDROOT
BRANCH   1  12
ATOM     12  C   UNL     1       1.836   9.917   4.293  1.00  0.00     0.025 A 
ATOM     13  C   UNL     1       1.441   8.745   3.623  1.00  0.00     0.016 A 
ATOM     14  C   UNL     1       2.246   7.604   3.664  1.00  0.00     0.051 A 
ATOM     15  C   UNL     1       3.447   7.610   4.385  1.00  0.00     0.157 A 
ATOM     16  C   UNL     1       3.031   9.911   5.031  1.00  0.00     0.062 A 
ATOM     17  C   UNL     1       3.839   8.769   5.075  1.00  0.00     0.158 A 
BRANCH  15  18
ATOM     18  O   UNL     1       4.248   6.469   4.422  1.00  0.00    -0.504 OA
ATOM     19  H   UNL     1       4.625   6.057   3.576  1.00  0.00     0.293 HD
ENDBRANCH  15  18
BRANCH  17  20
ATOM     20  O   UNL     1       5.025   8.805   5.807  1.00  0.00    -0.504 OA
ATOM     21  H   UNL     1       5.893   8.429   5.445  1.00  0.00     0.293 HD
ENDBRANCH  17  20
ENDBRANCH   1  12
BRANCH   2  22
ATOM     22  O   UNL     1       2.567  12.344   2.890  1.00  0.00    -0.502 OA
ATOM     23  H   UNL     1       3.153  11.529   2.759  1.00  0.00     0.293 HD
ENDBRANCH   2  22
BRANCH   6  24
ATOM     24  O   UNL     1      -1.639  15.537   3.593  1.00  0.00    -0.507 OA
ATOM     25  H   UNL     1      -1.703  15.565   2.586  1.00  0.00     0.293 HD
ENDBRANCH   6  24
BRANCH   8  26
ATOM     26  O   UNL     1      -4.133  12.953   6.780  1.00  0.00    -0.508 OA
ATOM     27  H   UNL     1      -4.322  12.097   7.288  1.00  0.00     0.293 HD
ENDBRANCH   8  26
TORSDOF 6
ENDMDL
MODEL 3
REMARK VINA RESULT:    -4.570      2.731      4.734
REMARK INTER + INTRA:          -5.607
REMARK INTER:                  -5.295
REMARK INTRA:                  -0.312
REMARK UNBOUND:                -0.102
REMARK SMILES O=c1c(O)c(-c2ccc(O)c(O)c2)oc2cc(O)cc(O)c12
REMARK SMILES IDX 5 1 3 2 2 3 1 4 22 5 20 6 19 7 17 8 16 9 15 10 14 11 6 12
REMARK SMILES IDX 7 13 8 14 9 15 13 16 11 17 10 18 12 20 4 22 21 24 18 26
REMARK H PARENT 10 19 12 21 4 23 21 25 18 27
REMARK Flexibility Score: inf
ROOT
ATOM      1  C   UNL     1      -0.771  10.505   4.985  1.00  0.00     0.180 A 
ATOM      2  C   UNL     1      -1.243  11.545   5.805  1.00  0.00     0.208 A 
ATOM      3  C   UNL     1      -2.606  11.584   6.138  1.00  0.00     0.238 A 
ATOM      4  O   UNL     1      -3.013  12.487   6.916  1.00  0.00    -0.285 OA
ATOM      5  C   UNL     1      -3.484  10.594   5.634  1.00  0.00     0.111 A 
ATOM      6  C   UNL     1      -4.890  10.559   5.874  1.00  0.00     0.134 A 
ATOM      7  C   UNL     1      -5.638   9.460   5.436  1.00  0.00     0.093 A 
ATOM      8  C   UNL     1      -5.042   8.426   4.708  1.00  0.00     0.123 A 
ATOM      9  C   UNL     1      -3.682   8.481   4.417  1.00  0.00     0.094 A 
ATOM     10  C   UNL     1      -2.902   9.547   4.874  1.00  0.00     0.146 A 
ATOM     11  O   UNL     1      -1.606   9.554   4.582  1.00  0.00    -0.452 OA
ENDROOT
BRANCH   1  12
ATOM     12  C   UNL     1       0.648  10.411   4.570  1.00  0.00     0.025 A 
ATOM     13  C   UNL     1       1.079  10.890   3.321  1.00  0.00     0.016 A 
ATOM     14  C   UNL     1       2.418  10.767   2.942  1.00  0.00     0.051 A 
ATOM     15  C   UNL     1       3.342  10.154   3.797  1.00  0.00     0.157 A 
ATOM     16  C   UNL     1       1.574   9.777   5.415  1.00  0.00     0.062 A 
ATOM     17  C   UNL     1       2.916   9.653   5.039  1.00  0.00     0.158 A 
BRANCH  15  18
ATOM     18  O   UNL     1       4.678  10.036   3.417  1.00  0.00    -0.504 OA
ATOM     19  H   UNL     1       5.161   9.145   3.445  1.00  0.00     0.293 HD
ENDBRANCH  15  18
BRANCH  17  20
ATOM     20  O   UNL     1       3.810   9.030   5.910  1.00  0.00    -0.504 OA
ATOM     21  H   UNL     1       4.556   8.431   5.577  1.00  0.00     0.293 HD
ENDBRANCH  17  20
ENDBRANCH   1  12
BRANCH   2  22
ATOM     22  O   UNL     1      -0.356  12.501   6.308  1.00  0.00    -0.502 OA
ATOM     23  H   UNL     1       0.625  12.517   6.056  1.00  0.00     0.293 HD
ENDBRANCH   2  22
BRANCH   6  24
ATOM     24  O   UNL     1      -5.599  11.582   6.510  1.00  0.00    -0.507 OA
ATOM     25  H   UNL     1      -5.199  12.461   6.805  1.00  0.00     0.293 HD
ENDBRANCH   6  24
BRANCH   8  26
ATOM     26  O   UNL     1      -5.798   7.345   4.261  1.00  0.00    -0.508 OA
ATOM     27  H   UNL     1      -6.409   7.422   3.457  1.00  0.00     0.293 HD
ENDBRANCH   8  26
TORSDOF 6
ENDMDL
MODEL 4
REMARK VINA RESULT:    -4.558      0.661      1.485
REMARK INTER + INTRA:          -5.593
REMARK INTER:                  -5.646
REMARK INTRA:                   0.053
REMARK UNBOUND:                -0.102
REMARK SMILES O=c1c(O)c(-c2ccc(O)c(O)c2)oc2cc(O)cc(O)c12
REMARK SMILES IDX 5 1 3 2 2 3 1 4 22 5 20 6 19 7 17 8 16 9 15 10 14 11 6 12
REMARK SMILES IDX 7 13 8 14 9 15 13 16 11 17 10 18 12 20 4 22 21 24 18 26
REMARK H PARENT 10 19 12 21 4 23 21 25 18 27
REMARK Flexibility Score: inf
ROOT
ATOM      1  C   UNL     1       0.694  10.880   4.367  1.00  0.00     0.180 A 
ATOM      2  C   UNL     1      -0.614  10.694   4.851  1.00  0.00     0.208 A 
ATOM      3  C   UNL     1      -1.473  11.801   4.933  1.00  0.00     0.238 A 
ATOM      4  O   UNL     1      -2.659  11.619   5.315  1.00  0.00    -0.285 OA
ATOM      5  C   UNL     1      -1.011  13.083   4.547  1.00  0.00     0.111 A 
ATOM      6  C   UNL     1      -1.783  14.280   4.626  1.00  0.00     0.134 A 
ATOM      7  C   UNL     1      -1.270  15.469   4.093  1.00  0.00     0.093 A 
ATOM      8  C   UNL     1       0.014  15.517   3.543  1.00  0.00     0.123 A 
ATOM      9  C   UNL     1       0.797  14.367   3.515  1.00  0.00     0.094 A 
ATOM     10  C   UNL     1       0.299  13.157   4.006  1.00  0.00     0.146 A 
ATOM     11  O   UNL     1       1.076  12.082   3.950  1.00  0.00    -0.452 OA
ENDROOT
BRANCH   1  12
ATOM     12  C   UNL     1       1.665   9.766   4.276  1.00  0.00     0.025 A 
ATOM     13  C   UNL     1       2.978   9.898   4.762  1.00  0.00     0.016 A 
ATOM     14  C   UNL     1       3.884   8.842   4.641  1.00  0.00     0.051 A 
ATOM     15  C   UNL     1       3.498   7.645   4.024  1.00  0.00     0.157 A 
ATOM     16  C   UNL     1       1.290   8.572   3.638  1.00  0.00     0.062 A 
ATOM     17  C   UNL     1       2.195   7.512   3.516  1.00  0.00     0.158 A 
BRANCH  15  18
ATOM     18  O   UNL     1       4.405   6.592   3.908  1.00  0.00    -0.504 OA
ATOM     19  H   UNL     1       5.036   6.349   4.662  1.00  0.00     0.293 HD
ENDBRANCH  15  18
BRANCH  17  20
ATOM     20  O   UNL     1       1.782   6.337   2.889  1.00  0.00    -0.504 OA
ATOM     21  H   UNL     1       2.253   5.969   2.071  1.00  0.00     0.293 HD
ENDBRANCH  17  20
ENDBRANCH   1  12
BRANCH   2  22
ATOM     22  O   UNL     1      -1.056   9.417   5.208  1.00  0.00    -0.502 OA
ATOM     23  H   UNL     1      -0.565   8.576   4.931  1.00  0.00     0.293 HD
ENDBRANCH   2  22
BRANCH   6  24
ATOM     24  O   UNL     1      -3.038  14.362   5.236  1.00  0.00    -0.507 OA
ATOM     25  H   UNL     1      -3.916  14.181   4.772  1.00  0.00     0.293 HD
ENDBRANCH   6  24
BRANCH   8  26
ATOM     26  O   UNL     1       0.523  16.708   3.030  1.00  0.00    -0.508 OA
ATOM     27  H   UNL     1       0.916  16.758   2.097  1.00  0.00     0.293 HD
ENDBRANCH   8  26
TORSDOF 6
ENDMDL
MODEL 5
REMARK VINA RESULT:    -4.543      2.258      7.129
REMARK INTER + INTRA:          -5.575
REMARK INTER:                  -5.253
REMARK INTRA:                  -0.322
REMARK UNBOUND:                -0.102
REMARK SMILES O=c1c(O)c(-c2ccc(O)c(O)c2)oc2cc(O)cc(O)c12
REMARK SMILES IDX 5 1 3 2 2 3 1 4 22 5 20 6 19 7 17 8 16 9 15 10 14 11 6 12
REMARK SMILES IDX 7 13 8 14 9 15 13 16 11 17 10 18 12 20 4 22 21 24 18 26
REMARK H PARENT 10 19 12 21 4 23 21 25 18 27
REMARK Flexibility Score: inf
ROOT
ATOM      1  C   UNL     1       0.464  10.897   4.343  1.00  0.00     0.180 A 
ATOM      2  C   UNL     1       1.582  11.688   4.023  1.00  0.00     0.208 A 
ATOM      3  C   UNL     1       2.755  11.059   3.577  1.00  0.00     0.238 A 
ATOM      4  O   UNL     1       3.734  11.775   3.240  1.00  0.00    -0.285 OA
ATOM      5  C   UNL     1       2.803   9.648   3.472  1.00  0.00     0.111 A 
ATOM      6  C   UNL     1       3.952   8.903   3.070  1.00  0.00     0.134 A 
ATOM      7  C   UNL     1       3.845   7.521   2.875  1.00  0.00     0.093 A 
ATOM      8  C   UNL     1       2.649   6.847   3.132  1.00  0.00     0.123 A 
ATOM      9  C   UNL     1       1.539   7.556   3.582  1.00  0.00     0.094 A 
ATOM     10  C   UNL     1       1.604   8.942   3.751  1.00  0.00     0.146 A 
ATOM     11  O   UNL     1       0.518   9.581   4.172  1.00  0.00    -0.452 OA
ENDROOT
BRANCH   1  12
ATOM     12  C   UNL     1      -0.799  11.485   4.844  1.00  0.00     0.025 A 
ATOM     13  C   UNL     1      -0.967  11.814   6.201  1.00  0.00     0.016 A 
ATOM     14  C   UNL     1      -2.177  12.345   6.653  1.00  0.00     0.051 A 
ATOM     15  C   UNL     1      -3.240  12.543   5.764  1.00  0.00     0.157 A 
ATOM     16  C   UNL     1      -1.876  11.665   3.960  1.00  0.00     0.062 A 
ATOM     17  C   UNL     1      -3.089  12.197   4.411  1.00  0.00     0.158 A 
BRANCH  15  18
ATOM     18  O   UNL     1      -4.446  13.075   6.219  1.00  0.00    -0.504 OA
ATOM     19  H   UNL     1      -4.869  12.765   7.086  1.00  0.00     0.293 HD
ENDBRANCH  15  18
BRANCH  17  20
ATOM     20  O   UNL     1      -4.132  12.375   3.501  1.00  0.00    -0.504 OA
ATOM     21  H   UNL     1      -5.008  12.809   3.764  1.00  0.00     0.293 HD
ENDBRANCH  17  20
ENDBRANCH   1  12
BRANCH   2  22
ATOM     22  O   UNL     1       1.506  13.080   4.113  1.00  0.00    -0.502 OA
ATOM     23  H   UNL     1       0.623  13.574   4.162  1.00  0.00     0.293 HD
ENDBRANCH   2  22
BRANCH   6  24
ATOM     24  O   UNL     1       5.217   9.465   2.875  1.00  0.00    -0.507 OA
ATOM     25  H   UNL     1       5.573  10.266   3.375  1.00  0.00     0.293 HD
ENDBRANCH   6  24
BRANCH   8  26
ATOM     26  O   UNL     1       2.556   5.469   2.952  1.00  0.00    -0.508 OA
ATOM     27  H   UNL     1       2.846   4.819   3.673  1.00  0.00     0.293 HD
ENDBRANCH   8  26
TORSDOF 6
ENDMDL
MODEL 6
REMARK VINA RESULT:    -4.435      2.363      3.073
REMARK INTER + INTRA:          -5.445
REMARK INTER:                  -5.140
REMARK INTRA:                  -0.305
REMARK UNBOUND:                -0.102
REMARK SMILES O=c1c(O)c(-c2ccc(O)c(O)c2)oc2cc(O)cc(O)c12
REMARK SMILES IDX 5 1 3 2 2 3 1 4 22 5 20 6 19 7 17 8 16 9 15 10 14 11 6 12
REMARK SMILES IDX 7 13 8 14 9 15 13 16 11 17 10 18 12 20 4 22 21 24 18 26
REMARK H PARENT 10 19 12 21 4 23 21 25 18 27
REMARK Flexibility Score: inf
ROOT
ATOM      1  C   UNL     1      -0.335  10.399   4.487  1.00  0.00     0.180 A 
ATOM      2  C   UNL     1      -1.277   9.362   4.361  1.00  0.00     0.208 A 
ATOM      3  C   UNL     1      -2.640   9.657   4.521  1.00  0.00     0.238 A 
ATOM      4  O   UNL     1      -3.481   8.736   4.353  1.00  0.00    -0.285 OA
ATOM      5  C   UNL     1      -3.045  10.980   4.821  1.00  0.00     0.111 A 
ATOM      6  C   UNL     1      -4.396  11.384   5.043  1.00  0.00     0.134 A 
ATOM      7  C   UNL     1      -4.692  12.743   5.203  1.00  0.00     0.093 A 
ATOM      8  C   UNL     1      -3.680  13.705   5.213  1.00  0.00     0.123 A 
ATOM      9  C   UNL     1      -2.353  13.314   5.057  1.00  0.00     0.094 A 
ATOM     10  C   UNL     1      -2.028  11.969   4.859  1.00  0.00     0.146 A 
ATOM     11  O   UNL     1      -0.751  11.642   4.704  1.00  0.00    -0.452 OA
ENDROOT
BRANCH   1  12
ATOM     12  C   UNL     1       1.120  10.161   4.357  1.00  0.00     0.025 A 
ATOM     13  C   UNL     1       1.741  10.094   3.098  1.00  0.00     0.016 A 
ATOM     14  C   UNL     1       3.112   9.844   3.000  1.00  0.00     0.051 A 
ATOM     15  C   UNL     1       3.880   9.645   4.154  1.00  0.00     0.157 A 
ATOM     16  C   UNL     1       1.891   9.939   5.511  1.00  0.00     0.062 A 
ATOM     17  C   UNL     1       3.264   9.689   5.416  1.00  0.00     0.158 A 
BRANCH  15  18
ATOM     18  O   UNL     1       5.248   9.398   4.052  1.00  0.00    -0.504 OA
ATOM     19  H   UNL     1       5.772   8.985   4.815  1.00  0.00     0.293 HD
ENDBRANCH  15  18
BRANCH  17  20
ATOM     20  O   UNL     1       3.999   9.487   6.584  1.00  0.00    -0.504 OA
ATOM     21  H   UNL     1       4.985   9.709   6.644  1.00  0.00     0.293 HD
ENDBRANCH  17  20
ENDBRANCH   1  12
BRANCH   2  22
ATOM     22  O   UNL     1      -0.857   8.067   4.044  1.00  0.00    -0.502 OA
ATOM     23  H   UNL     1      -0.472   7.436   4.737  1.00  0.00     0.293 HD
ENDBRANCH   2  22
BRANCH   6  24
ATOM     24  O   UNL     1      -5.470  10.495   5.142  1.00  0.00    -0.507 OA
ATOM     25  H   UNL     1      -6.437  10.770   5.227  1.00  0.00     0.293 HD
ENDBRANCH   6  24
BRANCH   8  26
ATOM     26  O   UNL     1      -3.982  15.054   5.389  1.00  0.00    -0.508 OA
ATOM     27  H   UNL     1      -4.775  15.484   4.928  1.00  0.00     0.293 HD
ENDBRANCH   8  26
TORSDOF 6
ENDMDL
MODEL 7
REMARK VINA RESULT:    -4.219      3.442      5.523
REMARK INTER + INTRA:          -5.185
REMARK INTER:                  -4.889
REMARK INTRA:                  -0.296
REMARK UNBOUND:                -0.102
REMARK SMILES O=c1c(O)c(-c2ccc(O)c(O)c2)oc2cc(O)cc(O)c12
REMARK SMILES IDX 5 1 3 2 2 3 1 4 22 5 20 6 19 7 17 8 16 9 15 10 14 11 6 12
REMARK SMILES IDX 7 13 8 14 9 15 13 16 11 17 10 18 12 20 4 22 21 24 18 26
REMARK H PARENT 10 19 12 21 4 23 21 25 18 27
REMARK Flexibility Score: inf
ROOT
ATOM      1  C   UNL     1      -2.458  11.281   5.282  1.00  0.00     0.180 A 
ATOM      2  C   UNL     1      -2.909  12.612   5.329  1.00  0.00     0.208 A 
ATOM      3  C   UNL     1      -4.193  12.879   5.831  1.00  0.00     0.238 A 
ATOM      4  O   UNL     1      -4.570  14.077   5.921  1.00  0.00    -0.285 OA
ATOM      5  C   UNL     1      -5.016  11.812   6.264  1.00  0.00     0.111 A 
ATOM      6  C   UNL     1      -6.349  11.963   6.752  1.00  0.00     0.134 A 
ATOM      7  C   UNL     1      -7.022  10.853   7.276  1.00  0.00     0.093 A 
ATOM      8  C   UNL     1      -6.435   9.584   7.269  1.00  0.00     0.123 A 
ATOM      9  C   UNL     1      -5.159   9.416   6.740  1.00  0.00     0.094 A 
ATOM     10  C   UNL     1      -4.447  10.512   6.243  1.00  0.00     0.146 A 
ATOM     11  O   UNL     1      -3.228  10.309   5.757  1.00  0.00    -0.452 OA
ENDROOT
BRANCH   1  12
ATOM     12  C   UNL     1      -1.127  10.919   4.744  1.00  0.00     0.025 A 
ATOM     13  C   UNL     1      -0.886  10.871   3.360  1.00  0.00     0.016 A 
ATOM     14  C   UNL     1       0.371  10.502   2.875  1.00  0.00     0.051 A 
ATOM     15  C   UNL     1       1.401  10.164   3.763  1.00  0.00     0.157 A 
ATOM     16  C   UNL     1      -0.098  10.558   5.629  1.00  0.00     0.062 A 
ATOM     17  C   UNL     1       1.163  10.189   5.147  1.00  0.00     0.158 A 
BRANCH  15  18
ATOM     18  O   UNL     1       2.655   9.799   3.275  1.00  0.00    -0.504 OA
ATOM     19  H   UNL     1       2.756   9.176   2.483  1.00  0.00     0.293 HD
ENDBRANCH  15  18
BRANCH  17  20
ATOM     20  O   UNL     1       2.164   9.851   6.057  1.00  0.00    -0.504 OA
ATOM     21  H   UNL     1       3.030  10.373   6.123  1.00  0.00     0.293 HD
ENDBRANCH  17  20
ENDBRANCH   1  12
BRANCH   2  22
ATOM     22  O   UNL     1      -2.072  13.653   4.916  1.00  0.00    -0.502 OA
ATOM     23  H   UNL     1      -1.063  13.600   4.991  1.00  0.00     0.293 HD
ENDBRANCH   2  22
BRANCH   6  24
ATOM     24  O   UNL     1      -7.060  13.166   6.721  1.00  0.00    -0.507 OA
ATOM     25  H   UNL     1      -7.942  13.300   6.249  1.00  0.00     0.293 HD
ENDBRANCH   6  24
BRANCH   8  26
ATOM     26  O   UNL     1      -7.119   8.482   7.777  1.00  0.00    -0.508 OA
ATOM     27  H   UNL     1      -6.927   8.120   8.703  1.00  0.00     0.293 HD
ENDBRANCH   8  26
TORSDOF 6
ENDMDL
MODEL 8
REMARK VINA RESULT:    -4.200      2.605      6.261
REMARK INTER + INTRA:          -5.161
REMARK INTER:                  -4.855
REMARK INTRA:                  -0.306
REMARK UNBOUND:                -0.102
REMARK SMILES O=c1c(O)c(-c2ccc(O)c(O)c2)oc2cc(O)cc(O)c12
REMARK SMILES IDX 5 1 3 2 2 3 1 4 22 5 20 6 19 7 17 8 16 9 15 10 14 11 6 12
REMARK SMILES IDX 7 13 8 14 9 15 13 16 11 17 10 18 12 20 4 22 21 24 18 26
REMARK H PARENT 10 19 12 21 4 23 21 25 18 27
REMARK Flexibility Score: inf
ROOT
ATOM      1  C   UNL     1      -1.128  10.569   4.554  1.00  0.00     0.180 A 
ATOM      2  C   UNL     1      -0.901  11.755   3.833  1.00  0.00     0.208 A 
ATOM      3  C   UNL     1       0.420  12.148   3.567  1.00  0.00     0.238 A 
ATOM      4  O   UNL     1       0.616  13.182   2.875  1.00  0.00    -0.285 OA
ATOM      5  C   UNL     1       1.499  11.361   4.038  1.00  0.00     0.111 A 
ATOM      6  C   UNL     1       2.877  11.685   3.860  1.00  0.00     0.134 A 
ATOM      7  C   UNL     1       3.858  10.766   4.253  1.00  0.00     0.093 A 
ATOM      8  C   UNL     1       3.512   9.564   4.876  1.00  0.00     0.123 A 
ATOM      9  C   UNL     1       2.172   9.266   5.107  1.00  0.00     0.094 A 
ATOM     10  C   UNL     1       1.169  10.146   4.693  1.00  0.00     0.146 A 
ATOM     11  O   UNL     1      -0.097   9.818   4.924  1.00  0.00    -0.452 OA
ENDROOT
BRANCH   1  12
ATOM     12  C   UNL     1      -2.491  10.103   4.894  1.00  0.00     0.025 A 
ATOM     13  C   UNL     1      -3.210  10.663   5.966  1.00  0.00     0.016 A 
ATOM     14  C   UNL     1      -4.485  10.189   6.283  1.00  0.00     0.051 A 
ATOM     15  C   UNL     1      -5.056   9.144   5.547  1.00  0.00     0.157 A 
ATOM     16  C   UNL     1      -3.059   9.040   4.173  1.00  0.00     0.062 A 
ATOM     17  C   UNL     1      -4.337   8.564   4.489  1.00  0.00     0.158 A 
BRANCH  15  18
ATOM     18  O   UNL     1      -6.330   8.676   5.866  1.00  0.00    -0.504 OA
ATOM     19  H   UNL     1      -6.791   8.938   6.729  1.00  0.00     0.293 HD
ENDBRANCH  15  18
BRANCH  17  20
ATOM     20  O   UNL     1      -4.874   7.517   3.741  1.00  0.00    -0.504 OA
ATOM     21  H   UNL     1      -5.705   7.018   4.033  1.00  0.00     0.293 HD
ENDBRANCH  17  20
ENDBRANCH   1  12
BRANCH   2  22
ATOM     22  O   UNL     1      -1.980  12.507   3.360  1.00  0.00    -0.502 OA
ATOM     23  H   UNL     1      -2.940  12.202   3.461  1.00  0.00     0.293 HD
ENDBRANCH   2  22
BRANCH   6  24
ATOM     24  O   UNL     1       3.333  12.896   3.333  1.00  0.00    -0.507 OA
ATOM     25  H   UNL     1       3.767  13.631   3.872  1.00  0.00     0.293 HD
ENDBRANCH   6  24
BRANCH   8  26
ATOM     26  O   UNL     1       4.496   8.663   5.278  1.00  0.00    -0.508 OA
ATOM     27  H   UNL     1       4.432   8.168   6.160  1.00  0.00     0.293 HD
ENDBRANCH   8  26
TORSDOF 6
ENDMDL
