MODEL 1
REMARK VINA RESULT:    -4.328      0.000      0.000
REMARK INTER + INTRA:          -9.267
REMARK INTER:                  -7.364
REMARK INTRA:                  -1.904
REMARK UNBOUND:                -1.904
REMARK SMILES CCCCCCCCCCCCCC(=O)[O-]
REMARK SMILES IDX 8 1 9 2 10 3 11 4 12 5 13 6 14 7 15 8 16 9 7 10 6 11 5 12
REMARK SMILES IDX 4 13 3 14 2 15 1 16
REMARK H PARENT
REMARK Flexibility Score: inf
ROOT
ATOM      1  C   UNL     1      55.015  39.668  48.629  1.00  0.00     0.000 C 
ENDROOT
BRANCH   1   2
ATOM      2  C   UNL     1      55.000  38.536  49.664  1.00  0.00     0.000 C 
BRANCH   2   3
ATOM      3  C   UNL     1      53.918  38.778  50.727  1.00  0.00     0.000 C 
BRANCH   3   4
ATOM      4  C   UNL     1      53.675  40.272  50.994  1.00  0.00     0.000 C 
BRANCH   4   5
ATOM      5  C   UNL     1      52.246  40.563  51.476  1.00  0.00     0.006 C 
BRANCH   5   6
ATOM      6  C   UNL     1      52.144  41.971  52.070  1.00  0.00     0.053 C 
BRANCH   6   7
ATOM      7  C   UNL     1      53.201  42.182  53.107  1.00  0.00     0.041 C 
ATOM      8  O   UNL     1      54.011  43.139  53.000  1.00  0.00    -0.550 OA
ATOM      9  O   UNL     1      53.260  41.352  54.219  1.00  0.00    -0.550 OA
ENDBRANCH   6   7
ENDBRANCH   5   6
ENDBRANCH   4   5
ENDBRANCH   3   4
ENDBRANCH   2   3
ENDBRANCH   1   2
BRANCH   1  10
ATOM     10  C   UNL     1      54.517  39.174  47.265  1.00  0.00     0.000 C 
BRANCH  10  11
ATOM     11  C   UNL     1      53.444  40.117  46.698  1.00  0.00    -0.000 C 
BRANCH  11  12
ATOM     12  C   UNL     1      52.371  40.483  47.736  1.00  0.00    -0.000 C 
BRANCH  12  13
ATOM     13  C   UNL     1      51.869  41.930  47.583  1.00  0.00    -0.000 C 
BRANCH  13  14
ATOM     14  C   UNL     1      53.011  42.958  47.619  1.00  0.00    -0.000 C 
BRANCH  14  15
ATOM     15  C   UNL     1      53.121  43.669  48.975  1.00  0.00    -0.003 C 
ATOM     16  C   UNL     1      54.528  43.534  49.553  1.00  0.00     0.004 C 
ENDBRANCH  14  15
ENDBRANCH  13  14
ENDBRANCH  12  13
ENDBRANCH  11  12
ENDBRANCH  10  11
ENDBRANCH   1  10
TORSDOF 12
ENDMDL
MODEL 2
REMARK VINA RESULT:    -4.235      0.933      3.558
REMARK INTER + INTRA:          -9.109
REMARK INTER:                  -7.330
REMARK INTRA:                  -1.779
REMARK UNBOUND:                -1.904
REMARK SMILES CCCCCCCCCCCCCC(=O)[O-]
REMARK SMILES IDX 8 1 9 2 10 3 11 4 12 5 13 6 14 7 15 8 16 9 7 10 6 11 5 12
REMARK SMILES IDX 4 13 3 14 2 15 1 16
REMARK H PARENT
REMARK Flexibility Score: inf
ROOT
ATOM      1  C   UNL     1      51.990  41.079  48.002  1.00  0.00     0.000 C 
ENDROOT
BRANCH   1   2
ATOM      2  C   UNL     1      52.132  42.427  47.285  1.00  0.00     0.000 C 
BRANCH   2   3
ATOM      3  C   UNL     1      52.626  43.513  48.252  1.00  0.00     0.000 C 
BRANCH   3   4
ATOM      4  C   UNL     1      53.275  42.929  49.517  1.00  0.00     0.000 C 
BRANCH   4   5
ATOM      5  C   UNL     1      52.609  43.425  50.808  1.00  0.00     0.006 C 
BRANCH   5   6
ATOM      6  C   UNL     1      52.298  42.258  51.749  1.00  0.00     0.053 C 
BRANCH   6   7
ATOM      7  C   UNL     1      53.208  42.283  52.936  1.00  0.00     0.041 C 
ATOM      8  O   UNL     1      54.080  43.183  53.047  1.00  0.00    -0.550 OA
ATOM      9  O   UNL     1      53.059  41.341  53.947  1.00  0.00    -0.550 OA
ENDBRANCH   6   7
ENDBRANCH   5   6
ENDBRANCH   4   5
ENDBRANCH   3   4
ENDBRANCH   2   3
ENDBRANCH   1   2
BRANCH   1  10
ATOM     10  C   UNL     1      52.718  39.968  47.235  1.00  0.00     0.000 C 
BRANCH  10  11
ATOM     11  C   UNL     1      54.115  40.430  46.792  1.00  0.00    -0.000 C 
BRANCH  11  12
ATOM     12  C   UNL     1      55.198  40.120  47.837  1.00  0.00    -0.000 C 
BRANCH  12  13
ATOM     13  C   UNL     1      54.881  38.859  48.662  1.00  0.00    -0.000 C 
BRANCH  13  14
ATOM     14  C   UNL     1      55.592  38.852  50.025  1.00  0.00    -0.000 C 
BRANCH  14  15
ATOM     15  C   UNL     1      54.662  39.264  51.176  1.00  0.00    -0.003 C 
ATOM     16  C   UNL     1      53.215  38.886  50.873  1.00  0.00     0.004 C 
ENDBRANCH  14  15
ENDBRANCH  13  14
ENDBRANCH  12  13
ENDBRANCH  11  12
ENDBRANCH  10  11
ENDBRANCH   1  10
TORSDOF 12
ENDMDL
MODEL 3
REMARK VINA RESULT:    -4.216      1.538      4.166
REMARK INTER + INTRA:          -9.077
REMARK INTER:                  -7.388
REMARK INTRA:                  -1.689
REMARK UNBOUND:                -1.904
REMARK SMILES CCCCCCCCCCCCCC(=O)[O-]
REMARK SMILES IDX 8 1 9 2 10 3 11 4 12 5 13 6 14 7 15 8 16 9 7 10 6 11 5 12
REMARK SMILES IDX 4 13 3 14 2 15 1 16
REMARK H PARENT
REMARK Flexibility Score: inf
ROOT
ATOM      1  C   UNL     1      53.520  40.158  46.829  1.00  0.00     0.000 C 
ENDROOT
BRANCH   1   2
ATOM      2  C   UNL     1      52.266  40.213  47.711  1.00  0.00     0.000 C 
BRANCH   2   3
ATOM      3  C   UNL     1      51.976  41.652  48.163  1.00  0.00     0.000 C 
BRANCH   3   4
ATOM      4  C   UNL     1      52.126  42.673  47.023  1.00  0.00     0.000 C 
BRANCH   4   5
ATOM      5  C   UNL     1      52.892  43.933  47.453  1.00  0.00     0.006 C 
BRANCH   5   6
ATOM      6  C   UNL     1      53.013  44.008  48.978  1.00  0.00     0.053 C 
BRANCH   6   7
ATOM      7  C   UNL     1      54.449  44.100  49.386  1.00  0.00     0.041 C 
ATOM      8  O   UNL     1      54.969  43.191  50.083  1.00  0.00    -0.550 OA
ATOM      9  O   UNL     1      55.228  45.167  48.954  1.00  0.00    -0.550 OA
ENDBRANCH   6   7
ENDBRANCH   5   6
ENDBRANCH   4   5
ENDBRANCH   3   4
ENDBRANCH   2   3
ENDBRANCH   1   2
BRANCH   1  10
ATOM     10  C   UNL     1      54.554  39.183  47.403  1.00  0.00     0.000 C 
BRANCH  10  11
ATOM     11  C   UNL     1      54.996  39.615  48.810  1.00  0.00    -0.000 C 
BRANCH  11  12
ATOM     12  C   UNL     1      54.832  38.495  49.849  1.00  0.00    -0.000 C 
BRANCH  12  13
ATOM     13  C   UNL     1      53.651  38.741  50.805  1.00  0.00    -0.000 C 
BRANCH  13  14
ATOM     14  C   UNL     1      53.566  40.202  51.274  1.00  0.00    -0.000 C 
BRANCH  14  15
ATOM     15  C   UNL     1      52.142  40.608  51.680  1.00  0.00    -0.003 C 
ATOM     16  C   UNL     1      52.060  42.105  51.968  1.00  0.00     0.004 C 
ENDBRANCH  14  15
ENDBRANCH  13  14
ENDBRANCH  12  13
ENDBRANCH  11  12
ENDBRANCH  10  11
ENDBRANCH   1  10
TORSDOF 12
ENDMDL
MODEL 4
REMARK VINA RESULT:    -4.203      2.042      4.224
REMARK INTER + INTRA:          -9.056
REMARK INTER:                  -7.186
REMARK INTRA:                  -1.870
REMARK UNBOUND:                -1.904
REMARK SMILES CCCCCCCCCCCCCC(=O)[O-]
REMARK SMILES IDX 8 1 9 2 10 3 11 4 12 5 13 6 14 7 15 8 16 9 7 10 6 11 5 12
REMARK SMILES IDX 4 13 3 14 2 15 1 16
REMARK H PARENT
REMARK Flexibility Score: inf
ROOT
ATOM      1  C   UNL     1      51.886  41.823  47.743  1.00  0.00     0.000 C 
ENDROOT
BRANCH   1   2
ATOM      2  C   UNL     1      52.263  40.343  47.885  1.00  0.00     0.000 C 
BRANCH   2   3
ATOM      3  C   UNL     1      53.412  39.976  46.934  1.00  0.00     0.000 C 
BRANCH   3   4
ATOM      4  C   UNL     1      54.562  39.249  47.649  1.00  0.00     0.000 C 
BRANCH   4   5
ATOM      5  C   UNL     1      54.631  39.578  49.147  1.00  0.00     0.006 C 
BRANCH   5   6
ATOM      6  C   UNL     1      54.841  38.309  49.979  1.00  0.00     0.053 C 
BRANCH   6   7
ATOM      7  C   UNL     1      56.053  38.443  50.844  1.00  0.00     0.041 C 
ATOM      8  O   UNL     1      57.172  38.036  50.435  1.00  0.00    -0.550 OA
ATOM      9  O   UNL     1      55.957  39.063  52.084  1.00  0.00    -0.550 OA
ENDBRANCH   6   7
ENDBRANCH   5   6
ENDBRANCH   4   5
ENDBRANCH   3   4
ENDBRANCH   2   3
ENDBRANCH   1   2
BRANCH   1  10
ATOM     10  C   UNL     1      53.013  42.617  47.071  1.00  0.00     0.000 C 
BRANCH  10  11
ATOM     11  C   UNL     1      53.582  43.678  48.025  1.00  0.00    -0.000 C 
BRANCH  11  12
ATOM     12  C   UNL     1      53.068  43.515  49.465  1.00  0.00    -0.000 C 
BRANCH  12  13
ATOM     13  C   UNL     1      54.202  43.257  50.473  1.00  0.00    -0.000 C 
BRANCH  13  14
ATOM     14  C   UNL     1      53.774  42.324  51.617  1.00  0.00    -0.000 C 
BRANCH  14  15
ATOM     15  C   UNL     1      52.253  42.127  51.678  1.00  0.00    -0.003 C 
ATOM     16  C   UNL     1      51.881  40.659  51.481  1.00  0.00     0.004 C 
ENDBRANCH  14  15
ENDBRANCH  13  14
ENDBRANCH  12  13
ENDBRANCH  11  12
ENDBRANCH  10  11
ENDBRANCH   1  10
TORSDOF 12
ENDMDL
MODEL 5
REMARK VINA RESULT:    -4.197      2.562      4.625
REMARK INTER + INTRA:          -9.045
REMARK INTER:                  -7.490
REMARK INTRA:                  -1.555
REMARK UNBOUND:                -1.904
REMARK SMILES CCCCCCCCCCCCCC(=O)[O-]
REMARK SMILES IDX 8 1 9 2 10 3 11 4 12 5 13 6 14 7 15 8 16 9 7 10 6 11 5 12
REMARK SMILES IDX 4 13 3 14 2 15 1 16
REMARK H PARENT
REMARK Flexibility Score: inf
ROOT
ATOM      1  C   UNL     1      54.789  39.679  48.608  1.00  0.00     0.000 C 
ENDROOT
BRANCH   1   2
ATOM      2  C   UNL     1      54.438  39.273  47.172  1.00  0.00     0.000 C 
BRANCH   2   3
ATOM      3  C   UNL     1      53.201  40.035  46.673  1.00  0.00     0.000 C 
BRANCH   3   4
ATOM      4  C   UNL     1      52.341  40.585  47.822  1.00  0.00     0.000 C 
BRANCH   4   5
ATOM      5  C   UNL     1      51.812  41.999  47.542  1.00  0.00     0.006 C 
BRANCH   5   6
ATOM      6  C   UNL     1      52.679  42.713  46.500  1.00  0.00     0.053 C 
BRANCH   6   7
ATOM      7  C   UNL     1      52.711  44.185  46.764  1.00  0.00     0.041 C 
ATOM      8  O   UNL     1      53.648  44.688  47.436  1.00  0.00    -0.550 OA
ATOM      9  O   UNL     1      51.732  45.010  46.223  1.00  0.00    -0.550 OA
ENDBRANCH   6   7
ENDBRANCH   5   6
ENDBRANCH   4   5
ENDBRANCH   3   4
ENDBRANCH   2   3
ENDBRANCH   1   2
BRANCH   1  10
ATOM     10  C   UNL     1      55.408  38.506  49.377  1.00  0.00     0.000 C 
BRANCH  10  11
ATOM     11  C   UNL     1      54.806  38.394  50.786  1.00  0.00    -0.000 C 
BRANCH  11  12
ATOM     12  C   UNL     1      53.377  38.952  50.864  1.00  0.00    -0.000 C 
BRANCH  12  13
ATOM     13  C   UNL     1      53.260  40.149  51.824  1.00  0.00    -0.000 C 
BRANCH  13  14
ATOM     14  C   UNL     1      51.960  40.943  51.622  1.00  0.00    -0.000 C 
BRANCH  14  15
ATOM     15  C   UNL     1      52.188  42.461  51.643  1.00  0.00    -0.003 C 
ATOM     16  C   UNL     1      53.378  42.849  50.769  1.00  0.00     0.004 C 
ENDBRANCH  14  15
ENDBRANCH  13  14
ENDBRANCH  12  13
ENDBRANCH  11  12
ENDBRANCH  10  11
ENDBRANCH   1  10
TORSDOF 12
ENDMDL
MODEL 6
REMARK VINA RESULT:    -4.184      1.461      4.085
REMARK INTER + INTRA:          -9.022
REMARK INTER:                  -7.606
REMARK INTRA:                  -1.416
REMARK UNBOUND:                -1.904
REMARK SMILES CCCCCCCCCCCCCC(=O)[O-]
REMARK SMILES IDX 8 1 9 2 10 3 11 4 12 5 13 6 14 7 15 8 16 9 7 10 6 11 5 12
REMARK SMILES IDX 4 13 3 14 2 15 1 16
REMARK H PARENT
REMARK Flexibility Score: inf
ROOT
ATOM      1  C   UNL     1      52.253  40.383  47.930  1.00  0.00     0.000 C 
ENDROOT
BRANCH   1   2
ATOM      2  C   UNL     1      51.857  41.832  47.622  1.00  0.00     0.000 C 
BRANCH   2   3
ATOM      3  C   UNL     1      53.058  42.776  47.785  1.00  0.00     0.000 C 
BRANCH   3   4
ATOM      4  C   UNL     1      52.952  43.658  49.039  1.00  0.00     0.000 C 
BRANCH   4   5
ATOM      5  C   UNL     1      53.453  42.949  50.306  1.00  0.00     0.006 C 
BRANCH   5   6
ATOM      6  C   UNL     1      52.397  42.995  51.415  1.00  0.00     0.053 C 
BRANCH   6   7
ATOM      7  C   UNL     1      52.248  41.652  52.054  1.00  0.00     0.041 C 
ATOM      8  O   UNL     1      52.579  41.481  53.256  1.00  0.00    -0.550 OA
ATOM      9  O   UNL     1      51.695  40.598  51.337  1.00  0.00    -0.550 OA
ENDBRANCH   6   7
ENDBRANCH   5   6
ENDBRANCH   4   5
ENDBRANCH   3   4
ENDBRANCH   2   3
ENDBRANCH   1   2
BRANCH   1  10
ATOM     10  C   UNL     1      53.358  39.901  46.983  1.00  0.00     0.000 C 
BRANCH  10  11
ATOM     11  C   UNL     1      54.457  39.155  47.755  1.00  0.00    -0.000 C 
BRANCH  11  12
ATOM     12  C   UNL     1      55.298  40.091  48.637  1.00  0.00    -0.000 C 
BRANCH  12  13
ATOM     13  C   UNL     1      55.186  39.753  50.135  1.00  0.00    -0.000 C 
BRANCH  13  14
ATOM     14  C   UNL     1      55.344  38.250  50.414  1.00  0.00    -0.000 C 
BRANCH  14  15
ATOM     15  C   UNL     1      56.587  37.935  51.259  1.00  0.00    -0.003 C 
ATOM     16  C   UNL     1      57.864  38.103  50.438  1.00  0.00     0.004 C 
ENDBRANCH  14  15
ENDBRANCH  13  14
ENDBRANCH  12  13
ENDBRANCH  11  12
ENDBRANCH  10  11
ENDBRANCH   1  10
TORSDOF 12
ENDMDL
MODEL 7
REMARK VINA RESULT:    -4.178      1.401      1.958
REMARK INTER + INTRA:          -9.013
REMARK INTER:                  -7.387
REMARK INTRA:                  -1.626
REMARK UNBOUND:                -1.904
REMARK SMILES CCCCCCCCCCCCCC(=O)[O-]
REMARK SMILES IDX 8 1 9 2 10 3 11 4 12 5 13 6 14 7 15 8 16 9 7 10 6 11 5 12
REMARK SMILES IDX 4 13 3 14 2 15 1 16
REMARK H PARENT
REMARK Flexibility Score: inf
ROOT
ATOM      1  C   UNL     1      55.333  40.399  48.219  1.00  0.00     0.000 C 
ENDROOT
BRANCH   1   2
ATOM      2  C   UNL     1      55.754  39.820  49.575  1.00  0.00     0.000 C 
BRANCH   2   3
ATOM      3  C   UNL     1      55.156  38.421  49.784  1.00  0.00     0.000 C 
BRANCH   3   4
ATOM      4  C   UNL     1      53.916  38.437  50.694  1.00  0.00     0.000 C 
BRANCH   4   5
ATOM      5  C   UNL     1      53.861  39.678  51.598  1.00  0.00     0.006 C 
BRANCH   5   6
ATOM      6  C   UNL     1      52.490  40.355  51.516  1.00  0.00     0.053 C 
BRANCH   6   7
ATOM      7  C   UNL     1      52.638  41.844  51.538  1.00  0.00     0.041 C 
ATOM      8  O   UNL     1      51.922  42.540  52.304  1.00  0.00    -0.550 OA
ATOM      9  O   UNL     1      53.603  42.459  50.749  1.00  0.00    -0.550 OA
ENDBRANCH   6   7
ENDBRANCH   5   6
ENDBRANCH   4   5
ENDBRANCH   3   4
ENDBRANCH   2   3
ENDBRANCH   1   2
BRANCH   1  10
ATOM     10  C   UNL     1      54.658  39.331  47.350  1.00  0.00     0.000 C 
BRANCH  10  11
ATOM     11  C   UNL     1      53.341  39.857  46.758  1.00  0.00    -0.000 C 
BRANCH  11  12
ATOM     12  C   UNL     1      52.287  40.156  47.836  1.00  0.00    -0.000 C 
BRANCH  12  13
ATOM     13  C   UNL     1      51.871  41.638  47.862  1.00  0.00    -0.000 C 
BRANCH  13  14
ATOM     14  C   UNL     1      52.573  42.467  46.774  1.00  0.00    -0.000 C 
BRANCH  14  15
ATOM     15  C   UNL     1      52.740  43.940  47.172  1.00  0.00    -0.003 C 
ATOM     16  C   UNL     1      51.829  44.840  46.341  1.00  0.00     0.004 C 
ENDBRANCH  14  15
ENDBRANCH  13  14
ENDBRANCH  12  13
ENDBRANCH  11  12
ENDBRANCH  10  11
ENDBRANCH   1  10
TORSDOF 12
ENDMDL
MODEL 8
REMARK VINA RESULT:    -4.170      1.249      3.781
REMARK INTER + INTRA:          -8.999
REMARK INTER:                  -6.981
REMARK INTRA:                  -2.018
REMARK UNBOUND:                -1.904
REMARK SMILES CCCCCCCCCCCCCC(=O)[O-]
REMARK SMILES IDX 8 1 9 2 10 3 11 4 12 5 13 6 14 7 15 8 16 9 7 10 6 11 5 12
REMARK SMILES IDX 4 13 3 14 2 15 1 16
REMARK H PARENT
REMARK Flexibility Score: inf
ROOT
ATOM      1  C   UNL     1      52.835  42.542  46.657  1.00  0.00     0.000 C 
ENDROOT
BRANCH   1   2
ATOM      2  C   UNL     1      53.686  43.631  47.322  1.00  0.00     0.000 C 
BRANCH   2   3
ATOM      3  C   UNL     1      53.170  43.944  48.734  1.00  0.00     0.000 C 
BRANCH   3   4
ATOM      4  C   UNL     1      54.299  44.013  49.775  1.00  0.00     0.000 C 
BRANCH   4   5
ATOM      5  C   UNL     1      54.103  43.018  50.928  1.00  0.00     0.006 C 
BRANCH   5   6
ATOM      6  C   UNL     1      52.632  42.611  51.058  1.00  0.00     0.053 C 
BRANCH   6   7
ATOM      7  C   UNL     1      52.516  41.248  51.662  1.00  0.00     0.041 C 
ATOM      8  O   UNL     1      51.591  40.473  51.304  1.00  0.00    -0.550 OA
ATOM      9  O   UNL     1      53.460  40.813  52.584  1.00  0.00    -0.550 OA
ENDBRANCH   6   7
ENDBRANCH   5   6
ENDBRANCH   4   5
ENDBRANCH   3   4
ENDBRANCH   2   3
ENDBRANCH   1   2
BRANCH   1  10
ATOM     10  C   UNL     1      51.909  41.867  47.676  1.00  0.00     0.000 C 
BRANCH  10  11
ATOM     11  C   UNL     1      52.259  40.380  47.838  1.00  0.00    -0.000 C 
BRANCH  11  12
ATOM     12  C   UNL     1      53.406  39.940  46.914  1.00  0.00    -0.000 C 
BRANCH  12  13
ATOM     13  C   UNL     1      54.542  39.233  47.676  1.00  0.00    -0.000 C 
BRANCH  13  14
ATOM     14  C   UNL     1      55.357  40.199  48.550  1.00  0.00    -0.000 C 
BRANCH  14  15
ATOM     15  C   UNL     1      55.544  39.681  49.983  1.00  0.00    -0.003 C 
ATOM     16  C   UNL     1      54.864  38.327  50.170  1.00  0.00     0.004 C 
ENDBRANCH  14  15
ENDBRANCH  13  14
ENDBRANCH  12  13
ENDBRANCH  11  12
ENDBRANCH  10  11
ENDBRANCH   1  10
TORSDOF 12
ENDMDL
MODEL 9
REMARK VINA RESULT:    -4.120      1.549      3.468
REMARK INTER + INTRA:          -8.914
REMARK INTER:                  -6.836
REMARK INTRA:                  -2.078
REMARK UNBOUND:                -1.904
REMARK SMILES CCCCCCCCCCCCCC(=O)[O-]
REMARK SMILES IDX 8 1 9 2 10 3 11 4 12 5 13 6 14 7 15 8 16 9 7 10 6 11 5 12
REMARK SMILES IDX 4 13 3 14 2 15 1 16
REMARK H PARENT
REMARK Flexibility Score: inf
ROOT
ATOM      1  C   UNL     1      52.441  40.649  47.903  1.00  0.00     0.000 C 
ENDROOT
BRANCH   1   2
ATOM      2  C   UNL     1      53.212  39.978  46.759  1.00  0.00     0.000 C 
BRANCH   2   3
ATOM      3  C   UNL     1      54.485  39.295  47.281  1.00  0.00     0.000 C 
BRANCH   3   4
ATOM      4  C   UNL     1      55.321  40.215  48.186  1.00  0.00     0.000 C 
BRANCH   4   5
ATOM      5  C   UNL     1      55.902  39.480  49.403  1.00  0.00     0.006 C 
BRANCH   5   6
ATOM      6  C   UNL     1      54.887  38.489  49.982  1.00  0.00     0.053 C 
BRANCH   6   7
ATOM      7  C   UNL     1      54.077  39.136  51.060  1.00  0.00     0.041 C 
ATOM      8  O   UNL     1      52.821  39.078  51.030  1.00  0.00    -0.550 OA
ATOM      9  O   UNL     1      54.712  39.762  52.126  1.00  0.00    -0.550 OA
ENDBRANCH   6   7
ENDBRANCH   5   6
ENDBRANCH   4   5
ENDBRANCH   3   4
ENDBRANCH   2   3
ENDBRANCH   1   2
BRANCH   1  10
ATOM     10  C   UNL     1      51.818  41.973  47.445  1.00  0.00     0.000 C 
BRANCH  10  11
ATOM     11  C   UNL     1      52.760  42.723  46.489  1.00  0.00    -0.000 C 
BRANCH  11  12
ATOM     12  C   UNL     1      53.812  43.559  47.233  1.00  0.00    -0.000 C 
BRANCH  12  13
ATOM     13  C   UNL     1      53.247  44.237  48.494  1.00  0.00    -0.000 C 
BRANCH  13  14
ATOM     14  C   UNL     1      54.217  44.171  49.685  1.00  0.00    -0.000 C 
BRANCH  14  15
ATOM     15  C   UNL     1      54.068  42.876  50.495  1.00  0.00    -0.003 C 
ATOM     16  C   UNL     1      52.642  42.716  51.017  1.00  0.00     0.004 C 
ENDBRANCH  14  15
ENDBRANCH  13  14
ENDBRANCH  12  13
ENDBRANCH  11  12
ENDBRANCH  10  11
ENDBRANCH   1  10
TORSDOF 12
ENDMDL
