MODEL 1
REMARK VINA RESULT:    -2.543      0.000      0.000
REMARK INTER + INTRA:          -5.228
REMARK INTER:                  -4.029
REMARK INTRA:                  -1.199
REMARK UNBOUND:                -1.199
REMARK SMILES CCCCCCCCCCCC(=O)[O-]
REMARK SMILES IDX 7 1 8 2 9 3 10 4 11 5 12 6 13 7 14 8 6 9 5 10 4 11 3 12 2 13
REMARK SMILES IDX 1 14
REMARK H PARENT
REMARK Flexibility Score: inf
ROOT
ATOM      1  C   UNL     1      52.665 -35.528  24.328  1.00  0.00     0.000 C 
ENDROOT
BRANCH   1   2
ATOM      2  C   UNL     1      54.178 -35.604  24.070  1.00  0.00     0.000 C 
BRANCH   2   3
ATOM      3  C   UNL     1      54.559 -35.148  22.651  1.00  0.00     0.000 C 
BRANCH   3   4
ATOM      4  C   UNL     1      55.656 -36.027  22.024  1.00  0.00     0.006 C 
BRANCH   4   5
ATOM      5  C   UNL     1      56.643 -36.557  23.074  1.00  0.00     0.053 C 
BRANCH   5   6
ATOM      6  C   UNL     1      58.036 -36.064  22.829  1.00  0.00     0.041 C 
ATOM      7  O   UNL     1      58.724 -36.547  21.892  1.00  0.00    -0.550 OA
ATOM      8  O   UNL     1      58.563 -35.048  23.616  1.00  0.00    -0.550 OA
ENDBRANCH   5   6
ENDBRANCH   4   5
ENDBRANCH   3   4
ENDBRANCH   2   3
ENDBRANCH   1   2
BRANCH   1   9
ATOM      9  C   UNL     1      51.884 -34.947  23.136  1.00  0.00     0.000 C 
BRANCH   9  10
ATOM     10  C   UNL     1      50.675 -34.081  23.549  1.00  0.00    -0.000 C 
BRANCH  10  11
ATOM     11  C   UNL     1      51.108 -32.762  24.213  1.00  0.00    -0.000 C 
BRANCH  11  12
ATOM     12  C   UNL     1      52.135 -31.988  23.372  1.00  0.00    -0.000 C 
BRANCH  12  13
ATOM     13  C   UNL     1      53.481 -31.823  24.093  1.00  0.00    -0.003 C 
ATOM     14  C   UNL     1      53.337 -32.074  25.590  1.00  0.00     0.004 C 
ENDBRANCH  12  13
ENDBRANCH  11  12
ENDBRANCH  10  11
ENDBRANCH   9  10
ENDBRANCH   1   9
TORSDOF 10
ENDMDL
MODEL 2
REMARK VINA RESULT:    -2.500      1.959      2.620
REMARK INTER + INTRA:          -5.161
REMARK INTER:                  -4.200
REMARK INTRA:                  -0.961
REMARK UNBOUND:                -1.199
REMARK SMILES CCCCCCCCCCCC(=O)[O-]
REMARK SMILES IDX 7 1 8 2 9 3 10 4 11 5 12 6 13 7 14 8 6 9 5 10 4 11 3 12 2 13
REMARK SMILES IDX 1 14
REMARK H PARENT
REMARK Flexibility Score: inf
ROOT
ATOM      1  C   UNL     1      51.634 -34.952  23.038  1.00  0.00     0.000 C 
ENDROOT
BRANCH   1   2
ATOM      2  C   UNL     1      52.206 -35.543  24.337  1.00  0.00     0.000 C 
BRANCH   2   3
ATOM      3  C   UNL     1      53.624 -35.033  24.643  1.00  0.00     0.000 C 
BRANCH   3   4
ATOM      4  C   UNL     1      54.121 -34.012  23.604  1.00  0.00     0.006 C 
BRANCH   4   5
ATOM      5  C   UNL     1      55.530 -34.345  23.095  1.00  0.00     0.053 C 
BRANCH   5   6
ATOM      6  C   UNL     1      55.578 -35.682  22.421  1.00  0.00     0.041 C 
ATOM      7  O   UNL     1      54.833 -35.922  21.435  1.00  0.00    -0.550 OA
ATOM      8  O   UNL     1      56.468 -36.653  22.864  1.00  0.00    -0.550 OA
ENDBRANCH   5   6
ENDBRANCH   4   5
ENDBRANCH   3   4
ENDBRANCH   2   3
ENDBRANCH   1   2
BRANCH   1   9
ATOM      9  C   UNL     1      50.269 -34.272  23.242  1.00  0.00     0.000 C 
BRANCH   9  10
ATOM     10  C   UNL     1      50.266 -32.769  22.889  1.00  0.00    -0.000 C 
BRANCH  10  11
ATOM     11  C   UNL     1      51.025 -31.929  23.931  1.00  0.00    -0.000 C 
BRANCH  11  12
ATOM     12  C   UNL     1      51.831 -30.787  23.294  1.00  0.00    -0.000 C 
BRANCH  12  13
ATOM     13  C   UNL     1      51.112 -29.433  23.391  1.00  0.00    -0.003 C 
ATOM     14  C   UNL     1      52.109 -28.290  23.548  1.00  0.00     0.004 C 
ENDBRANCH  12  13
ENDBRANCH  11  12
ENDBRANCH  10  11
ENDBRANCH   9  10
ENDBRANCH   1   9
TORSDOF 10
ENDMDL
MODEL 3
REMARK VINA RESULT:    -2.485      0.988      2.374
REMARK INTER + INTRA:          -5.136
REMARK INTER:                  -4.129
REMARK INTRA:                  -1.008
REMARK UNBOUND:                -1.199
REMARK SMILES CCCCCCCCCCCC(=O)[O-]
REMARK SMILES IDX 7 1 8 2 9 3 10 4 11 5 12 6 13 7 14 8 6 9 5 10 4 11 3 12 2 13
REMARK SMILES IDX 1 14
REMARK H PARENT
REMARK Flexibility Score: inf
ROOT
ATOM      1  C   UNL     1      54.396 -34.055  24.978  1.00  0.00     0.000 C 
ENDROOT
BRANCH   1   2
ATOM      2  C   UNL     1      54.726 -34.016  23.477  1.00  0.00     0.000 C 
BRANCH   2   3
ATOM      3  C   UNL     1      54.380 -35.332  22.762  1.00  0.00     0.000 C 
BRANCH   3   4
ATOM      4  C   UNL     1      55.546 -35.865  21.911  1.00  0.00     0.006 C 
BRANCH   4   5
ATOM      5  C   UNL     1      56.552 -36.669  22.747  1.00  0.00     0.053 C 
BRANCH   5   6
ATOM      6  C   UNL     1      57.940 -36.117  22.634  1.00  0.00     0.041 C 
ATOM      7  O   UNL     1      58.267 -35.087  23.280  1.00  0.00    -0.550 OA
ATOM      8  O   UNL     1      58.881 -36.758  21.838  1.00  0.00    -0.550 OA
ENDBRANCH   5   6
ENDBRANCH   4   5
ENDBRANCH   3   4
ENDBRANCH   2   3
ENDBRANCH   1   2
BRANCH   1   9
ATOM      9  C   UNL     1      53.533 -32.865  25.431  1.00  0.00     0.000 C 
BRANCH   9  10
ATOM     10  C   UNL     1      53.295 -31.814  24.325  1.00  0.00    -0.000 C 
BRANCH  10  11
ATOM     11  C   UNL     1      51.819 -31.389  24.237  1.00  0.00    -0.000 C 
BRANCH  11  12
ATOM     12  C   UNL     1      51.152 -31.841  22.929  1.00  0.00    -0.000 C 
BRANCH  12  13
ATOM     13  C   UNL     1      50.146 -32.981  23.145  1.00  0.00    -0.003 C 
ATOM     14  C   UNL     1      50.839 -34.339  23.113  1.00  0.00     0.004 C 
ENDBRANCH  12  13
ENDBRANCH  11  12
ENDBRANCH  10  11
ENDBRANCH   9  10
ENDBRANCH   1   9
TORSDOF 10
ENDMDL
MODEL 4
REMARK VINA RESULT:    -2.459      3.490      5.873
REMARK INTER + INTRA:          -5.096
REMARK INTER:                  -4.223
REMARK INTRA:                  -0.873
REMARK UNBOUND:                -1.199
REMARK SMILES CCCCCCCCCCCC(=O)[O-]
REMARK SMILES IDX 7 1 8 2 9 3 10 4 11 5 12 6 13 7 14 8 6 9 5 10 4 11 3 12 2 13
REMARK SMILES IDX 1 14
REMARK H PARENT
REMARK Flexibility Score: inf
ROOT
ATOM      1  C   UNL     1      52.020 -34.889  23.151  1.00  0.00     0.000 C 
ENDROOT
BRANCH   1   2
ATOM      2  C   UNL     1      50.557 -34.458  22.958  1.00  0.00     0.000 C 
BRANCH   2   3
ATOM      3  C   UNL     1      50.313 -32.997  23.370  1.00  0.00     0.000 C 
BRANCH   3   4
ATOM      4  C   UNL     1      51.571 -32.123  23.219  1.00  0.00     0.006 C 
BRANCH   4   5
ATOM      5  C   UNL     1      51.226 -30.635  23.066  1.00  0.00     0.053 C 
BRANCH   5   6
ATOM      6  C   UNL     1      52.120 -29.766  23.897  1.00  0.00     0.041 C 
ATOM      7  O   UNL     1      52.635 -30.215  24.955  1.00  0.00    -0.550 OA
ATOM      8  O   UNL     1      52.408 -28.471  23.487  1.00  0.00    -0.550 OA
ENDBRANCH   5   6
ENDBRANCH   4   5
ENDBRANCH   3   4
ENDBRANCH   2   3
ENDBRANCH   1   2
BRANCH   1   9
ATOM      9  C   UNL     1      52.280 -35.518  24.530  1.00  0.00     0.000 C 
BRANCH   9  10
ATOM     10  C   UNL     1      53.777 -35.614  24.896  1.00  0.00    -0.000 C 
BRANCH  10  11
ATOM     11  C   UNL     1      54.490 -34.256  24.773  1.00  0.00    -0.000 C 
BRANCH  11  12
ATOM     12  C   UNL     1      55.472 -34.211  23.591  1.00  0.00    -0.000 C 
BRANCH  12  13
ATOM     13  C   UNL     1      55.804 -35.609  23.049  1.00  0.00    -0.003 C 
ATOM     14  C   UNL     1      55.332 -35.766  21.607  1.00  0.00     0.004 C 
ENDBRANCH  12  13
ENDBRANCH  11  12
ENDBRANCH  10  11
ENDBRANCH   9  10
ENDBRANCH   1   9
TORSDOF 10
ENDMDL
MODEL 5
REMARK VINA RESULT:    -2.449      3.783      6.710
REMARK INTER + INTRA:          -5.081
REMARK INTER:                  -4.604
REMARK INTRA:                  -0.476
REMARK UNBOUND:                -1.199
REMARK SMILES CCCCCCCCCCCC(=O)[O-]
REMARK SMILES IDX 7 1 8 2 9 3 10 4 11 5 12 6 13 7 14 8 6 9 5 10 4 11 3 12 2 13
REMARK SMILES IDX 1 14
REMARK H PARENT
REMARK Flexibility Score: inf
ROOT
ATOM      1  C   UNL     1      52.883 -35.179  23.168  1.00  0.00     0.000 C 
ENDROOT
BRANCH   1   2
ATOM      2  C   UNL     1      52.170 -34.037  23.911  1.00  0.00     0.000 C 
BRANCH   2   3
ATOM      3  C   UNL     1      50.718 -33.844  23.443  1.00  0.00     0.000 C 
BRANCH   3   4
ATOM      4  C   UNL     1      50.359 -32.362  23.229  1.00  0.00     0.006 C 
BRANCH   4   5
ATOM      5  C   UNL     1      51.606 -31.488  23.039  1.00  0.00     0.053 C 
BRANCH   5   6
ATOM      6  C   UNL     1      51.269 -30.028  23.039  1.00  0.00     0.041 C 
ATOM      7  O   UNL     1      52.040 -29.200  23.591  1.00  0.00    -0.550 OA
ATOM      8  O   UNL     1      50.119 -29.579  22.403  1.00  0.00    -0.550 OA
ENDBRANCH   5   6
ENDBRANCH   4   5
ENDBRANCH   3   4
ENDBRANCH   2   3
ENDBRANCH   1   2
BRANCH   1   9
ATOM      9  C   UNL     1      54.413 -35.022  23.160  1.00  0.00     0.000 C 
BRANCH   9  10
ATOM     10  C   UNL     1      55.103 -35.733  21.976  1.00  0.00    -0.000 C 
BRANCH  10  11
ATOM     11  C   UNL     1      56.366 -36.495  22.415  1.00  0.00    -0.000 C 
BRANCH  11  12
ATOM     12  C   UNL     1      56.625 -36.387  23.926  1.00  0.00    -0.000 C 
BRANCH  12  13
ATOM     13  C   UNL     1      58.013 -36.910  24.323  1.00  0.00    -0.003 C 
ATOM     14  C   UNL     1      58.901 -37.101  23.098  1.00  0.00     0.004 C 
ENDBRANCH  12  13
ENDBRANCH  11  12
ENDBRANCH  10  11
ENDBRANCH   9  10
ENDBRANCH   1   9
TORSDOF 10
ENDMDL
MODEL 6
REMARK VINA RESULT:    -2.437      3.422      5.825
REMARK INTER + INTRA:          -5.061
REMARK INTER:                  -3.709
REMARK INTRA:                  -1.353
REMARK UNBOUND:                -1.199
REMARK SMILES CCCCCCCCCCCC(=O)[O-]
REMARK SMILES IDX 7 1 8 2 9 3 10 4 11 5 12 6 13 7 14 8 6 9 5 10 4 11 3 12 2 13
REMARK SMILES IDX 1 14
REMARK H PARENT
REMARK Flexibility Score: inf
ROOT
ATOM      1  C   UNL     1      55.237 -35.707  22.133  1.00  0.00     0.000 C 
ENDROOT
BRANCH   1   2
ATOM      2  C   UNL     1      55.284 -34.334  22.822  1.00  0.00     0.000 C 
BRANCH   2   3
ATOM      3  C   UNL     1      54.063 -34.082  23.722  1.00  0.00     0.000 C 
BRANCH   3   4
ATOM      4  C   UNL     1      53.076 -35.264  23.721  1.00  0.00     0.006 C 
BRANCH   4   5
ATOM      5  C   UNL     1      51.718 -34.882  23.116  1.00  0.00     0.053 C 
BRANCH   5   6
ATOM      6  C   UNL     1      51.155 -33.644  23.745  1.00  0.00     0.041 C 
ATOM      7  O   UNL     1      50.818 -33.647  24.958  1.00  0.00    -0.550 OA
ATOM      8  O   UNL     1      51.033 -32.479  22.999  1.00  0.00    -0.550 OA
ENDBRANCH   5   6
ENDBRANCH   4   5
ENDBRANCH   3   4
ENDBRANCH   2   3
ENDBRANCH   1   2
BRANCH   1   9
ATOM      9  C   UNL     1      56.395 -36.627  22.557  1.00  0.00     0.000 C 
BRANCH   9  10
ATOM     10  C   UNL     1      57.504 -35.903  23.351  1.00  0.00    -0.000 C 
BRANCH  10  11
ATOM     11  C   UNL     1      57.726 -36.530  24.738  1.00  0.00    -0.000 C 
BRANCH  11  12
ATOM     12  C   UNL     1      56.410 -36.754  25.501  1.00  0.00    -0.000 C 
BRANCH  12  13
ATOM     13  C   UNL     1      56.097 -35.614  26.481  1.00  0.00    -0.003 C 
ATOM     14  C   UNL     1      54.672 -35.723  27.014  1.00  0.00     0.004 C 
ENDBRANCH  12  13
ENDBRANCH  11  12
ENDBRANCH  10  11
ENDBRANCH   9  10
ENDBRANCH   1   9
TORSDOF 10
ENDMDL
MODEL 7
REMARK VINA RESULT:    -2.431      3.216      5.856
REMARK INTER + INTRA:          -5.051
REMARK INTER:                  -4.034
REMARK INTRA:                  -1.017
REMARK UNBOUND:                -1.199
REMARK SMILES CCCCCCCCCCCC(=O)[O-]
REMARK SMILES IDX 7 1 8 2 9 3 10 4 11 5 12 6 13 7 14 8 6 9 5 10 4 11 3 12 2 13
REMARK SMILES IDX 1 14
REMARK H PARENT
REMARK Flexibility Score: inf
ROOT
ATOM      1  C   UNL     1      53.325 -35.643  24.475  1.00  0.00     0.000 C 
ENDROOT
BRANCH   1   2
ATOM      2  C   UNL     1      51.802 -35.521  24.302  1.00  0.00     0.000 C 
BRANCH   2   3
ATOM      3  C   UNL     1      51.411 -34.799  23.003  1.00  0.00     0.000 C 
BRANCH   3   4
ATOM      4  C   UNL     1      50.290 -33.765  23.216  1.00  0.00     0.006 C 
BRANCH   4   5
ATOM      5  C   UNL     1      50.613 -32.791  24.358  1.00  0.00     0.053 C 
BRANCH   5   6
ATOM      6  C   UNL     1      51.530 -31.693  23.914  1.00  0.00     0.041 C 
ATOM      7  O   UNL     1      51.431 -31.215  22.753  1.00  0.00    -0.550 OA
ATOM      8  O   UNL     1      52.474 -31.177  24.792  1.00  0.00    -0.550 OA
ENDBRANCH   5   6
ENDBRANCH   4   5
ENDBRANCH   3   4
ENDBRANCH   2   3
ENDBRANCH   1   2
BRANCH   1   9
ATOM      9  C   UNL     1      54.064 -34.323  24.196  1.00  0.00     0.000 C 
BRANCH   9  10
ATOM     10  C   UNL     1      55.137 -34.435  23.091  1.00  0.00    -0.000 C 
BRANCH  10  11
ATOM     11  C   UNL     1      54.944 -35.690  22.222  1.00  0.00    -0.000 C 
BRANCH  11  12
ATOM     12  C   UNL     1      56.198 -36.578  22.183  1.00  0.00    -0.000 C 
BRANCH  12  13
ATOM     13  C   UNL     1      57.177 -36.264  23.324  1.00  0.00    -0.003 C 
ATOM     14  C   UNL     1      58.586 -36.028  22.789  1.00  0.00     0.004 C 
ENDBRANCH  12  13
ENDBRANCH  11  12
ENDBRANCH  10  11
ENDBRANCH   9  10
ENDBRANCH   1   9
TORSDOF 10
ENDMDL
MODEL 8
REMARK VINA RESULT:    -2.411      2.403      3.419
REMARK INTER + INTRA:          -5.019
REMARK INTER:                  -3.917
REMARK INTRA:                  -1.102
REMARK UNBOUND:                -1.199
REMARK SMILES CCCCCCCCCCCC(=O)[O-]
REMARK SMILES IDX 7 1 8 2 9 3 10 4 11 5 12 6 13 7 14 8 6 9 5 10 4 11 3 12 2 13
REMARK SMILES IDX 1 14
REMARK H PARENT
REMARK Flexibility Score: inf
ROOT
ATOM      1  C   UNL     1      50.968 -32.401  23.425  1.00  0.00     0.000 C 
ENDROOT
BRANCH   1   2
ATOM      2  C   UNL     1      52.124 -33.173  24.082  1.00  0.00     0.000 C 
BRANCH   2   3
ATOM      3  C   UNL     1      53.474 -32.451  23.937  1.00  0.00     0.000 C 
BRANCH   3   4
ATOM      4  C   UNL     1      54.620 -33.410  23.567  1.00  0.00     0.006 C 
BRANCH   4   5
ATOM      5  C   UNL     1      54.111 -34.824  23.256  1.00  0.00     0.053 C 
BRANCH   5   6
ATOM      6  C   UNL     1      55.108 -35.614  22.464  1.00  0.00     0.041 C 
ATOM      7  O   UNL     1      54.801 -36.069  21.331  1.00  0.00    -0.550 OA
ATOM      8  O   UNL     1      56.387 -35.822  22.965  1.00  0.00    -0.550 OA
ENDBRANCH   5   6
ENDBRANCH   4   5
ENDBRANCH   3   4
ENDBRANCH   2   3
ENDBRANCH   1   2
BRANCH   1   9
ATOM      9  C   UNL     1      51.428 -31.097  22.751  1.00  0.00     0.000 C 
BRANCH   9  10
ATOM     10  C   UNL     1      50.370 -29.973  22.789  1.00  0.00    -0.000 C 
BRANCH  10  11
ATOM     11  C   UNL     1      50.861 -28.744  23.574  1.00  0.00    -0.000 C 
BRANCH  11  12
ATOM     12  C   UNL     1      52.375 -28.774  23.832  1.00  0.00    -0.000 C 
BRANCH  12  13
ATOM     13  C   UNL     1      52.724 -28.573  25.314  1.00  0.00    -0.003 C 
ATOM     14  C   UNL     1      52.217 -29.737  26.161  1.00  0.00     0.004 C 
ENDBRANCH  12  13
ENDBRANCH  11  12
ENDBRANCH  10  11
ENDBRANCH   9  10
ENDBRANCH   1   9
TORSDOF 10
ENDMDL
MODEL 9
REMARK VINA RESULT:    -2.382      2.931      5.232
REMARK INTER + INTRA:          -4.973
REMARK INTER:                  -3.267
REMARK INTRA:                  -1.706
REMARK UNBOUND:                -1.199
REMARK SMILES CCCCCCCCCCCC(=O)[O-]
REMARK SMILES IDX 7 1 8 2 9 3 10 4 11 5 12 6 13 7 14 8 6 9 5 10 4 11 3 12 2 13
REMARK SMILES IDX 1 14
REMARK H PARENT
REMARK Flexibility Score: inf
ROOT
ATOM      1  C   UNL     1      54.904 -34.888  22.863  1.00  0.00     0.000 C 
ENDROOT
BRANCH   1   2
ATOM      2  C   UNL     1      54.962 -35.145  24.378  1.00  0.00     0.000 C 
BRANCH   2   3
ATOM      3  C   UNL     1      55.767 -34.072  25.129  1.00  0.00     0.000 C 
BRANCH   3   4
ATOM      4  C   UNL     1      56.509 -33.117  24.177  1.00  0.00     0.006 C 
BRANCH   4   5
ATOM      5  C   UNL     1      57.848 -32.645  24.760  1.00  0.00     0.053 C 
BRANCH   5   6
ATOM      6  C   UNL     1      58.707 -31.986  23.725  1.00  0.00     0.041 C 
ATOM      7  O   UNL     1      59.768 -32.540  23.336  1.00  0.00    -0.550 OA
ATOM      8  O   UNL     1      58.318 -30.775  23.167  1.00  0.00    -0.550 OA
ENDBRANCH   5   6
ENDBRANCH   4   5
ENDBRANCH   3   4
ENDBRANCH   2   3
ENDBRANCH   1   2
BRANCH   1   9
ATOM      9  C   UNL     1      55.424 -36.076  22.035  1.00  0.00     0.000 C 
BRANCH   9  10
ATOM     10  C   UNL     1      56.618 -36.809  22.684  1.00  0.00    -0.000 C 
BRANCH  10  11
ATOM     11  C   UNL     1      57.962 -36.144  22.337  1.00  0.00    -0.000 C 
BRANCH  11  12
ATOM     12  C   UNL     1      58.907 -36.059  23.546  1.00  0.00    -0.000 C 
BRANCH  12  13
ATOM     13  C   UNL     1      58.344 -36.774  24.783  1.00  0.00    -0.003 C 
ATOM     14  C   UNL     1      58.752 -36.056  26.066  1.00  0.00     0.004 C 
ENDBRANCH  12  13
ENDBRANCH  11  12
ENDBRANCH  10  11
ENDBRANCH   9  10
ENDBRANCH   1   9
TORSDOF 10
ENDMDL
