MODEL 1
REMARK VINA RESULT:    -2.916      0.000      0.000
REMARK INTER + INTRA:         -10.473
REMARK INTER:                  -6.666
REMARK INTRA:                  -3.808
REMARK UNBOUND:                -3.808
REMARK SMILES CCCCCCCCCCCCCCCCCCCCCCCC(=O)[O-]
REMARK SMILES IDX 13 1 14 2 15 3 16 4 17 5 18 6 19 7 20 8 21 9 22 10 23 11
REMARK SMILES IDX 24 12 25 13 26 14 12 15 11 16 10 17 9 18 8 19 7 20 6 21 5 22
REMARK SMILES IDX 4 23 3 24 2 25 1 26
REMARK H PARENT
REMARK Flexibility Score: inf
ROOT
ATOM      1  C   UNL     1       4.059 -18.694   2.365  1.00  0.00     0.000 C 
ENDROOT
BRANCH   1   2
ATOM      2  C   UNL     1       4.068 -20.204   2.643  1.00  0.00     0.000 C 
BRANCH   2   3
ATOM      3  C   UNL     1       5.348 -20.665   3.362  1.00  0.00     0.000 C 
BRANCH   3   4
ATOM      4  C   UNL     1       6.130 -19.498   3.992  1.00  0.00     0.000 C 
BRANCH   4   5
ATOM      5  C   UNL     1       7.666 -19.599   3.888  1.00  0.00     0.000 C 
BRANCH   5   6
ATOM      6  C   UNL     1       8.331 -18.582   2.943  1.00  0.00     0.000 C 
BRANCH   6   7
ATOM      7  C   UNL     1       9.226 -17.574   3.685  1.00  0.00     0.000 C 
BRANCH   7   8
ATOM      8  C   UNL     1       9.774 -18.125   5.014  1.00  0.00     0.000 C 
BRANCH   8   9
ATOM      9  C   UNL     1       9.625 -17.186   6.224  1.00  0.00     0.000 C 
BRANCH   9  10
ATOM     10  C   UNL     1       9.499 -15.708   5.826  1.00  0.00     0.006 C 
BRANCH  10  11
ATOM     11  C   UNL     1       9.049 -14.858   7.020  1.00  0.00     0.053 C 
BRANCH  11  12
ATOM     12  C   UNL     1      10.125 -14.789   8.059  1.00  0.00     0.041 C 
ATOM     13  O   UNL     1      11.309 -14.507   7.729  1.00  0.00    -0.550 OA
ATOM     14  O   UNL     1       9.818 -15.009   9.396  1.00  0.00    -0.550 OA
ENDBRANCH  11  12
ENDBRANCH  10  11
ENDBRANCH   9  10
ENDBRANCH   8   9
ENDBRANCH   7   8
ENDBRANCH   6   7
ENDBRANCH   5   6
ENDBRANCH   4   5
ENDBRANCH   3   4
ENDBRANCH   2   3
ENDBRANCH   1   2
BRANCH   1  15
ATOM     15  C   UNL     1       2.839 -17.983   2.978  1.00  0.00     0.000 C 
BRANCH  15  16
ATOM     16  C   UNL     1       2.324 -18.683   4.245  1.00  0.00     0.000 C 
BRANCH  16  17
ATOM     17  C   UNL     1       2.710 -17.934   5.530  1.00  0.00     0.000 C 
BRANCH  17  18
ATOM     18  C   UNL     1       2.976 -18.878   6.715  1.00  0.00    -0.000 C 
BRANCH  18  19
ATOM     19  C   UNL     1       4.475 -19.132   6.979  1.00  0.00    -0.000 C 
BRANCH  19  20
ATOM     20  C   UNL     1       4.753 -20.583   7.414  1.00  0.00    -0.000 C 
BRANCH  20  21
ATOM     21  C   UNL     1       6.242 -20.814   7.752  1.00  0.00    -0.000 C 
BRANCH  21  22
ATOM     22  C   UNL     1       7.116 -19.557   7.583  1.00  0.00    -0.000 C 
BRANCH  22  23
ATOM     23  C   UNL     1       8.117 -19.369   8.735  1.00  0.00    -0.000 C 
BRANCH  23  24
ATOM     24  C   UNL     1       7.865 -18.081   9.540  1.00  0.00    -0.000 C 
BRANCH  24  25
ATOM     25  C   UNL     1       6.886 -17.090   8.887  1.00  0.00    -0.003 C 
ATOM     26  C   UNL     1       5.625 -16.860   9.720  1.00  0.00     0.004 C 
ENDBRANCH  24  25
ENDBRANCH  23  24
ENDBRANCH  22  23
ENDBRANCH  21  22
ENDBRANCH  20  21
ENDBRANCH  19  20
ENDBRANCH  18  19
ENDBRANCH  17  18
ENDBRANCH  16  17
ENDBRANCH  15  16
ENDBRANCH   1  15
TORSDOF 22
ENDMDL
MODEL 2
REMARK VINA RESULT:    -2.900      1.802      5.680
REMARK INTER + INTRA:         -10.437
REMARK INTER:                  -7.010
REMARK INTRA:                  -3.427
REMARK UNBOUND:                -3.808
REMARK SMILES CCCCCCCCCCCCCCCCCCCCCCCC(=O)[O-]
REMARK SMILES IDX 13 1 14 2 15 3 16 4 17 5 18 6 19 7 20 8 21 9 22 10 23 11
REMARK SMILES IDX 24 12 25 13 26 14 12 15 11 16 10 17 9 18 8 19 7 20 6 21 5 22
REMARK SMILES IDX 4 23 3 24 2 25 1 26
REMARK H PARENT
REMARK Flexibility Score: inf
ROOT
ATOM      1  C   UNL     1       9.643 -17.706   4.364  1.00  0.00     0.000 C 
ENDROOT
BRANCH   1   2
ATOM      2  C   UNL     1      10.053 -16.236   4.534  1.00  0.00     0.000 C 
BRANCH   2   3
ATOM      3  C   UNL     1      10.126 -15.809   6.010  1.00  0.00     0.000 C 
BRANCH   3   4
ATOM      4  C   UNL     1       8.876 -15.036   6.470  1.00  0.00     0.000 C 
BRANCH   4   5
ATOM      5  C   UNL     1       8.952 -14.442   7.891  1.00  0.00     0.000 C 
BRANCH   5   6
ATOM      6  C   UNL     1      10.230 -14.781   8.680  1.00  0.00     0.000 C 
BRANCH   6   7
ATOM      7  C   UNL     1       9.983 -15.797   9.808  1.00  0.00     0.000 C 
BRANCH   7   8
ATOM      8  C   UNL     1       9.747 -17.226   9.286  1.00  0.00     0.000 C 
BRANCH   8   9
ATOM      9  C   UNL     1       8.315 -17.762   9.468  1.00  0.00     0.000 C 
BRANCH   9  10
ATOM     10  C   UNL     1       7.613 -18.065   8.136  1.00  0.00     0.006 C 
BRANCH  10  11
ATOM     11  C   UNL     1       6.090 -18.077   8.312  1.00  0.00     0.053 C 
BRANCH  11  12
ATOM     12  C   UNL     1       5.602 -16.750   8.806  1.00  0.00     0.041 C 
ATOM     13  O   UNL     1       5.212 -16.620   9.998  1.00  0.00    -0.550 OA
ATOM     14  O   UNL     1       5.602 -15.649   7.959  1.00  0.00    -0.550 OA
ENDBRANCH  11  12
ENDBRANCH  10  11
ENDBRANCH   9  10
ENDBRANCH   8   9
ENDBRANCH   7   8
ENDBRANCH   6   7
ENDBRANCH   5   6
ENDBRANCH   4   5
ENDBRANCH   3   4
ENDBRANCH   2   3
ENDBRANCH   1   2
BRANCH   1  15
ATOM     15  C   UNL     1       8.904 -17.970   3.040  1.00  0.00     0.000 C 
BRANCH  15  16
ATOM     16  C   UNL     1       7.852 -19.084   3.163  1.00  0.00     0.000 C 
BRANCH  16  17
ATOM     17  C   UNL     1       7.428 -19.335   4.619  1.00  0.00     0.000 C 
BRANCH  17  18
ATOM     18  C   UNL     1       6.002 -19.898   4.736  1.00  0.00    -0.000 C 
BRANCH  18  19
ATOM     19  C   UNL     1       5.561 -20.725   3.510  1.00  0.00    -0.000 C 
BRANCH  19  20
ATOM     20  C   UNL     1       4.187 -20.285   2.972  1.00  0.00    -0.000 C 
BRANCH  20  21
ATOM     21  C   UNL     1       4.188 -18.812   2.508  1.00  0.00    -0.000 C 
BRANCH  21  22
ATOM     22  C   UNL     1       3.019 -17.985   3.074  1.00  0.00    -0.000 C 
BRANCH  22  23
ATOM     23  C   UNL     1       2.393 -18.619   4.328  1.00  0.00    -0.000 C 
BRANCH  23  24
ATOM     24  C   UNL     1       2.875 -17.958   5.632  1.00  0.00    -0.000 C 
BRANCH  24  25
ATOM     25  C   UNL     1       2.715 -18.823   6.895  1.00  0.00    -0.003 C 
ATOM     26  C   UNL     1       2.880 -20.317   6.620  1.00  0.00     0.004 C 
ENDBRANCH  24  25
ENDBRANCH  23  24
ENDBRANCH  22  23
ENDBRANCH  21  22
ENDBRANCH  20  21
ENDBRANCH  19  20
ENDBRANCH  18  19
ENDBRANCH  17  18
ENDBRANCH  16  17
ENDBRANCH  15  16
ENDBRANCH   1  15
TORSDOF 22
ENDMDL
MODEL 3
REMARK VINA RESULT:    -2.883      1.512      2.916
REMARK INTER + INTRA:         -10.398
REMARK INTER:                  -6.514
REMARK INTRA:                  -3.884
REMARK UNBOUND:                -3.808
REMARK SMILES CCCCCCCCCCCCCCCCCCCCCCCC(=O)[O-]
REMARK SMILES IDX 13 1 14 2 15 3 16 4 17 5 18 6 19 7 20 8 21 9 22 10 23 11
REMARK SMILES IDX 24 12 25 13 26 14 12 15 11 16 10 17 9 18 8 19 7 20 6 21 5 22
REMARK SMILES IDX 4 23 3 24 2 25 1 26
REMARK H PARENT
REMARK Flexibility Score: inf
ROOT
ATOM      1  C   UNL     1       5.051 -19.179   3.187  1.00  0.00     0.000 C 
ENDROOT
BRANCH   1   2
ATOM      2  C   UNL     1       5.086 -20.706   3.349  1.00  0.00     0.000 C 
BRANCH   2   3
ATOM      3  C   UNL     1       5.476 -21.140   4.773  1.00  0.00     0.000 C 
BRANCH   3   4
ATOM      4  C   UNL     1       6.951 -21.568   4.882  1.00  0.00     0.000 C 
BRANCH   4   5
ATOM      5  C   UNL     1       7.946 -20.435   5.205  1.00  0.00     0.000 C 
BRANCH   5   6
ATOM      6  C   UNL     1       9.128 -20.296   4.228  1.00  0.00     0.000 C 
BRANCH   6   7
ATOM      7  C   UNL     1       8.783 -19.451   2.990  1.00  0.00     0.000 C 
BRANCH   7   8
ATOM      8  C   UNL     1       8.621 -17.955   3.313  1.00  0.00     0.000 C 
BRANCH   8   9
ATOM      9  C   UNL     1       9.734 -17.348   4.185  1.00  0.00     0.000 C 
BRANCH   9  10
ATOM     10  C   UNL     1       9.261 -16.992   5.602  1.00  0.00     0.006 C 
BRANCH  10  11
ATOM     11  C   UNL     1       9.565 -15.525   5.927  1.00  0.00     0.053 C 
BRANCH  11  12
ATOM     12  C   UNL     1       8.723 -15.049   7.071  1.00  0.00     0.041 C 
ATOM     13  O   UNL     1       9.014 -15.377   8.253  1.00  0.00    -0.550 OA
ATOM     14  O   UNL     1       7.633 -14.221   6.835  1.00  0.00    -0.550 OA
ENDBRANCH  11  12
ENDBRANCH  10  11
ENDBRANCH   9  10
ENDBRANCH   8   9
ENDBRANCH   7   8
ENDBRANCH   6   7
ENDBRANCH   5   6
ENDBRANCH   4   5
ENDBRANCH   3   4
ENDBRANCH   2   3
ENDBRANCH   1   2
BRANCH   1  15
ATOM     15  C   UNL     1       3.953 -18.708   2.217  1.00  0.00     0.000 C 
BRANCH  15  16
ATOM     16  C   UNL     1       2.786 -18.014   2.938  1.00  0.00     0.000 C 
BRANCH  16  17
ATOM     17  C   UNL     1       1.431 -18.671   2.631  1.00  0.00     0.000 C 
BRANCH  17  18
ATOM     18  C   UNL     1       1.383 -20.155   3.031  1.00  0.00    -0.000 C 
BRANCH  18  19
ATOM     19  C   UNL     1       0.845 -20.395   4.457  1.00  0.00    -0.000 C 
BRANCH  19  20
ATOM     20  C   UNL     1       1.898 -21.035   5.379  1.00  0.00    -0.000 C 
BRANCH  20  21
ATOM     21  C   UNL     1       2.072 -20.251   6.698  1.00  0.00    -0.000 C 
BRANCH  21  22
ATOM     22  C   UNL     1       2.079 -18.722   6.511  1.00  0.00    -0.000 C 
BRANCH  22  23
ATOM     23  C   UNL     1       3.496 -18.126   6.522  1.00  0.00    -0.000 C 
BRANCH  23  24
ATOM     24  C   UNL     1       4.445 -18.863   7.485  1.00  0.00    -0.000 C 
BRANCH  24  25
ATOM     25  C   UNL     1       5.907 -18.386   7.448  1.00  0.00    -0.003 C 
ATOM     26  C   UNL     1       6.383 -17.813   8.782  1.00  0.00     0.004 C 
ENDBRANCH  24  25
ENDBRANCH  23  24
ENDBRANCH  22  23
ENDBRANCH  21  22
ENDBRANCH  20  21
ENDBRANCH  19  20
ENDBRANCH  18  19
ENDBRANCH  17  18
ENDBRANCH  16  17
ENDBRANCH  15  16
ENDBRANCH   1  15
TORSDOF 22
ENDMDL
MODEL 4
REMARK VINA RESULT:    -2.881      3.386      6.582
REMARK INTER + INTRA:         -10.394
REMARK INTER:                  -6.860
REMARK INTRA:                  -3.534
REMARK UNBOUND:                -3.808
REMARK SMILES CCCCCCCCCCCCCCCCCCCCCCCC(=O)[O-]
REMARK SMILES IDX 13 1 14 2 15 3 16 4 17 5 18 6 19 7 20 8 21 9 22 10 23 11
REMARK SMILES IDX 24 12 25 13 26 14 12 15 11 16 10 17 9 18 8 19 7 20 6 21 5 22
REMARK SMILES IDX 4 23 3 24 2 25 1 26
REMARK H PARENT
REMARK Flexibility Score: inf
ROOT
ATOM      1  C   UNL     1       9.786 -16.651   4.814  1.00  0.00     0.000 C 
ENDROOT
BRANCH   1   2
ATOM      2  C   UNL     1       9.104 -17.690   5.717  1.00  0.00     0.000 C 
BRANCH   2   3
ATOM      3  C   UNL     1      10.115 -18.587   6.453  1.00  0.00     0.000 C 
BRANCH   3   4
ATOM      4  C   UNL     1       9.754 -20.082   6.374  1.00  0.00     0.000 C 
BRANCH   4   5
ATOM      5  C   UNL     1       8.250 -20.405   6.478  1.00  0.00     0.000 C 
BRANCH   5   6
ATOM      6  C   UNL     1       7.574 -20.834   5.163  1.00  0.00     0.000 C 
BRANCH   6   7
ATOM      7  C   UNL     1       6.076 -20.488   5.121  1.00  0.00     0.000 C 
BRANCH   7   8
ATOM      8  C   UNL     1       5.530 -20.022   6.483  1.00  0.00     0.000 C 
BRANCH   8   9
ATOM      9  C   UNL     1       4.165 -19.312   6.434  1.00  0.00     0.000 C 
BRANCH   9  10
ATOM     10  C   UNL     1       3.343 -19.674   5.187  1.00  0.00     0.006 C 
BRANCH  10  11
ATOM     11  C   UNL     1       2.454 -18.501   4.760  1.00  0.00     0.053 C 
BRANCH  11  12
ATOM     12  C   UNL     1       2.461 -18.343   3.271  1.00  0.00     0.041 C 
ATOM     13  O   UNL     1       3.082 -17.385   2.737  1.00  0.00    -0.550 OA
ATOM     14  O   UNL     1       1.806 -19.269   2.470  1.00  0.00    -0.550 OA
ENDBRANCH  11  12
ENDBRANCH  10  11
ENDBRANCH   9  10
ENDBRANCH   8   9
ENDBRANCH   7   8
ENDBRANCH   6   7
ENDBRANCH   5   6
ENDBRANCH   4   5
ENDBRANCH   3   4
ENDBRANCH   2   3
ENDBRANCH   1   2
BRANCH   1  15
ATOM     15  C   UNL     1      10.480 -15.533   5.612  1.00  0.00     0.000 C 
BRANCH  15  16
ATOM     16  C   UNL     1       9.616 -15.013   6.772  1.00  0.00     0.000 C 
BRANCH  16  17
ATOM     17  C   UNL     1      10.431 -14.777   8.053  1.00  0.00     0.000 C 
BRANCH  17  18
ATOM     18  C   UNL     1      10.297 -15.927   9.065  1.00  0.00    -0.000 C 
BRANCH  18  19
ATOM     19  C   UNL     1       8.856 -16.134   9.579  1.00  0.00    -0.000 C 
BRANCH  19  20
ATOM     20  C   UNL     1       8.479 -17.624   9.677  1.00  0.00    -0.000 C 
BRANCH  20  21
ATOM     21  C   UNL     1       7.068 -17.906   9.118  1.00  0.00    -0.000 C 
BRANCH  21  22
ATOM     22  C   UNL     1       6.604 -16.882   8.065  1.00  0.00    -0.000 C 
BRANCH  22  23
ATOM     23  C   UNL     1       5.387 -16.064   8.526  1.00  0.00    -0.000 C 
BRANCH  23  24
ATOM     24  C   UNL     1       4.657 -15.373   7.360  1.00  0.00    -0.000 C 
BRANCH  24  25
ATOM     25  C   UNL     1       4.857 -13.849   7.281  1.00  0.00    -0.003 C 
ATOM     26  C   UNL     1       6.234 -13.454   6.751  1.00  0.00     0.004 C 
ENDBRANCH  24  25
ENDBRANCH  23  24
ENDBRANCH  22  23
ENDBRANCH  21  22
ENDBRANCH  20  21
ENDBRANCH  19  20
ENDBRANCH  18  19
ENDBRANCH  17  18
ENDBRANCH  16  17
ENDBRANCH  15  16
ENDBRANCH   1  15
TORSDOF 22
ENDMDL
MODEL 5
REMARK VINA RESULT:    -2.878      2.042      5.897
REMARK INTER + INTRA:         -10.387
REMARK INTER:                  -7.124
REMARK INTRA:                  -3.263
REMARK UNBOUND:                -3.808
REMARK SMILES CCCCCCCCCCCCCCCCCCCCCCCC(=O)[O-]
REMARK SMILES IDX 13 1 14 2 15 3 16 4 17 5 18 6 19 7 20 8 21 9 22 10 23 11
REMARK SMILES IDX 24 12 25 13 26 14 12 15 11 16 10 17 9 18 8 19 7 20 6 21 5 22
REMARK SMILES IDX 4 23 3 24 2 25 1 26
REMARK H PARENT
REMARK Flexibility Score: inf
ROOT
ATOM      1  C   UNL     1       9.853 -17.319   4.688  1.00  0.00     0.000 C 
ENDROOT
BRANCH   1   2
ATOM      2  C   UNL     1      10.302 -15.858   4.528  1.00  0.00     0.000 C 
BRANCH   2   3
ATOM      3  C   UNL     1      11.718 -15.611   5.075  1.00  0.00     0.000 C 
BRANCH   3   4
ATOM      4  C   UNL     1      12.134 -16.644   6.139  1.00  0.00     0.000 C 
BRANCH   4   5
ATOM      5  C   UNL     1      12.241 -16.102   7.579  1.00  0.00     0.000 C 
BRANCH   5   6
ATOM      6  C   UNL     1      11.882 -14.615   7.753  1.00  0.00     0.000 C 
BRANCH   6   7
ATOM      7  C   UNL     1      11.041 -14.348   9.013  1.00  0.00     0.000 C 
BRANCH   7   8
ATOM      8  C   UNL     1       9.669 -15.044   8.976  1.00  0.00     0.000 C 
BRANCH   8   9
ATOM      9  C   UNL     1       8.808 -14.733   7.739  1.00  0.00     0.000 C 
BRANCH   9  10
ATOM     10  C   UNL     1       7.919 -15.911   7.312  1.00  0.00     0.006 C 
BRANCH  10  11
ATOM     11  C   UNL     1       7.499 -16.745   8.528  1.00  0.00     0.053 C 
BRANCH  11  12
ATOM     12  C   UNL     1       6.011 -16.726   8.697  1.00  0.00     0.041 C 
ATOM     13  O   UNL     1       5.311 -15.888   8.067  1.00  0.00    -0.550 OA
ATOM     14  O   UNL     1       5.393 -17.651   9.529  1.00  0.00    -0.550 OA
ENDBRANCH  11  12
ENDBRANCH  10  11
ENDBRANCH   9  10
ENDBRANCH   8   9
ENDBRANCH   7   8
ENDBRANCH   6   7
ENDBRANCH   5   6
ENDBRANCH   4   5
ENDBRANCH   3   4
ENDBRANCH   2   3
ENDBRANCH   1   2
BRANCH   1  15
ATOM     15  C   UNL     1      10.145 -18.172   3.441  1.00  0.00     0.000 C 
BRANCH  15  16
ATOM     16  C   UNL     1       8.882 -18.458   2.613  1.00  0.00     0.000 C 
BRANCH  16  17
ATOM     17  C   UNL     1       7.682 -18.854   3.489  1.00  0.00     0.000 C 
BRANCH  17  18
ATOM     18  C   UNL     1       7.730 -20.324   3.938  1.00  0.00    -0.000 C 
BRANCH  18  19
ATOM     19  C   UNL     1       7.604 -20.509   5.465  1.00  0.00    -0.000 C 
BRANCH  19  20
ATOM     20  C   UNL     1       6.682 -19.457   6.107  1.00  0.00    -0.000 C 
BRANCH  20  21
ATOM     21  C   UNL     1       5.255 -19.998   6.341  1.00  0.00    -0.000 C 
BRANCH  21  22
ATOM     22  C   UNL     1       4.146 -19.038   5.872  1.00  0.00    -0.000 C 
BRANCH  22  23
ATOM     23  C   UNL     1       3.253 -19.647   4.778  1.00  0.00    -0.000 C 
BRANCH  23  24
ATOM     24  C   UNL     1       2.304 -18.617   4.140  1.00  0.00    -0.000 C 
BRANCH  24  25
ATOM     25  C   UNL     1       2.916 -17.793   2.994  1.00  0.00    -0.003 C 
ATOM     26  C   UNL     1       3.959 -18.569   2.191  1.00  0.00     0.004 C 
ENDBRANCH  24  25
ENDBRANCH  23  24
ENDBRANCH  22  23
ENDBRANCH  21  22
ENDBRANCH  20  21
ENDBRANCH  19  20
ENDBRANCH  18  19
ENDBRANCH  17  18
ENDBRANCH  16  17
ENDBRANCH  15  16
ENDBRANCH   1  15
TORSDOF 22
ENDMDL
MODEL 6
REMARK VINA RESULT:    -2.873      3.632      6.918
REMARK INTER + INTRA:         -10.376
REMARK INTER:                  -6.848
REMARK INTRA:                  -3.529
REMARK UNBOUND:                -3.808
REMARK SMILES CCCCCCCCCCCCCCCCCCCCCCCC(=O)[O-]
REMARK SMILES IDX 13 1 14 2 15 3 16 4 17 5 18 6 19 7 20 8 21 9 22 10 23 11
REMARK SMILES IDX 24 12 25 13 26 14 12 15 11 16 10 17 9 18 8 19 7 20 6 21 5 22
REMARK SMILES IDX 4 23 3 24 2 25 1 26
REMARK H PARENT
REMARK Flexibility Score: inf
ROOT
ATOM      1  C   UNL     1       9.107 -18.358   3.118  1.00  0.00     0.000 C 
ENDROOT
BRANCH   1   2
ATOM      2  C   UNL     1       7.616 -18.717   3.208  1.00  0.00     0.000 C 
BRANCH   2   3
ATOM      3  C   UNL     1       7.351 -19.908   4.145  1.00  0.00     0.000 C 
BRANCH   3   4
ATOM      4  C   UNL     1       6.625 -19.498   5.439  1.00  0.00     0.000 C 
BRANCH   4   5
ATOM      5  C   UNL     1       5.864 -20.631   6.157  1.00  0.00     0.000 C 
BRANCH   5   6
ATOM      6  C   UNL     1       4.433 -20.284   6.607  1.00  0.00     0.000 C 
BRANCH   6   7
ATOM      7  C   UNL     1       3.892 -19.008   5.940  1.00  0.00     0.000 C 
BRANCH   7   8
ATOM      8  C   UNL     1       2.959 -19.302   4.752  1.00  0.00     0.000 C 
BRANCH   8   9
ATOM      9  C   UNL     1       2.767 -18.136   3.765  1.00  0.00     0.000 C 
BRANCH   9  10
ATOM     10  C   UNL     1       3.674 -18.239   2.529  1.00  0.00     0.006 C 
BRANCH  10  11
ATOM     11  C   UNL     1       4.043 -19.699   2.243  1.00  0.00     0.053 C 
BRANCH  11  12
ATOM     12  C   UNL     1       3.275 -20.221   1.069  1.00  0.00     0.041 C 
ATOM     13  O   UNL     1       2.184 -20.829   1.243  1.00  0.00    -0.550 OA
ATOM     14  O   UNL     1       3.748 -20.015  -0.221  1.00  0.00    -0.550 OA
ENDBRANCH  11  12
ENDBRANCH  10  11
ENDBRANCH   9  10
ENDBRANCH   8   9
ENDBRANCH   7   8
ENDBRANCH   6   7
ENDBRANCH   5   6
ENDBRANCH   4   5
ENDBRANCH   3   4
ENDBRANCH   2   3
ENDBRANCH   1   2
BRANCH   1  15
ATOM     15  C   UNL     1       9.527 -17.296   4.148  1.00  0.00     0.000 C 
BRANCH  15  16
ATOM     16  C   UNL     1      10.266 -17.902   5.353  1.00  0.00     0.000 C 
BRANCH  16  17
ATOM     17  C   UNL     1      11.530 -17.112   5.727  1.00  0.00     0.000 C 
BRANCH  17  18
ATOM     18  C   UNL     1      11.448 -16.485   7.129  1.00  0.00    -0.000 C 
BRANCH  18  19
ATOM     19  C   UNL     1      11.027 -15.000   7.119  1.00  0.00    -0.000 C 
BRANCH  19  20
ATOM     20  C   UNL     1       9.698 -14.765   7.859  1.00  0.00    -0.000 C 
BRANCH  20  21
ATOM     21  C   UNL     1       8.477 -14.924   6.928  1.00  0.00    -0.000 C 
BRANCH  21  22
ATOM     22  C   UNL     1       7.393 -15.864   7.487  1.00  0.00    -0.000 C 
BRANCH  22  23
ATOM     23  C   UNL     1       7.977 -17.139   8.118  1.00  0.00    -0.000 C 
BRANCH  23  24
ATOM     24  C   UNL     1       6.904 -18.026   8.773  1.00  0.00    -0.000 C 
BRANCH  24  25
ATOM     25  C   UNL     1       5.567 -17.320   9.064  1.00  0.00    -0.003 C 
ATOM     26  C   UNL     1       5.481 -16.768  10.486  1.00  0.00     0.004 C 
ENDBRANCH  24  25
ENDBRANCH  23  24
ENDBRANCH  22  23
ENDBRANCH  21  22
ENDBRANCH  20  21
ENDBRANCH  19  20
ENDBRANCH  18  19
ENDBRANCH  17  18
ENDBRANCH  16  17
ENDBRANCH  15  16
ENDBRANCH   1  15
TORSDOF 22
ENDMDL
MODEL 7
REMARK VINA RESULT:    -2.849      3.210      6.937
REMARK INTER + INTRA:         -10.320
REMARK INTER:                  -5.901
REMARK INTRA:                  -4.419
REMARK UNBOUND:                -3.808
REMARK SMILES CCCCCCCCCCCCCCCCCCCCCCCC(=O)[O-]
REMARK SMILES IDX 13 1 14 2 15 3 16 4 17 5 18 6 19 7 20 8 21 9 22 10 23 11
REMARK SMILES IDX 24 12 25 13 26 14 12 15 11 16 10 17 9 18 8 19 7 20 6 21 5 22
REMARK SMILES IDX 4 23 3 24 2 25 1 26
REMARK H PARENT
REMARK Flexibility Score: inf
ROOT
ATOM      1  C   UNL     1      11.495 -15.005   6.770  1.00  0.00     0.000 C 
ENDROOT
BRANCH   1   2
ATOM      2  C   UNL     1      12.170 -16.326   6.370  1.00  0.00     0.000 C 
BRANCH   2   3
ATOM      3  C   UNL     1      11.891 -16.712   4.907  1.00  0.00     0.000 C 
BRANCH   3   4
ATOM      4  C   UNL     1      10.453 -16.380   4.466  1.00  0.00     0.000 C 
BRANCH   4   5
ATOM      5  C   UNL     1       9.436 -17.531   4.611  1.00  0.00     0.000 C 
BRANCH   5   6
ATOM      6  C   UNL     1       8.684 -17.912   3.323  1.00  0.00     0.000 C 
BRANCH   6   7
ATOM      7  C   UNL     1       8.195 -19.371   3.328  1.00  0.00     0.000 C 
BRANCH   7   8
ATOM      8  C   UNL     1       7.555 -19.784   4.666  1.00  0.00     0.000 C 
BRANCH   8   9
ATOM      9  C   UNL     1       6.018 -19.870   4.659  1.00  0.00     0.000 C 
BRANCH   9  10
ATOM     10  C   UNL     1       5.404 -19.552   3.287  1.00  0.00     0.006 C 
BRANCH  10  11
ATOM     11  C   UNL     1       3.885 -19.759   3.308  1.00  0.00     0.053 C 
BRANCH  11  12
ATOM     12  C   UNL     1       3.176 -18.466   3.570  1.00  0.00     0.041 C 
ATOM     13  O   UNL     1       3.129 -17.576   2.679  1.00  0.00    -0.550 OA
ATOM     14  O   UNL     1       2.545 -18.254   4.789  1.00  0.00    -0.550 OA
ENDBRANCH  11  12
ENDBRANCH  10  11
ENDBRANCH   9  10
ENDBRANCH   8   9
ENDBRANCH   7   8
ENDBRANCH   6   7
ENDBRANCH   5   6
ENDBRANCH   4   5
ENDBRANCH   3   4
ENDBRANCH   2   3
ENDBRANCH   1   2
BRANCH   1  15
ATOM     15  C   UNL     1      11.312 -14.867   8.292  1.00  0.00     0.000 C 
BRANCH  15  16
ATOM     16  C   UNL     1       9.839 -14.690   8.695  1.00  0.00     0.000 C 
BRANCH  16  17
ATOM     17  C   UNL     1       8.897 -14.652   7.481  1.00  0.00     0.000 C 
BRANCH  17  18
ATOM     18  C   UNL     1       7.849 -15.777   7.504  1.00  0.00    -0.000 C 
BRANCH  18  19
ATOM     19  C   UNL     1       8.081 -16.815   8.623  1.00  0.00    -0.000 C 
BRANCH  19  20
ATOM     20  C   UNL     1       8.284 -18.236   8.067  1.00  0.00    -0.000 C 
BRANCH  20  21
ATOM     21  C   UNL     1       9.767 -18.666   8.094  1.00  0.00    -0.000 C 
BRANCH  21  22
ATOM     22  C   UNL     1      10.047 -19.966   7.318  1.00  0.00    -0.000 C 
BRANCH  22  23
ATOM     23  C   UNL     1      11.417 -19.958   6.618  1.00  0.00    -0.000 C 
BRANCH  23  24
ATOM     24  C   UNL     1      11.430 -20.794   5.326  1.00  0.00    -0.000 C 
BRANCH  24  25
ATOM     25  C   UNL     1      12.470 -20.355   4.279  1.00  0.00    -0.003 C 
ATOM     26  C   UNL     1      11.839 -19.909   2.961  1.00  0.00     0.004 C 
ENDBRANCH  24  25
ENDBRANCH  23  24
ENDBRANCH  22  23
ENDBRANCH  21  22
ENDBRANCH  20  21
ENDBRANCH  19  20
ENDBRANCH  18  19
ENDBRANCH  17  18
ENDBRANCH  16  17
ENDBRANCH  15  16
ENDBRANCH   1  15
TORSDOF 22
ENDMDL
MODEL 8
REMARK VINA RESULT:    -2.816      2.831      6.125
REMARK INTER + INTRA:         -10.246
REMARK INTER:                  -5.690
REMARK INTRA:                  -4.557
REMARK UNBOUND:                -3.808
REMARK SMILES CCCCCCCCCCCCCCCCCCCCCCCC(=O)[O-]
REMARK SMILES IDX 13 1 14 2 15 3 16 4 17 5 18 6 19 7 20 8 21 9 22 10 23 11
REMARK SMILES IDX 24 12 25 13 26 14 12 15 11 16 10 17 9 18 8 19 7 20 6 21 5 22
REMARK SMILES IDX 4 23 3 24 2 25 1 26
REMARK H PARENT
REMARK Flexibility Score: inf
ROOT
ATOM      1  C   UNL     1      11.620 -16.579   5.041  1.00  0.00     0.000 C 
ENDROOT
BRANCH   1   2
ATOM      2  C   UNL     1      11.149 -17.943   5.568  1.00  0.00     0.000 C 
BRANCH   2   3
ATOM      3  C   UNL     1      11.481 -19.096   4.605  1.00  0.00     0.000 C 
BRANCH   3   4
ATOM      4  C   UNL     1      11.367 -18.688   3.125  1.00  0.00     0.000 C 
BRANCH   4   5
ATOM      5  C   UNL     1      10.019 -19.016   2.451  1.00  0.00     0.000 C 
BRANCH   5   6
ATOM      6  C   UNL     1       8.854 -18.077   2.815  1.00  0.00     0.000 C 
BRANCH   6   7
ATOM      7  C   UNL     1       7.599 -18.837   3.279  1.00  0.00     0.000 C 
BRANCH   7   8
ATOM      8  C   UNL     1       7.751 -19.444   4.685  1.00  0.00     0.000 C 
BRANCH   8   9
ATOM      9  C   UNL     1       6.595 -20.356   5.134  1.00  0.00     0.000 C 
BRANCH   9  10
ATOM     10  C   UNL     1       5.225 -19.883   4.627  1.00  0.00     0.006 C 
BRANCH  10  11
ATOM     11  C   UNL     1       4.227 -19.757   5.784  1.00  0.00     0.053 C 
BRANCH  11  12
ATOM     12  C   UNL     1       3.199 -18.709   5.488  1.00  0.00     0.041 C 
ATOM     13  O   UNL     1       2.923 -17.830   6.348  1.00  0.00    -0.550 OA
ATOM     14  O   UNL     1       2.564 -18.687   4.254  1.00  0.00    -0.550 OA
ENDBRANCH  11  12
ENDBRANCH  10  11
ENDBRANCH   9  10
ENDBRANCH   8   9
ENDBRANCH   7   8
ENDBRANCH   6   7
ENDBRANCH   5   6
ENDBRANCH   4   5
ENDBRANCH   3   4
ENDBRANCH   2   3
ENDBRANCH   1   2
BRANCH   1  15
ATOM     15  C   UNL     1      10.551 -15.482   5.186  1.00  0.00     0.000 C 
BRANCH  15  16
ATOM     16  C   UNL     1       9.300 -15.974   5.933  1.00  0.00     0.000 C 
BRANCH  16  17
ATOM     17  C   UNL     1       8.997 -15.138   7.187  1.00  0.00     0.000 C 
BRANCH  17  18
ATOM     18  C   UNL     1      10.270 -14.684   7.922  1.00  0.00    -0.000 C 
BRANCH  18  19
ATOM     19  C   UNL     1      10.669 -15.603   9.096  1.00  0.00    -0.000 C 
BRANCH  19  20
ATOM     20  C   UNL     1       9.488 -15.889  10.041  1.00  0.00    -0.000 C 
BRANCH  20  21
ATOM     21  C   UNL     1       9.194 -17.400  10.166  1.00  0.00    -0.000 C 
BRANCH  21  22
ATOM     22  C   UNL     1       9.794 -18.242   9.025  1.00  0.00    -0.000 C 
BRANCH  22  23
ATOM     23  C   UNL     1       8.729 -19.026   8.241  1.00  0.00    -0.000 C 
BRANCH  23  24
ATOM     24  C   UNL     1       7.294 -18.700   8.693  1.00  0.00    -0.000 C 
BRANCH  24  25
ATOM     25  C   UNL     1       6.510 -17.773   7.749  1.00  0.00    -0.003 C 
ATOM     26  C   UNL     1       5.818 -16.623   8.479  1.00  0.00     0.004 C 
ENDBRANCH  24  25
ENDBRANCH  23  24
ENDBRANCH  22  23
ENDBRANCH  21  22
ENDBRANCH  20  21
ENDBRANCH  19  20
ENDBRANCH  18  19
ENDBRANCH  17  18
ENDBRANCH  16  17
ENDBRANCH  15  16
ENDBRANCH   1  15
TORSDOF 22
ENDMDL
MODEL 9
REMARK VINA RESULT:    -2.794      1.685      4.789
REMARK INTER + INTRA:         -10.194
REMARK INTER:                  -6.452
REMARK INTRA:                  -3.742
REMARK UNBOUND:                -3.808
REMARK SMILES CCCCCCCCCCCCCCCCCCCCCCCC(=O)[O-]
REMARK SMILES IDX 13 1 14 2 15 3 16 4 17 5 18 6 19 7 20 8 21 9 22 10 23 11
REMARK SMILES IDX 24 12 25 13 26 14 12 15 11 16 10 17 9 18 8 19 7 20 6 21 5 22
REMARK SMILES IDX 4 23 3 24 2 25 1 26
REMARK H PARENT
REMARK Flexibility Score: inf
ROOT
ATOM      1  C   UNL     1       2.520 -19.715   1.865  1.00  0.00     0.000 C 
ENDROOT
BRANCH   1   2
ATOM      2  C   UNL     1       1.840 -18.728   2.827  1.00  0.00     0.000 C 
BRANCH   2   3
ATOM      3  C   UNL     1       2.851 -17.848   3.582  1.00  0.00     0.000 C 
BRANCH   3   4
ATOM      4  C   UNL     1       2.851 -18.108   5.100  1.00  0.00     0.000 C 
BRANCH   4   5
ATOM      5  C   UNL     1       1.981 -19.294   5.567  1.00  0.00     0.000 C 
BRANCH   5   6
ATOM      6  C   UNL     1       2.745 -20.599   5.854  1.00  0.00     0.000 C 
BRANCH   6   7
ATOM      7  C   UNL     1       3.261 -20.682   7.301  1.00  0.00     0.000 C 
BRANCH   7   8
ATOM      8  C   UNL     1       4.795 -20.588   7.397  1.00  0.00     0.000 C 
BRANCH   8   9
ATOM      9  C   UNL     1       5.327 -19.494   8.340  1.00  0.00     0.000 C 
BRANCH   9  10
ATOM     10  C   UNL     1       5.868 -18.266   7.592  1.00  0.00     0.006 C 
BRANCH  10  11
ATOM     11  C   UNL     1       5.430 -16.969   8.283  1.00  0.00     0.053 C 
BRANCH  11  12
ATOM     12  C   UNL     1       5.947 -16.915   9.688  1.00  0.00     0.041 C 
ATOM     13  O   UNL     1       7.189 -16.909   9.908  1.00  0.00    -0.550 OA
ATOM     14  O   UNL     1       5.060 -16.845  10.754  1.00  0.00    -0.550 OA
ENDBRANCH  11  12
ENDBRANCH  10  11
ENDBRANCH   9  10
ENDBRANCH   8   9
ENDBRANCH   7   8
ENDBRANCH   6   7
ENDBRANCH   5   6
ENDBRANCH   4   5
ENDBRANCH   3   4
ENDBRANCH   2   3
ENDBRANCH   1   2
BRANCH   1  15
ATOM     15  C   UNL     1       4.032 -19.846   2.116  1.00  0.00     0.000 C 
BRANCH  15  16
ATOM     16  C   UNL     1       4.418 -21.221   2.686  1.00  0.00     0.000 C 
BRANCH  16  17
ATOM     17  C   UNL     1       5.608 -21.143   3.656  1.00  0.00     0.000 C 
BRANCH  17  18
ATOM     18  C   UNL     1       6.063 -19.699   3.927  1.00  0.00    -0.000 C 
BRANCH  18  19
ATOM     19  C   UNL     1       7.596 -19.532   3.981  1.00  0.00    -0.000 C 
BRANCH  19  20
ATOM     20  C   UNL     1       8.094 -18.404   3.060  1.00  0.00    -0.000 C 
BRANCH  20  21
ATOM     21  C   UNL     1       9.229 -17.581   3.709  1.00  0.00    -0.000 C 
BRANCH  21  22
ATOM     22  C   UNL     1      10.070 -18.380   4.721  1.00  0.00    -0.000 C 
BRANCH  22  23
ATOM     23  C   UNL     1      10.575 -17.517   5.889  1.00  0.00    -0.000 C 
BRANCH  23  24
ATOM     24  C   UNL     1       9.922 -16.123   5.926  1.00  0.00    -0.000 C 
BRANCH  24  25
ATOM     25  C   UNL     1       8.888 -15.920   7.048  1.00  0.00    -0.003 C 
ATOM     26  C   UNL     1       8.073 -14.638   6.883  1.00  0.00     0.004 C 
ENDBRANCH  24  25
ENDBRANCH  23  24
ENDBRANCH  22  23
ENDBRANCH  21  22
ENDBRANCH  20  21
ENDBRANCH  19  20
ENDBRANCH  18  19
ENDBRANCH  17  18
ENDBRANCH  16  17
ENDBRANCH  15  16
ENDBRANCH   1  15
TORSDOF 22
ENDMDL
