MODEL 1
REMARK VINA RESULT:    -4.903      0.000      0.000
REMARK INTER + INTRA:          -5.301
REMARK INTER:                  -5.333
REMARK INTRA:                   0.032
REMARK UNBOUND:                 0.032
REMARK SMILES C[C@H]1[C@H](C)CC[C@@]2(C(=O)[O-])CC[C@]3(C)C(=CC[C@@H]4[C@]5(C)CC[C@@H](O)C(C)(C)[C@@H]5CC[C@@]43C)[C@H]12
REMARK SMILES IDX 7 1 6 2 11 3 33 4 5 5 12 6 15 7 2 8 3 9 13 10 16 11 1 12
REMARK SMILES IDX 4 13 14 14 31 15 17 16 18 17 30 18 32 19 19 20 29 21 28 22
REMARK SMILES IDX 21 23 20 24 25 25 22 26 23 27 26 28 27 29 8 30 9 31 10 32
REMARK SMILES IDX 24 33
REMARK H PARENT 24 34
REMARK Flexibility Score: inf
ROOT
ATOM      1  C   UNL     1      11.036   6.623  20.031  1.00  0.00     0.017 C 
ATOM      2  C   UNL     1      12.409   6.422  20.718  1.00  0.00     0.014 C 
ATOM      3  C   UNL     1      10.286   5.285  19.938  1.00  0.00     0.014 C 
ATOM      4  C   UNL     1      10.187   7.556  20.968  1.00  0.00     0.030 C 
ATOM      5  C   UNL     1      13.137   7.765  20.900  1.00  0.00     0.004 C 
ATOM      6  C   UNL     1       8.981   5.458  19.141  1.00  0.00     0.013 C 
ATOM      7  C   UNL     1       8.645   7.417  20.795  1.00  0.00    -0.063 C 
ATOM      8  C   UNL     1      10.856   8.982  21.101  1.00  0.00    -0.003 C 
ATOM      9  C   UNL     1      12.301   8.801  21.691  1.00  0.00    -0.011 C 
ATOM     10  C   UNL     1       8.006   6.606  19.647  1.00  0.00    -0.006 C 
ATOM     11  C   UNL     1       7.872   7.851  21.810  1.00  0.00    -0.027 C 
ATOM     12  C   UNL     1      10.056   9.997  21.940  1.00  0.00     0.008 C 
ATOM     13  C   UNL     1      13.087  10.124  21.755  1.00  0.00     0.008 C 
ATOM     14  C   UNL     1       7.820   7.640  18.494  1.00  0.00     0.017 C 
ATOM     15  C   UNL     1       6.576   5.957  20.055  1.00  0.00    -0.020 C 
ATOM     16  C   UNL     1       6.393   7.682  21.935  1.00  0.00     0.032 C 
ATOM     17  C   UNL     1       5.643   7.020  20.743  1.00  0.00     0.006 C 
ATOM     18  C   UNL     1       6.756   4.769  21.071  1.00  0.00     0.008 C 
ATOM     19  C   UNL     1       5.914   5.420  18.737  1.00  0.00     0.012 C 
ATOM     20  C   UNL     1       4.167   6.477  21.136  1.00  0.00    -0.025 C 
ATOM     21  C   UNL     1       5.594   4.521  22.071  1.00  0.00     0.005 C 
ATOM     22  C   UNL     1       4.194   4.926  21.535  1.00  0.00     0.003 C 
ATOM     23  C   UNL     1       3.552   7.360  22.288  1.00  0.00     0.010 C 
ATOM     24  C   UNL     1       3.234   6.679  19.892  1.00  0.00     0.012 C 
ATOM     25  C   UNL     1       2.959   4.388  22.401  1.00  0.00    -0.006 C 
ATOM     26  C   UNL     1       2.282   6.809  22.925  1.00  0.00     0.033 C 
ATOM     27  C   UNL     1       2.550   5.413  23.498  1.00  0.00     0.120 C 
ATOM     28  C   UNL     1       3.290   3.047  23.115  1.00  0.00     0.014 C 
ATOM     29  C   UNL     1       1.756   4.064  21.465  1.00  0.00     0.014 C 
ENDROOT
BRANCH   1  30
ATOM     30  C   UNL     1      11.327   7.097  18.596  1.00  0.00     0.048 C 
ATOM     31  O   UNL     1      11.016   8.239  18.177  1.00  0.00    -0.550 OA
ATOM     32  O   UNL     1      12.029   6.256  17.737  1.00  0.00    -0.550 OA
ENDBRANCH   1  30
BRANCH  27  33
ATOM     33  O   UNL     1       1.450   4.963  24.257  1.00  0.00    -0.393 OA
ATOM     34  H   UNL     1       0.751   4.636  23.633  1.00  0.00     0.210 HD
ENDBRANCH  27  33
TORSDOF 2
ENDMDL
MODEL 2
REMARK VINA RESULT:    -4.728     12.569     16.376
REMARK INTER + INTRA:          -5.110
REMARK INTER:                  -5.193
REMARK INTRA:                   0.082
REMARK UNBOUND:                 0.032
REMARK SMILES C[C@H]1[C@H](C)CC[C@@]2(C(=O)[O-])CC[C@]3(C)C(=CC[C@@H]4[C@]5(C)CC[C@@H](O)C(C)(C)[C@@H]5CC[C@@]43C)[C@H]12
REMARK SMILES IDX 7 1 6 2 11 3 33 4 5 5 12 6 15 7 2 8 3 9 13 10 16 11 1 12
REMARK SMILES IDX 4 13 14 14 31 15 17 16 18 17 30 18 32 19 19 20 29 21 28 22
REMARK SMILES IDX 21 23 20 24 25 25 22 26 23 27 26 28 27 29 8 30 9 31 10 32
REMARK SMILES IDX 24 33
REMARK H PARENT 24 34
REMARK Flexibility Score: inf
ROOT
ATOM      1  C   UNL     1      12.662  -6.719  19.200  1.00  0.00     0.017 C 
ATOM      2  C   UNL     1      11.135  -6.842  19.431  1.00  0.00     0.014 C 
ATOM      3  C   UNL     1      13.074  -7.504  17.944  1.00  0.00     0.014 C 
ATOM      4  C   UNL     1      12.961  -5.204  18.908  1.00  0.00     0.030 C 
ATOM      5  C   UNL     1      10.690  -5.991  20.633  1.00  0.00     0.004 C 
ATOM      6  C   UNL     1      14.605  -7.492  17.785  1.00  0.00     0.013 C 
ATOM      7  C   UNL     1      14.263  -4.947  18.093  1.00  0.00    -0.063 C 
ATOM      8  C   UNL     1      12.605  -4.308  20.160  1.00  0.00    -0.003 C 
ATOM      9  C   UNL     1      11.082  -4.499  20.494  1.00  0.00    -0.011 C 
ATOM     10  C   UNL     1      15.292  -6.059  17.794  1.00  0.00    -0.006 C 
ATOM     11  C   UNL     1      14.368  -3.761  17.462  1.00  0.00    -0.027 C 
ATOM     12  C   UNL     1      12.938  -2.812  20.001  1.00  0.00     0.008 C 
ATOM     13  C   UNL     1      10.654  -3.755  21.772  1.00  0.00     0.008 C 
ATOM     14  C   UNL     1      16.291  -6.000  18.990  1.00  0.00     0.017 C 
ATOM     15  C   UNL     1      16.078  -5.831  16.393  1.00  0.00    -0.020 C 
ATOM     16  C   UNL     1      15.442  -3.356  16.507  1.00  0.00     0.032 C 
ATOM     17  C   UNL     1      16.612  -4.355  16.274  1.00  0.00     0.006 C 
ATOM     18  C   UNL     1      15.135  -6.086  15.160  1.00  0.00     0.008 C 
ATOM     19  C   UNL     1      17.272  -6.848  16.356  1.00  0.00     0.012 C 
ATOM     20  C   UNL     1      17.462  -4.047  14.928  1.00  0.00    -0.025 C 
ATOM     21  C   UNL     1      15.436  -5.276  13.869  1.00  0.00     0.005 C 
ATOM     22  C   UNL     1      16.933  -4.906  13.685  1.00  0.00     0.003 C 
ATOM     23  C   UNL     1      17.441  -2.502  14.616  1.00  0.00     0.010 C 
ATOM     24  C   UNL     1      18.960  -4.410  15.214  1.00  0.00     0.012 C 
ATOM     25  C   UNL     1      17.319  -4.365  12.227  1.00  0.00    -0.006 C 
ATOM     26  C   UNL     1      17.986  -2.106  13.248  1.00  0.00     0.033 C 
ATOM     27  C   UNL     1      17.192  -2.816  12.146  1.00  0.00     0.120 C 
ATOM     28  C   UNL     1      16.404  -4.967  11.124  1.00  0.00     0.014 C 
ATOM     29  C   UNL     1      18.760  -4.826  11.854  1.00  0.00     0.014 C 
ENDROOT
BRANCH   1  30
ATOM     30  C   UNL     1      13.345  -7.381  20.409  1.00  0.00     0.048 C 
ATOM     31  O   UNL     1      14.173  -6.781  21.138  1.00  0.00    -0.550 OA
ATOM     32  O   UNL     1      12.984  -8.678  20.763  1.00  0.00    -0.550 OA
ENDBRANCH   1  30
BRANCH  27  33
ATOM     33  O   UNL     1      17.548  -2.323  10.875  1.00  0.00    -0.393 OA
ATOM     34  H   UNL     1      16.778  -1.816  10.508  1.00  0.00     0.210 HD
ENDBRANCH  27  33
TORSDOF 2
ENDMDL
MODEL 3
REMARK VINA RESULT:    -4.466     14.049     17.591
REMARK INTER + INTRA:          -4.826
REMARK INTER:                  -4.860
REMARK INTRA:                   0.034
REMARK UNBOUND:                 0.032
REMARK SMILES C[C@H]1[C@H](C)CC[C@@]2(C(=O)[O-])CC[C@]3(C)C(=CC[C@@H]4[C@]5(C)CC[C@@H](O)C(C)(C)[C@@H]5CC[C@@]43C)[C@H]12
REMARK SMILES IDX 7 1 6 2 11 3 33 4 5 5 12 6 15 7 2 8 3 9 13 10 16 11 1 12
REMARK SMILES IDX 4 13 14 14 31 15 17 16 18 17 30 18 32 19 19 20 29 21 28 22
REMARK SMILES IDX 21 23 20 24 25 25 22 26 23 27 26 28 27 29 8 30 9 31 10 32
REMARK SMILES IDX 24 33
REMARK H PARENT 24 34
REMARK Flexibility Score: inf
ROOT
ATOM      1  C   UNL     1      10.188  -7.403  20.081  1.00  0.00     0.017 C 
ATOM      2  C   UNL     1       8.897  -6.744  20.628  1.00  0.00     0.014 C 
ATOM      3  C   UNL     1      11.171  -6.326  19.595  1.00  0.00     0.014 C 
ATOM      4  C   UNL     1      10.876  -8.134  21.290  1.00  0.00     0.030 C 
ATOM      5  C   UNL     1       7.938  -7.801  21.201  1.00  0.00     0.004 C 
ATOM      6  C   UNL     1      12.396  -6.981  18.933  1.00  0.00     0.013 C 
ATOM      7  C   UNL     1      12.411  -8.346  21.129  1.00  0.00    -0.063 C 
ATOM      8  C   UNL     1       9.958  -9.295  21.845  1.00  0.00    -0.003 C 
ATOM      9  C   UNL     1       8.590  -8.672  22.303  1.00  0.00    -0.011 C 
ATOM     10  C   UNL     1      13.155  -8.071  19.804  1.00  0.00    -0.006 C 
ATOM     11  C   UNL     1      13.120  -8.574  22.252  1.00  0.00    -0.027 C 
ATOM     12  C   UNL     1      10.580 -10.125  22.984  1.00  0.00     0.008 C 
ATOM     13  C   UNL     1       7.574  -9.737  22.757  1.00  0.00     0.008 C 
ATOM     14  C   UNL     1      13.110  -9.431  19.041  1.00  0.00     0.017 C 
ATOM     15  C   UNL     1      14.692  -7.604  20.030  1.00  0.00    -0.020 C 
ATOM     16  C   UNL     1      14.608  -8.652  22.362  1.00  0.00     0.032 C 
ATOM     17  C   UNL     1      15.432  -8.551  21.046  1.00  0.00     0.006 C 
ATOM     18  C   UNL     1      14.767  -6.146  20.614  1.00  0.00     0.008 C 
ATOM     19  C   UNL     1      15.403  -7.643  18.631  1.00  0.00     0.012 C 
ATOM     20  C   UNL     1      16.994  -8.196  21.293  1.00  0.00    -0.025 C 
ATOM     21  C   UNL     1      15.985  -5.816  21.521  1.00  0.00     0.005 C 
ATOM     22  C   UNL     1      17.268  -6.622  21.182  1.00  0.00     0.003 C 
ATOM     23  C   UNL     1      17.468  -8.770  22.682  1.00  0.00     0.010 C 
ATOM     24  C   UNL     1      17.835  -8.950  20.205  1.00  0.00     0.012 C 
ATOM     25  C   UNL     1      18.607  -6.078  21.872  1.00  0.00    -0.006 C 
ATOM     26  C   UNL     1      18.838  -8.292  23.151  1.00  0.00     0.033 C 
ATOM     27  C   UNL     1      18.852  -6.763  23.248  1.00  0.00     0.120 C 
ATOM     28  C   UNL     1      18.553  -4.544  22.117  1.00  0.00     0.014 C 
ATOM     29  C   UNL     1      19.820  -6.295  20.919  1.00  0.00     0.014 C 
ENDROOT
BRANCH   1  30
ATOM     30  C   UNL     1       9.770  -8.242  18.860  1.00  0.00     0.048 C 
ATOM     31  O   UNL     1       9.899  -9.490  18.813  1.00  0.00    -0.550 OA
ATOM     32  O   UNL     1       9.157  -7.607  17.783  1.00  0.00    -0.550 OA
ENDBRANCH   1  30
BRANCH  27  33
ATOM     33  O   UNL     1      20.038  -6.311  23.860  1.00  0.00    -0.393 OA
ATOM     34  H   UNL     1      20.022  -5.319  23.881  1.00  0.00     0.210 HD
ENDBRANCH  27  33
TORSDOF 2
ENDMDL
MODEL 4
REMARK VINA RESULT:    -4.340      1.617      2.172
REMARK INTER + INTRA:          -4.689
REMARK INTER:                  -4.725
REMARK INTRA:                   0.037
REMARK UNBOUND:                 0.032
REMARK SMILES C[C@H]1[C@H](C)CC[C@@]2(C(=O)[O-])CC[C@]3(C)C(=CC[C@@H]4[C@]5(C)CC[C@@H](O)C(C)(C)[C@@H]5CC[C@@]43C)[C@H]12
REMARK SMILES IDX 7 1 6 2 11 3 33 4 5 5 12 6 15 7 2 8 3 9 13 10 16 11 1 12
REMARK SMILES IDX 4 13 14 14 31 15 17 16 18 17 30 18 32 19 19 20 29 21 28 22
REMARK SMILES IDX 21 23 20 24 25 25 22 26 23 27 26 28 27 29 8 30 9 31 10 32
REMARK SMILES IDX 24 33
REMARK H PARENT 24 34
REMARK Flexibility Score: inf
ROOT
ATOM      1  C   UNL     1       9.143   6.758  19.032  1.00  0.00     0.017 C 
ATOM      2  C   UNL     1      10.666   6.489  18.947  1.00  0.00     0.014 C 
ATOM      3  C   UNL     1       8.372   5.431  19.106  1.00  0.00     0.014 C 
ATOM      4  C   UNL     1       8.886   7.509  20.389  1.00  0.00     0.030 C 
ATOM      5  C   UNL     1      11.459   7.807  18.961  1.00  0.00     0.004 C 
ATOM      6  C   UNL     1       6.856   5.690  19.061  1.00  0.00     0.013 C 
ATOM      7  C   UNL     1       7.441   7.356  20.950  1.00  0.00    -0.063 C 
ATOM      8  C   UNL     1       9.609   8.914  20.402  1.00  0.00    -0.003 C 
ATOM      9  C   UNL     1      11.150   8.684  20.200  1.00  0.00    -0.011 C 
ATOM     10  C   UNL     1       6.295   6.717  20.135  1.00  0.00    -0.006 C 
ATOM     11  C   UNL     1       7.262   7.604  22.262  1.00  0.00    -0.027 C 
ATOM     12  C   UNL     1       9.352   9.763  21.662  1.00  0.00     0.008 C 
ATOM     13  C   UNL     1      11.939  10.001  20.082  1.00  0.00     0.008 C 
ATOM     14  C   UNL     1       5.638   7.913  19.379  1.00  0.00     0.017 C 
ATOM     15  C   UNL     1       5.197   5.972  21.069  1.00  0.00    -0.020 C 
ATOM     16  C   UNL     1       6.011   7.376  23.046  1.00  0.00     0.032 C 
ATOM     17  C   UNL     1       4.754   6.889  22.269  1.00  0.00     0.006 C 
ATOM     18  C   UNL     1       5.776   4.646  21.686  1.00  0.00     0.008 C 
ATOM     19  C   UNL     1       3.964   5.631  20.160  1.00  0.00     0.012 C 
ATOM     20  C   UNL     1       3.614   6.250  23.228  1.00  0.00    -0.025 C 
ATOM     21  C   UNL     1       5.214   4.212  23.067  1.00  0.00     0.005 C 
ATOM     22  C   UNL     1       3.749   4.657  23.327  1.00  0.00     0.003 C 
ATOM     23  C   UNL     1       3.662   6.925  24.652  1.00  0.00     0.010 C 
ATOM     24  C   UNL     1       2.216   6.619  22.622  1.00  0.00     0.012 C 
ATOM     25  C   UNL     1       3.045   3.957  24.584  1.00  0.00    -0.006 C 
ATOM     26  C   UNL     1       2.818   6.246  25.724  1.00  0.00     0.033 C 
ATOM     27  C   UNL     1       3.255   4.786  25.884  1.00  0.00     0.120 C 
ATOM     28  C   UNL     1       3.606   2.530  24.843  1.00  0.00     0.014 C 
ATOM     29  C   UNL     1       1.528   3.749  24.294  1.00  0.00     0.014 C 
ENDROOT
BRANCH   1  30
ATOM     30  C   UNL     1       8.744   7.458  17.721  1.00  0.00     0.048 C 
ATOM     31  O   UNL     1       8.276   8.623  17.684  1.00  0.00    -0.550 OA
ATOM     32  O   UNL     1       8.976   6.808  16.512  1.00  0.00    -0.550 OA
ENDBRANCH   1  30
BRANCH  27  33
ATOM     33  O   UNL     1       2.623   4.193  26.996  1.00  0.00    -0.393 OA
ATOM     34  H   UNL     1       3.263   4.185  27.754  1.00  0.00     0.210 HD
ENDBRANCH  27  33
TORSDOF 2
ENDMDL
MODEL 5
REMARK VINA RESULT:    -4.292      1.641      8.292
REMARK INTER + INTRA:          -4.636
REMARK INTER:                  -4.667
REMARK INTRA:                   0.030
REMARK UNBOUND:                 0.032
REMARK SMILES C[C@H]1[C@H](C)CC[C@@]2(C(=O)[O-])CC[C@]3(C)C(=CC[C@@H]4[C@]5(C)CC[C@@H](O)C(C)(C)[C@@H]5CC[C@@]43C)[C@H]12
REMARK SMILES IDX 7 1 6 2 11 3 33 4 5 5 12 6 15 7 2 8 3 9 13 10 16 11 1 12
REMARK SMILES IDX 4 13 14 14 31 15 17 16 18 17 30 18 32 19 19 20 29 21 28 22
REMARK SMILES IDX 21 23 20 24 25 25 22 26 23 27 26 28 27 29 8 30 9 31 10 32
REMARK SMILES IDX 24 33
REMARK H PARENT 24 34
REMARK Flexibility Score: inf
ROOT
ATOM      1  C   UNL     1       4.066   6.212  22.578  1.00  0.00     0.017 C 
ATOM      2  C   UNL     1       3.480   5.004  23.349  1.00  0.00     0.014 C 
ATOM      3  C   UNL     1       5.420   6.622  23.179  1.00  0.00     0.014 C 
ATOM      4  C   UNL     1       4.350   5.726  21.111  1.00  0.00     0.030 C 
ATOM      5  C   UNL     1       2.167   4.524  22.706  1.00  0.00     0.004 C 
ATOM      6  C   UNL     1       5.942   7.900  22.500  1.00  0.00     0.013 C 
ATOM      7  C   UNL     1       5.441   6.542  20.357  1.00  0.00    -0.063 C 
ATOM      8  C   UNL     1       3.008   5.314  20.383  1.00  0.00    -0.003 C 
ATOM      9  C   UNL     1       2.326   4.163  21.208  1.00  0.00    -0.011 C 
ATOM     10  C   UNL     1       6.031   7.856  20.914  1.00  0.00    -0.006 C 
ATOM     11  C   UNL     1       6.022   5.955  19.293  1.00  0.00    -0.027 C 
ATOM     12  C   UNL     1       3.172   4.896  18.909  1.00  0.00     0.008 C 
ATOM     13  C   UNL     1       0.949   3.764  20.647  1.00  0.00     0.008 C 
ATOM     14  C   UNL     1       5.109   8.974  20.338  1.00  0.00     0.017 C 
ATOM     15  C   UNL     1       7.568   8.102  20.455  1.00  0.00    -0.020 C 
ATOM     16  C   UNL     1       7.188   6.475  18.518  1.00  0.00     0.032 C 
ATOM     17  C   UNL     1       7.742   7.876  18.908  1.00  0.00     0.006 C 
ATOM     18  C   UNL     1       8.548   7.111  21.184  1.00  0.00     0.008 C 
ATOM     19  C   UNL     1       7.939   9.578  20.837  1.00  0.00     0.012 C 
ATOM     20  C   UNL     1       9.237   8.154  18.345  1.00  0.00    -0.025 C 
ATOM     21  C   UNL     1       9.834   6.704  20.413  1.00  0.00     0.005 C 
ATOM     22  C   UNL     1      10.356   7.787  19.430  1.00  0.00     0.003 C 
ATOM     23  C   UNL     1       9.462   7.373  16.994  1.00  0.00     0.010 C 
ATOM     24  C   UNL     1       9.338   9.677  17.985  1.00  0.00     0.012 C 
ATOM     25  C   UNL     1      11.837   7.535  18.873  1.00  0.00    -0.006 C 
ATOM     26  C   UNL     1      10.900   7.344  16.490  1.00  0.00     0.033 C 
ATOM     27  C   UNL     1      11.811   6.715  17.551  1.00  0.00     0.120 C 
ATOM     28  C   UNL     1      12.714   6.752  19.891  1.00  0.00     0.014 C 
ATOM     29  C   UNL     1      12.566   8.896  18.671  1.00  0.00     0.014 C 
ENDROOT
BRANCH   1  30
ATOM     30  C   UNL     1       3.089   7.383  22.784  1.00  0.00     0.048 C 
ATOM     31  O   UNL     1       2.446   7.911  21.844  1.00  0.00    -0.550 OA
ATOM     32  O   UNL     1       2.845   7.838  24.078  1.00  0.00    -0.550 OA
ENDBRANCH   1  30
BRANCH  27  33
ATOM     33  O   UNL     1      13.106   6.502  17.036  1.00  0.00    -0.393 OA
ATOM     34  H   UNL     1      13.027   6.003  16.182  1.00  0.00     0.210 HD
ENDBRANCH  27  33
TORSDOF 2
ENDMDL
MODEL 6
REMARK VINA RESULT:    -4.188     15.068     17.256
REMARK INTER + INTRA:          -4.524
REMARK INTER:                  -4.560
REMARK INTRA:                   0.036
REMARK UNBOUND:                 0.032
REMARK SMILES C[C@H]1[C@H](C)CC[C@@]2(C(=O)[O-])CC[C@]3(C)C(=CC[C@@H]4[C@]5(C)CC[C@@H](O)C(C)(C)[C@@H]5CC[C@@]43C)[C@H]12
REMARK SMILES IDX 7 1 6 2 11 3 33 4 5 5 12 6 15 7 2 8 3 9 13 10 16 11 1 12
REMARK SMILES IDX 4 13 14 14 31 15 17 16 18 17 30 18 32 19 19 20 29 21 28 22
REMARK SMILES IDX 21 23 20 24 25 25 22 26 23 27 26 28 27 29 8 30 9 31 10 32
REMARK SMILES IDX 24 33
REMARK H PARENT 24 34
REMARK Flexibility Score: inf
ROOT
ATOM      1  C   UNL     1      17.294  -4.881  22.960  1.00  0.00     0.017 C 
ATOM      2  C   UNL     1      17.193  -3.469  23.590  1.00  0.00     0.014 C 
ATOM      3  C   UNL     1      15.915  -5.340  22.461  1.00  0.00     0.014 C 
ATOM      4  C   UNL     1      18.217  -4.753  21.695  1.00  0.00     0.030 C 
ATOM      5  C   UNL     1      18.580  -2.956  24.017  1.00  0.00     0.004 C 
ATOM      6  C   UNL     1      15.986  -6.791  21.953  1.00  0.00     0.013 C 
ATOM      7  C   UNL     1      17.989  -5.852  20.614  1.00  0.00    -0.063 C 
ATOM      8  C   UNL     1      19.680  -4.320  22.105  1.00  0.00    -0.003 C 
ATOM      9  C   UNL     1      19.601  -2.940  22.852  1.00  0.00    -0.011 C 
ATOM     10  C   UNL     1      17.100  -7.090  20.860  1.00  0.00    -0.006 C 
ATOM     11  C   UNL     1      18.421  -5.584  19.366  1.00  0.00    -0.027 C 
ATOM     12  C   UNL     1      20.684  -4.244  20.939  1.00  0.00     0.008 C 
ATOM     13  C   UNL     1      20.965  -2.479  23.398  1.00  0.00     0.008 C 
ATOM     14  C   UNL     1      18.075  -8.165  21.431  1.00  0.00     0.017 C 
ATOM     15  C   UNL     1      16.392  -7.636  19.506  1.00  0.00    -0.020 C 
ATOM     16  C   UNL     1      18.178  -6.411  18.147  1.00  0.00     0.032 C 
ATOM     17  C   UNL     1      17.431  -7.763  18.332  1.00  0.00     0.006 C 
ATOM     18  C   UNL     1      15.257  -6.661  19.021  1.00  0.00     0.008 C 
ATOM     19  C   UNL     1      15.768  -9.038  19.838  1.00  0.00     0.012 C 
ATOM     20  C   UNL     1      16.825  -8.357  16.950  1.00  0.00    -0.025 C 
ATOM     21  C   UNL     1      14.987  -6.606  17.492  1.00  0.00     0.005 C 
ATOM     22  C   UNL     1      15.295  -7.931  16.744  1.00  0.00     0.003 C 
ATOM     23  C   UNL     1      17.720  -7.912  15.731  1.00  0.00     0.010 C 
ATOM     24  C   UNL     1      16.928  -9.920  17.014  1.00  0.00     0.012 C 
ATOM     25  C   UNL     1      14.727  -8.007  15.247  1.00  0.00    -0.006 C 
ATOM     26  C   UNL     1      17.127  -8.187  14.353  1.00  0.00     0.033 C 
ATOM     27  C   UNL     1      15.772  -7.484  14.219  1.00  0.00     0.120 C 
ATOM     28  C   UNL     1      13.436  -7.160  15.073  1.00  0.00     0.014 C 
ATOM     29  C   UNL     1      14.302  -9.469  14.916  1.00  0.00     0.014 C 
ENDROOT
BRANCH   1  30
ATOM     30  C   UNL     1      17.725  -5.836  24.087  1.00  0.00     0.048 C 
ATOM     31  O   UNL     1      18.834  -6.424  24.097  1.00  0.00    -0.550 OA
ATOM     32  O   UNL     1      16.885  -6.008  25.185  1.00  0.00    -0.550 OA
ENDBRANCH   1  30
BRANCH  27  33
ATOM     33  O   UNL     1      15.295  -7.564  12.895  1.00  0.00    -0.393 OA
ATOM     34  H   UNL     1      14.304  -7.597  12.920  1.00  0.00     0.210 HD
ENDBRANCH  27  33
TORSDOF 2
ENDMDL
MODEL 7
REMARK VINA RESULT:    -4.185      2.616      3.348
REMARK INTER + INTRA:          -4.520
REMARK INTER:                  -4.552
REMARK INTRA:                   0.033
REMARK UNBOUND:                 0.032
REMARK SMILES C[C@H]1[C@H](C)CC[C@@]2(C(=O)[O-])CC[C@]3(C)C(=CC[C@@H]4[C@]5(C)CC[C@@H](O)C(C)(C)[C@@H]5CC[C@@]43C)[C@H]12
REMARK SMILES IDX 7 1 6 2 11 3 33 4 5 5 12 6 15 7 2 8 3 9 13 10 16 11 1 12
REMARK SMILES IDX 4 13 14 14 31 15 17 16 18 17 30 18 32 19 19 20 29 21 28 22
REMARK SMILES IDX 21 23 20 24 25 25 22 26 23 27 26 28 27 29 8 30 9 31 10 32
REMARK SMILES IDX 24 33
REMARK H PARENT 24 34
REMARK Flexibility Score: inf
ROOT
ATOM      1  C   UNL     1      11.760   7.237  19.243  1.00  0.00     0.017 C 
ATOM      2  C   UNL     1      12.894   6.389  19.870  1.00  0.00     0.014 C 
ATOM      3  C   UNL     1      11.184   6.526  18.008  1.00  0.00     0.014 C 
ATOM      4  C   UNL     1      10.604   7.312  20.305  1.00  0.00     0.030 C 
ATOM      5  C   UNL     1      13.424   7.043  21.158  1.00  0.00     0.004 C 
ATOM      6  C   UNL     1      10.148   7.423  17.310  1.00  0.00     0.013 C 
ATOM      7  C   UNL     1       9.192   7.585  19.707  1.00  0.00    -0.063 C 
ATOM      8  C   UNL     1      11.084   8.066  21.609  1.00  0.00    -0.003 C 
ATOM      9  C   UNL     1      12.314   7.292  22.208  1.00  0.00    -0.011 C 
ATOM     10  C   UNL     1       8.976   7.976  18.228  1.00  0.00    -0.006 C 
ATOM     11  C   UNL     1       8.129   7.258  20.468  1.00  0.00    -0.027 C 
ATOM     12  C   UNL     1       9.996   8.261  22.682  1.00  0.00     0.008 C 
ATOM     13  C   UNL     1      12.933   8.008  23.422  1.00  0.00     0.008 C 
ATOM     14  C   UNL     1       9.037   9.534  18.222  1.00  0.00     0.017 C 
ATOM     15  C   UNL     1       7.550   7.467  17.645  1.00  0.00    -0.020 C 
ATOM     16  C   UNL     1       6.696   7.284  20.049  1.00  0.00     0.032 C 
ATOM     17  C   UNL     1       6.373   7.825  18.626  1.00  0.00     0.006 C 
ATOM     18  C   UNL     1       7.535   5.907  17.450  1.00  0.00     0.008 C 
ATOM     19  C   UNL     1       7.336   8.169  16.257  1.00  0.00     0.012 C 
ATOM     20  C   UNL     1       4.898   7.405  18.100  1.00  0.00    -0.025 C 
ATOM     21  C   UNL     1       6.163   5.194  17.601  1.00  0.00     0.005 C 
ATOM     22  C   UNL     1       4.944   6.073  17.212  1.00  0.00     0.003 C 
ATOM     23  C   UNL     1       3.910   7.255  19.319  1.00  0.00     0.010 C 
ATOM     24  C   UNL     1       4.342   8.589  17.236  1.00  0.00     0.012 C 
ATOM     25  C   UNL     1       3.564   5.275  17.047  1.00  0.00    -0.006 C 
ATOM     26  C   UNL     1       2.562   6.621  18.991  1.00  0.00     0.033 C 
ATOM     27  C   UNL     1       2.775   5.228  18.388  1.00  0.00     0.120 C 
ATOM     28  C   UNL     1       3.792   3.808  16.587  1.00  0.00     0.014 C 
ATOM     29  C   UNL     1       2.708   5.925  15.919  1.00  0.00     0.014 C 
ENDROOT
BRANCH   1  30
ATOM     30  C   UNL     1      12.404   8.552  18.767  1.00  0.00     0.048 C 
ATOM     31  O   UNL     1      12.108   9.671  19.251  1.00  0.00    -0.550 OA
ATOM     32  O   UNL     1      13.412   8.501  17.808  1.00  0.00    -0.550 OA
ENDBRANCH   1  30
BRANCH  27  33
ATOM     33  O   UNL     1       1.548   4.547  18.254  1.00  0.00    -0.393 OA
ATOM     34  H   UNL     1       0.951   5.087  17.673  1.00  0.00     0.210 HD
ENDBRANCH  27  33
TORSDOF 2
ENDMDL
MODEL 8
REMARK VINA RESULT:    -4.157      2.298      8.457
REMARK INTER + INTRA:          -4.490
REMARK INTER:                  -4.526
REMARK INTRA:                   0.036
REMARK UNBOUND:                 0.032
REMARK SMILES C[C@H]1[C@H](C)CC[C@@]2(C(=O)[O-])CC[C@]3(C)C(=CC[C@@H]4[C@]5(C)CC[C@@H](O)C(C)(C)[C@@H]5CC[C@@]43C)[C@H]12
REMARK SMILES IDX 7 1 6 2 11 3 33 4 5 5 12 6 15 7 2 8 3 9 13 10 16 11 1 12
REMARK SMILES IDX 4 13 14 14 31 15 17 16 18 17 30 18 32 19 19 20 29 21 28 22
REMARK SMILES IDX 21 23 20 24 25 25 22 26 23 27 26 28 27 29 8 30 9 31 10 32
REMARK SMILES IDX 24 33
REMARK H PARENT 24 34
REMARK Flexibility Score: inf
ROOT
ATOM      1  C   UNL     1       3.128   5.878  19.778  1.00  0.00     0.017 C 
ATOM      2  C   UNL     1       2.214   4.641  19.960  1.00  0.00     0.014 C 
ATOM      3  C   UNL     1       4.132   5.973  20.937  1.00  0.00     0.014 C 
ATOM      4  C   UNL     1       3.965   5.641  18.469  1.00  0.00     0.030 C 
ATOM      5  C   UNL     1       1.260   4.480  18.763  1.00  0.00     0.004 C 
ATOM      6  C   UNL     1       4.953   7.269  20.828  1.00  0.00     0.013 C 
ATOM      7  C   UNL     1       5.311   6.423  18.411  1.00  0.00    -0.063 C 
ATOM      8  C   UNL     1       3.023   5.566  17.203  1.00  0.00    -0.003 C 
ATOM      9  C   UNL     1       2.003   4.388  17.408  1.00  0.00    -0.011 C 
ATOM     10  C   UNL     1       5.685   7.513  19.439  1.00  0.00    -0.006 C 
ATOM     11  C   UNL     1       6.248   5.970  17.555  1.00  0.00    -0.027 C 
ATOM     12  C   UNL     1       3.758   5.414  15.856  1.00  0.00     0.008 C 
ATOM     13  C   UNL     1       0.961   4.299  16.278  1.00  0.00     0.008 C 
ATOM     14  C   UNL     1       5.143   8.838  18.821  1.00  0.00     0.017 C 
ATOM     15  C   UNL     1       7.285   7.622  19.686  1.00  0.00    -0.020 C 
ATOM     16  C   UNL     1       7.654   6.459  17.438  1.00  0.00     0.032 C 
ATOM     17  C   UNL     1       8.070   7.669  18.324  1.00  0.00     0.006 C 
ATOM     18  C   UNL     1       7.825   6.384  20.492  1.00  0.00     0.008 C 
ATOM     19  C   UNL     1       7.542   8.933  20.510  1.00  0.00     0.012 C 
ATOM     20  C   UNL     1       9.676   7.835  18.469  1.00  0.00    -0.025 C 
ATOM     21  C   UNL     1       9.292   5.953  20.215  1.00  0.00     0.005 C 
ATOM     22  C   UNL     1      10.228   7.117  19.790  1.00  0.00     0.003 C 
ATOM     23  C   UNL     1      10.397   7.299  17.174  1.00  0.00     0.010 C 
ATOM     24  C   UNL     1       9.995   9.369  18.537  1.00  0.00     0.012 C 
ATOM     25  C   UNL     1      11.791   6.768  19.815  1.00  0.00    -0.006 C 
ATOM     26  C   UNL     1      11.912   7.162  17.281  1.00  0.00     0.033 C 
ATOM     27  C   UNL     1      12.270   6.224  18.438  1.00  0.00     0.120 C 
ATOM     28  C   UNL     1      12.129   5.694  20.886  1.00  0.00     0.014 C 
ATOM     29  C   UNL     1      12.609   8.027  20.231  1.00  0.00     0.014 C 
ENDROOT
BRANCH   1  30
ATOM     30  C   UNL     1       2.214   7.115  19.848  1.00  0.00     0.048 C 
ATOM     31  O   UNL     1       2.015   7.873  18.868  1.00  0.00    -0.550 OA
ATOM     32  O   UNL     1       1.517   7.372  21.026  1.00  0.00    -0.550 OA
ENDBRANCH   1  30
BRANCH  27  33
ATOM     33  O   UNL     1      13.649   5.932  18.437  1.00  0.00    -0.393 OA
ATOM     34  H   UNL     1      13.824   5.241  17.746  1.00  0.00     0.210 HD
ENDBRANCH  27  33
TORSDOF 2
ENDMDL
MODEL 9
REMARK VINA RESULT:    -4.153      4.219      8.242
REMARK INTER + INTRA:          -4.485
REMARK INTER:                  -4.515
REMARK INTRA:                   0.030
REMARK UNBOUND:                 0.032
REMARK SMILES C[C@H]1[C@H](C)CC[C@@]2(C(=O)[O-])CC[C@]3(C)C(=CC[C@@H]4[C@]5(C)CC[C@@H](O)C(C)(C)[C@@H]5CC[C@@]43C)[C@H]12
REMARK SMILES IDX 7 1 6 2 11 3 33 4 5 5 12 6 15 7 2 8 3 9 13 10 16 11 1 12
REMARK SMILES IDX 4 13 14 14 31 15 17 16 18 17 30 18 32 19 19 20 29 21 28 22
REMARK SMILES IDX 21 23 20 24 25 25 22 26 23 27 26 28 27 29 8 30 9 31 10 32
REMARK SMILES IDX 24 33
REMARK H PARENT 24 34
REMARK Flexibility Score: inf
ROOT
ATOM      1  C   UNL     1       5.479   7.846  16.091  1.00  0.00     0.017 C 
ATOM      2  C   UNL     1       3.960   7.987  16.355  1.00  0.00     0.014 C 
ATOM      3  C   UNL     1       6.224   9.093  16.593  1.00  0.00     0.014 C 
ATOM      4  C   UNL     1       5.984   6.636  16.958  1.00  0.00     0.030 C 
ATOM      5  C   UNL     1       3.208   6.711  15.939  1.00  0.00     0.004 C 
ATOM      6  C   UNL     1       7.714   9.013  16.217  1.00  0.00     0.013 C 
ATOM      7  C   UNL     1       7.501   6.679  17.308  1.00  0.00    -0.063 C 
ATOM      8  C   UNL     1       5.303   5.288  16.495  1.00  0.00    -0.003 C 
ATOM      9  C   UNL     1       3.746   5.439  16.641  1.00  0.00    -0.011 C 
ATOM     10  C   UNL     1       8.474   7.694  16.670  1.00  0.00    -0.006 C 
ATOM     11  C   UNL     1       7.911   5.937  18.356  1.00  0.00    -0.027 C 
ATOM     12  C   UNL     1       5.792   4.027  17.234  1.00  0.00     0.008 C 
ATOM     13  C   UNL     1       2.976   4.217  16.107  1.00  0.00     0.008 C 
ATOM     14  C   UNL     1       9.013   6.973  15.397  1.00  0.00     0.017 C 
ATOM     15  C   UNL     1       9.703   8.092  17.653  1.00  0.00    -0.020 C 
ATOM     16  C   UNL     1       9.274   5.939  18.966  1.00  0.00     0.032 C 
ATOM     17  C   UNL     1      10.366   6.812  18.283  1.00  0.00     0.006 C 
ATOM     18  C   UNL     1       9.213   8.996  18.844  1.00  0.00     0.008 C 
ATOM     19  C   UNL     1      10.751   8.884  16.794  1.00  0.00     0.012 C 
ATOM     20  C   UNL     1      11.642   7.107  19.238  1.00  0.00    -0.025 C 
ATOM     21  C   UNL     1       9.998   8.881  20.179  1.00  0.00     0.005 C 
ATOM     22  C   UNL     1      11.494   8.503  20.008  1.00  0.00     0.003 C 
ATOM     23  C   UNL     1      11.856   5.911  20.242  1.00  0.00     0.010 C 
ATOM     24  C   UNL     1      12.921   7.144  18.331  1.00  0.00     0.012 C 
ATOM     25  C   UNL     1      12.392   8.695  21.321  1.00  0.00    -0.006 C 
ATOM     26  C   UNL     1      12.861   6.171  21.359  1.00  0.00     0.033 C 
ATOM     27  C   UNL     1      12.429   7.394  22.175  1.00  0.00     0.120 C 
ATOM     28  C   UNL     1      11.856   9.836  22.230  1.00  0.00     0.014 C 
ATOM     29  C   UNL     1      13.831   9.138  20.919  1.00  0.00     0.014 C 
ENDROOT
BRANCH   1  30
ATOM     30  C   UNL     1       5.658   7.777  14.564  1.00  0.00     0.048 C 
ATOM     31  O   UNL     1       6.112   6.766  13.975  1.00  0.00    -0.550 OA
ATOM     32  O   UNL     1       5.233   8.851  13.786  1.00  0.00    -0.550 OA
ENDBRANCH   1  30
BRANCH  27  33
ATOM     33  O   UNL     1      13.232   7.540  23.324  1.00  0.00    -0.393 OA
ATOM     34  H   UNL     1      14.169   7.317  23.082  1.00  0.00     0.210 HD
ENDBRANCH  27  33
TORSDOF 2
ENDMDL
