MODEL 1
REMARK VINA RESULT:    -3.769      0.000      0.000
REMARK INTER + INTRA:          -8.151
REMARK INTER:                  -6.413
REMARK INTRA:                  -1.739
REMARK UNBOUND:                -1.739
REMARK SMILES CCCCCCCCCCCCCC(=O)[O-]
REMARK SMILES IDX 8 1 9 2 10 3 11 4 12 5 13 6 14 7 15 8 16 9 7 10 6 11 5 12
REMARK SMILES IDX 4 13 3 14 2 15 1 16
REMARK H PARENT
REMARK Flexibility Score: inf
ROOT
ATOM      1  C   UNL     1       1.878  -1.910  -6.036  1.00  0.00     0.000 C 
ENDROOT
BRANCH   1   2
ATOM      2  C   UNL     1       1.008  -0.781  -6.618  1.00  0.00     0.000 C 
BRANCH   2   3
ATOM      3  C   UNL     1       0.006  -1.226  -7.699  1.00  0.00     0.000 C 
BRANCH   3   4
ATOM      4  C   UNL     1       0.145  -0.434  -9.008  1.00  0.00     0.000 C 
BRANCH   4   5
ATOM      5  C   UNL     1      -1.233  -0.067  -9.578  1.00  0.00     0.006 C 
BRANCH   5   6
ATOM      6  C   UNL     1      -2.335  -0.124  -8.512  1.00  0.00     0.053 C 
BRANCH   6   7
ATOM      7  C   UNL     1      -3.692  -0.307  -9.123  1.00  0.00     0.041 C 
ATOM      8  O   UNL     1      -4.574   0.581  -8.982  1.00  0.00    -0.550 OA
ATOM      9  O   UNL     1      -3.992  -1.471  -9.817  1.00  0.00    -0.550 OA
ENDBRANCH   6   7
ENDBRANCH   5   6
ENDBRANCH   4   5
ENDBRANCH   3   4
ENDBRANCH   2   3
ENDBRANCH   1   2
BRANCH   1  10
ATOM     10  C   UNL     1       1.153  -3.266  -5.998  1.00  0.00     0.000 C 
BRANCH  10  11
ATOM     11  C   UNL     1       2.127  -4.454  -6.013  1.00  0.00    -0.000 C 
BRANCH  11  12
ATOM     12  C   UNL     1       2.690  -4.737  -7.418  1.00  0.00    -0.000 C 
BRANCH  12  13
ATOM     13  C   UNL     1       1.653  -4.512  -8.529  1.00  0.00    -0.000 C 
BRANCH  13  14
ATOM     14  C   UNL     1       2.154  -3.543  -9.614  1.00  0.00    -0.000 C 
BRANCH  14  15
ATOM     15  C   UNL     1       3.590  -3.060  -9.353  1.00  0.00    -0.003 C 
ATOM     16  C   UNL     1       3.682  -1.544  -9.183  1.00  0.00     0.004 C 
ENDBRANCH  14  15
ENDBRANCH  13  14
ENDBRANCH  12  13
ENDBRANCH  11  12
ENDBRANCH  10  11
ENDBRANCH   1  10
TORSDOF 12
ENDMDL
MODEL 2
REMARK VINA RESULT:    -3.741      3.858      5.106
REMARK INTER + INTRA:          -8.104
REMARK INTER:                  -6.755
REMARK INTRA:                  -1.349
REMARK UNBOUND:                -1.739
REMARK SMILES CCCCCCCCCCCCCC(=O)[O-]
REMARK SMILES IDX 8 1 9 2 10 3 11 4 12 5 13 6 14 7 15 8 16 9 7 10 6 11 5 12
REMARK SMILES IDX 4 13 3 14 2 15 1 16
REMARK H PARENT
REMARK Flexibility Score: inf
ROOT
ATOM      1  C   UNL     1       1.983  -1.925  -6.202  1.00  0.00     0.000 C 
ENDROOT
BRANCH   1   2
ATOM      2  C   UNL     1       0.948  -0.963  -6.813  1.00  0.00     0.000 C 
BRANCH   2   3
ATOM      3  C   UNL     1       0.335  -1.431  -8.146  1.00  0.00     0.000 C 
BRANCH   3   4
ATOM      4  C   UNL     1       1.125  -0.949  -9.372  1.00  0.00     0.000 C 
BRANCH   4   5
ATOM      5  C   UNL     1       2.352  -1.838  -9.620  1.00  0.00     0.006 C 
BRANCH   5   6
ATOM      6  C   UNL     1       3.558  -1.035 -10.125  1.00  0.00     0.053 C 
BRANCH   6   7
ATOM      7  C   UNL     1       4.855  -1.625  -9.660  1.00  0.00     0.041 C 
ATOM      8  O   UNL     1       5.596  -0.981  -8.870  1.00  0.00    -0.550 OA
ATOM      9  O   UNL     1       5.262  -2.868 -10.125  1.00  0.00    -0.550 OA
ENDBRANCH   6   7
ENDBRANCH   5   6
ENDBRANCH   4   5
ENDBRANCH   3   4
ENDBRANCH   2   3
ENDBRANCH   1   2
BRANCH   1  10
ATOM     10  C   UNL     1       1.368  -3.265  -5.762  1.00  0.00     0.000 C 
BRANCH  10  11
ATOM     11  C   UNL     1       2.234  -4.469  -6.163  1.00  0.00    -0.000 C 
BRANCH  11  12
ATOM     12  C   UNL     1       1.987  -4.913  -7.617  1.00  0.00    -0.000 C 
BRANCH  12  13
ATOM     13  C   UNL     1       0.496  -5.107  -7.934  1.00  0.00    -0.000 C 
BRANCH  13  14
ATOM     14  C   UNL     1       0.197  -5.012  -9.440  1.00  0.00    -0.000 C 
BRANCH  14  15
ATOM     15  C   UNL     1      -0.994  -5.889  -9.860  1.00  0.00    -0.003 C 
ATOM     16  C   UNL     1      -1.038  -7.223  -9.115  1.00  0.00     0.004 C 
ENDBRANCH  14  15
ENDBRANCH  13  14
ENDBRANCH  12  13
ENDBRANCH  11  12
ENDBRANCH  10  11
ENDBRANCH   1  10
TORSDOF 12
ENDMDL
MODEL 3
REMARK VINA RESULT:    -3.701     16.741     18.302
REMARK INTER + INTRA:          -8.037
REMARK INTER:                  -7.135
REMARK INTRA:                  -0.902
REMARK UNBOUND:                -1.739
REMARK SMILES CCCCCCCCCCCCCC(=O)[O-]
REMARK SMILES IDX 8 1 9 2 10 3 11 4 12 5 13 6 14 7 15 8 16 9 7 10 6 11 5 12
REMARK SMILES IDX 4 13 3 14 2 15 1 16
REMARK H PARENT
REMARK Flexibility Score: inf
ROOT
ATOM      1  C   UNL     1       7.881   4.093   4.875  1.00  0.00     0.000 C 
ENDROOT
BRANCH   1   2
ATOM      2  C   UNL     1       9.266   4.089   4.204  1.00  0.00     0.000 C 
BRANCH   2   3
ATOM      3  C   UNL     1      10.123   5.338   4.477  1.00  0.00     0.000 C 
BRANCH   3   4
ATOM      4  C   UNL     1       9.558   6.608   3.822  1.00  0.00     0.000 C 
BRANCH   4   5
ATOM      5  C   UNL     1       9.691   7.817   4.759  1.00  0.00     0.006 C 
BRANCH   5   6
ATOM      6  C   UNL     1       8.399   8.641   4.831  1.00  0.00     0.053 C 
BRANCH   6   7
ATOM      7  C   UNL     1       8.301   9.623   3.704  1.00  0.00     0.041 C 
ATOM      8  O   UNL     1       7.175  10.037   3.321  1.00  0.00    -0.550 OA
ATOM      9  O   UNL     1       9.449  10.054   3.052  1.00  0.00    -0.550 OA
ENDBRANCH   6   7
ENDBRANCH   5   6
ENDBRANCH   4   5
ENDBRANCH   3   4
ENDBRANCH   2   3
ENDBRANCH   1   2
BRANCH   1  10
ATOM     10  C   UNL     1       7.682   2.917   5.847  1.00  0.00     0.000 C 
BRANCH  10  11
ATOM     11  C   UNL     1       9.014   2.328   6.337  1.00  0.00    -0.000 C 
BRANCH  11  12
ATOM     12  C   UNL     1       9.533   3.023   7.610  1.00  0.00    -0.000 C 
BRANCH  12  13
ATOM     13  C   UNL     1       9.288   2.194   8.880  1.00  0.00    -0.000 C 
BRANCH  13  14
ATOM     14  C   UNL     1       9.021   0.710   8.573  1.00  0.00    -0.000 C 
BRANCH  14  15
ATOM     15  C   UNL     1       7.864   0.136   9.407  1.00  0.00    -0.003 C 
ATOM     16  C   UNL     1       6.602   0.994   9.339  1.00  0.00     0.004 C 
ENDBRANCH  14  15
ENDBRANCH  13  14
ENDBRANCH  12  13
ENDBRANCH  11  12
ENDBRANCH  10  11
ENDBRANCH   1  10
TORSDOF 12
ENDMDL
MODEL 4
REMARK VINA RESULT:    -3.686      1.516      2.503
REMARK INTER + INTRA:          -8.011
REMARK INTER:                  -6.685
REMARK INTRA:                  -1.325
REMARK UNBOUND:                -1.739
REMARK SMILES CCCCCCCCCCCCCC(=O)[O-]
REMARK SMILES IDX 8 1 9 2 10 3 11 4 12 5 13 6 14 7 15 8 16 9 7 10 6 11 5 12
REMARK SMILES IDX 4 13 3 14 2 15 1 16
REMARK H PARENT
REMARK Flexibility Score: inf
ROOT
ATOM      1  C   UNL     1       0.556  -1.125  -7.172  1.00  0.00     0.000 C 
ENDROOT
BRANCH   1   2
ATOM      2  C   UNL     1       1.217  -0.993  -8.556  1.00  0.00     0.000 C 
BRANCH   2   3
ATOM      3  C   UNL     1       0.328  -1.410  -9.741  1.00  0.00     0.000 C 
BRANCH   3   4
ATOM      4  C   UNL     1      -1.113  -1.741  -9.323  1.00  0.00     0.000 C 
BRANCH   4   5
ATOM      5  C   UNL     1      -2.088  -0.655  -9.802  1.00  0.00     0.006 C 
BRANCH   5   6
ATOM      6  C   UNL     1      -3.536  -0.952  -9.391  1.00  0.00     0.053 C 
BRANCH   6   7
ATOM      7  C   UNL     1      -4.280   0.297  -9.027  1.00  0.00     0.041 C 
ATOM      8  O   UNL     1      -3.650   1.329  -8.676  1.00  0.00    -0.550 OA
ATOM      9  O   UNL     1      -5.668   0.310  -9.042  1.00  0.00    -0.550 OA
ENDBRANCH   6   7
ENDBRANCH   5   6
ENDBRANCH   4   5
ENDBRANCH   3   4
ENDBRANCH   2   3
ENDBRANCH   1   2
BRANCH   1  10
ATOM     10  C   UNL     1       1.555  -1.508  -6.066  1.00  0.00     0.000 C 
BRANCH  10  11
ATOM     11  C   UNL     1       2.425  -2.714  -6.451  1.00  0.00    -0.000 C 
BRANCH  11  12
ATOM     12  C   UNL     1       1.823  -4.050  -5.978  1.00  0.00    -0.000 C 
BRANCH  12  13
ATOM     13  C   UNL     1       0.852  -4.659  -7.003  1.00  0.00    -0.000 C 
BRANCH  13  14
ATOM     14  C   UNL     1       1.457  -4.734  -8.415  1.00  0.00    -0.000 C 
BRANCH  14  15
ATOM     15  C   UNL     1       0.592  -5.557  -9.383  1.00  0.00    -0.003 C 
ATOM     16  C   UNL     1      -0.535  -6.309  -8.676  1.00  0.00     0.004 C 
ENDBRANCH  14  15
ENDBRANCH  13  14
ENDBRANCH  12  13
ENDBRANCH  11  12
ENDBRANCH  10  11
ENDBRANCH   1  10
TORSDOF 12
ENDMDL
MODEL 5
REMARK VINA RESULT:    -3.679      4.055      5.766
REMARK INTER + INTRA:          -7.999
REMARK INTER:                  -7.225
REMARK INTRA:                  -0.774
REMARK UNBOUND:                -1.739
REMARK SMILES CCCCCCCCCCCCCC(=O)[O-]
REMARK SMILES IDX 8 1 9 2 10 3 11 4 12 5 13 6 14 7 15 8 16 9 7 10 6 11 5 12
REMARK SMILES IDX 4 13 3 14 2 15 1 16
REMARK H PARENT
REMARK Flexibility Score: inf
ROOT
ATOM      1  C   UNL     1       0.837  -4.693  -8.309  1.00  0.00     0.000 C 
ENDROOT
BRANCH   1   2
ATOM      2  C   UNL     1       0.845  -4.877  -6.781  1.00  0.00     0.000 C 
BRANCH   2   3
ATOM      3  C   UNL     1       1.148  -3.600  -5.975  1.00  0.00     0.000 C 
BRANCH   3   4
ATOM      4  C   UNL     1       2.492  -2.958  -6.352  1.00  0.00     0.000 C 
BRANCH   4   5
ATOM      5  C   UNL     1       2.278  -1.634  -7.101  1.00  0.00     0.006 C 
BRANCH   5   6
ATOM      6  C   UNL     1       0.833  -1.131  -6.989  1.00  0.00     0.053 C 
BRANCH   6   7
ATOM      7  C   UNL     1       0.283  -0.716  -8.320  1.00  0.00     0.041 C 
ATOM      8  O   UNL     1      -0.619  -1.400  -8.872  1.00  0.00    -0.550 OA
ATOM      9  O   UNL     1       0.790   0.404  -8.965  1.00  0.00    -0.550 OA
ENDBRANCH   6   7
ENDBRANCH   5   6
ENDBRANCH   4   5
ENDBRANCH   3   4
ENDBRANCH   2   3
ENDBRANCH   1   2
BRANCH   1  10
ATOM     10  C   UNL     1       0.634  -6.014  -9.071  1.00  0.00     0.000 C 
BRANCH  10  11
ATOM     11  C   UNL     1      -0.808  -6.533  -8.974  1.00  0.00    -0.000 C 
BRANCH  11  12
ATOM     12  C   UNL     1      -0.938  -8.000  -9.423  1.00  0.00    -0.000 C 
BRANCH  12  13
ATOM     13  C   UNL     1      -2.349  -8.567  -9.199  1.00  0.00    -0.000 C 
BRANCH  13  14
ATOM     14  C   UNL     1      -3.311  -7.530  -8.593  1.00  0.00    -0.000 C 
BRANCH  14  15
ATOM     15  C   UNL     1      -4.421  -8.179  -7.752  1.00  0.00    -0.003 C 
ATOM     16  C   UNL     1      -4.539  -9.684  -7.986  1.00  0.00     0.004 C 
ENDBRANCH  14  15
ENDBRANCH  13  14
ENDBRANCH  12  13
ENDBRANCH  11  12
ENDBRANCH  10  11
ENDBRANCH   1  10
TORSDOF 12
ENDMDL
MODEL 6
REMARK VINA RESULT:    -3.587      1.761      3.107
REMARK INTER + INTRA:          -7.842
REMARK INTER:                  -6.740
REMARK INTRA:                  -1.101
REMARK UNBOUND:                -1.739
REMARK SMILES CCCCCCCCCCCCCC(=O)[O-]
REMARK SMILES IDX 8 1 9 2 10 3 11 4 12 5 13 6 14 7 15 8 16 9 7 10 6 11 5 12
REMARK SMILES IDX 4 13 3 14 2 15 1 16
REMARK H PARENT
REMARK Flexibility Score: inf
ROOT
ATOM      1  C   UNL     1      -0.084  -1.022  -7.802  1.00  0.00     0.000 C 
ENDROOT
BRANCH   1   2
ATOM      2  C   UNL     1      -0.403  -1.238  -9.293  1.00  0.00     0.000 C 
BRANCH   2   3
ATOM      3  C   UNL     1      -1.875  -1.010  -9.681  1.00  0.00     0.000 C 
BRANCH   3   4
ATOM      4  C   UNL     1      -2.609  -0.063  -8.719  1.00  0.00     0.000 C 
BRANCH   4   5
ATOM      5  C   UNL     1      -4.101   0.032  -9.073  1.00  0.00     0.006 C 
BRANCH   5   6
ATOM      6  C   UNL     1      -4.761  -1.348  -9.177  1.00  0.00     0.053 C 
BRANCH   6   7
ATOM      7  C   UNL     1      -5.935  -1.476  -8.255  1.00  0.00     0.041 C 
ATOM      8  O   UNL     1      -6.236  -2.596  -7.764  1.00  0.00    -0.550 OA
ATOM      9  O   UNL     1      -6.717  -0.366  -7.965  1.00  0.00    -0.550 OA
ENDBRANCH   6   7
ENDBRANCH   5   6
ENDBRANCH   4   5
ENDBRANCH   3   4
ENDBRANCH   2   3
ENDBRANCH   1   2
BRANCH   1  10
ATOM     10  C   UNL     1       1.421  -1.107  -7.494  1.00  0.00     0.000 C 
BRANCH  10  11
ATOM     11  C   UNL     1       1.710  -1.826  -6.167  1.00  0.00    -0.000 C 
BRANCH  11  12
ATOM     12  C   UNL     1       2.693  -2.999  -6.335  1.00  0.00    -0.000 C 
BRANCH  12  13
ATOM     13  C   UNL     1       2.060  -4.358  -5.996  1.00  0.00    -0.000 C 
BRANCH  13  14
ATOM     14  C   UNL     1       0.793  -4.639  -6.823  1.00  0.00    -0.000 C 
BRANCH  14  15
ATOM     15  C   UNL     1       1.114  -5.085  -8.258  1.00  0.00    -0.003 C 
ATOM     16  C   UNL     1      -0.052  -4.865  -9.221  1.00  0.00     0.004 C 
ENDBRANCH  14  15
ENDBRANCH  13  14
ENDBRANCH  12  13
ENDBRANCH  11  12
ENDBRANCH  10  11
ENDBRANCH   1  10
TORSDOF 12
ENDMDL
MODEL 7
REMARK VINA RESULT:    -3.512      4.184      6.142
REMARK INTER + INTRA:          -7.714
REMARK INTER:                  -6.628
REMARK INTRA:                  -1.086
REMARK UNBOUND:                -1.739
REMARK SMILES CCCCCCCCCCCCCC(=O)[O-]
REMARK SMILES IDX 8 1 9 2 10 3 11 4 12 5 13 6 14 7 15 8 16 9 7 10 6 11 5 12
REMARK SMILES IDX 4 13 3 14 2 15 1 16
REMARK H PARENT
REMARK Flexibility Score: inf
ROOT
ATOM      1  C   UNL     1      -0.419  -4.408  -9.649  1.00  0.00     0.000 C 
ENDROOT
BRANCH   1   2
ATOM      2  C   UNL     1      -0.239  -5.605  -8.698  1.00  0.00     0.000 C 
BRANCH   2   3
ATOM      3  C   UNL     1       0.222  -6.908  -9.375  1.00  0.00     0.000 C 
BRANCH   3   4
ATOM      4  C   UNL     1      -0.910  -7.933  -9.539  1.00  0.00     0.000 C 
BRANCH   4   5
ATOM      5  C   UNL     1      -2.123  -7.555  -8.677  1.00  0.00     0.006 C 
BRANCH   5   6
ATOM      6  C   UNL     1      -3.394  -8.301  -9.103  1.00  0.00     0.053 C 
BRANCH   6   7
ATOM      7  C   UNL     1      -4.326  -8.520  -7.950  1.00  0.00     0.041 C 
ATOM      8  O   UNL     1      -4.893  -7.539  -7.400  1.00  0.00    -0.550 OA
ATOM      9  O   UNL     1      -4.540  -9.801  -7.461  1.00  0.00    -0.550 OA
ENDBRANCH   6   7
ENDBRANCH   5   6
ENDBRANCH   4   5
ENDBRANCH   3   4
ENDBRANCH   2   3
ENDBRANCH   1   2
BRANCH   1  10
ATOM     10  C   UNL     1       0.781  -3.445  -9.634  1.00  0.00     0.000 C 
BRANCH  10  11
ATOM     11  C   UNL     1       0.356  -1.978  -9.471  1.00  0.00    -0.000 C 
BRANCH  11  12
ATOM     12  C   UNL     1       1.280  -1.200  -8.516  1.00  0.00    -0.000 C 
BRANCH  12  13
ATOM     13  C   UNL     1       0.818  -1.274  -7.052  1.00  0.00    -0.000 C 
BRANCH  13  14
ATOM     14  C   UNL     1       1.741  -2.150  -6.187  1.00  0.00    -0.000 C 
BRANCH  14  15
ATOM     15  C   UNL     1       1.146  -3.540  -5.913  1.00  0.00    -0.003 C 
ATOM     16  C   UNL     1       2.196  -4.650  -5.939  1.00  0.00     0.004 C 
ENDBRANCH  14  15
ENDBRANCH  13  14
ENDBRANCH  12  13
ENDBRANCH  11  12
ENDBRANCH  10  11
ENDBRANCH   1  10
TORSDOF 12
ENDMDL
MODEL 8
REMARK VINA RESULT:    -3.476     17.123     18.873
REMARK INTER + INTRA:          -7.653
REMARK INTER:                  -6.914
REMARK INTRA:                  -0.739
REMARK UNBOUND:                -1.739
REMARK SMILES CCCCCCCCCCCCCC(=O)[O-]
REMARK SMILES IDX 8 1 9 2 10 3 11 4 12 5 13 6 14 7 15 8 16 9 7 10 6 11 5 12
REMARK SMILES IDX 4 13 3 14 2 15 1 16
REMARK H PARENT
REMARK Flexibility Score: inf
ROOT
ATOM      1  C   UNL     1       8.706   4.529   4.506  1.00  0.00     0.000 C 
ENDROOT
BRANCH   1   2
ATOM      2  C   UNL     1       8.929   3.103   5.042  1.00  0.00     0.000 C 
BRANCH   2   3
ATOM      3  C   UNL     1       8.478   2.879   6.496  1.00  0.00     0.000 C 
BRANCH   3   4
ATOM      4  C   UNL     1       9.637   2.948   7.502  1.00  0.00     0.000 C 
BRANCH   4   5
ATOM      5  C   UNL     1       9.279   2.220   8.806  1.00  0.00     0.006 C 
BRANCH   5   6
ATOM      6  C   UNL     1       8.868   0.762   8.563  1.00  0.00     0.053 C 
BRANCH   6   7
ATOM      7  C   UNL     1       7.616   0.405   9.307  1.00  0.00     0.041 C 
ATOM      8  O   UNL     1       7.586  -0.619  10.040  1.00  0.00    -0.550 OA
ATOM      9  O   UNL     1       6.474   1.182   9.163  1.00  0.00    -0.550 OA
ENDBRANCH   6   7
ENDBRANCH   5   6
ENDBRANCH   4   5
ENDBRANCH   3   4
ENDBRANCH   2   3
ENDBRANCH   1   2
BRANCH   1  10
ATOM     10  C   UNL     1       9.988   5.161   3.935  1.00  0.00     0.000 C 
BRANCH  10  11
ATOM     11  C   UNL     1       9.929   6.696   3.920  1.00  0.00    -0.000 C 
BRANCH  11  12
ATOM     12  C   UNL     1       8.624   7.242   4.527  1.00  0.00    -0.000 C 
BRANCH  12  13
ATOM     13  C   UNL     1       8.790   8.646   5.129  1.00  0.00    -0.000 C 
BRANCH  13  14
ATOM     14  C   UNL     1       9.207   9.690   4.079  1.00  0.00    -0.000 C 
BRANCH  14  15
ATOM     15  C   UNL     1       8.036  10.125   3.183  1.00  0.00    -0.003 C 
ATOM     16  C   UNL     1       8.247   9.762   1.714  1.00  0.00     0.004 C 
ENDBRANCH  14  15
ENDBRANCH  13  14
ENDBRANCH  12  13
ENDBRANCH  11  12
ENDBRANCH  10  11
ENDBRANCH   1  10
TORSDOF 12
ENDMDL
MODEL 9
REMARK VINA RESULT:    -3.435     12.105     13.611
REMARK INTER + INTRA:          -7.584
REMARK INTER:                  -6.476
REMARK INTRA:                  -1.108
REMARK UNBOUND:                -1.739
REMARK SMILES CCCCCCCCCCCCCC(=O)[O-]
REMARK SMILES IDX 8 1 9 2 10 3 11 4 12 5 13 6 14 7 15 8 16 9 7 10 6 11 5 12
REMARK SMILES IDX 4 13 3 14 2 15 1 16
REMARK H PARENT
REMARK Flexibility Score: inf
ROOT
ATOM      1  C   UNL     1      -6.007  -6.702   4.304  1.00  0.00     0.000 C 
ENDROOT
BRANCH   1   2
ATOM      2  C   UNL     1      -5.241  -5.722   5.210  1.00  0.00     0.000 C 
BRANCH   2   3
ATOM      3  C   UNL     1      -6.037  -4.476   5.638  1.00  0.00     0.000 C 
BRANCH   3   4
ATOM      4  C   UNL     1      -5.696  -3.231   4.804  1.00  0.00     0.000 C 
BRANCH   4   5
ATOM      5  C   UNL     1      -6.611  -3.125   3.575  1.00  0.00     0.006 C 
BRANCH   5   6
ATOM      6  C   UNL     1      -6.236  -1.942   2.673  1.00  0.00     0.053 C 
BRANCH   6   7
ATOM      7  C   UNL     1      -6.564  -2.211   1.236  1.00  0.00     0.041 C 
ATOM      8  O   UNL     1      -5.647  -2.494   0.420  1.00  0.00    -0.550 OA
ATOM      9  O   UNL     1      -7.875  -2.115   0.790  1.00  0.00    -0.550 OA
ENDBRANCH   6   7
ENDBRANCH   5   6
ENDBRANCH   4   5
ENDBRANCH   3   4
ENDBRANCH   2   3
ENDBRANCH   1   2
BRANCH   1  10
ATOM     10  C   UNL     1      -5.277  -8.044   4.120  1.00  0.00     0.000 C 
BRANCH  10  11
ATOM     11  C   UNL     1      -5.626  -8.726   2.789  1.00  0.00    -0.000 C 
BRANCH  11  12
ATOM     12  C   UNL     1      -7.069  -9.262   2.762  1.00  0.00    -0.000 C 
BRANCH  12  13
ATOM     13  C   UNL     1      -7.766  -9.024   1.413  1.00  0.00    -0.000 C 
BRANCH  13  14
ATOM     14  C   UNL     1      -6.798  -8.515   0.332  1.00  0.00    -0.000 C 
BRANCH  14  15
ATOM     15  C   UNL     1      -7.217  -7.149  -0.237  1.00  0.00    -0.003 C 
ATOM     16  C   UNL     1      -7.257  -6.052   0.826  1.00  0.00     0.004 C 
ENDBRANCH  14  15
ENDBRANCH  13  14
ENDBRANCH  12  13
ENDBRANCH  11  12
ENDBRANCH  10  11
ENDBRANCH   1  10
TORSDOF 12
ENDMDL
