MODEL 1
REMARK VINA RESULT:    -5.702      0.000      0.000
REMARK INTER + INTRA:         -15.820
REMARK INTER:                 -14.368
REMARK INTRA:                  -1.452
REMARK UNBOUND:                -1.452
REMARK SMILES CCCCCCCCCCCCCCCCCCCCCCCCCCCC(=O)[O-]
REMARK SMILES IDX 15 1 16 2 17 3 18 4 19 5 20 6 21 7 22 8 23 9 24 10 25 11
REMARK SMILES IDX 26 12 27 13 28 14 29 15 30 16 14 17 13 18 12 19 11 20 10 21
REMARK SMILES IDX 9 22 8 23 7 24 6 25 5 26 4 27 3 28 2 29 1 30
REMARK H PARENT
REMARK Flexibility Score: inf
ROOT
ATOM      1  C   UNL     1      23.688 -17.789  18.655  1.00  0.00     0.000 C 
ENDROOT
BRANCH   1   2
ATOM      2  C   UNL     1      23.044 -17.050  19.848  1.00  0.00     0.000 C 
BRANCH   2   3
ATOM      3  C   UNL     1      22.927 -15.530  19.647  1.00  0.00     0.000 C 
BRANCH   3   4
ATOM      4  C   UNL     1      22.979 -14.747  20.969  1.00  0.00     0.000 C 
BRANCH   4   5
ATOM      5  C   UNL     1      22.169 -13.440  20.921  1.00  0.00     0.000 C 
BRANCH   5   6
ATOM      6  C   UNL     1      22.809 -12.313  21.749  1.00  0.00     0.000 C 
BRANCH   6   7
ATOM      7  C   UNL     1      21.835 -11.156  22.035  1.00  0.00     0.000 C 
BRANCH   7   8
ATOM      8  C   UNL     1      20.632 -11.518  22.928  1.00  0.00     0.000 C 
BRANCH   8   9
ATOM      9  C   UNL     1      20.637 -10.764  24.268  1.00  0.00     0.000 C 
BRANCH   9  10
ATOM     10  C   UNL     1      21.118  -9.309  24.128  1.00  0.00     0.000 C 
BRANCH  10  11
ATOM     11  C   UNL     1      20.949  -8.504  25.429  1.00  0.00     0.000 C 
BRANCH  11  12
ATOM     12  C   UNL     1      19.911  -7.378  25.297  1.00  0.00     0.006 C 
BRANCH  12  13
ATOM     13  C   UNL     1      20.175  -6.470  24.089  1.00  0.00     0.053 C 
BRANCH  13  14
ATOM     14  C   UNL     1      20.718  -5.150  24.540  1.00  0.00     0.041 C 
ATOM     15  O   UNL     1      20.566  -4.125  23.824  1.00  0.00    -0.550 OA
ATOM     16  O   UNL     1      21.434  -5.061  25.727  1.00  0.00    -0.550 OA
ENDBRANCH  13  14
ENDBRANCH  12  13
ENDBRANCH  11  12
ENDBRANCH  10  11
ENDBRANCH   9  10
ENDBRANCH   8   9
ENDBRANCH   7   8
ENDBRANCH   6   7
ENDBRANCH   5   6
ENDBRANCH   4   5
ENDBRANCH   3   4
ENDBRANCH   2   3
ENDBRANCH   1   2
BRANCH   1  17
ATOM     17  C   UNL     1      23.085 -17.358  17.305  1.00  0.00     0.000 C 
BRANCH  17  18
ATOM     18  C   UNL     1      22.648 -18.551  16.440  1.00  0.00     0.000 C 
BRANCH  18  19
ATOM     19  C   UNL     1      22.509 -19.855  17.247  1.00  0.00     0.000 C 
BRANCH  19  20
ATOM     20  C   UNL     1      21.041 -20.217  17.525  1.00  0.00     0.000 C 
BRANCH  20  21
ATOM     21  C   UNL     1      20.395 -20.986  16.363  1.00  0.00     0.000 C 
BRANCH  21  22
ATOM     22  C   UNL     1      19.030 -21.556  16.778  1.00  0.00    -0.000 C 
BRANCH  22  23
ATOM     23  C   UNL     1      18.622 -22.791  15.956  1.00  0.00    -0.000 C 
BRANCH  23  24
ATOM     24  C   UNL     1      17.473 -22.562  14.951  1.00  0.00    -0.000 C 
BRANCH  24  25
ATOM     25  C   UNL     1      17.517 -21.220  14.196  1.00  0.00    -0.000 C 
BRANCH  25  26
ATOM     26  C   UNL     1      18.632 -21.166  13.138  1.00  0.00    -0.000 C 
BRANCH  26  27
ATOM     27  C   UNL     1      18.165 -20.511  11.828  1.00  0.00    -0.000 C 
BRANCH  27  28
ATOM     28  C   UNL     1      18.135 -21.501  10.649  1.00  0.00    -0.000 C 
BRANCH  28  29
ATOM     29  C   UNL     1      16.731 -21.644  10.041  1.00  0.00    -0.003 C 
ATOM     30  C   UNL     1      15.623 -21.237  11.012  1.00  0.00     0.004 C 
ENDBRANCH  28  29
ENDBRANCH  27  28
ENDBRANCH  26  27
ENDBRANCH  25  26
ENDBRANCH  24  25
ENDBRANCH  23  24
ENDBRANCH  22  23
ENDBRANCH  21  22
ENDBRANCH  20  21
ENDBRANCH  19  20
ENDBRANCH  18  19
ENDBRANCH  17  18
ENDBRANCH   1  17
TORSDOF 26
ENDMDL
MODEL 2
REMARK VINA RESULT:    -5.700      1.401      2.901
REMARK INTER + INTRA:         -15.815
REMARK INTER:                 -14.210
REMARK INTRA:                  -1.605
REMARK UNBOUND:                -1.452
REMARK SMILES CCCCCCCCCCCCCCCCCCCCCCCCCCCC(=O)[O-]
REMARK SMILES IDX 15 1 16 2 17 3 18 4 19 5 20 6 21 7 22 8 23 9 24 10 25 11
REMARK SMILES IDX 26 12 27 13 28 14 29 15 30 16 14 17 13 18 12 19 11 20 10 21
REMARK SMILES IDX 9 22 8 23 7 24 6 25 5 26 4 27 3 28 2 29 1 30
REMARK H PARENT
REMARK Flexibility Score: inf
ROOT
ATOM      1  C   UNL     1      22.758 -15.533  20.013  1.00  0.00     0.000 C 
ENDROOT
BRANCH   1   2
ATOM      2  C   UNL     1      22.934 -14.230  20.823  1.00  0.00     0.000 C 
BRANCH   2   3
ATOM      3  C   UNL     1      21.667 -13.359  20.881  1.00  0.00     0.000 C 
BRANCH   3   4
ATOM      4  C   UNL     1      21.934 -11.955  21.447  1.00  0.00     0.000 C 
BRANCH   4   5
ATOM      5  C   UNL     1      20.975 -11.582  22.591  1.00  0.00     0.000 C 
BRANCH   5   6
ATOM      6  C   UNL     1      21.411 -10.312  23.341  1.00  0.00     0.000 C 
BRANCH   6   7
ATOM      7  C   UNL     1      20.583 -10.056  24.613  1.00  0.00     0.000 C 
BRANCH   7   8
ATOM      8  C   UNL     1      20.727  -8.645  25.215  1.00  0.00     0.000 C 
BRANCH   8   9
ATOM      9  C   UNL     1      21.900  -7.856  24.609  1.00  0.00     0.000 C 
BRANCH   9  10
ATOM     10  C   UNL     1      22.538  -6.879  25.612  1.00  0.00     0.000 C 
BRANCH  10  11
ATOM     11  C   UNL     1      21.621  -5.687  25.939  1.00  0.00     0.000 C 
BRANCH  11  12
ATOM     12  C   UNL     1      21.412  -4.755  24.735  1.00  0.00     0.006 C 
BRANCH  12  13
ATOM     13  C   UNL     1      20.026  -4.096  24.731  1.00  0.00     0.053 C 
BRANCH  13  14
ATOM     14  C   UNL     1      19.025  -4.992  24.072  1.00  0.00     0.041 C 
ATOM     15  O   UNL     1      18.450  -5.895  24.735  1.00  0.00    -0.550 OA
ATOM     16  O   UNL     1      18.762  -4.863  22.714  1.00  0.00    -0.550 OA
ENDBRANCH  13  14
ENDBRANCH  12  13
ENDBRANCH  11  12
ENDBRANCH  10  11
ENDBRANCH   9  10
ENDBRANCH   8   9
ENDBRANCH   7   8
ENDBRANCH   6   7
ENDBRANCH   5   6
ENDBRANCH   4   5
ENDBRANCH   3   4
ENDBRANCH   2   3
ENDBRANCH   1   2
BRANCH   1  17
ATOM     17  C   UNL     1      22.614 -15.269  18.503  1.00  0.00     0.000 C 
BRANCH  17  18
ATOM     18  C   UNL     1      22.969 -16.495  17.647  1.00  0.00     0.000 C 
BRANCH  18  19
ATOM     19  C   UNL     1      23.344 -17.725  18.493  1.00  0.00     0.000 C 
BRANCH  19  20
ATOM     20  C   UNL     1      22.441 -18.934  18.200  1.00  0.00     0.000 C 
BRANCH  20  21
ATOM     21  C   UNL     1      22.225 -19.157  16.696  1.00  0.00     0.000 C 
BRANCH  21  22
ATOM     22  C   UNL     1      21.083 -20.154  16.449  1.00  0.00    -0.000 C 
BRANCH  22  23
ATOM     23  C   UNL     1      20.285 -20.477  17.725  1.00  0.00    -0.000 C 
BRANCH  23  24
ATOM     24  C   UNL     1      19.099 -21.445  17.530  1.00  0.00    -0.000 C 
BRANCH  24  25
ATOM     25  C   UNL     1      18.965 -22.046  16.118  1.00  0.00    -0.000 C 
BRANCH  25  26
ATOM     26  C   UNL     1      17.526 -21.988  15.579  1.00  0.00    -0.000 C 
BRANCH  26  27
ATOM     27  C   UNL     1      17.479 -21.802  14.054  1.00  0.00    -0.000 C 
BRANCH  27  28
ATOM     28  C   UNL     1      18.866 -21.523  13.448  1.00  0.00    -0.000 C 
BRANCH  28  29
ATOM     29  C   UNL     1      18.866 -21.619  11.915  1.00  0.00    -0.003 C 
ATOM     30  C   UNL     1      18.947 -20.250  11.239  1.00  0.00     0.004 C 
ENDBRANCH  28  29
ENDBRANCH  27  28
ENDBRANCH  26  27
ENDBRANCH  25  26
ENDBRANCH  24  25
ENDBRANCH  23  24
ENDBRANCH  22  23
ENDBRANCH  21  22
ENDBRANCH  20  21
ENDBRANCH  19  20
ENDBRANCH  18  19
ENDBRANCH  17  18
ENDBRANCH   1  17
TORSDOF 26
ENDMDL
MODEL 3
REMARK VINA RESULT:    -5.683      5.275     15.220
REMARK INTER + INTRA:         -15.774
REMARK INTER:                 -13.605
REMARK INTRA:                  -2.170
REMARK UNBOUND:                -1.452
REMARK SMILES CCCCCCCCCCCCCCCCCCCCCCCCCCCC(=O)[O-]
REMARK SMILES IDX 15 1 16 2 17 3 18 4 19 5 20 6 21 7 22 8 23 9 24 10 25 11
REMARK SMILES IDX 26 12 27 13 28 14 29 15 30 16 14 17 13 18 12 19 11 20 10 21
REMARK SMILES IDX 9 22 8 23 7 24 6 25 5 26 4 27 3 28 2 29 1 30
REMARK H PARENT
REMARK Flexibility Score: inf
ROOT
ATOM      1  C   UNL     1      22.541 -12.896  21.532  1.00  0.00     0.000 C 
ENDROOT
BRANCH   1   2
ATOM      2  C   UNL     1      23.032 -14.219  20.905  1.00  0.00     0.000 C 
BRANCH   2   3
ATOM      3  C   UNL     1      22.205 -14.675  19.690  1.00  0.00     0.000 C 
BRANCH   3   4
ATOM      4  C   UNL     1      22.964 -15.663  18.790  1.00  0.00     0.000 C 
BRANCH   4   5
ATOM      5  C   UNL     1      23.264 -16.999  19.492  1.00  0.00     0.000 C 
BRANCH   5   6
ATOM      6  C   UNL     1      23.495 -18.152  18.500  1.00  0.00     0.000 C 
BRANCH   6   7
ATOM      7  C   UNL     1      22.986 -17.832  17.083  1.00  0.00     0.000 C 
BRANCH   7   8
ATOM      8  C   UNL     1      22.345 -19.017  16.335  1.00  0.00     0.000 C 
BRANCH   8   9
ATOM      9  C   UNL     1      21.292 -19.754  17.180  1.00  0.00     0.000 C 
BRANCH   9  10
ATOM     10  C   UNL     1      20.960 -21.151  16.626  1.00  0.00     0.000 C 
BRANCH  10  11
ATOM     11  C   UNL     1      19.463 -21.319  16.309  1.00  0.00     0.000 C 
BRANCH  11  12
ATOM     12  C   UNL     1      19.218 -22.088  15.001  1.00  0.00     0.006 C 
BRANCH  12  13
ATOM     13  C   UNL     1      18.933 -21.158  13.814  1.00  0.00     0.053 C 
BRANCH  13  14
ATOM     14  C   UNL     1      17.474 -20.834  13.745  1.00  0.00     0.041 C 
ATOM     15  O   UNL     1      16.632 -21.576  14.317  1.00  0.00    -0.550 OA
ATOM     16  O   UNL     1      17.038 -19.739  13.010  1.00  0.00    -0.550 OA
ENDBRANCH  13  14
ENDBRANCH  12  13
ENDBRANCH  11  12
ENDBRANCH  10  11
ENDBRANCH   9  10
ENDBRANCH   8   9
ENDBRANCH   7   8
ENDBRANCH   6   7
ENDBRANCH   5   6
ENDBRANCH   4   5
ENDBRANCH   3   4
ENDBRANCH   2   3
ENDBRANCH   1   2
BRANCH   1  17
ATOM     17  C   UNL     1      21.047 -12.640  21.265  1.00  0.00     0.000 C 
BRANCH  17  18
ATOM     18  C   UNL     1      20.355 -11.892  22.417  1.00  0.00     0.000 C 
BRANCH  18  19
ATOM     19  C   UNL     1      21.349 -11.148  23.326  1.00  0.00     0.000 C 
BRANCH  19  20
ATOM     20  C   UNL     1      20.733 -10.773  24.684  1.00  0.00     0.000 C 
BRANCH  20  21
ATOM     21  C   UNL     1      20.562  -9.257  24.855  1.00  0.00     0.000 C 
BRANCH  21  22
ATOM     22  C   UNL     1      21.615  -8.493  24.039  1.00  0.00    -0.000 C 
BRANCH  22  23
ATOM     23  C   UNL     1      22.405  -7.476  24.884  1.00  0.00    -0.000 C 
BRANCH  23  24
ATOM     24  C   UNL     1      21.732  -7.059  26.208  1.00  0.00    -0.000 C 
BRANCH  24  25
ATOM     25  C   UNL     1      21.970  -5.597  26.635  1.00  0.00    -0.000 C 
BRANCH  25  26
ATOM     26  C   UNL     1      22.522  -4.725  25.495  1.00  0.00    -0.000 C 
BRANCH  26  27
ATOM     27  C   UNL     1      21.472  -3.746  24.945  1.00  0.00    -0.000 C 
BRANCH  27  28
ATOM     28  C   UNL     1      20.594  -4.373  23.848  1.00  0.00    -0.000 C 
BRANCH  28  29
ATOM     29  C   UNL     1      19.118  -4.467  24.261  1.00  0.00    -0.003 C 
ATOM     30  C   UNL     1      18.693  -5.894  24.611  1.00  0.00     0.004 C 
ENDBRANCH  28  29
ENDBRANCH  27  28
ENDBRANCH  26  27
ENDBRANCH  25  26
ENDBRANCH  24  25
ENDBRANCH  23  24
ENDBRANCH  22  23
ENDBRANCH  21  22
ENDBRANCH  20  21
ENDBRANCH  19  20
ENDBRANCH  18  19
ENDBRANCH  17  18
ENDBRANCH   1  17
TORSDOF 26
ENDMDL
MODEL 4
REMARK VINA RESULT:    -5.527      5.862     15.823
REMARK INTER + INTRA:         -15.380
REMARK INTER:                 -13.978
REMARK INTRA:                  -1.403
REMARK UNBOUND:                -1.452
REMARK SMILES CCCCCCCCCCCCCCCCCCCCCCCCCCCC(=O)[O-]
REMARK SMILES IDX 15 1 16 2 17 3 18 4 19 5 20 6 21 7 22 8 23 9 24 10 25 11
REMARK SMILES IDX 26 12 27 13 28 14 29 15 30 16 14 17 13 18 12 19 11 20 10 21
REMARK SMILES IDX 9 22 8 23 7 24 6 25 5 26 4 27 3 28 2 29 1 30
REMARK H PARENT
REMARK Flexibility Score: inf
ROOT
ATOM      1  C   UNL     1      21.087  -9.202  23.946  1.00  0.00     0.000 C 
ENDROOT
BRANCH   1   2
ATOM      2  C   UNL     1      20.745 -10.687  24.199  1.00  0.00     0.000 C 
BRANCH   2   3
ATOM      3  C   UNL     1      20.462 -11.485  22.915  1.00  0.00     0.000 C 
BRANCH   3   4
ATOM      4  C   UNL     1      21.717 -11.693  22.053  1.00  0.00     0.000 C 
BRANCH   4   5
ATOM      5  C   UNL     1      21.623 -12.937  21.152  1.00  0.00     0.000 C 
BRANCH   5   6
ATOM      6  C   UNL     1      22.943 -13.723  21.084  1.00  0.00     0.000 C 
BRANCH   6   7
ATOM      7  C   UNL     1      22.825 -15.019  20.262  1.00  0.00     0.000 C 
BRANCH   7   8
ATOM      8  C   UNL     1      22.159 -14.860  18.881  1.00  0.00     0.000 C 
BRANCH   8   9
ATOM      9  C   UNL     1      22.901 -15.623  17.771  1.00  0.00     0.000 C 
BRANCH   9  10
ATOM     10  C   UNL     1      22.970 -17.137  18.036  1.00  0.00     0.000 C 
BRANCH  10  11
ATOM     11  C   UNL     1      23.261 -17.946  16.760  1.00  0.00     0.000 C 
BRANCH  11  12
ATOM     12  C   UNL     1      22.188 -19.011  16.478  1.00  0.00     0.006 C 
BRANCH  12  13
ATOM     13  C   UNL     1      21.798 -19.803  17.732  1.00  0.00     0.053 C 
BRANCH  13  14
ATOM     14  C   UNL     1      20.641 -20.706  17.438  1.00  0.00     0.041 C 
ATOM     15  O   UNL     1      19.551 -20.561  18.052  1.00  0.00    -0.550 OA
ATOM     16  O   UNL     1      20.781 -21.740  16.521  1.00  0.00    -0.550 OA
ENDBRANCH  13  14
ENDBRANCH  12  13
ENDBRANCH  11  12
ENDBRANCH  10  11
ENDBRANCH   9  10
ENDBRANCH   8   9
ENDBRANCH   7   8
ENDBRANCH   6   7
ENDBRANCH   5   6
ENDBRANCH   4   5
ENDBRANCH   3   4
ENDBRANCH   2   3
ENDBRANCH   1   2
BRANCH   1  17
ATOM     17  C   UNL     1      21.114  -8.378  25.246  1.00  0.00     0.000 C 
BRANCH  17  18
ATOM     18  C   UNL     1      19.953  -7.375  25.340  1.00  0.00     0.000 C 
BRANCH  18  19
ATOM     19  C   UNL     1      19.956  -6.349  24.193  1.00  0.00     0.000 C 
BRANCH  19  20
ATOM     20  C   UNL     1      20.428  -4.960  24.651  1.00  0.00     0.000 C 
BRANCH  20  21
ATOM     21  C   UNL     1      19.419  -3.853  24.309  1.00  0.00     0.000 C 
BRANCH  21  22
ATOM     22  C   UNL     1      18.413  -4.338  23.254  1.00  0.00    -0.000 C 
BRANCH  22  23
ATOM     23  C   UNL     1      16.975  -3.867  23.538  1.00  0.00    -0.000 C 
BRANCH  23  24
ATOM     24  C   UNL     1      16.527  -3.973  25.010  1.00  0.00    -0.000 C 
BRANCH  24  25
ATOM     25  C   UNL     1      15.310  -3.109  25.391  1.00  0.00    -0.000 C 
BRANCH  25  26
ATOM     26  C   UNL     1      14.822  -3.365  26.827  1.00  0.00    -0.000 C 
BRANCH  26  27
ATOM     27  C   UNL     1      14.267  -4.786  27.013  1.00  0.00    -0.000 C 
BRANCH  27  28
ATOM     28  C   UNL     1      12.784  -4.794  27.424  1.00  0.00    -0.000 C 
BRANCH  28  29
ATOM     29  C   UNL     1      11.858  -5.202  26.268  1.00  0.00    -0.003 C 
ATOM     30  C   UNL     1      12.497  -6.230  25.335  1.00  0.00     0.004 C 
ENDBRANCH  28  29
ENDBRANCH  27  28
ENDBRANCH  26  27
ENDBRANCH  25  26
ENDBRANCH  24  25
ENDBRANCH  23  24
ENDBRANCH  22  23
ENDBRANCH  21  22
ENDBRANCH  20  21
ENDBRANCH  19  20
ENDBRANCH  18  19
ENDBRANCH  17  18
ENDBRANCH   1  17
TORSDOF 26
ENDMDL
MODEL 5
REMARK VINA RESULT:    -5.511      3.978      8.265
REMARK INTER + INTRA:         -15.340
REMARK INTER:                 -14.157
REMARK INTRA:                  -1.183
REMARK UNBOUND:                -1.452
REMARK SMILES CCCCCCCCCCCCCCCCCCCCCCCCCCCC(=O)[O-]
REMARK SMILES IDX 15 1 16 2 17 3 18 4 19 5 20 6 21 7 22 8 23 9 24 10 25 11
REMARK SMILES IDX 26 12 27 13 28 14 29 15 30 16 14 17 13 18 12 19 11 20 10 21
REMARK SMILES IDX 9 22 8 23 7 24 6 25 5 26 4 27 3 28 2 29 1 30
REMARK H PARENT
REMARK Flexibility Score: inf
ROOT
ATOM      1  C   UNL     1      21.487  -9.481  23.622  1.00  0.00     0.000 C 
ENDROOT
BRANCH   1   2
ATOM      2  C   UNL     1      20.749  -9.082  24.918  1.00  0.00     0.000 C 
BRANCH   2   3
ATOM      3  C   UNL     1      21.365  -7.869  25.635  1.00  0.00     0.000 C 
BRANCH   3   4
ATOM      4  C   UNL     1      21.033  -6.536  24.945  1.00  0.00     0.000 C 
BRANCH   4   5
ATOM      5  C   UNL     1      19.520  -6.298  24.806  1.00  0.00     0.000 C 
BRANCH   5   6
ATOM      6  C   UNL     1      19.157  -5.499  23.542  1.00  0.00     0.000 C 
BRANCH   6   7
ATOM      7  C   UNL     1      18.813  -4.029  23.844  1.00  0.00     0.000 C 
BRANCH   7   8
ATOM      8  C   UNL     1      17.424  -3.570  23.359  1.00  0.00     0.000 C 
BRANCH   8   9
ATOM      9  C   UNL     1      16.452  -3.287  24.517  1.00  0.00     0.000 C 
BRANCH   9  10
ATOM     10  C   UNL     1      15.893  -4.573  25.150  1.00  0.00     0.000 C 
BRANCH  10  11
ATOM     11  C   UNL     1      15.022  -4.290  26.387  1.00  0.00     0.000 C 
BRANCH  11  12
ATOM     12  C   UNL     1      14.215  -5.520  26.835  1.00  0.00     0.006 C 
BRANCH  12  13
ATOM     13  C   UNL     1      12.860  -5.145  27.451  1.00  0.00     0.053 C 
BRANCH  13  14
ATOM     14  C   UNL     1      11.783  -5.201  26.413  1.00  0.00     0.041 C 
ATOM     15  O   UNL     1      11.947  -5.881  25.366  1.00  0.00    -0.550 OA
ATOM     16  O   UNL     1      10.617  -4.465  26.580  1.00  0.00    -0.550 OA
ENDBRANCH  13  14
ENDBRANCH  12  13
ENDBRANCH  11  12
ENDBRANCH  10  11
ENDBRANCH   9  10
ENDBRANCH   8   9
ENDBRANCH   7   8
ENDBRANCH   6   7
ENDBRANCH   5   6
ENDBRANCH   4   5
ENDBRANCH   3   4
ENDBRANCH   2   3
ENDBRANCH   1   2
BRANCH   1  17
ATOM     17  C   UNL     1      21.125 -10.903  23.155  1.00  0.00     0.000 C 
BRANCH  17  18
ATOM     18  C   UNL     1      22.136 -11.476  22.149  1.00  0.00     0.000 C 
BRANCH  18  19
ATOM     19  C   UNL     1      21.537 -12.588  21.269  1.00  0.00     0.000 C 
BRANCH  19  20
ATOM     20  C   UNL     1      22.535 -13.728  21.008  1.00  0.00     0.000 C 
BRANCH  20  21
ATOM     21  C   UNL     1      22.203 -14.521  19.736  1.00  0.00     0.000 C 
BRANCH  21  22
ATOM     22  C   UNL     1      22.963 -15.856  19.710  1.00  0.00    -0.000 C 
BRANCH  22  23
ATOM     23  C   UNL     1      22.949 -16.526  18.324  1.00  0.00    -0.000 C 
BRANCH  23  24
ATOM     24  C   UNL     1      23.470 -17.978  18.291  1.00  0.00    -0.000 C 
BRANCH  24  25
ATOM     25  C   UNL     1      23.586 -18.604  16.888  1.00  0.00    -0.000 C 
BRANCH  25  26
ATOM     26  C   UNL     1      22.247 -19.147  16.364  1.00  0.00    -0.000 C 
BRANCH  26  27
ATOM     27  C   UNL     1      21.440 -19.870  17.456  1.00  0.00    -0.000 C 
BRANCH  27  28
ATOM     28  C   UNL     1      21.391 -21.393  17.245  1.00  0.00    -0.000 C 
BRANCH  28  29
ATOM     29  C   UNL     1      20.003 -21.981  17.541  1.00  0.00    -0.003 C 
ATOM     30  C   UNL     1      18.975 -20.910  17.907  1.00  0.00     0.004 C 
ENDBRANCH  28  29
ENDBRANCH  27  28
ENDBRANCH  26  27
ENDBRANCH  25  26
ENDBRANCH  24  25
ENDBRANCH  23  24
ENDBRANCH  22  23
ENDBRANCH  21  22
ENDBRANCH  20  21
ENDBRANCH  19  20
ENDBRANCH  18  19
ENDBRANCH  17  18
ENDBRANCH   1  17
TORSDOF 26
ENDMDL
MODEL 6
REMARK VINA RESULT:    -5.447      5.713     15.585
REMARK INTER + INTRA:         -15.180
REMARK INTER:                 -14.001
REMARK INTRA:                  -1.179
REMARK UNBOUND:                -1.452
REMARK SMILES CCCCCCCCCCCCCCCCCCCCCCCCCCCC(=O)[O-]
REMARK SMILES IDX 15 1 16 2 17 3 18 4 19 5 20 6 21 7 22 8 23 9 24 10 25 11
REMARK SMILES IDX 26 12 27 13 28 14 29 15 30 16 14 17 13 18 12 19 11 20 10 21
REMARK SMILES IDX 9 22 8 23 7 24 6 25 5 26 4 27 3 28 2 29 1 30
REMARK H PARENT
REMARK Flexibility Score: inf
ROOT
ATOM      1  C   UNL     1      21.926 -12.759  21.278  1.00  0.00     0.000 C 
ENDROOT
BRANCH   1   2
ATOM      2  C   UNL     1      23.143 -13.564  20.772  1.00  0.00     0.000 C 
BRANCH   2   3
ATOM      3  C   UNL     1      22.969 -15.088  20.884  1.00  0.00     0.000 C 
BRANCH   3   4
ATOM      4  C   UNL     1      22.958 -15.789  19.515  1.00  0.00     0.000 C 
BRANCH   4   5
ATOM      5  C   UNL     1      23.094 -17.317  19.627  1.00  0.00     0.000 C 
BRANCH   5   6
ATOM      6  C   UNL     1      23.715 -17.952  18.371  1.00  0.00     0.000 C 
BRANCH   6   7
ATOM      7  C   UNL     1      22.869 -17.720  17.105  1.00  0.00     0.000 C 
BRANCH   7   8
ATOM      8  C   UNL     1      22.370 -19.001  16.409  1.00  0.00     0.000 C 
BRANCH   8   9
ATOM      9  C   UNL     1      21.455 -19.850  17.309  1.00  0.00     0.000 C 
BRANCH   9  10
ATOM     10  C   UNL     1      20.926 -21.107  16.598  1.00  0.00     0.000 C 
BRANCH  10  11
ATOM     11  C   UNL     1      19.435 -20.993  16.230  1.00  0.00     0.000 C 
BRANCH  11  12
ATOM     12  C   UNL     1      19.168 -21.293  14.746  1.00  0.00     0.006 C 
BRANCH  12  13
ATOM     13  C   UNL     1      17.673 -21.267  14.398  1.00  0.00     0.053 C 
BRANCH  13  14
ATOM     14  C   UNL     1      17.476 -20.811  12.986  1.00  0.00     0.041 C 
ATOM     15  O   UNL     1      16.852 -19.744  12.746  1.00  0.00    -0.550 OA
ATOM     16  O   UNL     1      17.939 -21.589  11.933  1.00  0.00    -0.550 OA
ENDBRANCH  13  14
ENDBRANCH  12  13
ENDBRANCH  11  12
ENDBRANCH  10  11
ENDBRANCH   9  10
ENDBRANCH   8   9
ENDBRANCH   7   8
ENDBRANCH   6   7
ENDBRANCH   5   6
ENDBRANCH   4   5
ENDBRANCH   3   4
ENDBRANCH   2   3
ENDBRANCH   1   2
BRANCH   1  17
ATOM     17  C   UNL     1      22.339 -11.469  22.009  1.00  0.00     0.000 C 
BRANCH  17  18
ATOM     18  C   UNL     1      21.231 -10.922  22.924  1.00  0.00     0.000 C 
BRANCH  18  19
ATOM     19  C   UNL     1      21.597  -9.568  23.558  1.00  0.00     0.000 C 
BRANCH  19  20
ATOM     20  C   UNL     1      20.727  -9.242  24.783  1.00  0.00     0.000 C 
BRANCH  20  21
ATOM     21  C   UNL     1      20.950  -7.813  25.300  1.00  0.00     0.000 C 
BRANCH  21  22
ATOM     22  C   UNL     1      19.620  -7.048  25.385  1.00  0.00    -0.000 C 
BRANCH  22  23
ATOM     23  C   UNL     1      19.704  -5.634  24.784  1.00  0.00    -0.000 C 
BRANCH  23  24
ATOM     24  C   UNL     1      19.250  -5.515  23.314  1.00  0.00    -0.000 C 
BRANCH  24  25
ATOM     25  C   UNL     1      18.491  -4.222  22.962  1.00  0.00    -0.000 C 
BRANCH  25  26
ATOM     26  C   UNL     1      18.117  -3.393  24.202  1.00  0.00    -0.000 C 
BRANCH  26  27
ATOM     27  C   UNL     1      16.601  -3.372  24.457  1.00  0.00    -0.000 C 
BRANCH  27  28
ATOM     28  C   UNL     1      16.100  -4.651  25.151  1.00  0.00    -0.000 C 
BRANCH  28  29
ATOM     29  C   UNL     1      14.913  -4.382  26.089  1.00  0.00    -0.003 C 
ATOM     30  C   UNL     1      14.296  -5.667  26.641  1.00  0.00     0.004 C 
ENDBRANCH  28  29
ENDBRANCH  27  28
ENDBRANCH  26  27
ENDBRANCH  25  26
ENDBRANCH  24  25
ENDBRANCH  23  24
ENDBRANCH  22  23
ENDBRANCH  21  22
ENDBRANCH  20  21
ENDBRANCH  19  20
ENDBRANCH  18  19
ENDBRANCH  17  18
ENDBRANCH   1  17
TORSDOF 26
ENDMDL
MODEL 7
REMARK VINA RESULT:    -5.330      1.547      4.933
REMARK INTER + INTRA:         -14.883
REMARK INTER:                 -13.330
REMARK INTRA:                  -1.553
REMARK UNBOUND:                -1.452
REMARK SMILES CCCCCCCCCCCCCCCCCCCCCCCCCCCC(=O)[O-]
REMARK SMILES IDX 15 1 16 2 17 3 18 4 19 5 20 6 21 7 22 8 23 9 24 10 25 11
REMARK SMILES IDX 26 12 27 13 28 14 29 15 30 16 14 17 13 18 12 19 11 20 10 21
REMARK SMILES IDX 9 22 8 23 7 24 6 25 5 26 4 27 3 28 2 29 1 30
REMARK H PARENT
REMARK Flexibility Score: inf
ROOT
ATOM      1  C   UNL     1      21.832 -11.892  21.321  1.00  0.00     0.000 C 
ENDROOT
BRANCH   1   2
ATOM      2  C   UNL     1      21.894 -11.603  22.837  1.00  0.00     0.000 C 
BRANCH   2   3
ATOM      3  C   UNL     1      20.557 -11.131  23.434  1.00  0.00     0.000 C 
BRANCH   3   4
ATOM      4  C   UNL     1      20.735 -10.053  24.516  1.00  0.00     0.000 C 
BRANCH   4   5
ATOM      5  C   UNL     1      21.214  -8.708  23.943  1.00  0.00     0.000 C 
BRANCH   5   6
ATOM      6  C   UNL     1      21.910  -7.829  24.996  1.00  0.00     0.000 C 
BRANCH   6   7
ATOM      7  C   UNL     1      21.117  -7.730  26.312  1.00  0.00     0.000 C 
BRANCH   7   8
ATOM      8  C   UNL     1      21.641  -6.685  27.315  1.00  0.00     0.000 C 
BRANCH   8   9
ATOM      9  C   UNL     1      22.541  -5.626  26.656  1.00  0.00     0.000 C 
BRANCH   9  10
ATOM     10  C   UNL     1      21.754  -4.389  26.186  1.00  0.00     0.000 C 
BRANCH  10  11
ATOM     11  C   UNL     1      22.011  -4.054  24.706  1.00  0.00     0.000 C 
BRANCH  11  12
ATOM     12  C   UNL     1      20.716  -3.993  23.880  1.00  0.00     0.006 C 
BRANCH  12  13
ATOM     13  C   UNL     1      19.674  -5.022  24.338  1.00  0.00     0.053 C 
BRANCH  13  14
ATOM     14  C   UNL     1      18.293  -4.544  24.014  1.00  0.00     0.041 C 
ATOM     15  O   UNL     1      17.330  -4.827  24.774  1.00  0.00    -0.550 OA
ATOM     16  O   UNL     1      18.061  -3.826  22.848  1.00  0.00    -0.550 OA
ENDBRANCH  13  14
ENDBRANCH  12  13
ENDBRANCH  11  12
ENDBRANCH  10  11
ENDBRANCH   9  10
ENDBRANCH   8   9
ENDBRANCH   7   8
ENDBRANCH   6   7
ENDBRANCH   5   6
ENDBRANCH   4   5
ENDBRANCH   3   4
ENDBRANCH   2   3
ENDBRANCH   1   2
BRANCH   1  17
ATOM     17  C   UNL     1      21.475 -13.359  21.019  1.00  0.00     0.000 C 
BRANCH  17  18
ATOM     18  C   UNL     1      22.711 -14.224  20.722  1.00  0.00     0.000 C 
BRANCH  18  19
ATOM     19  C   UNL     1      22.634 -14.924  19.353  1.00  0.00     0.000 C 
BRANCH  19  20
ATOM     20  C   UNL     1      23.009 -16.413  19.436  1.00  0.00     0.000 C 
BRANCH  20  21
ATOM     21  C   UNL     1      23.067 -17.083  18.055  1.00  0.00     0.000 C 
BRANCH  21  22
ATOM     22  C   UNL     1      22.802 -18.591  18.168  1.00  0.00    -0.000 C 
BRANCH  22  23
ATOM     23  C   UNL     1      22.262 -19.204  16.863  1.00  0.00    -0.000 C 
BRANCH  23  24
ATOM     24  C   UNL     1      21.278 -20.378  17.046  1.00  0.00    -0.000 C 
BRANCH  24  25
ATOM     25  C   UNL     1      20.274 -20.580  15.896  1.00  0.00    -0.000 C 
BRANCH  25  26
ATOM     26  C   UNL     1      19.558 -21.940  15.960  1.00  0.00    -0.000 C 
BRANCH  26  27
ATOM     27  C   UNL     1      18.418 -22.050  14.933  1.00  0.00    -0.000 C 
BRANCH  27  28
ATOM     28  C   UNL     1      18.903 -21.857  13.486  1.00  0.00    -0.000 C 
BRANCH  28  29
ATOM     29  C   UNL     1      18.300 -20.607  12.827  1.00  0.00    -0.003 C 
ATOM     30  C   UNL     1      18.935 -20.289  11.474  1.00  0.00     0.004 C 
ENDBRANCH  28  29
ENDBRANCH  27  28
ENDBRANCH  26  27
ENDBRANCH  25  26
ENDBRANCH  24  25
ENDBRANCH  23  24
ENDBRANCH  22  23
ENDBRANCH  21  22
ENDBRANCH  20  21
ENDBRANCH  19  20
ENDBRANCH  18  19
ENDBRANCH  17  18
ENDBRANCH   1  17
TORSDOF 26
ENDMDL
MODEL 8
REMARK VINA RESULT:    -5.258      5.737      9.814
REMARK INTER + INTRA:         -14.701
REMARK INTER:                 -12.922
REMARK INTRA:                  -1.780
REMARK UNBOUND:                -1.452
REMARK SMILES CCCCCCCCCCCCCCCCCCCCCCCCCCCC(=O)[O-]
REMARK SMILES IDX 15 1 16 2 17 3 18 4 19 5 20 6 21 7 22 8 23 9 24 10 25 11
REMARK SMILES IDX 26 12 27 13 28 14 29 15 30 16 14 17 13 18 12 19 11 20 10 21
REMARK SMILES IDX 9 22 8 23 7 24 6 25 5 26 4 27 3 28 2 29 1 30
REMARK H PARENT
REMARK Flexibility Score: inf
ROOT
ATOM      1  C   UNL     1      15.133 -20.559  12.634  1.00  0.00     0.000 C 
ENDROOT
BRANCH   1   2
ATOM      2  C   UNL     1      14.834 -19.044  12.641  1.00  0.00     0.000 C 
BRANCH   2   3
ATOM      3  C   UNL     1      13.499 -18.672  11.973  1.00  0.00     0.000 C 
BRANCH   3   4
ATOM      4  C   UNL     1      13.237 -17.157  11.965  1.00  0.00     0.000 C 
BRANCH   4   5
ATOM      5  C   UNL     1      14.532 -16.329  12.030  1.00  0.00     0.000 C 
BRANCH   5   6
ATOM      6  C   UNL     1      14.272 -14.814  11.979  1.00  0.00     0.000 C 
BRANCH   6   7
ATOM      7  C   UNL     1      15.554 -13.981  12.165  1.00  0.00     0.000 C 
BRANCH   7   8
ATOM      8  C   UNL     1      15.540 -13.019  13.368  1.00  0.00     0.000 C 
BRANCH   8   9
ATOM      9  C   UNL     1      15.152 -13.716  14.683  1.00  0.00     0.000 C 
BRANCH   9  10
ATOM     10  C   UNL     1      16.270 -13.656  15.738  1.00  0.00     0.000 C 
BRANCH  10  11
ATOM     11  C   UNL     1      15.890 -12.788  16.951  1.00  0.00     0.000 C 
BRANCH  11  12
ATOM     12  C   UNL     1      15.924 -13.572  18.273  1.00  0.00     0.006 C 
BRANCH  12  13
ATOM     13  C   UNL     1      14.549 -13.647  18.951  1.00  0.00     0.053 C 
BRANCH  13  14
ATOM     14  C   UNL     1      14.707 -13.813  20.430  1.00  0.00     0.041 C 
ATOM     15  O   UNL     1      15.526 -13.097  21.064  1.00  0.00    -0.550 OA
ATOM     16  O   UNL     1      13.984 -14.791  21.102  1.00  0.00    -0.550 OA
ENDBRANCH  13  14
ENDBRANCH  12  13
ENDBRANCH  11  12
ENDBRANCH  10  11
ENDBRANCH   9  10
ENDBRANCH   8   9
ENDBRANCH   7   8
ENDBRANCH   6   7
ENDBRANCH   5   6
ENDBRANCH   4   5
ENDBRANCH   3   4
ENDBRANCH   2   3
ENDBRANCH   1   2
BRANCH   1  17
ATOM     17  C   UNL     1      15.249 -21.126  11.207  1.00  0.00     0.000 C 
BRANCH  17  18
ATOM     18  C   UNL     1      16.413 -22.118  11.053  1.00  0.00     0.000 C 
BRANCH  18  19
ATOM     19  C   UNL     1      17.553 -21.568  10.176  1.00  0.00     0.000 C 
BRANCH  19  20
ATOM     20  C   UNL     1      18.742 -21.064  11.009  1.00  0.00     0.000 C 
BRANCH  20  21
ATOM     21  C   UNL     1      18.832 -21.749  12.381  1.00  0.00     0.000 C 
BRANCH  21  22
ATOM     22  C   UNL     1      18.792 -20.711  13.513  1.00  0.00    -0.000 C 
BRANCH  22  23
ATOM     23  C   UNL     1      18.335 -21.308  14.856  1.00  0.00    -0.000 C 
BRANCH  23  24
ATOM     24  C   UNL     1      19.463 -21.884  15.738  1.00  0.00    -0.000 C 
BRANCH  24  25
ATOM     25  C   UNL     1      20.303 -20.839  16.497  1.00  0.00    -0.000 C 
BRANCH  25  26
ATOM     26  C   UNL     1      21.533 -21.450  17.188  1.00  0.00    -0.000 C 
BRANCH  26  27
ATOM     27  C   UNL     1      22.680 -20.439  17.344  1.00  0.00    -0.000 C 
BRANCH  27  28
ATOM     28  C   UNL     1      22.213 -18.982  17.175  1.00  0.00    -0.000 C 
BRANCH  28  29
ATOM     29  C   UNL     1      23.310 -17.969  17.535  1.00  0.00    -0.003 C 
ATOM     30  C   UNL     1      22.928 -16.534  17.175  1.00  0.00     0.004 C 
ENDBRANCH  28  29
ENDBRANCH  27  28
ENDBRANCH  26  27
ENDBRANCH  25  26
ENDBRANCH  24  25
ENDBRANCH  23  24
ENDBRANCH  22  23
ENDBRANCH  21  22
ENDBRANCH  20  21
ENDBRANCH  19  20
ENDBRANCH  18  19
ENDBRANCH  17  18
ENDBRANCH   1  17
TORSDOF 26
ENDMDL
MODEL 9
REMARK VINA RESULT:    -5.154      6.787     10.823
REMARK INTER + INTRA:         -14.440
REMARK INTER:                 -11.611
REMARK INTRA:                  -2.829
REMARK UNBOUND:                -1.452
REMARK SMILES CCCCCCCCCCCCCCCCCCCCCCCCCCCC(=O)[O-]
REMARK SMILES IDX 15 1 16 2 17 3 18 4 19 5 20 6 21 7 22 8 23 9 24 10 25 11
REMARK SMILES IDX 26 12 27 13 28 14 29 15 30 16 14 17 13 18 12 19 11 20 10 21
REMARK SMILES IDX 9 22 8 23 7 24 6 25 5 26 4 27 3 28 2 29 1 30
REMARK H PARENT
REMARK Flexibility Score: inf
ROOT
ATOM      1  C   UNL     1      15.972 -20.564  12.035  1.00  0.00     0.000 C 
ENDROOT
BRANCH   1   2
ATOM      2  C   UNL     1      17.051 -21.374  11.284  1.00  0.00     0.000 C 
BRANCH   2   3
ATOM      3  C   UNL     1      18.477 -20.824  11.463  1.00  0.00     0.000 C 
BRANCH   3   4
ATOM      4  C   UNL     1      19.054 -21.106  12.860  1.00  0.00     0.000 C 
BRANCH   4   5
ATOM      5  C   UNL     1      18.653 -22.489  13.402  1.00  0.00     0.000 C 
BRANCH   5   6
ATOM      6  C   UNL     1      18.489 -22.503  14.931  1.00  0.00     0.000 C 
BRANCH   6   7
ATOM      7  C   UNL     1      18.880 -21.166  15.586  1.00  0.00     0.000 C 
BRANCH   7   8
ATOM      8  C   UNL     1      18.803 -21.144  17.125  1.00  0.00     0.000 C 
BRANCH   8   9
ATOM      9  C   UNL     1      20.112 -20.669  17.779  1.00  0.00     0.000 C 
BRANCH   9  10
ATOM     10  C   UNL     1      21.352 -21.373  17.203  1.00  0.00     0.000 C 
BRANCH  10  11
ATOM     11  C   UNL     1      22.554 -20.422  17.054  1.00  0.00     0.000 C 
BRANCH  11  12
ATOM     12  C   UNL     1      22.252 -19.004  17.563  1.00  0.00     0.006 C 
BRANCH  12  13
ATOM     13  C   UNL     1      23.143 -17.939  16.910  1.00  0.00     0.053 C 
BRANCH  13  14
ATOM     14  C   UNL     1      23.003 -16.632  17.626  1.00  0.00     0.041 C 
ATOM     15  O   UNL     1      22.813 -15.571  16.977  1.00  0.00    -0.550 OA
ATOM     16  O   UNL     1      23.130 -16.580  19.009  1.00  0.00    -0.550 OA
ENDBRANCH  13  14
ENDBRANCH  12  13
ENDBRANCH  11  12
ENDBRANCH  10  11
ENDBRANCH   9  10
ENDBRANCH   8   9
ENDBRANCH   7   8
ENDBRANCH   6   7
ENDBRANCH   5   6
ENDBRANCH   4   5
ENDBRANCH   3   4
ENDBRANCH   2   3
ENDBRANCH   1   2
BRANCH   1  17
ATOM     17  C   UNL     1      14.587 -21.234  11.973  1.00  0.00     0.000 C 
BRANCH  17  18
ATOM     18  C   UNL     1      14.395 -22.308  13.056  1.00  0.00     0.000 C 
BRANCH  18  19
ATOM     19  C   UNL     1      14.277 -21.713  14.471  1.00  0.00     0.000 C 
BRANCH  19  20
ATOM     20  C   UNL     1      13.020 -22.203  15.208  1.00  0.00     0.000 C 
BRANCH  20  21
ATOM     21  C   UNL     1      11.757 -21.434  14.794  1.00  0.00     0.000 C 
BRANCH  21  22
ATOM     22  C   UNL     1      10.581 -22.395  14.567  1.00  0.00    -0.000 C 
BRANCH  22  23
ATOM     23  C   UNL     1       9.979 -22.282  13.155  1.00  0.00    -0.000 C 
BRANCH  23  24
ATOM     24  C   UNL     1      10.867 -21.564  12.117  1.00  0.00    -0.000 C 
BRANCH  24  25
ATOM     25  C   UNL     1      10.285 -20.258  11.545  1.00  0.00    -0.000 C 
BRANCH  25  26
ATOM     26  C   UNL     1      10.745 -19.010  12.318  1.00  0.00    -0.000 C 
BRANCH  26  27
ATOM     27  C   UNL     1      11.938 -18.311  11.646  1.00  0.00    -0.000 C 
BRANCH  27  28
ATOM     28  C   UNL     1      11.953 -16.793  11.897  1.00  0.00    -0.000 C 
BRANCH  28  29
ATOM     29  C   UNL     1      13.341 -16.175  11.667  1.00  0.00    -0.003 C 
ATOM     30  C   UNL     1      14.474 -17.059  12.189  1.00  0.00     0.004 C 
ENDBRANCH  28  29
ENDBRANCH  27  28
ENDBRANCH  26  27
ENDBRANCH  25  26
ENDBRANCH  24  25
ENDBRANCH  23  24
ENDBRANCH  22  23
ENDBRANCH  21  22
ENDBRANCH  20  21
ENDBRANCH  19  20
ENDBRANCH  18  19
ENDBRANCH  17  18
ENDBRANCH   1  17
TORSDOF 26
ENDMDL
