MODEL 1
REMARK VINA RESULT:    -6.433      0.000      0.000
REMARK INTER + INTRA:          -6.478
REMARK INTER:                  -6.997
REMARK INTRA:                   0.519
REMARK UNBOUND:                 0.519
REMARK SMILES C[C@H]1[C@H]2C3=CC[C@@H]4[C@@]5(C)CC[C@H](O)C(C)(C)[C@H]5CC[C@@]4(C)[C@]3(C)CC[C@]2(C(=O)[O-])CC[C@@H]1C
REMARK SMILES IDX 26 1 30 2 25 3 3 4 31 5 24 6 4 7 2 8 32 9 22 10 5 11 1 12
REMARK SMILES IDX 33 13 23 14 20 15 6 16 7 17 19 18 21 19 8 20 18 21 17 22
REMARK SMILES IDX 10 23 9 24 14 25 11 26 12 27 15 28 16 29 27 30 28 31 29 32
REMARK SMILES IDX 13 33
REMARK H PARENT 13 34
REMARK Flexibility Score: inf
ROOT
ATOM      1  C   UNL     1      -8.478  29.262  44.691  1.00  0.00     0.017 C 
ATOM      2  C   UNL     1      -8.551  27.996  43.779  1.00  0.00     0.014 C 
ATOM      3  C   UNL     1      -7.021  29.555  45.073  1.00  0.00     0.014 C 
ATOM      4  C   UNL     1      -8.964  30.463  43.813  1.00  0.00     0.030 C 
ATOM      5  C   UNL     1      -9.995  27.749  43.281  1.00  0.00     0.004 C 
ATOM      6  C   UNL     1      -6.946  30.786  46.007  1.00  0.00     0.013 C 
ATOM      7  C   UNL     1      -8.490  31.876  44.215  1.00  0.00    -0.063 C 
ATOM      8  C   UNL     1     -10.426  30.307  43.278  1.00  0.00    -0.003 C 
ATOM      9  C   UNL     1     -10.600  28.953  42.518  1.00  0.00    -0.011 C 
ATOM     10  C   UNL     1      -7.630  32.126  45.490  1.00  0.00    -0.006 C 
ATOM     11  C   UNL     1      -8.619  32.855  43.271  1.00  0.00    -0.027 C 
ATOM     12  C   UNL     1     -11.537  30.520  44.316  1.00  0.00     0.008 C 
ATOM     13  C   UNL     1     -10.046  29.024  41.081  1.00  0.00     0.008 C 
ATOM     14  C   UNL     1      -8.614  32.609  46.621  1.00  0.00     0.017 C 
ATOM     15  C   UNL     1      -6.501  33.241  45.181  1.00  0.00    -0.020 C 
ATOM     16  C   UNL     1      -7.846  34.152  43.209  1.00  0.00     0.032 C 
ATOM     17  C   UNL     1      -7.183  34.523  44.547  1.00  0.00     0.006 C 
ATOM     18  C   UNL     1      -5.719  33.642  46.481  1.00  0.00     0.008 C 
ATOM     19  C   UNL     1      -5.480  32.607  44.171  1.00  0.00     0.012 C 
ATOM     20  C   UNL     1      -6.359  35.906  44.620  1.00  0.00    -0.025 C 
ATOM     21  C   UNL     1      -6.121  34.999  47.060  1.00  0.00     0.005 C 
ATOM     22  C   UNL     1      -5.778  36.160  46.092  1.00  0.00     0.003 C 
ATOM     23  C   UNL     1      -7.299  37.089  44.196  1.00  0.00     0.010 C 
ATOM     24  C   UNL     1      -5.173  35.913  43.614  1.00  0.00     0.012 C 
ATOM     25  C   UNL     1      -6.109  37.596  46.708  1.00  0.00    -0.006 C 
ATOM     26  C   UNL     1      -8.307  37.515  45.277  1.00  0.00     0.033 C 
ATOM     27  C   UNL     1      -7.647  37.871  46.635  1.00  0.00     0.120 C 
ATOM     28  C   UNL     1      -5.286  38.710  45.962  1.00  0.00     0.014 C 
ATOM     29  C   UNL     1      -5.693  37.677  48.212  1.00  0.00     0.014 C 
ENDROOT
BRANCH   1  30
ATOM     30  C   UNL     1      -9.249  28.942  45.987  1.00  0.00     0.048 C 
ATOM     31  O   UNL     1      -9.032  27.849  46.583  1.00  0.00    -0.550 OA
ATOM     32  O   UNL     1     -10.093  29.847  46.601  1.00  0.00    -0.550 OA
ENDBRANCH   1  30
BRANCH  27  33
ATOM     33  O   UNL     1      -7.948  39.191  47.049  1.00  0.00    -0.393 OA
ATOM     34  H   UNL     1      -7.585  39.356  47.951  1.00  0.00     0.210 HD
ENDBRANCH  27  33
TORSDOF 2
ENDMDL
MODEL 2
REMARK VINA RESULT:    -6.237      2.199      8.017
REMARK INTER + INTRA:          -6.265
REMARK INTER:                  -6.785
REMARK INTRA:                   0.520
REMARK UNBOUND:                 0.519
REMARK SMILES C[C@H]1[C@H]2C3=CC[C@@H]4[C@@]5(C)CC[C@H](O)C(C)(C)[C@H]5CC[C@@]4(C)[C@]3(C)CC[C@]2(C(=O)[O-])CC[C@@H]1C
REMARK SMILES IDX 26 1 30 2 25 3 3 4 31 5 24 6 4 7 2 8 32 9 22 10 5 11 1 12
REMARK SMILES IDX 33 13 23 14 20 15 6 16 7 17 19 18 21 19 8 20 18 21 17 22
REMARK SMILES IDX 10 23 9 24 14 25 11 26 12 27 15 28 16 29 27 30 28 31 29 32
REMARK SMILES IDX 13 33
REMARK H PARENT 13 34
REMARK Flexibility Score: inf
ROOT
ATOM      1  C   UNL     1      -7.024  34.364  46.498  1.00  0.00     0.017 C 
ATOM      2  C   UNL     1      -7.232  35.826  47.004  1.00  0.00     0.014 C 
ATOM      3  C   UNL     1      -7.925  33.399  47.280  1.00  0.00     0.014 C 
ATOM      4  C   UNL     1      -7.520  34.340  45.013  1.00  0.00     0.030 C 
ATOM      5  C   UNL     1      -6.425  36.834  46.152  1.00  0.00     0.004 C 
ATOM      6  C   UNL     1      -7.695  31.944  46.808  1.00  0.00     0.013 C 
ATOM      7  C   UNL     1      -7.964  32.980  44.433  1.00  0.00    -0.063 C 
ATOM      8  C   UNL     1      -6.745  35.319  44.070  1.00  0.00    -0.003 C 
ATOM      9  C   UNL     1      -6.762  36.773  44.642  1.00  0.00    -0.011 C 
ATOM     10  C   UNL     1      -7.853  31.658  45.251  1.00  0.00    -0.006 C 
ATOM     11  C   UNL     1      -8.708  33.019  43.289  1.00  0.00    -0.027 C 
ATOM     12  C   UNL     1      -5.326  34.880  43.681  1.00  0.00     0.008 C 
ATOM     13  C   UNL     1      -8.094  37.491  44.349  1.00  0.00     0.008 C 
ATOM     14  C   UNL     1      -6.535  30.936  44.779  1.00  0.00     0.017 C 
ATOM     15  C   UNL     1      -9.154  30.736  44.985  1.00  0.00    -0.020 C 
ATOM     16  C   UNL     1      -9.637  31.938  42.783  1.00  0.00     0.032 C 
ATOM     17  C   UNL     1      -9.371  30.566  43.425  1.00  0.00     0.006 C 
ATOM     18  C   UNL     1      -9.006  29.327  45.659  1.00  0.00     0.008 C 
ATOM     19  C   UNL     1     -10.384  31.464  45.634  1.00  0.00     0.012 C 
ATOM     20  C   UNL     1     -10.273  29.322  42.940  1.00  0.00    -0.025 C 
ATOM     21  C   UNL     1      -8.682  28.196  44.682  1.00  0.00     0.005 C 
ATOM     22  C   UNL     1      -9.833  27.964  43.670  1.00  0.00     0.003 C 
ATOM     23  C   UNL     1     -10.144  29.167  41.384  1.00  0.00     0.010 C 
ATOM     24  C   UNL     1     -11.782  29.569  43.227  1.00  0.00     0.012 C 
ATOM     25  C   UNL     1      -9.557  26.733  42.692  1.00  0.00    -0.006 C 
ATOM     26  C   UNL     1      -8.826  28.523  40.918  1.00  0.00     0.033 C 
ATOM     27  C   UNL     1      -8.542  27.148  41.577  1.00  0.00     0.120 C 
ATOM     28  C   UNL     1     -10.909  26.213  42.079  1.00  0.00     0.014 C 
ATOM     29  C   UNL     1      -8.933  25.526  43.463  1.00  0.00     0.014 C 
ENDROOT
BRANCH   1  30
ATOM     30  C   UNL     1      -5.560  33.979  46.788  1.00  0.00     0.048 C 
ATOM     31  O   UNL     1      -5.074  34.208  47.932  1.00  0.00    -0.550 OA
ATOM     32  O   UNL     1      -4.773  33.286  45.888  1.00  0.00    -0.550 OA
ENDBRANCH   1  30
BRANCH  27  33
ATOM     33  O   UNL     1      -8.387  26.116  40.621  1.00  0.00    -0.393 OA
ATOM     34  H   UNL     1      -7.663  26.343  39.990  1.00  0.00     0.210 HD
ENDBRANCH  27  33
TORSDOF 2
ENDMDL
MODEL 3
REMARK VINA RESULT:    -6.237      5.083      7.235
REMARK INTER + INTRA:          -6.265
REMARK INTER:                  -6.784
REMARK INTRA:                   0.519
REMARK UNBOUND:                 0.519
REMARK SMILES C[C@H]1[C@H]2C3=CC[C@@H]4[C@@]5(C)CC[C@H](O)C(C)(C)[C@H]5CC[C@@]4(C)[C@]3(C)CC[C@]2(C(=O)[O-])CC[C@@H]1C
REMARK SMILES IDX 26 1 30 2 25 3 3 4 31 5 24 6 4 7 2 8 32 9 22 10 5 11 1 12
REMARK SMILES IDX 33 13 23 14 20 15 6 16 7 17 19 18 21 19 8 20 18 21 17 22
REMARK SMILES IDX 10 23 9 24 14 25 11 26 12 27 15 28 16 29 27 30 28 31 29 32
REMARK SMILES IDX 13 33
REMARK H PARENT 13 34
REMARK Flexibility Score: inf
ROOT
ATOM      1  C   UNL     1       0.844  31.074  43.776  1.00  0.00     0.017 C 
ATOM      2  C   UNL     1       2.090  30.932  42.844  1.00  0.00     0.014 C 
ATOM      3  C   UNL     1       0.855  32.444  44.468  1.00  0.00     0.014 C 
ATOM      4  C   UNL     1      -0.409  31.053  42.837  1.00  0.00     0.030 C 
ATOM      5  C   UNL     1       2.040  29.609  42.043  1.00  0.00     0.004 C 
ATOM      6  C   UNL     1      -0.357  32.576  45.420  1.00  0.00     0.013 C 
ATOM      7  C   UNL     1      -1.700  31.719  43.360  1.00  0.00    -0.063 C 
ATOM      8  C   UNL     1      -0.551  29.741  41.998  1.00  0.00    -0.003 C 
ATOM      9  C   UNL     1       0.756  29.451  41.192  1.00  0.00    -0.011 C 
ATOM     10  C   UNL     1      -1.797  32.319  44.795  1.00  0.00    -0.006 C 
ATOM     11  C   UNL     1      -2.658  32.005  42.429  1.00  0.00    -0.027 C 
ATOM     12  C   UNL     1      -1.021  28.504  42.776  1.00  0.00     0.008 C 
ATOM     13  C   UNL     1       0.842  30.302  39.909  1.00  0.00     0.008 C 
ATOM     14  C   UNL     1      -2.507  31.241  45.697  1.00  0.00     0.017 C 
ATOM     15  C   UNL     1      -2.640  33.698  44.757  1.00  0.00    -0.020 C 
ATOM     16  C   UNL     1      -3.761  33.030  42.561  1.00  0.00     0.032 C 
ATOM     17  C   UNL     1      -4.019  33.455  44.016  1.00  0.00     0.006 C 
ATOM     18  C   UNL     1      -2.901  34.250  46.203  1.00  0.00     0.008 C 
ATOM     19  C   UNL     1      -1.778  34.753  43.978  1.00  0.00     0.012 C 
ATOM     20  C   UNL     1      -5.198  34.518  44.292  1.00  0.00    -0.025 C 
ATOM     21  C   UNL     1      -4.328  34.030  46.708  1.00  0.00     0.005 C 
ATOM     22  C   UNL     1      -5.364  34.810  45.860  1.00  0.00     0.003 C 
ATOM     23  C   UNL     1      -6.541  33.963  43.700  1.00  0.00     0.010 C 
ATOM     24  C   UNL     1      -4.928  35.866  43.565  1.00  0.00     0.012 C 
ATOM     25  C   UNL     1      -6.853  34.667  46.418  1.00  0.00    -0.006 C 
ATOM     26  C   UNL     1      -7.200  32.860  44.547  1.00  0.00     0.033 C 
ATOM     27  C   UNL     1      -7.445  33.275  46.022  1.00  0.00     0.120 C 
ATOM     28  C   UNL     1      -7.747  35.848  45.888  1.00  0.00     0.014 C 
ATOM     29  C   UNL     1      -6.885  34.759  47.977  1.00  0.00     0.014 C 
ENDROOT
BRANCH   1  30
ATOM     30  C   UNL     1       0.959  29.994  44.869  1.00  0.00     0.048 C 
ATOM     31  O   UNL     1       2.061  29.833  45.467  1.00  0.00    -0.550 OA
ATOM     32  O   UNL     1      -0.123  29.259  45.315  1.00  0.00    -0.550 OA
ENDBRANCH   1  30
BRANCH  27  33
ATOM     33  O   UNL     1      -8.809  33.179  46.387  1.00  0.00    -0.393 OA
ATOM     34  H   UNL     1      -8.893  32.777  47.284  1.00  0.00     0.210 HD
ENDBRANCH  27  33
TORSDOF 2
ENDMDL
MODEL 4
REMARK VINA RESULT:    -6.006      4.718      8.496
REMARK INTER + INTRA:          -6.014
REMARK INTER:                  -6.549
REMARK INTRA:                   0.535
REMARK UNBOUND:                 0.519
REMARK SMILES C[C@H]1[C@H]2C3=CC[C@@H]4[C@@]5(C)CC[C@H](O)C(C)(C)[C@H]5CC[C@@]4(C)[C@]3(C)CC[C@]2(C(=O)[O-])CC[C@@H]1C
REMARK SMILES IDX 26 1 30 2 25 3 3 4 31 5 24 6 4 7 2 8 32 9 22 10 5 11 1 12
REMARK SMILES IDX 33 13 23 14 20 15 6 16 7 17 19 18 21 19 8 20 18 21 17 22
REMARK SMILES IDX 10 23 9 24 14 25 11 26 12 27 15 28 16 29 27 30 28 31 29 32
REMARK SMILES IDX 13 33
REMARK H PARENT 13 34
REMARK Flexibility Score: inf
ROOT
ATOM      1  C   UNL     1      -5.289  35.483  45.222  1.00  0.00     0.017 C 
ATOM      2  C   UNL     1      -5.873  36.315  46.408  1.00  0.00     0.014 C 
ATOM      3  C   UNL     1      -3.903  36.013  44.835  1.00  0.00     0.014 C 
ATOM      4  C   UNL     1      -5.080  34.030  45.768  1.00  0.00     0.030 C 
ATOM      5  C   UNL     1      -7.217  35.725  46.897  1.00  0.00     0.004 C 
ATOM      6  C   UNL     1      -3.336  35.216  43.637  1.00  0.00     0.013 C 
ATOM      7  C   UNL     1      -4.033  33.147  45.057  1.00  0.00    -0.063 C 
ATOM      8  C   UNL     1      -6.394  33.345  46.270  1.00  0.00    -0.003 C 
ATOM      9  C   UNL     1      -7.120  34.240  47.326  1.00  0.00    -0.011 C 
ATOM     10  C   UNL     1      -3.264  33.635  43.791  1.00  0.00    -0.006 C 
ATOM     11  C   UNL     1      -3.609  32.039  45.733  1.00  0.00    -0.027 C 
ATOM     12  C   UNL     1      -7.356  32.873  45.171  1.00  0.00     0.008 C 
ATOM     13  C   UNL     1      -6.481  34.115  48.724  1.00  0.00     0.008 C 
ATOM     14  C   UNL     1      -3.996  33.014  42.542  1.00  0.00     0.017 C 
ATOM     15  C   UNL     1      -1.723  33.153  43.866  1.00  0.00    -0.020 C 
ATOM     16  C   UNL     1      -2.315  31.290  45.510  1.00  0.00     0.032 C 
ATOM     17  C   UNL     1      -1.668  31.595  44.148  1.00  0.00     0.006 C 
ATOM     18  C   UNL     1      -0.955  33.481  42.537  1.00  0.00     0.008 C 
ATOM     19  C   UNL     1      -1.040  33.947  45.036  1.00  0.00     0.012 C 
ATOM     20  C   UNL     1      -0.300  30.829  43.776  1.00  0.00    -0.025 C 
ATOM     21  C   UNL     1      -0.718  32.269  41.636  1.00  0.00     0.005 C 
ATOM     22  C   UNL     1       0.208  31.225  42.308  1.00  0.00     0.003 C 
ATOM     23  C   UNL     1      -0.536  29.281  43.868  1.00  0.00     0.010 C 
ATOM     24  C   UNL     1       0.829  31.157  44.795  1.00  0.00     0.012 C 
ATOM     25  C   UNL     1       0.541  29.989  41.354  1.00  0.00    -0.006 C 
ATOM     26  C   UNL     1      -1.311  28.685  42.680  1.00  0.00     0.033 C 
ATOM     27  C   UNL     1      -0.675  29.007  41.302  1.00  0.00     0.120 C 
ATOM     28  C   UNL     1       1.849  29.263  41.842  1.00  0.00     0.014 C 
ATOM     29  C   UNL     1       0.821  30.460  39.892  1.00  0.00     0.014 C 
ENDROOT
BRANCH   1  30
ATOM     30  C   UNL     1      -6.224  35.683  44.014  1.00  0.00     0.048 C 
ATOM     31  O   UNL     1      -6.530  36.856  43.655  1.00  0.00    -0.550 OA
ATOM     32  O   UNL     1      -6.661  34.640  43.221  1.00  0.00    -0.550 OA
ENDBRANCH   1  30
BRANCH  27  33
ATOM     33  O   UNL     1      -0.355  27.837  40.573  1.00  0.00    -0.393 OA
ATOM     34  H   UNL     1      -1.159  27.485  40.124  1.00  0.00     0.210 HD
ENDBRANCH  27  33
TORSDOF 2
ENDMDL
MODEL 5
REMARK VINA RESULT:    -5.946      9.624     13.208
REMARK INTER + INTRA:          -5.948
REMARK INTER:                  -6.474
REMARK INTRA:                   0.526
REMARK UNBOUND:                 0.519
REMARK SMILES C[C@H]1[C@H]2C3=CC[C@@H]4[C@@]5(C)CC[C@H](O)C(C)(C)[C@H]5CC[C@@]4(C)[C@]3(C)CC[C@]2(C(=O)[O-])CC[C@@H]1C
REMARK SMILES IDX 26 1 30 2 25 3 3 4 31 5 24 6 4 7 2 8 32 9 22 10 5 11 1 12
REMARK SMILES IDX 33 13 23 14 20 15 6 16 7 17 19 18 21 19 8 20 18 21 17 22
REMARK SMILES IDX 10 23 9 24 14 25 11 26 12 27 15 28 16 29 27 30 28 31 29 32
REMARK SMILES IDX 13 33
REMARK H PARENT 13 34
REMARK Flexibility Score: inf
ROOT
ATOM      1  C   UNL     1      -9.080  31.781  57.661  1.00  0.00     0.017 C 
ATOM      2  C   UNL     1      -9.659  32.340  58.999  1.00  0.00     0.014 C 
ATOM      3  C   UNL     1      -7.914  30.826  57.948  1.00  0.00     0.014 C 
ATOM      4  C   UNL     1     -10.219  30.921  57.017  1.00  0.00     0.030 C 
ATOM      5  C   UNL     1     -10.913  33.211  58.746  1.00  0.00     0.004 C 
ATOM      6  C   UNL     1      -7.312  30.298  56.624  1.00  0.00     0.013 C 
ATOM      7  C   UNL     1      -9.801  29.816  56.024  1.00  0.00    -0.063 C 
ATOM      8  C   UNL     1     -11.524  31.726  56.707  1.00  0.00    -0.003 C 
ATOM      9  C   UNL     1     -12.037  32.467  57.984  1.00  0.00    -0.011 C 
ATOM     10  C   UNL     1      -8.315  29.604  55.602  1.00  0.00    -0.006 C 
ATOM     11  C   UNL     1     -10.737  28.862  55.743  1.00  0.00    -0.027 C 
ATOM     12  C   UNL     1     -11.450  32.668  55.498  1.00  0.00     0.008 C 
ATOM     13  C   UNL     1     -12.805  31.521  58.930  1.00  0.00     0.008 C 
ATOM     14  C   UNL     1      -8.126  30.319  54.212  1.00  0.00     0.017 C 
ATOM     15  C   UNL     1      -7.995  28.023  55.497  1.00  0.00    -0.020 C 
ATOM     16  C   UNL     1     -10.472  27.472  55.210  1.00  0.00     0.032 C 
ATOM     17  C   UNL     1      -9.079  27.324  54.577  1.00  0.00     0.006 C 
ATOM     18  C   UNL     1      -6.559  27.767  54.917  1.00  0.00     0.008 C 
ATOM     19  C   UNL     1      -8.048  27.436  56.952  1.00  0.00     0.012 C 
ATOM     20  C   UNL     1      -8.690  25.896  53.940  1.00  0.00    -0.025 C 
ATOM     21  C   UNL     1      -6.546  27.309  53.458  1.00  0.00     0.005 C 
ATOM     22  C   UNL     1      -7.229  25.930  53.282  1.00  0.00     0.003 C 
ATOM     23  C   UNL     1      -9.761  25.504  52.861  1.00  0.00     0.010 C 
ATOM     24  C   UNL     1      -8.723  24.768  55.011  1.00  0.00     0.012 C 
ATOM     25  C   UNL     1      -7.153  25.390  51.781  1.00  0.00    -0.006 C 
ATOM     26  C   UNL     1      -9.618  26.254  51.525  1.00  0.00     0.033 C 
ATOM     27  C   UNL     1      -8.208  26.125  50.891  1.00  0.00     0.120 C 
ATOM     28  C   UNL     1      -7.359  23.830  51.754  1.00  0.00     0.014 C 
ATOM     29  C   UNL     1      -5.748  25.656  51.153  1.00  0.00     0.014 C 
ENDROOT
BRANCH   1  30
ATOM     30  C   UNL     1      -8.524  32.977  56.863  1.00  0.00     0.048 C 
ATOM     31  O   UNL     1      -7.770  33.810  57.441  1.00  0.00    -0.550 OA
ATOM     32  O   UNL     1      -8.717  33.126  55.503  1.00  0.00    -0.550 OA
ENDBRANCH   1  30
BRANCH  27  33
ATOM     33  O   UNL     1      -8.253  25.568  49.590  1.00  0.00    -0.393 OA
ATOM     34  H   UNL     1      -7.392  25.140  49.373  1.00  0.00     0.210 HD
ENDBRANCH  27  33
TORSDOF 2
ENDMDL
MODEL 6
REMARK VINA RESULT:    -5.931      4.295      6.140
REMARK INTER + INTRA:          -5.932
REMARK INTER:                  -6.451
REMARK INTRA:                   0.520
REMARK UNBOUND:                 0.519
REMARK SMILES C[C@H]1[C@H]2C3=CC[C@@H]4[C@@]5(C)CC[C@H](O)C(C)(C)[C@H]5CC[C@@]4(C)[C@]3(C)CC[C@]2(C(=O)[O-])CC[C@@H]1C
REMARK SMILES IDX 26 1 30 2 25 3 3 4 31 5 24 6 4 7 2 8 32 9 22 10 5 11 1 12
REMARK SMILES IDX 33 13 23 14 20 15 6 16 7 17 19 18 21 19 8 20 18 21 17 22
REMARK SMILES IDX 10 23 9 24 14 25 11 26 12 27 15 28 16 29 27 30 28 31 29 32
REMARK SMILES IDX 13 33
REMARK H PARENT 13 34
REMARK Flexibility Score: inf
ROOT
ATOM      1  C   UNL     1      -5.977  32.472  45.178  1.00  0.00     0.017 C 
ATOM      2  C   UNL     1      -7.126  31.415  45.199  1.00  0.00     0.014 C 
ATOM      3  C   UNL     1      -4.617  31.773  45.053  1.00  0.00     0.014 C 
ATOM      4  C   UNL     1      -6.176  33.308  43.868  1.00  0.00     0.030 C 
ATOM      5  C   UNL     1      -8.515  32.098  45.204  1.00  0.00     0.004 C 
ATOM      6  C   UNL     1      -3.472  32.814  45.068  1.00  0.00     0.013 C 
ATOM      7  C   UNL     1      -4.938  34.021  43.284  1.00  0.00    -0.063 C 
ATOM      8  C   UNL     1      -7.551  34.051  43.793  1.00  0.00    -0.003 C 
ATOM      9  C   UNL     1      -8.735  33.054  44.006  1.00  0.00    -0.011 C 
ATOM     10  C   UNL     1      -3.553  33.991  44.000  1.00  0.00    -0.006 C 
ATOM     11  C   UNL     1      -5.032  34.444  41.989  1.00  0.00    -0.027 C 
ATOM     12  C   UNL     1      -7.685  35.289  44.692  1.00  0.00     0.008 C 
ATOM     13  C   UNL     1      -9.056  32.260  42.724  1.00  0.00     0.008 C 
ATOM     14  C   UNL     1      -3.417  35.344  44.794  1.00  0.00     0.017 C 
ATOM     15  C   UNL     1      -2.373  33.831  42.907  1.00  0.00    -0.020 C 
ATOM     16  C   UNL     1      -3.881  34.728  41.050  1.00  0.00     0.032 C 
ATOM     17  C   UNL     1      -2.543  34.932  41.780  1.00  0.00     0.006 C 
ATOM     18  C   UNL     1      -0.957  33.961  43.570  1.00  0.00     0.008 C 
ATOM     19  C   UNL     1      -2.497  32.393  42.291  1.00  0.00     0.012 C 
ATOM     20  C   UNL     1      -1.246  35.278  40.890  1.00  0.00    -0.025 C 
ATOM     21  C   UNL     1      -0.266  35.301  43.313  1.00  0.00     0.005 C 
ATOM     22  C   UNL     1       0.047  35.507  41.810  1.00  0.00     0.003 C 
ATOM     23  C   UNL     1      -1.535  36.561  40.034  1.00  0.00     0.010 C 
ATOM     24  C   UNL     1      -0.934  34.142  39.875  1.00  0.00     0.012 C 
ATOM     25  C   UNL     1       0.845  36.861  41.525  1.00  0.00    -0.006 C 
ATOM     26  C   UNL     1      -1.470  37.879  40.825  1.00  0.00     0.033 C 
ATOM     27  C   UNL     1      -0.130  38.082  41.580  1.00  0.00     0.120 C 
ATOM     28  C   UNL     1       1.585  36.774  40.140  1.00  0.00     0.014 C 
ATOM     29  C   UNL     1       1.953  37.102  42.599  1.00  0.00     0.014 C 
ENDROOT
BRANCH   1  30
ATOM     30  C   UNL     1      -6.003  33.211  46.530  1.00  0.00     0.048 C 
ATOM     31  O   UNL     1      -6.076  32.543  47.600  1.00  0.00    -0.550 OA
ATOM     32  O   UNL     1      -5.836  34.578  46.642  1.00  0.00    -0.550 OA
ENDBRANCH   1  30
BRANCH  27  33
ATOM     33  O   UNL     1       0.526  39.276  41.197  1.00  0.00    -0.393 OA
ATOM     34  H   UNL     1       1.499  39.125  41.137  1.00  0.00     0.210 HD
ENDBRANCH  27  33
TORSDOF 2
ENDMDL
MODEL 7
REMARK VINA RESULT:    -5.873      4.200      6.489
REMARK INTER + INTRA:          -5.869
REMARK INTER:                  -6.395
REMARK INTRA:                   0.527
REMARK UNBOUND:                 0.519
REMARK SMILES C[C@H]1[C@H]2C3=CC[C@@H]4[C@@]5(C)CC[C@H](O)C(C)(C)[C@H]5CC[C@@]4(C)[C@]3(C)CC[C@]2(C(=O)[O-])CC[C@@H]1C
REMARK SMILES IDX 26 1 30 2 25 3 3 4 31 5 24 6 4 7 2 8 32 9 22 10 5 11 1 12
REMARK SMILES IDX 33 13 23 14 20 15 6 16 7 17 19 18 21 19 8 20 18 21 17 22
REMARK SMILES IDX 10 23 9 24 14 25 11 26 12 27 15 28 16 29 27 30 28 31 29 32
REMARK SMILES IDX 13 33
REMARK H PARENT 13 34
REMARK Flexibility Score: inf
ROOT
ATOM      1  C   UNL     1      -0.989  31.711  43.574  1.00  0.00     0.017 C 
ATOM      2  C   UNL     1      -0.493  30.303  43.114  1.00  0.00     0.014 C 
ATOM      3  C   UNL     1      -1.685  32.432  42.412  1.00  0.00     0.014 C 
ATOM      4  C   UNL     1      -2.082  31.455  44.665  1.00  0.00     0.030 C 
ATOM      5  C   UNL     1       0.105  29.506  44.298  1.00  0.00     0.004 C 
ATOM      6  C   UNL     1      -2.145  33.842  42.851  1.00  0.00     0.013 C 
ATOM      7  C   UNL     1      -3.128  32.566  44.899  1.00  0.00    -0.063 C 
ATOM      8  C   UNL     1      -1.560  30.669  45.913  1.00  0.00    -0.003 C 
ATOM      9  C   UNL     1      -0.877  29.331  45.482  1.00  0.00    -0.011 C 
ATOM     10  C   UNL     1      -3.065  33.930  44.146  1.00  0.00    -0.006 C 
ATOM     11  C   UNL     1      -4.257  32.208  45.578  1.00  0.00    -0.027 C 
ATOM     12  C   UNL     1      -0.676  31.470  46.879  1.00  0.00     0.008 C 
ATOM     13  C   UNL     1      -1.910  28.228  45.177  1.00  0.00     0.008 C 
ATOM     14  C   UNL     1      -2.390  34.963  45.124  1.00  0.00     0.017 C 
ATOM     15  C   UNL     1      -4.557  34.399  43.736  1.00  0.00    -0.020 C 
ATOM     16  C   UNL     1      -5.591  32.917  45.542  1.00  0.00     0.032 C 
ATOM     17  C   UNL     1      -5.494  34.358  45.013  1.00  0.00     0.006 C 
ATOM     18  C   UNL     1      -4.555  35.844  43.123  1.00  0.00     0.008 C 
ATOM     19  C   UNL     1      -5.077  33.402  42.642  1.00  0.00     0.012 C 
ATOM     20  C   UNL     1      -6.846  35.233  44.960  1.00  0.00    -0.025 C 
ATOM     21  C   UNL     1      -5.065  36.928  44.073  1.00  0.00     0.005 C 
ATOM     22  C   UNL     1      -6.558  36.719  44.433  1.00  0.00     0.003 C 
ATOM     23  C   UNL     1      -7.486  35.280  46.392  1.00  0.00     0.010 C 
ATOM     24  C   UNL     1      -7.909  34.578  44.032  1.00  0.00     0.012 C 
ATOM     25  C   UNL     1      -7.139  37.885  45.356  1.00  0.00    -0.006 C 
ATOM     26  C   UNL     1      -6.784  36.239  47.369  1.00  0.00     0.033 C 
ATOM     27  C   UNL     1      -6.664  37.690  46.833  1.00  0.00     0.120 C 
ATOM     28  C   UNL     1      -8.709  37.927  45.254  1.00  0.00     0.014 C 
ATOM     29  C   UNL     1      -6.633  39.286  44.885  1.00  0.00     0.014 C 
ENDROOT
BRANCH   1  30
ATOM     30  C   UNL     1       0.255  32.534  43.961  1.00  0.00     0.048 C 
ATOM     31  O   UNL     1       1.279  32.497  43.220  1.00  0.00    -0.550 OA
ATOM     32  O   UNL     1       0.273  33.411  45.029  1.00  0.00    -0.550 OA
ENDBRANCH   1  30
BRANCH  27  33
ATOM     33  O   UNL     1      -7.277  38.632  47.694  1.00  0.00    -0.393 OA
ATOM     34  H   UNL     1      -6.961  38.504  48.619  1.00  0.00     0.210 HD
ENDBRANCH  27  33
TORSDOF 2
ENDMDL
MODEL 8
REMARK VINA RESULT:    -5.838      5.960      9.205
REMARK INTER + INTRA:          -5.831
REMARK INTER:                  -6.354
REMARK INTRA:                   0.522
REMARK UNBOUND:                 0.519
REMARK SMILES C[C@H]1[C@H]2C3=CC[C@@H]4[C@@]5(C)CC[C@H](O)C(C)(C)[C@H]5CC[C@@]4(C)[C@]3(C)CC[C@]2(C(=O)[O-])CC[C@@H]1C
REMARK SMILES IDX 26 1 30 2 25 3 3 4 31 5 24 6 4 7 2 8 32 9 22 10 5 11 1 12
REMARK SMILES IDX 33 13 23 14 20 15 6 16 7 17 19 18 21 19 8 20 18 21 17 22
REMARK SMILES IDX 10 23 9 24 14 25 11 26 12 27 15 28 16 29 27 30 28 31 29 32
REMARK SMILES IDX 13 33
REMARK H PARENT 13 34
REMARK Flexibility Score: inf
ROOT
ATOM      1  C   UNL     1      -4.899  39.103  45.502  1.00  0.00     0.017 C 
ATOM      2  C   UNL     1      -6.221  39.776  45.014  1.00  0.00     0.014 C 
ATOM      3  C   UNL     1      -4.252  39.947  46.608  1.00  0.00     0.014 C 
ATOM      4  C   UNL     1      -5.316  37.743  46.158  1.00  0.00     0.030 C 
ATOM      5  C   UNL     1      -6.955  38.885  43.984  1.00  0.00     0.004 C 
ATOM      6  C   UNL     1      -2.923  39.304  47.069  1.00  0.00     0.013 C 
ATOM      7  C   UNL     1      -4.355  37.132  47.200  1.00  0.00    -0.063 C 
ATOM      8  C   UNL     1      -6.052  36.767  45.181  1.00  0.00    -0.003 C 
ATOM      9  C   UNL     1      -7.280  37.467  44.515  1.00  0.00    -0.011 C 
ATOM     10  C   UNL     1      -2.981  37.785  47.539  1.00  0.00    -0.006 C 
ATOM     11  C   UNL     1      -4.871  36.159  48.008  1.00  0.00    -0.027 C 
ATOM     12  C   UNL     1      -5.161  36.077  44.139  1.00  0.00     0.008 C 
ATOM     13  C   UNL     1      -8.502  37.502  45.455  1.00  0.00     0.008 C 
ATOM     14  C   UNL     1      -1.887  37.005  46.717  1.00  0.00     0.017 C 
ATOM     15  C   UNL     1      -2.702  37.684  49.128  1.00  0.00    -0.020 C 
ATOM     16  C   UNL     1      -4.341  35.738  49.360  1.00  0.00     0.032 C 
ATOM     17  C   UNL     1      -2.890  36.185  49.604  1.00  0.00     0.006 C 
ATOM     18  C   UNL     1      -1.258  38.182  49.490  1.00  0.00     0.008 C 
ATOM     19  C   UNL     1      -3.738  38.621  49.846  1.00  0.00     0.012 C 
ATOM     20  C   UNL     1      -2.198  35.765  50.997  1.00  0.00    -0.025 C 
ATOM     21  C   UNL     1      -0.269  37.058  49.799  1.00  0.00     0.005 C 
ATOM     22  C   UNL     1      -0.677  36.266  51.067  1.00  0.00     0.003 C 
ATOM     23  C   UNL     1      -2.262  34.205  51.155  1.00  0.00     0.010 C 
ATOM     24  C   UNL     1      -2.968  36.354  52.213  1.00  0.00     0.012 C 
ATOM     25  C   UNL     1       0.385  35.141  51.462  1.00  0.00    -0.006 C 
ATOM     26  C   UNL     1      -1.239  33.438  50.299  1.00  0.00     0.033 C 
ATOM     27  C   UNL     1       0.225  33.898  50.526  1.00  0.00     0.120 C 
ATOM     28  C   UNL     1       0.223  34.749  52.977  1.00  0.00     0.014 C 
ATOM     29  C   UNL     1       1.849  35.661  51.298  1.00  0.00     0.014 C 
ENDROOT
BRANCH   1  30
ATOM     30  C   UNL     1      -3.928  39.072  44.306  1.00  0.00     0.048 C 
ATOM     31  O   UNL     1      -3.742  40.125  43.631  1.00  0.00    -0.550 OA
ATOM     32  O   UNL     1      -3.154  37.971  43.995  1.00  0.00    -0.550 OA
ENDBRANCH   1  30
BRANCH  27  33
ATOM     33  O   UNL     1       1.063  32.836  50.943  1.00  0.00    -0.393 OA
ATOM     34  H   UNL     1       1.760  32.667  50.267  1.00  0.00     0.210 HD
ENDBRANCH  27  33
TORSDOF 2
ENDMDL
MODEL 9
REMARK VINA RESULT:    -5.643      4.463      8.095
REMARK INTER + INTRA:          -5.619
REMARK INTER:                  -6.144
REMARK INTRA:                   0.525
REMARK UNBOUND:                 0.519
REMARK SMILES C[C@H]1[C@H]2C3=CC[C@@H]4[C@@]5(C)CC[C@H](O)C(C)(C)[C@H]5CC[C@@]4(C)[C@]3(C)CC[C@]2(C(=O)[O-])CC[C@@H]1C
REMARK SMILES IDX 26 1 30 2 25 3 3 4 31 5 24 6 4 7 2 8 32 9 22 10 5 11 1 12
REMARK SMILES IDX 33 13 23 14 20 15 6 16 7 17 19 18 21 19 8 20 18 21 17 22
REMARK SMILES IDX 10 23 9 24 14 25 11 26 12 27 15 28 16 29 27 30 28 31 29 32
REMARK SMILES IDX 13 33
REMARK H PARENT 13 34
REMARK Flexibility Score: inf
ROOT
ATOM      1  C   UNL     1      -9.723  21.957  42.977  1.00  0.00     0.017 C 
ATOM      2  C   UNL     1      -9.682  20.709  42.039  1.00  0.00     0.014 C 
ATOM      3  C   UNL     1      -8.466  22.813  42.776  1.00  0.00     0.014 C 
ATOM      4  C   UNL     1     -10.938  22.823  42.500  1.00  0.00     0.030 C 
ATOM      5  C   UNL     1     -10.994  19.894  42.135  1.00  0.00     0.004 C 
ATOM      6  C   UNL     1      -8.484  24.030  43.729  1.00  0.00     0.013 C 
ATOM      7  C   UNL     1     -10.910  24.331  42.830  1.00  0.00    -0.063 C 
ATOM      8  C   UNL     1     -12.314  22.083  42.579  1.00  0.00    -0.003 C 
ATOM      9  C   UNL     1     -12.260  20.723  41.810  1.00  0.00    -0.011 C 
ATOM     10  C   UNL     1      -9.767  24.970  43.675  1.00  0.00    -0.006 C 
ATOM     11  C   UNL     1     -11.771  25.125  42.127  1.00  0.00    -0.027 C 
ATOM     12  C   UNL     1     -12.895  21.912  43.990  1.00  0.00     0.008 C 
ATOM     13  C   UNL     1     -12.413  20.916  40.288  1.00  0.00     0.008 C 
ATOM     14  C   UNL     1     -10.305  25.102  45.149  1.00  0.00     0.017 C 
ATOM     15  C   UNL     1      -9.373  26.413  43.063  1.00  0.00    -0.020 C 
ATOM     16  C   UNL     1     -11.640  26.614  41.902  1.00  0.00     0.032 C 
ATOM     17  C   UNL     1     -10.681  27.291  42.896  1.00  0.00     0.006 C 
ATOM     18  C   UNL     1      -8.342  27.162  43.979  1.00  0.00     0.008 C 
ATOM     19  C   UNL     1      -8.699  26.162  41.668  1.00  0.00     0.012 C 
ATOM     20  C   UNL     1     -10.485  28.887  42.783  1.00  0.00    -0.025 C 
ATOM     21  C   UNL     1      -8.950  28.291  44.812  1.00  0.00     0.005 C 
ATOM     22  C   UNL     1      -9.496  29.434  43.920  1.00  0.00     0.003 C 
ATOM     23  C   UNL     1     -11.884  29.587  42.899  1.00  0.00     0.010 C 
ATOM     24  C   UNL     1      -9.913  29.291  41.394  1.00  0.00     0.012 C 
ATOM     25  C   UNL     1     -10.059  30.664  44.767  1.00  0.00    -0.006 C 
ATOM     26  C   UNL     1     -12.442  29.656  44.331  1.00  0.00     0.033 C 
ATOM     27  C   UNL     1     -11.472  30.320  45.343  1.00  0.00     0.120 C 
ATOM     28  C   UNL     1     -10.097  31.963  43.879  1.00  0.00     0.014 C 
ATOM     29  C   UNL     1      -9.129  30.991  45.979  1.00  0.00     0.014 C 
ENDROOT
BRANCH   1  30
ATOM     30  C   UNL     1      -9.715  21.443  44.430  1.00  0.00     0.048 C 
ATOM     31  O   UNL     1      -8.873  20.565  44.772  1.00  0.00    -0.550 OA
ATOM     32  O   UNL     1     -10.516  21.980  45.420  1.00  0.00    -0.550 OA
ENDBRANCH   1  30
BRANCH  27  33
ATOM     33  O   UNL     1     -12.049  31.443  45.982  1.00  0.00    -0.393 OA
ATOM     34  H   UNL     1     -11.590  31.622  46.836  1.00  0.00     0.210 HD
ENDBRANCH  27  33
TORSDOF 2
ENDMDL
