MODEL 1
REMARK VINA RESULT:    -5.145      0.000      0.000
REMARK INTER + INTRA:          -5.642
REMARK INTER:                  -5.597
REMARK INTRA:                  -0.046
REMARK UNBOUND:                -0.046
REMARK SMILES COc1cc2ccc(=O)oc2cc1O
REMARK SMILES IDX 3 1 13 2 12 3 11 4 5 5 4 6 6 7 7 8 8 9 9 10 10 11 2 12 1 13
REMARK SMILES IDX 14 14
REMARK H PARENT 14 15
REMARK Flexibility Score: inf
ROOT
ATOM      1  C   UNL     1      27.595 -51.221  -8.185  1.00  0.00     0.161 A 
ATOM      2  C   UNL     1      26.662 -51.242  -9.233  1.00  0.00     0.161 A 
ATOM      3  C   UNL     1      27.096 -51.281 -10.567  1.00  0.00     0.098 A 
ATOM      4  C   UNL     1      28.460 -51.299 -10.863  1.00  0.00     0.142 A 
ATOM      5  C   UNL     1      29.405 -51.278  -9.815  1.00  0.00     0.022 A 
ATOM      6  C   UNL     1      28.972 -51.240  -8.482  1.00  0.00     0.062 A 
ATOM      7  C   UNL     1      30.764 -51.297 -10.144  1.00  0.00     0.019 A 
ATOM      8  C   UNL     1      31.145 -51.335 -11.484  1.00  0.00     0.094 A 
ATOM      9  C   UNL     1      30.152 -51.354 -12.470  1.00  0.00     0.336 A 
ATOM     10  O   UNL     1      30.475 -51.388 -13.687  1.00  0.00    -0.246 OA
ATOM     11  O   UNL     1      28.866 -51.336 -12.130  1.00  0.00    -0.423 OA
ENDROOT
BRANCH   1  12
ATOM     12  O   UNL     1      27.116 -51.183  -6.866  1.00  0.00    -0.493 OA
ATOM     13  C   UNL     1      27.900 -51.476  -5.714  1.00  0.00     0.278 C 
ENDBRANCH   1  12
BRANCH   2  14
ATOM     14  O   UNL     1      25.299 -51.224  -8.941  1.00  0.00    -0.504 OA
ATOM     15  H   UNL     1      24.736 -52.065  -8.981  1.00  0.00     0.293 HD
ENDBRANCH   2  14
TORSDOF 2
ENDMDL
MODEL 2
REMARK VINA RESULT:    -4.924      3.620      5.290
REMARK INTER + INTRA:          -5.401
REMARK INTER:                  -5.336
REMARK INTRA:                  -0.065
REMARK UNBOUND:                -0.046
REMARK SMILES COc1cc2ccc(=O)oc2cc1O
REMARK SMILES IDX 3 1 13 2 12 3 11 4 5 5 4 6 6 7 7 8 8 9 9 10 10 11 2 12 1 13
REMARK SMILES IDX 14 14
REMARK H PARENT 14 15
REMARK Flexibility Score: inf
ROOT
ATOM      1  C   UNL     1      29.534 -55.522 -11.185  1.00  0.00     0.161 A 
ATOM      2  C   UNL     1      28.389 -56.017 -10.541  1.00  0.00     0.161 A 
ATOM      3  C   UNL     1      27.394 -55.136 -10.091  1.00  0.00     0.098 A 
ATOM      4  C   UNL     1      27.534 -53.760 -10.280  1.00  0.00     0.142 A 
ATOM      5  C   UNL     1      28.681 -53.254 -10.927  1.00  0.00     0.022 A 
ATOM      6  C   UNL     1      29.676 -54.133 -11.376  1.00  0.00     0.062 A 
ATOM      7  C   UNL     1      28.793 -51.871 -11.101  1.00  0.00     0.019 A 
ATOM      8  C   UNL     1      27.776 -51.038 -10.636  1.00  0.00     0.094 A 
ATOM      9  C   UNL     1      26.667 -51.610 -10.004  1.00  0.00     0.336 A 
ATOM     10  O   UNL     1      25.738 -50.875  -9.577  1.00  0.00    -0.246 OA
ATOM     11  O   UNL     1      26.585 -52.930  -9.852  1.00  0.00    -0.423 OA
ENDROOT
BRANCH   1  12
ATOM     12  O   UNL     1      30.504 -56.439 -11.618  1.00  0.00    -0.493 OA
ATOM     13  C   UNL     1      30.701 -56.823 -12.976  1.00  0.00     0.278 C 
ENDBRANCH   1  12
BRANCH   2  14
ATOM     14  O   UNL     1      28.246 -57.390 -10.351  1.00  0.00    -0.504 OA
ATOM     15  H   UNL     1      28.986 -58.039 -10.590  1.00  0.00     0.293 HD
ENDBRANCH   2  14
TORSDOF 2
ENDMDL
MODEL 3
REMARK VINA RESULT:    -4.846     16.165     16.671
REMARK INTER + INTRA:          -5.316
REMARK INTER:                  -5.259
REMARK INTRA:                  -0.057
REMARK UNBOUND:                -0.046
REMARK SMILES COc1cc2ccc(=O)oc2cc1O
REMARK SMILES IDX 3 1 13 2 12 3 11 4 5 5 4 6 6 7 7 8 8 9 9 10 10 11 2 12 1 13
REMARK SMILES IDX 14 14
REMARK H PARENT 14 15
REMARK Flexibility Score: inf
ROOT
ATOM      1  C   UNL     1      31.839 -64.972  -6.574  1.00  0.00     0.161 A 
ATOM      2  C   UNL     1      30.751 -65.296  -5.748  1.00  0.00     0.161 A 
ATOM      3  C   UNL     1      30.388 -66.637  -5.550  1.00  0.00     0.098 A 
ATOM      4  C   UNL     1      31.105 -67.660  -6.174  1.00  0.00     0.142 A 
ATOM      5  C   UNL     1      32.199 -67.342  -7.007  1.00  0.00     0.022 A 
ATOM      6  C   UNL     1      32.563 -66.003  -7.204  1.00  0.00     0.062 A 
ATOM      7  C   UNL     1      32.897 -68.389  -7.618  1.00  0.00     0.019 A 
ATOM      8  C   UNL     1      32.496 -69.705  -7.390  1.00  0.00     0.094 A 
ATOM      9  C   UNL     1      31.401 -69.944  -6.553  1.00  0.00     0.336 A 
ATOM     10  O   UNL     1      31.022 -71.125  -6.335  1.00  0.00    -0.246 OA
ATOM     11  O   UNL     1      30.755 -68.930  -5.983  1.00  0.00    -0.423 OA
ENDROOT
BRANCH   1  12
ATOM     12  O   UNL     1      32.167 -63.617  -6.742  1.00  0.00    -0.493 OA
ATOM     13  C   UNL     1      32.284 -62.967  -8.004  1.00  0.00     0.278 C 
ENDBRANCH   1  12
BRANCH   2  14
ATOM     14  O   UNL     1      30.034 -64.277  -5.123  1.00  0.00    -0.504 OA
ATOM     15  H   UNL     1      30.222 -64.006  -4.165  1.00  0.00     0.293 HD
ENDBRANCH   2  14
TORSDOF 2
ENDMDL
MODEL 4
REMARK VINA RESULT:    -4.799      2.688      3.232
REMARK INTER + INTRA:          -5.265
REMARK INTER:                  -5.207
REMARK INTRA:                  -0.058
REMARK UNBOUND:                -0.046
REMARK SMILES COc1cc2ccc(=O)oc2cc1O
REMARK SMILES IDX 3 1 13 2 12 3 11 4 5 5 4 6 6 7 7 8 8 9 9 10 10 11 2 12 1 13
REMARK SMILES IDX 14 14
REMARK H PARENT 14 15
REMARK Flexibility Score: inf
ROOT
ATOM      1  C   UNL     1      27.416 -52.864 -10.342  1.00  0.00     0.161 A 
ATOM      2  C   UNL     1      27.591 -54.249 -10.195  1.00  0.00     0.161 A 
ATOM      3  C   UNL     1      28.711 -54.884 -10.753  1.00  0.00     0.098 A 
ATOM      4  C   UNL     1      29.660 -54.143 -11.459  1.00  0.00     0.142 A 
ATOM      5  C   UNL     1      29.492 -52.750 -11.612  1.00  0.00     0.022 A 
ATOM      6  C   UNL     1      28.373 -52.115 -11.054  1.00  0.00     0.062 A 
ATOM      7  C   UNL     1      30.460 -52.037 -12.325  1.00  0.00     0.019 A 
ATOM      8  C   UNL     1      31.555 -52.714 -12.861  1.00  0.00     0.094 A 
ATOM      9  C   UNL     1      31.656 -54.096 -12.670  1.00  0.00     0.336 A 
ATOM     10  O   UNL     1      32.636 -54.726 -13.146  1.00  0.00    -0.246 OA
ATOM     11  O   UNL     1      30.721 -54.751 -11.986  1.00  0.00    -0.423 OA
ENDROOT
BRANCH   1  12
ATOM     12  O   UNL     1      26.281 -52.271  -9.766  1.00  0.00    -0.493 OA
ATOM     13  C   UNL     1      26.318 -51.188  -8.842  1.00  0.00     0.278 C 
ENDBRANCH   1  12
BRANCH   2  14
ATOM     14  O   UNL     1      26.645 -54.991  -9.489  1.00  0.00    -0.504 OA
ATOM     15  H   UNL     1      26.591 -55.999  -9.572  1.00  0.00     0.293 HD
ENDBRANCH   2  14
TORSDOF 2
ENDMDL
MODEL 5
REMARK VINA RESULT:    -4.784      3.952      4.457
REMARK INTER + INTRA:          -5.249
REMARK INTER:                  -5.184
REMARK INTRA:                  -0.065
REMARK UNBOUND:                -0.046
REMARK SMILES COc1cc2ccc(=O)oc2cc1O
REMARK SMILES IDX 3 1 13 2 12 3 11 4 5 5 4 6 6 7 7 8 8 9 9 10 10 11 2 12 1 13
REMARK SMILES IDX 14 14
REMARK H PARENT 14 15
REMARK Flexibility Score: inf
ROOT
ATOM      1  C   UNL     1      28.236 -53.099 -10.650  1.00  0.00     0.161 A 
ATOM      2  C   UNL     1      27.451 -54.260 -10.563  1.00  0.00     0.161 A 
ATOM      3  C   UNL     1      27.951 -55.489 -11.020  1.00  0.00     0.098 A 
ATOM      4  C   UNL     1      29.234 -55.567 -11.567  1.00  0.00     0.142 A 
ATOM      5  C   UNL     1      30.029 -54.405 -11.659  1.00  0.00     0.022 A 
ATOM      6  C   UNL     1      29.530 -53.177 -11.202  1.00  0.00     0.062 A 
ATOM      7  C   UNL     1      31.309 -54.515 -12.212  1.00  0.00     0.019 A 
ATOM      8  C   UNL     1      31.759 -55.759 -12.653  1.00  0.00     0.094 A 
ATOM      9  C   UNL     1      30.916 -56.868 -12.530  1.00  0.00     0.336 A 
ATOM     10  O   UNL     1      31.304 -58.000 -12.922  1.00  0.00    -0.246 OA
ATOM     11  O   UNL     1      29.702 -56.735 -11.999  1.00  0.00    -0.423 OA
ENDROOT
BRANCH   1  12
ATOM     12  O   UNL     1      27.695 -51.892 -10.180  1.00  0.00    -0.493 OA
ATOM     13  C   UNL     1      27.141 -50.878 -11.013  1.00  0.00     0.278 C 
ENDBRANCH   1  12
BRANCH   2  14
ATOM     14  O   UNL     1      26.171 -54.185 -10.016  1.00  0.00    -0.504 OA
ATOM     15  H   UNL     1      25.936 -54.651  -9.148  1.00  0.00     0.293 HD
ENDBRANCH   2  14
TORSDOF 2
ENDMDL
MODEL 6
REMARK VINA RESULT:    -4.772      3.713      4.518
REMARK INTER + INTRA:          -5.236
REMARK INTER:                  -5.178
REMARK INTRA:                  -0.059
REMARK UNBOUND:                -0.046
REMARK SMILES COc1cc2ccc(=O)oc2cc1O
REMARK SMILES IDX 3 1 13 2 12 3 11 4 5 5 4 6 6 7 7 8 8 9 9 10 10 11 2 12 1 13
REMARK SMILES IDX 14 14
REMARK H PARENT 14 15
REMARK Flexibility Score: inf
ROOT
ATOM      1  C   UNL     1      29.880 -52.332 -10.625  1.00  0.00     0.161 A 
ATOM      2  C   UNL     1      28.495 -52.259 -10.406  1.00  0.00     0.161 A 
ATOM      3  C   UNL     1      27.669 -53.345 -10.732  1.00  0.00     0.098 A 
ATOM      4  C   UNL     1      28.216 -54.507 -11.279  1.00  0.00     0.142 A 
ATOM      5  C   UNL     1      29.607 -54.589 -11.502  1.00  0.00     0.022 A 
ATOM      6  C   UNL     1      30.434 -53.505 -11.176  1.00  0.00     0.062 A 
ATOM      7  C   UNL     1      30.125 -55.767 -12.051  1.00  0.00     0.019 A 
ATOM      8  C   UNL     1      29.261 -56.817 -12.359  1.00  0.00     0.094 A 
ATOM      9  C   UNL     1      27.893 -56.664 -12.110  1.00  0.00     0.336 A 
ATOM     10  O   UNL     1      27.096 -57.601 -12.382  1.00  0.00    -0.246 OA
ATOM     11  O   UNL     1      27.426 -55.533 -11.587  1.00  0.00    -0.423 OA
ENDROOT
BRANCH   1  12
ATOM     12  O   UNL     1      30.669 -51.223 -10.282  1.00  0.00    -0.493 OA
ATOM     13  C   UNL     1      31.769 -51.264  -9.378  1.00  0.00     0.278 C 
ENDBRANCH   1  12
BRANCH   2  14
ATOM     14  O   UNL     1      27.946 -51.100  -9.860  1.00  0.00    -0.504 OA
ATOM     15  H   UNL     1      28.419 -50.582  -9.129  1.00  0.00     0.293 HD
ENDBRANCH   2  14
TORSDOF 2
ENDMDL
MODEL 7
REMARK VINA RESULT:    -4.758      1.763      4.792
REMARK INTER + INTRA:          -5.221
REMARK INTER:                  -5.173
REMARK INTRA:                  -0.047
REMARK UNBOUND:                -0.046
REMARK SMILES COc1cc2ccc(=O)oc2cc1O
REMARK SMILES IDX 3 1 13 2 12 3 11 4 5 5 4 6 6 7 7 8 8 9 9 10 10 11 2 12 1 13
REMARK SMILES IDX 14 14
REMARK H PARENT 14 15
REMARK Flexibility Score: inf
ROOT
ATOM      1  C   UNL     1      31.803 -50.995 -10.320  1.00  0.00     0.161 A 
ATOM      2  C   UNL     1      31.077 -51.085 -11.518  1.00  0.00     0.161 A 
ATOM      3  C   UNL     1      29.678 -51.182 -11.493  1.00  0.00     0.098 A 
ATOM      4  C   UNL     1      28.995 -51.190 -10.275  1.00  0.00     0.142 A 
ATOM      5  C   UNL     1      29.716 -51.100  -9.065  1.00  0.00     0.022 A 
ATOM      6  C   UNL     1      31.115 -51.003  -9.090  1.00  0.00     0.062 A 
ATOM      7  C   UNL     1      29.004 -51.111  -7.862  1.00  0.00     0.019 A 
ATOM      8  C   UNL     1      27.613 -51.210  -7.890  1.00  0.00     0.094 A 
ATOM      9  C   UNL     1      26.965 -51.296  -9.127  1.00  0.00     0.336 A 
ATOM     10  O   UNL     1      25.710 -51.386  -9.174  1.00  0.00    -0.246 OA
ATOM     11  O   UNL     1      27.667 -51.283 -10.258  1.00  0.00    -0.423 OA
ENDROOT
BRANCH   1  12
ATOM     12  O   UNL     1      33.201 -50.898 -10.393  1.00  0.00    -0.493 OA
ATOM     13  C   UNL     1      34.094 -51.341  -9.375  1.00  0.00     0.278 C 
ENDBRANCH   1  12
BRANCH   2  14
ATOM     14  O   UNL     1      31.756 -51.076 -12.735  1.00  0.00    -0.504 OA
ATOM     15  H   UNL     1      31.995 -51.935 -13.216  1.00  0.00     0.293 HD
ENDBRANCH   2  14
TORSDOF 2
ENDMDL
MODEL 8
REMARK VINA RESULT:    -4.736      3.508      4.141
REMARK INTER + INTRA:          -5.197
REMARK INTER:                  -5.132
REMARK INTRA:                  -0.064
REMARK UNBOUND:                -0.046
REMARK SMILES COc1cc2ccc(=O)oc2cc1O
REMARK SMILES IDX 3 1 13 2 12 3 11 4 5 5 4 6 6 7 7 8 8 9 9 10 10 11 2 12 1 13
REMARK SMILES IDX 14 14
REMARK H PARENT 14 15
REMARK Flexibility Score: inf
ROOT
ATOM      1  C   UNL     1      27.692 -52.711  -9.823  1.00  0.00     0.161 A 
ATOM      2  C   UNL     1      28.936 -52.181 -10.202  1.00  0.00     0.161 A 
ATOM      3  C   UNL     1      29.829 -52.948 -10.964  1.00  0.00     0.098 A 
ATOM      4  C   UNL     1      29.489 -54.246 -11.353  1.00  0.00     0.142 A 
ATOM      5  C   UNL     1      28.241 -54.786 -10.977  1.00  0.00     0.022 A 
ATOM      6  C   UNL     1      27.347 -54.019 -10.215  1.00  0.00     0.062 A 
ATOM      7  C   UNL     1      27.929 -56.087 -11.381  1.00  0.00     0.019 A 
ATOM      8  C   UNL     1      28.851 -56.809 -12.137  1.00  0.00     0.094 A 
ATOM      9  C   UNL     1      30.069 -56.209 -12.474  1.00  0.00     0.336 A 
ATOM     10  O   UNL     1      30.916 -56.844 -13.156  1.00  0.00    -0.246 OA
ATOM     11  O   UNL     1      30.341 -54.969 -12.076  1.00  0.00    -0.423 OA
ENDROOT
BRANCH   1  12
ATOM     12  O   UNL     1      26.830 -51.907  -9.061  1.00  0.00    -0.493 OA
ATOM     13  C   UNL     1      25.630 -51.319  -9.554  1.00  0.00     0.278 C 
ENDBRANCH   1  12
BRANCH   2  14
ATOM     14  O   UNL     1      29.278 -50.886  -9.816  1.00  0.00    -0.504 OA
ATOM     15  H   UNL     1      28.637 -50.301  -9.294  1.00  0.00     0.293 HD
ENDBRANCH   2  14
TORSDOF 2
ENDMDL
MODEL 9
REMARK VINA RESULT:    -4.575     16.754     17.223
REMARK INTER + INTRA:          -5.022
REMARK INTER:                  -4.961
REMARK INTRA:                  -0.061
REMARK UNBOUND:                -0.046
REMARK SMILES COc1cc2ccc(=O)oc2cc1O
REMARK SMILES IDX 3 1 13 2 12 3 11 4 5 5 4 6 6 7 7 8 8 9 9 10 10 11 2 12 1 13
REMARK SMILES IDX 14 14
REMARK H PARENT 14 15
REMARK Flexibility Score: inf
ROOT
ATOM      1  C   UNL     1      32.046 -65.362  -6.473  1.00  0.00     0.161 A 
ATOM      2  C   UNL     1      32.940 -65.487  -5.399  1.00  0.00     0.161 A 
ATOM      3  C   UNL     1      33.580 -66.711  -5.149  1.00  0.00     0.098 A 
ATOM      4  C   UNL     1      33.332 -67.815  -5.967  1.00  0.00     0.142 A 
ATOM      5  C   UNL     1      32.434 -67.698  -7.049  1.00  0.00     0.022 A 
ATOM      6  C   UNL     1      31.795 -66.476  -7.300  1.00  0.00     0.062 A 
ATOM      7  C   UNL     1      32.206 -68.821  -7.850  1.00  0.00     0.019 A 
ATOM      8  C   UNL     1      32.866 -70.015  -7.560  1.00  0.00     0.094 A 
ATOM      9  C   UNL     1      33.743 -70.057  -6.471  1.00  0.00     0.336 A 
ATOM     10  O   UNL     1      34.349 -71.125  -6.191  1.00  0.00    -0.246 OA
ATOM     11  O   UNL     1      33.942 -68.973  -5.725  1.00  0.00    -0.423 OA
ENDROOT
BRANCH   1  12
ATOM     12  O   UNL     1      31.429 -64.119  -6.686  1.00  0.00    -0.493 OA
ATOM     13  C   UNL     1      31.880 -63.145  -7.622  1.00  0.00     0.278 C 
ENDBRANCH   1  12
BRANCH   2  14
ATOM     14  O   UNL     1      33.190 -64.387  -4.581  1.00  0.00    -0.504 OA
ATOM     15  H   UNL     1      32.812 -63.471  -4.792  1.00  0.00     0.293 HD
ENDBRANCH   2  14
TORSDOF 2
ENDMDL
