MODEL 1
REMARK VINA RESULT:    -4.449      0.000      0.000
REMARK INTER + INTRA:         -10.081
REMARK INTER:                  -8.610
REMARK INTRA:                  -1.471
REMARK UNBOUND:                -1.471
REMARK SMILES CCCCCCCCCCCCCCCCCC(=O)[O-]
REMARK SMILES IDX 10 1 11 2 12 3 13 4 14 5 15 6 16 7 17 8 18 9 19 10 20 11
REMARK SMILES IDX 9 12 8 13 7 14 6 15 5 16 4 17 3 18 2 19 1 20
REMARK H PARENT
REMARK Flexibility Score: inf
ROOT
ATOM      1  C   UNL     1      -6.122  36.331  21.292  1.00  0.00     0.000 C 
ENDROOT
BRANCH   1   2
ATOM      2  C   UNL     1      -5.072  36.035  22.385  1.00  0.00     0.000 C 
BRANCH   2   3
ATOM      3  C   UNL     1      -5.651  35.333  23.628  1.00  0.00     0.000 C 
BRANCH   3   4
ATOM      4  C   UNL     1      -5.979  36.263  24.811  1.00  0.00     0.000 C 
BRANCH   4   5
ATOM      5  C   UNL     1      -4.824  37.178  25.258  1.00  0.00     0.000 C 
BRANCH   5   6
ATOM      6  C   UNL     1      -5.301  38.571  25.697  1.00  0.00     0.000 C 
BRANCH   6   7
ATOM      7  C   UNL     1      -4.979  39.624  24.627  1.00  0.00     0.006 C 
BRANCH   7   8
ATOM      8  C   UNL     1      -5.823  39.439  23.358  1.00  0.00     0.053 C 
BRANCH   8   9
ATOM      9  C   UNL     1      -5.057  39.804  22.124  1.00  0.00     0.041 C 
ATOM     10  O   UNL     1      -3.801  39.721  22.111  1.00  0.00    -0.550 OA
ATOM     11  O   UNL     1      -5.727  40.270  20.999  1.00  0.00    -0.550 OA
ENDBRANCH   8   9
ENDBRANCH   7   8
ENDBRANCH   6   7
ENDBRANCH   5   6
ENDBRANCH   4   5
ENDBRANCH   3   4
ENDBRANCH   2   3
ENDBRANCH   1   2
BRANCH   1  12
ATOM     12  C   UNL     1      -5.488  36.531  19.908  1.00  0.00     0.000 C 
BRANCH  12  13
ATOM     13  C   UNL     1      -3.994  36.852  20.026  1.00  0.00    -0.000 C 
BRANCH  13  14
ATOM     14  C   UNL     1      -3.331  36.901  18.640  1.00  0.00    -0.000 C 
BRANCH  14  15
ATOM     15  C   UNL     1      -2.075  37.785  18.614  1.00  0.00    -0.000 C 
BRANCH  15  16
ATOM     16  C   UNL     1      -1.572  38.060  17.188  1.00  0.00    -0.000 C 
BRANCH  16  17
ATOM     17  C   UNL     1      -1.698  36.806  16.310  1.00  0.00    -0.000 C 
BRANCH  17  18
ATOM     18  C   UNL     1      -2.640  37.013  15.114  1.00  0.00    -0.000 C 
BRANCH  18  19
ATOM     19  C   UNL     1      -3.041  38.484  14.925  1.00  0.00    -0.003 C 
ATOM     20  C   UNL     1      -4.147  38.622  13.882  1.00  0.00     0.004 C 
ENDBRANCH  18  19
ENDBRANCH  17  18
ENDBRANCH  16  17
ENDBRANCH  15  16
ENDBRANCH  14  15
ENDBRANCH  13  14
ENDBRANCH  12  13
ENDBRANCH   1  12
TORSDOF 16
ENDMDL
MODEL 2
REMARK VINA RESULT:    -4.368      2.402      7.278
REMARK INTER + INTRA:          -9.926
REMARK INTER:                  -8.391
REMARK INTRA:                  -1.535
REMARK UNBOUND:                -1.471
REMARK SMILES CCCCCCCCCCCCCCCCCC(=O)[O-]
REMARK SMILES IDX 10 1 11 2 12 3 13 4 14 5 15 6 16 7 17 8 18 9 19 10 20 11
REMARK SMILES IDX 9 12 8 13 7 14 6 15 5 16 4 17 3 18 2 19 1 20
REMARK H PARENT
REMARK Flexibility Score: inf
ROOT
ATOM      1  C   UNL     1      -5.719  36.592  21.360  1.00  0.00     0.000 C 
ENDROOT
BRANCH   1   2
ATOM      2  C   UNL     1      -5.201  36.362  19.923  1.00  0.00     0.000 C 
BRANCH   2   3
ATOM      3  C   UNL     1      -4.482  37.584  19.321  1.00  0.00     0.000 C 
BRANCH   3   4
ATOM      4  C   UNL     1      -3.024  37.776  19.780  1.00  0.00     0.000 C 
BRANCH   4   5
ATOM      5  C   UNL     1      -1.991  37.860  18.641  1.00  0.00     0.000 C 
BRANCH   5   6
ATOM      6  C   UNL     1      -2.477  37.200  17.342  1.00  0.00     0.000 C 
BRANCH   6   7
ATOM      7  C   UNL     1      -1.628  37.651  16.145  1.00  0.00     0.006 C 
BRANCH   7   8
ATOM      8  C   UNL     1      -2.242  37.226  14.804  1.00  0.00     0.053 C 
BRANCH   8   9
ATOM      9  C   UNL     1      -3.456  38.035  14.467  1.00  0.00     0.041 C 
ATOM     10  O   UNL     1      -4.429  37.499  13.875  1.00  0.00    -0.550 OA
ATOM     11  O   UNL     1      -3.499  39.390  14.775  1.00  0.00    -0.550 OA
ENDBRANCH   8   9
ENDBRANCH   7   8
ENDBRANCH   6   7
ENDBRANCH   5   6
ENDBRANCH   4   5
ENDBRANCH   3   4
ENDBRANCH   2   3
ENDBRANCH   1   2
BRANCH   1  12
ATOM     12  C   UNL     1      -4.825  35.931  22.419  1.00  0.00     0.000 C 
BRANCH  12  13
ATOM     13  C   UNL     1      -5.666  35.203  23.474  1.00  0.00    -0.000 C 
BRANCH  13  14
ATOM     14  C   UNL     1      -6.085  36.161  24.601  1.00  0.00    -0.000 C 
BRANCH  14  15
ATOM     15  C   UNL     1      -5.001  37.199  24.930  1.00  0.00    -0.000 C 
BRANCH  15  16
ATOM     16  C   UNL     1      -5.584  38.508  25.487  1.00  0.00    -0.000 C 
BRANCH  16  17
ATOM     17  C   UNL     1      -5.276  39.687  24.552  1.00  0.00    -0.000 C 
BRANCH  17  18
ATOM     18  C   UNL     1      -4.216  39.343  23.494  1.00  0.00    -0.000 C 
BRANCH  18  19
ATOM     19  C   UNL     1      -4.636  39.763  22.078  1.00  0.00    -0.003 C 
ATOM     20  C   UNL     1      -5.746  40.809  22.121  1.00  0.00     0.004 C 
ENDBRANCH  18  19
ENDBRANCH  17  18
ENDBRANCH  16  17
ENDBRANCH  15  16
ENDBRANCH  14  15
ENDBRANCH  13  14
ENDBRANCH  12  13
ENDBRANCH   1  12
TORSDOF 16
ENDMDL
MODEL 3
REMARK VINA RESULT:    -4.089      1.690      6.933
REMARK INTER + INTRA:          -9.386
REMARK INTER:                  -7.619
REMARK INTRA:                  -1.767
REMARK UNBOUND:                -1.471
REMARK SMILES CCCCCCCCCCCCCCCCCC(=O)[O-]
REMARK SMILES IDX 10 1 11 2 12 3 13 4 14 5 15 6 16 7 17 8 18 9 19 10 20 11
REMARK SMILES IDX 9 12 8 13 7 14 6 15 5 16 4 17 3 18 2 19 1 20
REMARK H PARENT
REMARK Flexibility Score: inf
ROOT
ATOM      1  C   UNL     1      -5.744  36.828  21.303  1.00  0.00     0.000 C 
ENDROOT
BRANCH   1   2
ATOM      2  C   UNL     1      -4.961  37.165  20.015  1.00  0.00     0.000 C 
BRANCH   2   3
ATOM      3  C   UNL     1      -4.044  36.026  19.531  1.00  0.00     0.000 C 
BRANCH   3   4
ATOM      4  C   UNL     1      -4.350  35.498  18.116  1.00  0.00     0.000 C 
BRANCH   4   5
ATOM      5  C   UNL     1      -3.283  35.826  17.055  1.00  0.00     0.000 C 
BRANCH   5   6
ATOM      6  C   UNL     1      -3.532  37.170  16.353  1.00  0.00     0.000 C 
BRANCH   6   7
ATOM      7  C   UNL     1      -2.280  38.056  16.402  1.00  0.00     0.006 C 
BRANCH   7   8
ATOM      8  C   UNL     1      -1.174  37.450  17.279  1.00  0.00     0.053 C 
BRANCH   8   9
ATOM      9  C   UNL     1      -1.038  38.176  18.582  1.00  0.00     0.041 C 
ATOM     10  O   UNL     1      -2.034  38.751  19.093  1.00  0.00    -0.550 OA
ATOM     11  O   UNL     1       0.198  38.248  19.214  1.00  0.00    -0.550 OA
ENDBRANCH   8   9
ENDBRANCH   7   8
ENDBRANCH   6   7
ENDBRANCH   5   6
ENDBRANCH   4   5
ENDBRANCH   3   4
ENDBRANCH   2   3
ENDBRANCH   1   2
BRANCH   1  12
ATOM     12  C   UNL     1      -4.909  36.013  22.302  1.00  0.00     0.000 C 
BRANCH  12  13
ATOM     13  C   UNL     1      -5.809  35.285  23.307  1.00  0.00    -0.000 C 
BRANCH  13  14
ATOM     14  C   UNL     1      -6.109  36.177  24.522  1.00  0.00    -0.000 C 
BRANCH  14  15
ATOM     15  C   UNL     1      -4.894  37.006  24.966  1.00  0.00    -0.000 C 
BRANCH  15  16
ATOM     16  C   UNL     1      -5.291  38.329  25.640  1.00  0.00    -0.000 C 
BRANCH  16  17
ATOM     17  C   UNL     1      -4.928  39.528  24.751  1.00  0.00    -0.000 C 
BRANCH  17  18
ATOM     18  C   UNL     1      -5.680  39.522  23.412  1.00  0.00    -0.000 C 
BRANCH  18  19
ATOM     19  C   UNL     1      -4.949  40.316  22.319  1.00  0.00    -0.003 C 
ATOM     20  C   UNL     1      -5.891  40.663  21.169  1.00  0.00     0.004 C 
ENDBRANCH  18  19
ENDBRANCH  17  18
ENDBRANCH  16  17
ENDBRANCH  15  16
ENDBRANCH  14  15
ENDBRANCH  13  14
ENDBRANCH  12  13
ENDBRANCH   1  12
TORSDOF 16
ENDMDL
MODEL 4
REMARK VINA RESULT:    -4.085      1.920      2.958
REMARK INTER + INTRA:          -9.378
REMARK INTER:                  -7.839
REMARK INTRA:                  -1.538
REMARK UNBOUND:                -1.471
REMARK SMILES CCCCCCCCCCCCCCCCCC(=O)[O-]
REMARK SMILES IDX 10 1 11 2 12 3 13 4 14 5 15 6 16 7 17 8 18 9 19 10 20 11
REMARK SMILES IDX 9 12 8 13 7 14 6 15 5 16 4 17 3 18 2 19 1 20
REMARK H PARENT
REMARK Flexibility Score: inf
ROOT
ATOM      1  C   UNL     1      -4.504  36.211  21.286  1.00  0.00     0.000 C 
ENDROOT
BRANCH   1   2
ATOM      2  C   UNL     1      -5.574  37.289  21.008  1.00  0.00     0.000 C 
BRANCH   2   3
ATOM      3  C   UNL     1      -4.990  38.639  20.550  1.00  0.00     0.000 C 
BRANCH   3   4
ATOM      4  C   UNL     1      -5.808  39.878  20.962  1.00  0.00     0.000 C 
BRANCH   4   5
ATOM      5  C   UNL     1      -5.277  40.623  22.201  1.00  0.00     0.000 C 
BRANCH   5   6
ATOM      6  C   UNL     1      -4.446  39.724  23.128  1.00  0.00     0.000 C 
BRANCH   6   7
ATOM      7  C   UNL     1      -5.139  39.547  24.487  1.00  0.00     0.006 C 
BRANCH   7   8
ATOM      8  C   UNL     1      -6.120  38.366  24.488  1.00  0.00     0.053 C 
BRANCH   8   9
ATOM      9  C   UNL     1      -5.455  37.091  24.903  1.00  0.00     0.041 C 
ATOM     10  O   UNL     1      -5.953  35.982  24.577  1.00  0.00    -0.550 OA
ATOM     11  O   UNL     1      -4.303  37.126  25.682  1.00  0.00    -0.550 OA
ENDBRANCH   8   9
ENDBRANCH   7   8
ENDBRANCH   6   7
ENDBRANCH   5   6
ENDBRANCH   4   5
ENDBRANCH   3   4
ENDBRANCH   2   3
ENDBRANCH   1   2
BRANCH   1  12
ATOM     12  C   UNL     1      -3.525  36.039  20.115  1.00  0.00     0.000 C 
BRANCH  12  13
ATOM     13  C   UNL     1      -4.270  35.700  18.819  1.00  0.00    -0.000 C 
BRANCH  13  14
ATOM     14  C   UNL     1      -3.555  36.305  17.600  1.00  0.00    -0.000 C 
BRANCH  14  15
ATOM     15  C   UNL     1      -2.857  37.635  17.921  1.00  0.00    -0.000 C 
BRANCH  15  16
ATOM     16  C   UNL     1      -2.017  38.163  16.747  1.00  0.00    -0.000 C 
BRANCH  16  17
ATOM     17  C   UNL     1      -1.755  37.053  15.717  1.00  0.00    -0.000 C 
BRANCH  17  18
ATOM     18  C   UNL     1      -2.196  37.446  14.299  1.00  0.00    -0.000 C 
BRANCH  18  19
ATOM     19  C   UNL     1      -3.686  37.810  14.222  1.00  0.00    -0.003 C 
ATOM     20  C   UNL     1      -3.879  39.323  14.158  1.00  0.00     0.004 C 
ENDBRANCH  18  19
ENDBRANCH  17  18
ENDBRANCH  16  17
ENDBRANCH  15  16
ENDBRANCH  14  15
ENDBRANCH  13  14
ENDBRANCH  12  13
ENDBRANCH   1  12
TORSDOF 16
ENDMDL
MODEL 5
REMARK VINA RESULT:    -3.690      0.933      1.775
REMARK INTER + INTRA:          -8.613
REMARK INTER:                  -7.320
REMARK INTRA:                  -1.293
REMARK UNBOUND:                -1.471
REMARK SMILES CCCCCCCCCCCCCCCCCC(=O)[O-]
REMARK SMILES IDX 10 1 11 2 12 3 13 4 14 5 15 6 16 7 17 8 18 9 19 10 20 11
REMARK SMILES IDX 9 12 8 13 7 14 6 15 5 16 4 17 3 18 2 19 1 20
REMARK H PARENT
REMARK Flexibility Score: inf
ROOT
ATOM      1  C   UNL     1      -4.592  36.138  23.147  1.00  0.00     0.000 C 
ENDROOT
BRANCH   1   2
ATOM      2  C   UNL     1      -5.973  35.771  23.732  1.00  0.00     0.000 C 
BRANCH   2   3
ATOM      3  C   UNL     1      -6.125  36.114  25.226  1.00  0.00     0.000 C 
BRANCH   3   4
ATOM      4  C   UNL     1      -6.115  37.619  25.555  1.00  0.00     0.000 C 
BRANCH   4   5
ATOM      5  C   UNL     1      -4.718  38.264  25.606  1.00  0.00     0.000 C 
BRANCH   5   6
ATOM      6  C   UNL     1      -4.570  39.447  24.638  1.00  0.00     0.000 C 
BRANCH   6   7
ATOM      7  C   UNL     1      -5.635  39.391  23.534  1.00  0.00     0.006 C 
BRANCH   7   8
ATOM      8  C   UNL     1      -5.315  40.336  22.368  1.00  0.00     0.053 C 
BRANCH   8   9
ATOM      9  C   UNL     1      -4.906  39.583  21.139  1.00  0.00     0.041 C 
ATOM     10  O   UNL     1      -3.812  38.961  21.113  1.00  0.00    -0.550 OA
ATOM     11  O   UNL     1      -5.716  39.599  20.010  1.00  0.00    -0.550 OA
ENDBRANCH   8   9
ENDBRANCH   7   8
ENDBRANCH   6   7
ENDBRANCH   5   6
ENDBRANCH   4   5
ENDBRANCH   3   4
ENDBRANCH   2   3
ENDBRANCH   1   2
BRANCH   1  12
ATOM     12  C   UNL     1      -4.480  35.806  21.652  1.00  0.00     0.000 C 
BRANCH  12  13
ATOM     13  C   UNL     1      -5.800  36.087  20.925  1.00  0.00    -0.000 C 
BRANCH  13  14
ATOM     14  C   UNL     1      -5.566  36.287  19.419  1.00  0.00    -0.000 C 
BRANCH  14  15
ATOM     15  C   UNL     1      -4.158  35.862  18.975  1.00  0.00    -0.000 C 
BRANCH  15  16
ATOM     16  C   UNL     1      -3.381  37.001  18.296  1.00  0.00    -0.000 C 
BRANCH  16  17
ATOM     17  C   UNL     1      -3.409  36.849  16.768  1.00  0.00    -0.000 C 
BRANCH  17  18
ATOM     18  C   UNL     1      -2.008  36.911  16.141  1.00  0.00    -0.000 C 
BRANCH  18  19
ATOM     19  C   UNL     1      -2.037  37.337  14.666  1.00  0.00    -0.003 C 
ATOM     20  C   UNL     1      -3.375  37.978  14.306  1.00  0.00     0.004 C 
ENDBRANCH  18  19
ENDBRANCH  17  18
ENDBRANCH  16  17
ENDBRANCH  15  16
ENDBRANCH  14  15
ENDBRANCH  13  14
ENDBRANCH  12  13
ENDBRANCH   1  12
TORSDOF 16
ENDMDL
MODEL 6
REMARK VINA RESULT:    -3.677      2.607      7.699
REMARK INTER + INTRA:          -8.588
REMARK INTER:                  -7.264
REMARK INTRA:                  -1.323
REMARK UNBOUND:                -1.471
REMARK SMILES CCCCCCCCCCCCCCCCCC(=O)[O-]
REMARK SMILES IDX 10 1 11 2 12 3 13 4 14 5 15 6 16 7 17 8 18 9 19 10 20 11
REMARK SMILES IDX 9 12 8 13 7 14 6 15 5 16 4 17 3 18 2 19 1 20
REMARK H PARENT
REMARK Flexibility Score: inf
ROOT
ATOM      1  C   UNL     1      -4.091  38.618  21.424  1.00  0.00     0.000 C 
ENDROOT
BRANCH   1   2
ATOM      2  C   UNL     1      -5.266  38.323  20.467  1.00  0.00     0.000 C 
BRANCH   2   3
ATOM      3  C   UNL     1      -5.119  36.999  19.694  1.00  0.00     0.000 C 
BRANCH   3   4
ATOM      4  C   UNL     1      -3.687  36.666  19.236  1.00  0.00     0.000 C 
BRANCH   4   5
ATOM      5  C   UNL     1      -3.516  36.489  17.716  1.00  0.00     0.000 C 
BRANCH   5   6
ATOM      6  C   UNL     1      -2.107  36.857  17.226  1.00  0.00     0.000 C 
BRANCH   6   7
ATOM      7  C   UNL     1      -2.100  37.105  15.711  1.00  0.00     0.006 C 
BRANCH   7   8
ATOM      8  C   UNL     1      -2.567  38.522  15.352  1.00  0.00     0.053 C 
BRANCH   8   9
ATOM      9  C   UNL     1      -3.711  38.502  14.385  1.00  0.00     0.041 C 
ATOM     10  O   UNL     1      -4.137  37.407  13.932  1.00  0.00    -0.550 OA
ATOM     11  O   UNL     1      -4.282  39.694  13.955  1.00  0.00    -0.550 OA
ENDBRANCH   8   9
ENDBRANCH   7   8
ENDBRANCH   6   7
ENDBRANCH   5   6
ENDBRANCH   4   5
ENDBRANCH   3   4
ENDBRANCH   2   3
ENDBRANCH   1   2
BRANCH   1  12
ATOM     12  C   UNL     1      -4.290  39.918  22.217  1.00  0.00     0.000 C 
BRANCH  12  13
ATOM     13  C   UNL     1      -5.343  39.739  23.316  1.00  0.00    -0.000 C 
BRANCH  13  14
ATOM     14  C   UNL     1      -4.748  40.037  24.701  1.00  0.00    -0.000 C 
BRANCH  14  15
ATOM     15  C   UNL     1      -4.771  38.816  25.633  1.00  0.00    -0.000 C 
BRANCH  15  16
ATOM     16  C   UNL     1      -6.114  38.069  25.600  1.00  0.00    -0.000 C 
BRANCH  16  17
ATOM     17  C   UNL     1      -5.928  36.627  25.103  1.00  0.00    -0.000 C 
BRANCH  17  18
ATOM     18  C   UNL     1      -4.811  36.502  24.055  1.00  0.00    -0.000 C 
BRANCH  18  19
ATOM     19  C   UNL     1      -5.100  35.415  23.009  1.00  0.00    -0.003 C 
ATOM     20  C   UNL     1      -6.125  34.411  23.529  1.00  0.00     0.004 C 
ENDBRANCH  18  19
ENDBRANCH  17  18
ENDBRANCH  16  17
ENDBRANCH  15  16
ENDBRANCH  14  15
ENDBRANCH  13  14
ENDBRANCH  12  13
ENDBRANCH   1  12
TORSDOF 16
ENDMDL
MODEL 7
REMARK VINA RESULT:    -3.671      1.110      2.158
REMARK INTER + INTRA:          -8.576
REMARK INTER:                  -7.178
REMARK INTRA:                  -1.398
REMARK UNBOUND:                -1.471
REMARK SMILES CCCCCCCCCCCCCCCCCC(=O)[O-]
REMARK SMILES IDX 10 1 11 2 12 3 13 4 14 5 15 6 16 7 17 8 18 9 19 10 20 11
REMARK SMILES IDX 9 12 8 13 7 14 6 15 5 16 4 17 3 18 2 19 1 20
REMARK H PARENT
REMARK Flexibility Score: inf
ROOT
ATOM      1  C   UNL     1      -4.731  36.360  21.853  1.00  0.00     0.000 C 
ENDROOT
BRANCH   1   2
ATOM      2  C   UNL     1      -6.113  36.120  22.498  1.00  0.00     0.000 C 
BRANCH   2   3
ATOM      3  C   UNL     1      -6.097  35.072  23.627  1.00  0.00     0.000 C 
BRANCH   3   4
ATOM      4  C   UNL     1      -6.086  35.650  25.055  1.00  0.00     0.000 C 
BRANCH   4   5
ATOM      5  C   UNL     1      -6.122  37.187  25.134  1.00  0.00     0.000 C 
BRANCH   5   6
ATOM      6  C   UNL     1      -4.723  37.813  25.241  1.00  0.00     0.000 C 
BRANCH   6   7
ATOM      7  C   UNL     1      -4.739  39.277  24.778  1.00  0.00     0.006 C 
BRANCH   7   8
ATOM      8  C   UNL     1      -5.706  39.506  23.609  1.00  0.00     0.053 C 
BRANCH   8   9
ATOM      9  C   UNL     1      -5.005  40.064  22.409  1.00  0.00     0.041 C 
ATOM     10  O   UNL     1      -3.814  39.739  22.164  1.00  0.00    -0.550 OA
ATOM     11  O   UNL     1      -5.656  40.971  21.580  1.00  0.00    -0.550 OA
ENDBRANCH   8   9
ENDBRANCH   7   8
ENDBRANCH   6   7
ENDBRANCH   5   6
ENDBRANCH   4   5
ENDBRANCH   3   4
ENDBRANCH   2   3
ENDBRANCH   1   2
BRANCH   1  12
ATOM     12  C   UNL     1      -4.838  36.924  20.428  1.00  0.00     0.000 C 
BRANCH  12  13
ATOM     13  C   UNL     1      -3.772  36.313  19.512  1.00  0.00    -0.000 C 
BRANCH  13  14
ATOM     14  C   UNL     1      -4.397  35.809  18.201  1.00  0.00    -0.000 C 
BRANCH  14  15
ATOM     15  C   UNL     1      -3.394  35.779  17.038  1.00  0.00    -0.000 C 
BRANCH  15  16
ATOM     16  C   UNL     1      -3.479  37.030  16.149  1.00  0.00    -0.000 C 
BRANCH  16  17
ATOM     17  C   UNL     1      -2.460  38.089  16.593  1.00  0.00    -0.000 C 
BRANCH  17  18
ATOM     18  C   UNL     1      -1.215  37.474  17.251  1.00  0.00    -0.000 C 
BRANCH  18  19
ATOM     19  C   UNL     1      -1.019  37.942  18.700  1.00  0.00    -0.003 C 
ATOM     20  C   UNL     1      -0.258  39.264  18.753  1.00  0.00     0.004 C 
ENDBRANCH  18  19
ENDBRANCH  17  18
ENDBRANCH  16  17
ENDBRANCH  15  16
ENDBRANCH  14  15
ENDBRANCH  13  14
ENDBRANCH  12  13
ENDBRANCH   1  12
TORSDOF 16
ENDMDL
MODEL 8
REMARK VINA RESULT:    -3.596      2.762      6.878
REMARK INTER + INTRA:          -8.430
REMARK INTER:                  -6.820
REMARK INTRA:                  -1.611
REMARK UNBOUND:                -1.471
REMARK SMILES CCCCCCCCCCCCCCCCCC(=O)[O-]
REMARK SMILES IDX 10 1 11 2 12 3 13 4 14 5 15 6 16 7 17 8 18 9 19 10 20 11
REMARK SMILES IDX 9 12 8 13 7 14 6 15 5 16 4 17 3 18 2 19 1 20
REMARK H PARENT
REMARK Flexibility Score: inf
ROOT
ATOM      1  C   UNL     1      -4.354  35.553  22.578  1.00  0.00     0.000 C 
ENDROOT
BRANCH   1   2
ATOM      2  C   UNL     1      -3.975  36.263  21.260  1.00  0.00     0.000 C 
BRANCH   2   3
ATOM      3  C   UNL     1      -5.167  36.489  20.311  1.00  0.00     0.000 C 
BRANCH   3   4
ATOM      4  C   UNL     1      -5.348  35.414  19.223  1.00  0.00     0.000 C 
BRANCH   4   5
ATOM      5  C   UNL     1      -4.411  35.555  18.009  1.00  0.00     0.000 C 
BRANCH   5   6
ATOM      6  C   UNL     1      -3.564  36.836  18.053  1.00  0.00     0.000 C 
BRANCH   6   7
ATOM      7  C   UNL     1      -2.529  36.850  16.919  1.00  0.00     0.006 C 
BRANCH   7   8
ATOM      8  C   UNL     1      -2.626  38.119  16.060  1.00  0.00     0.053 C 
BRANCH   8   9
ATOM      9  C   UNL     1      -2.801  37.795  14.609  1.00  0.00     0.041 C 
ATOM     10  O   UNL     1      -1.819  37.405  13.924  1.00  0.00    -0.550 OA
ATOM     11  O   UNL     1      -4.041  37.960  14.002  1.00  0.00    -0.550 OA
ENDBRANCH   8   9
ENDBRANCH   7   8
ENDBRANCH   6   7
ENDBRANCH   5   6
ENDBRANCH   4   5
ENDBRANCH   3   4
ENDBRANCH   2   3
ENDBRANCH   1   2
BRANCH   1  12
ATOM     12  C   UNL     1      -5.850  35.679  22.904  1.00  0.00     0.000 C 
BRANCH  12  13
ATOM     13  C   UNL     1      -6.124  36.921  23.760  1.00  0.00    -0.000 C 
BRANCH  13  14
ATOM     14  C   UNL     1      -5.381  36.839  25.102  1.00  0.00    -0.000 C 
BRANCH  14  15
ATOM     15  C   UNL     1      -4.693  38.159  25.481  1.00  0.00    -0.000 C 
BRANCH  15  16
ATOM     16  C   UNL     1      -5.230  39.359  24.684  1.00  0.00    -0.000 C 
BRANCH  16  17
ATOM     17  C   UNL     1      -4.130  39.969  23.802  1.00  0.00    -0.000 C 
BRANCH  17  18
ATOM     18  C   UNL     1      -4.335  39.670  22.309  1.00  0.00    -0.000 C 
BRANCH  18  19
ATOM     19  C   UNL     1      -5.703  40.141  21.794  1.00  0.00    -0.003 C 
ATOM     20  C   UNL     1      -5.768  40.075  20.271  1.00  0.00     0.004 C 
ENDBRANCH  18  19
ENDBRANCH  17  18
ENDBRANCH  16  17
ENDBRANCH  15  16
ENDBRANCH  14  15
ENDBRANCH  13  14
ENDBRANCH  12  13
ENDBRANCH   1  12
TORSDOF 16
ENDMDL
