MODEL 1
REMARK VINA RESULT:    -5.014      0.000      0.000
REMARK INTER + INTRA:         -13.079
REMARK INTER:                 -10.875
REMARK INTRA:                  -2.203
REMARK UNBOUND:                -2.203
REMARK SMILES CCCCCCCCCCCCCCCCCCCCCC(=O)[O-]
REMARK SMILES IDX 12 1 11 2 10 3 9 4 8 5 7 6 6 7 5 8 4 9 3 10 2 11 1 12 13 13
REMARK SMILES IDX 14 14 15 15 16 16 17 17 18 18 19 19 20 20 21 21 22 22 23 23
REMARK SMILES IDX 24 24
REMARK H PARENT
REMARK Flexibility Score: inf
ROOT
ATOM      1  C   UNL     1      48.773  23.213  52.379  1.00  0.00     0.000 C 
ENDROOT
BRANCH   1   2
ATOM      2  C   UNL     1      48.300  21.751  52.467  1.00  0.00     0.000 C 
BRANCH   2   3
ATOM      3  C   UNL     1      47.381  21.358  51.299  1.00  0.00     0.000 C 
BRANCH   3   4
ATOM      4  C   UNL     1      48.159  20.850  50.076  1.00  0.00    -0.000 C 
BRANCH   4   5
ATOM      5  C   UNL     1      48.610  19.396  50.278  1.00  0.00    -0.000 C 
BRANCH   5   6
ATOM      6  C   UNL     1      50.133  19.226  50.152  1.00  0.00    -0.000 C 
BRANCH   6   7
ATOM      7  C   UNL     1      50.863  20.565  49.955  1.00  0.00    -0.000 C 
BRANCH   7   8
ATOM      8  C   UNL     1      51.783  20.909  51.145  1.00  0.00    -0.000 C 
BRANCH   8   9
ATOM      9  C   UNL     1      53.274  20.990  50.770  1.00  0.00    -0.000 C 
BRANCH   9  10
ATOM     10  C   UNL     1      53.511  20.957  49.252  1.00  0.00    -0.000 C 
BRANCH  10  11
ATOM     11  C   UNL     1      54.955  20.578  48.889  1.00  0.00    -0.003 C 
ATOM     12  C   UNL     1      55.495  21.381  47.705  1.00  0.00     0.004 C 
ENDBRANCH  10  11
ENDBRANCH   9  10
ENDBRANCH   8   9
ENDBRANCH   7   8
ENDBRANCH   6   7
ENDBRANCH   5   6
ENDBRANCH   4   5
ENDBRANCH   3   4
ENDBRANCH   2   3
ENDBRANCH   1   2
BRANCH   1  13
ATOM     13  C   UNL     1      48.314  24.061  53.576  1.00  0.00     0.000 C 
BRANCH  13  14
ATOM     14  C   UNL     1      46.863  23.761  53.994  1.00  0.00     0.000 C 
BRANCH  14  15
ATOM     15  C   UNL     1      46.747  23.375  55.478  1.00  0.00     0.000 C 
BRANCH  15  16
ATOM     16  C   UNL     1      47.467  22.054  55.807  1.00  0.00     0.000 C 
BRANCH  16  17
ATOM     17  C   UNL     1      46.475  20.900  56.061  1.00  0.00     0.000 C 
BRANCH  17  18
ATOM     18  C   UNL     1      45.671  20.489  54.816  1.00  0.00     0.000 C 
BRANCH  18  19
ATOM     19  C   UNL     1      44.375  19.738  55.163  1.00  0.00     0.000 C 
BRANCH  19  20
ATOM     20  C   UNL     1      43.990  18.691  54.101  1.00  0.00     0.006 C 
BRANCH  20  21
ATOM     21  C   UNL     1      45.080  18.425  53.050  1.00  0.00     0.053 C 
BRANCH  21  22
ATOM     22  C   UNL     1      44.504  18.216  51.682  1.00  0.00     0.041 C 
ATOM     23  O   UNL     1      44.778  19.016  50.750  1.00  0.00    -0.550 OA
ATOM     24  O   UNL     1      43.633  17.159  51.449  1.00  0.00    -0.550 OA
ENDBRANCH  21  22
ENDBRANCH  20  21
ENDBRANCH  19  20
ENDBRANCH  18  19
ENDBRANCH  17  18
ENDBRANCH  16  17
ENDBRANCH  15  16
ENDBRANCH  14  15
ENDBRANCH  13  14
ENDBRANCH   1  13
TORSDOF 20
ENDMDL
MODEL 2
REMARK VINA RESULT:    -4.974      2.226      3.806
REMARK INTER + INTRA:         -12.994
REMARK INTER:                 -11.117
REMARK INTRA:                  -1.877
REMARK UNBOUND:                -2.203
REMARK SMILES CCCCCCCCCCCCCCCCCCCCCC(=O)[O-]
REMARK SMILES IDX 12 1 11 2 10 3 9 4 8 5 7 6 6 7 5 8 4 9 3 10 2 11 1 12 13 13
REMARK SMILES IDX 14 14 15 15 16 16 17 17 18 18 19 19 20 20 21 21 22 22 23 23
REMARK SMILES IDX 24 24
REMARK H PARENT
REMARK Flexibility Score: inf
ROOT
ATOM      1  C   UNL     1      48.538  22.787  52.546  1.00  0.00     0.000 C 
ENDROOT
BRANCH   1   2
ATOM      2  C   UNL     1      48.220  22.416  54.005  1.00  0.00     0.000 C 
BRANCH   2   3
ATOM      3  C   UNL     1      49.400  21.726  54.707  1.00  0.00     0.000 C 
BRANCH   3   4
ATOM      4  C   UNL     1      50.636  22.632  54.822  1.00  0.00    -0.000 C 
BRANCH   4   5
ATOM      5  C   UNL     1      51.899  21.899  54.348  1.00  0.00    -0.000 C 
BRANCH   5   6
ATOM      6  C   UNL     1      51.623  20.938  53.180  1.00  0.00    -0.000 C 
BRANCH   6   7
ATOM      7  C   UNL     1      51.979  21.550  51.814  1.00  0.00    -0.000 C 
BRANCH   7   8
ATOM      8  C   UNL     1      51.488  20.679  50.638  1.00  0.00    -0.000 C 
BRANCH   8   9
ATOM      9  C   UNL     1      52.513  20.548  49.497  1.00  0.00    -0.000 C 
BRANCH   9  10
ATOM     10  C   UNL     1      53.964  20.486  50.000  1.00  0.00    -0.000 C 
BRANCH  10  11
ATOM     11  C   UNL     1      54.962  20.146  48.882  1.00  0.00    -0.003 C 
ATOM     12  C   UNL     1      55.199  21.317  47.929  1.00  0.00     0.004 C 
ENDBRANCH  10  11
ENDBRANCH   9  10
ENDBRANCH   8   9
ENDBRANCH   7   8
ENDBRANCH   6   7
ENDBRANCH   5   6
ENDBRANCH   4   5
ENDBRANCH   3   4
ENDBRANCH   2   3
ENDBRANCH   1   2
BRANCH   1  13
ATOM     13  C   UNL     1      48.108  21.701  51.547  1.00  0.00     0.000 C 
BRANCH  13  14
ATOM     14  C   UNL     1      47.045  20.750  52.125  1.00  0.00     0.000 C 
BRANCH  14  15
ATOM     15  C   UNL     1      46.570  19.707  51.101  1.00  0.00     0.000 C 
BRANCH  15  16
ATOM     16  C   UNL     1      45.996  18.441  51.763  1.00  0.00     0.000 C 
BRANCH  16  17
ATOM     17  C   UNL     1      44.519  18.206  51.382  1.00  0.00     0.000 C 
BRANCH  17  18
ATOM     18  C   UNL     1      43.535  18.450  52.539  1.00  0.00     0.000 C 
BRANCH  18  19
ATOM     19  C   UNL     1      44.191  18.300  53.922  1.00  0.00     0.000 C 
BRANCH  19  20
ATOM     20  C   UNL     1      43.953  19.520  54.831  1.00  0.00     0.006 C 
BRANCH  20  21
ATOM     21  C   UNL     1      42.504  19.667  55.327  1.00  0.00     0.053 C 
BRANCH  21  22
ATOM     22  C   UNL     1      41.792  20.803  54.657  1.00  0.00     0.041 C 
ATOM     23  O   UNL     1      41.299  20.653  53.508  1.00  0.00    -0.550 OA
ATOM     24  O   UNL     1      41.708  22.038  55.286  1.00  0.00    -0.550 OA
ENDBRANCH  21  22
ENDBRANCH  20  21
ENDBRANCH  19  20
ENDBRANCH  18  19
ENDBRANCH  17  18
ENDBRANCH  16  17
ENDBRANCH  15  16
ENDBRANCH  14  15
ENDBRANCH  13  14
ENDBRANCH   1  13
TORSDOF 20
ENDMDL
MODEL 3
REMARK VINA RESULT:    -4.961      1.200      2.142
REMARK INTER + INTRA:         -12.965
REMARK INTER:                 -11.163
REMARK INTRA:                  -1.802
REMARK UNBOUND:                -2.203
REMARK SMILES CCCCCCCCCCCCCCCCCCCCCC(=O)[O-]
REMARK SMILES IDX 12 1 11 2 10 3 9 4 8 5 7 6 6 7 5 8 4 9 3 10 2 11 1 12 13 13
REMARK SMILES IDX 14 14 15 15 16 16 17 17 18 18 19 19 20 20 21 21 22 22 23 23
REMARK SMILES IDX 24 24
REMARK H PARENT
REMARK Flexibility Score: inf
ROOT
ATOM      1  C   UNL     1      49.363  21.832  54.383  1.00  0.00     0.000 C 
ENDROOT
BRANCH   1   2
ATOM      2  C   UNL     1      49.458  22.564  53.033  1.00  0.00     0.000 C 
BRANCH   2   3
ATOM      3  C   UNL     1      48.098  22.675  52.326  1.00  0.00     0.000 C 
BRANCH   3   4
ATOM      4  C   UNL     1      47.594  21.326  51.793  1.00  0.00    -0.000 C 
BRANCH   4   5
ATOM      5  C   UNL     1      48.294  20.961  50.475  1.00  0.00    -0.000 C 
BRANCH   5   6
ATOM      6  C   UNL     1      48.484  19.445  50.306  1.00  0.00    -0.000 C 
BRANCH   6   7
ATOM      7  C   UNL     1      49.956  19.054  50.087  1.00  0.00    -0.000 C 
BRANCH   7   8
ATOM      8  C   UNL     1      50.931  20.088  50.690  1.00  0.00    -0.000 C 
BRANCH   8   9
ATOM      9  C   UNL     1      51.848  20.752  49.647  1.00  0.00    -0.000 C 
BRANCH   9  10
ATOM     10  C   UNL     1      53.305  20.872  50.123  1.00  0.00    -0.000 C 
BRANCH  10  11
ATOM     11  C   UNL     1      54.295  20.182  49.172  1.00  0.00    -0.003 C 
ATOM     12  C   UNL     1      55.105  21.177  48.341  1.00  0.00     0.004 C 
ENDBRANCH  10  11
ENDBRANCH   9  10
ENDBRANCH   8   9
ENDBRANCH   7   8
ENDBRANCH   6   7
ENDBRANCH   5   6
ENDBRANCH   4   5
ENDBRANCH   3   4
ENDBRANCH   2   3
ENDBRANCH   1   2
BRANCH   1  13
ATOM     13  C   UNL     1      48.123  22.239  55.195  1.00  0.00     0.000 C 
BRANCH  13  14
ATOM     14  C   UNL     1      47.197  21.049  55.502  1.00  0.00     0.000 C 
BRANCH  14  15
ATOM     15  C   UNL     1      45.750  21.296  55.044  1.00  0.00     0.000 C 
BRANCH  15  16
ATOM     16  C   UNL     1      44.845  20.067  55.242  1.00  0.00     0.000 C 
BRANCH  16  17
ATOM     17  C   UNL     1      43.348  20.423  55.125  1.00  0.00     0.000 C 
BRANCH  17  18
ATOM     18  C   UNL     1      42.479  19.276  54.581  1.00  0.00     0.000 C 
BRANCH  18  19
ATOM     19  C   UNL     1      43.209  18.422  53.531  1.00  0.00     0.000 C 
BRANCH  19  20
ATOM     20  C   UNL     1      42.852  18.819  52.086  1.00  0.00     0.006 C 
BRANCH  20  21
ATOM     21  C   UNL     1      43.993  18.619  51.075  1.00  0.00     0.053 C 
BRANCH  21  22
ATOM     22  C   UNL     1      44.790  17.384  51.363  1.00  0.00     0.041 C 
ATOM     23  O   UNL     1      45.870  17.461  52.007  1.00  0.00    -0.550 OA
ATOM     24  O   UNL     1      44.361  16.152  50.886  1.00  0.00    -0.550 OA
ENDBRANCH  21  22
ENDBRANCH  20  21
ENDBRANCH  19  20
ENDBRANCH  18  19
ENDBRANCH  17  18
ENDBRANCH  16  17
ENDBRANCH  15  16
ENDBRANCH  14  15
ENDBRANCH  13  14
ENDBRANCH   1  13
TORSDOF 20
ENDMDL
MODEL 4
REMARK VINA RESULT:    -4.912      2.249      3.658
REMARK INTER + INTRA:         -12.858
REMARK INTER:                 -11.547
REMARK INTRA:                  -1.311
REMARK UNBOUND:                -2.203
REMARK SMILES CCCCCCCCCCCCCCCCCCCCCC(=O)[O-]
REMARK SMILES IDX 12 1 11 2 10 3 9 4 8 5 7 6 6 7 5 8 4 9 3 10 2 11 1 12 13 13
REMARK SMILES IDX 14 14 15 15 16 16 17 17 18 18 19 19 20 20 21 21 22 22 23 23
REMARK SMILES IDX 24 24
REMARK H PARENT
REMARK Flexibility Score: inf
ROOT
ATOM      1  C   UNL     1      45.072  24.984  54.857  1.00  0.00     0.000 C 
ENDROOT
BRANCH   1   2
ATOM      2  C   UNL     1      46.357  24.470  55.531  1.00  0.00     0.000 C 
BRANCH   2   3
ATOM      3  C   UNL     1      47.536  24.367  54.550  1.00  0.00     0.000 C 
BRANCH   3   4
ATOM      4  C   UNL     1      47.754  22.938  54.032  1.00  0.00    -0.000 C 
BRANCH   4   5
ATOM      5  C   UNL     1      47.756  22.906  52.496  1.00  0.00    -0.000 C 
BRANCH   5   6
ATOM      6  C   UNL     1      48.861  22.002  51.925  1.00  0.00    -0.000 C 
BRANCH   6   7
ATOM      7  C   UNL     1      48.333  21.023  50.862  1.00  0.00    -0.000 C 
BRANCH   7   8
ATOM      8  C   UNL     1      49.474  20.354  50.067  1.00  0.00    -0.000 C 
BRANCH   8   9
ATOM      9  C   UNL     1      50.867  20.570  50.685  1.00  0.00    -0.000 C 
BRANCH   9  10
ATOM     10  C   UNL     1      51.954  20.838  49.632  1.00  0.00    -0.000 C 
BRANCH  10  11
ATOM     11  C   UNL     1      53.374  20.704  50.203  1.00  0.00    -0.003 C 
ATOM     12  C   UNL     1      54.405  20.336  49.136  1.00  0.00     0.004 C 
ENDBRANCH  10  11
ENDBRANCH   9  10
ENDBRANCH   8   9
ENDBRANCH   7   8
ENDBRANCH   6   7
ENDBRANCH   5   6
ENDBRANCH   4   5
ENDBRANCH   3   4
ENDBRANCH   2   3
ENDBRANCH   1   2
BRANCH   1  13
ATOM     13  C   UNL     1      43.853  24.091  55.140  1.00  0.00     0.000 C 
BRANCH  13  14
ATOM     14  C   UNL     1      42.536  24.885  55.195  1.00  0.00     0.000 C 
BRANCH  14  15
ATOM     15  C   UNL     1      41.298  23.975  55.147  1.00  0.00     0.000 C 
BRANCH  15  16
ATOM     16  C   UNL     1      41.656  22.480  55.233  1.00  0.00     0.000 C 
BRANCH  16  17
ATOM     17  C   UNL     1      40.977  21.655  54.120  1.00  0.00     0.000 C 
BRANCH  17  18
ATOM     18  C   UNL     1      41.633  20.285  53.877  1.00  0.00     0.000 C 
BRANCH  18  19
ATOM     19  C   UNL     1      42.526  19.836  55.045  1.00  0.00     0.000 C 
BRANCH  19  20
ATOM     20  C   UNL     1      43.848  19.199  54.575  1.00  0.00     0.006 C 
BRANCH  20  21
ATOM     21  C   UNL     1      43.670  17.990  53.641  1.00  0.00     0.053 C 
BRANCH  21  22
ATOM     22  C   UNL     1      44.292  18.222  52.297  1.00  0.00     0.041 C 
ATOM     23  O   UNL     1      43.608  18.082  51.249  1.00  0.00    -0.550 OA
ATOM     24  O   UNL     1      45.638  18.554  52.201  1.00  0.00    -0.550 OA
ENDBRANCH  21  22
ENDBRANCH  20  21
ENDBRANCH  19  20
ENDBRANCH  18  19
ENDBRANCH  17  18
ENDBRANCH  16  17
ENDBRANCH  15  16
ENDBRANCH  14  15
ENDBRANCH  13  14
ENDBRANCH   1  13
TORSDOF 20
ENDMDL
MODEL 5
REMARK VINA RESULT:    -4.845      2.096      3.645
REMARK INTER + INTRA:         -12.712
REMARK INTER:                 -10.661
REMARK INTRA:                  -2.051
REMARK UNBOUND:                -2.203
REMARK SMILES CCCCCCCCCCCCCCCCCCCCCC(=O)[O-]
REMARK SMILES IDX 12 1 11 2 10 3 9 4 8 5 7 6 6 7 5 8 4 9 3 10 2 11 1 12 13 13
REMARK SMILES IDX 14 14 15 15 16 16 17 17 18 18 19 19 20 20 21 21 22 22 23 23
REMARK SMILES IDX 24 24
REMARK H PARENT
REMARK Flexibility Score: inf
ROOT
ATOM      1  C   UNL     1      49.591  23.743  53.147  1.00  0.00     0.000 C 
ENDROOT
BRANCH   1   2
ATOM      2  C   UNL     1      49.778  23.527  54.660  1.00  0.00     0.000 C 
BRANCH   2   3
ATOM      3  C   UNL     1      49.961  22.046  55.025  1.00  0.00     0.000 C 
BRANCH   3   4
ATOM      4  C   UNL     1      50.848  21.293  54.022  1.00  0.00    -0.000 C 
BRANCH   4   5
ATOM      5  C   UNL     1      52.199  20.925  54.653  1.00  0.00    -0.000 C 
BRANCH   5   6
ATOM      6  C   UNL     1      53.377  21.673  54.007  1.00  0.00    -0.000 C 
BRANCH   6   7
ATOM      7  C   UNL     1      52.949  22.513  52.791  1.00  0.00    -0.000 C 
BRANCH   7   8
ATOM      8  C   UNL     1      53.433  21.902  51.459  1.00  0.00    -0.000 C 
BRANCH   8   9
ATOM      9  C   UNL     1      52.369  21.045  50.750  1.00  0.00    -0.000 C 
BRANCH   9  10
ATOM     10  C   UNL     1      52.876  20.427  49.438  1.00  0.00    -0.000 C 
BRANCH  10  11
ATOM     11  C   UNL     1      54.410  20.361  49.371  1.00  0.00    -0.003 C 
ATOM     12  C   UNL     1      54.982  21.152  48.194  1.00  0.00     0.004 C 
ENDBRANCH  10  11
ENDBRANCH   9  10
ENDBRANCH   8   9
ENDBRANCH   7   8
ENDBRANCH   6   7
ENDBRANCH   5   6
ENDBRANCH   4   5
ENDBRANCH   3   4
ENDBRANCH   2   3
ENDBRANCH   1   2
BRANCH   1  13
ATOM     13  C   UNL     1      48.121  23.650  52.709  1.00  0.00     0.000 C 
BRANCH  13  14
ATOM     14  C   UNL     1      47.717  22.227  52.284  1.00  0.00     0.000 C 
BRANCH  14  15
ATOM     15  C   UNL     1      48.658  21.643  51.218  1.00  0.00     0.000 C 
BRANCH  15  16
ATOM     16  C   UNL     1      48.179  20.281  50.684  1.00  0.00     0.000 C 
BRANCH  16  17
ATOM     17  C   UNL     1      46.648  20.121  50.792  1.00  0.00     0.000 C 
BRANCH  17  18
ATOM     18  C   UNL     1      46.210  18.976  51.721  1.00  0.00     0.000 C 
BRANCH  18  19
ATOM     19  C   UNL     1      44.860  18.361  51.315  1.00  0.00     0.000 C 
BRANCH  19  20
ATOM     20  C   UNL     1      44.107  17.735  52.504  1.00  0.00     0.006 C 
BRANCH  20  21
ATOM     21  C   UNL     1      43.183  18.711  53.252  1.00  0.00     0.053 C 
BRANCH  21  22
ATOM     22  C   UNL     1      43.530  18.813  54.706  1.00  0.00     0.041 C 
ATOM     23  O   UNL     1      44.364  19.670  55.100  1.00  0.00    -0.550 OA
ATOM     24  O   UNL     1      42.962  17.935  55.620  1.00  0.00    -0.550 OA
ENDBRANCH  21  22
ENDBRANCH  20  21
ENDBRANCH  19  20
ENDBRANCH  18  19
ENDBRANCH  17  18
ENDBRANCH  16  17
ENDBRANCH  15  16
ENDBRANCH  14  15
ENDBRANCH  13  14
ENDBRANCH   1  13
TORSDOF 20
ENDMDL
MODEL 6
REMARK VINA RESULT:    -4.726      1.099      1.999
REMARK INTER + INTRA:         -12.455
REMARK INTER:                 -10.217
REMARK INTRA:                  -2.238
REMARK UNBOUND:                -2.203
REMARK SMILES CCCCCCCCCCCCCCCCCCCCCC(=O)[O-]
REMARK SMILES IDX 12 1 11 2 10 3 9 4 8 5 7 6 6 7 5 8 4 9 3 10 2 11 1 12 13 13
REMARK SMILES IDX 14 14 15 15 16 16 17 17 18 18 19 19 20 20 21 21 22 22 23 23
REMARK SMILES IDX 24 24
REMARK H PARENT
REMARK Flexibility Score: inf
ROOT
ATOM      1  C   UNL     1      49.058  22.786  52.701  1.00  0.00     0.000 C 
ENDROOT
BRANCH   1   2
ATOM      2  C   UNL     1      47.807  22.416  51.883  1.00  0.00     0.000 C 
BRANCH   2   3
ATOM      3  C   UNL     1      47.775  20.929  51.497  1.00  0.00     0.000 C 
BRANCH   3   4
ATOM      4  C   UNL     1      48.159  20.689  50.029  1.00  0.00    -0.000 C 
BRANCH   4   5
ATOM      5  C   UNL     1      48.905  19.356  49.869  1.00  0.00    -0.000 C 
BRANCH   5   6
ATOM      6  C   UNL     1      50.370  19.439  50.327  1.00  0.00    -0.000 C 
BRANCH   6   7
ATOM      7  C   UNL     1      51.001  20.814  50.046  1.00  0.00    -0.000 C 
BRANCH   7   8
ATOM      8  C   UNL     1      52.497  20.708  49.683  1.00  0.00    -0.000 C 
BRANCH   8   9
ATOM      9  C   UNL     1      53.441  21.019  50.858  1.00  0.00    -0.000 C 
BRANCH   9  10
ATOM     10  C   UNL     1      52.891  22.106  51.795  1.00  0.00    -0.000 C 
BRANCH  10  11
ATOM     11  C   UNL     1      52.452  21.544  53.156  1.00  0.00    -0.003 C 
ATOM     12  C   UNL     1      53.618  21.381  54.130  1.00  0.00     0.004 C 
ENDBRANCH  10  11
ENDBRANCH   9  10
ENDBRANCH   8   9
ENDBRANCH   7   8
ENDBRANCH   6   7
ENDBRANCH   5   6
ENDBRANCH   4   5
ENDBRANCH   3   4
ENDBRANCH   2   3
ENDBRANCH   1   2
BRANCH   1  13
ATOM     13  C   UNL     1      48.730  23.638  53.938  1.00  0.00     0.000 C 
BRANCH  13  14
ATOM     14  C   UNL     1      47.217  23.826  54.146  1.00  0.00     0.000 C 
BRANCH  14  15
ATOM     15  C   UNL     1      46.711  23.145  55.428  1.00  0.00     0.000 C 
BRANCH  15  16
ATOM     16  C   UNL     1      47.307  21.740  55.630  1.00  0.00     0.000 C 
BRANCH  16  17
ATOM     17  C   UNL     1      46.213  20.665  55.803  1.00  0.00     0.000 C 
BRANCH  17  18
ATOM     18  C   UNL     1      45.555  20.235  54.480  1.00  0.00     0.000 C 
BRANCH  18  19
ATOM     19  C   UNL     1      44.236  19.474  54.690  1.00  0.00     0.000 C 
BRANCH  19  20
ATOM     20  C   UNL     1      44.180  18.148  53.908  1.00  0.00     0.006 C 
BRANCH  20  21
ATOM     21  C   UNL     1      45.107  18.098  52.682  1.00  0.00     0.053 C 
BRANCH  21  22
ATOM     22  C   UNL     1      44.360  17.771  51.425  1.00  0.00     0.041 C 
ATOM     23  O   UNL     1      44.113  16.572  51.128  1.00  0.00    -0.550 OA
ATOM     24  O   UNL     1      43.970  18.787  50.562  1.00  0.00    -0.550 OA
ENDBRANCH  21  22
ENDBRANCH  20  21
ENDBRANCH  19  20
ENDBRANCH  18  19
ENDBRANCH  17  18
ENDBRANCH  16  17
ENDBRANCH  15  16
ENDBRANCH  14  15
ENDBRANCH  13  14
ENDBRANCH   1  13
TORSDOF 20
ENDMDL
MODEL 7
REMARK VINA RESULT:    -4.709      1.859      5.754
REMARK INTER + INTRA:         -12.418
REMARK INTER:                  -9.653
REMARK INTRA:                  -2.766
REMARK UNBOUND:                -2.203
REMARK SMILES CCCCCCCCCCCCCCCCCCCCCC(=O)[O-]
REMARK SMILES IDX 12 1 11 2 10 3 9 4 8 5 7 6 6 7 5 8 4 9 3 10 2 11 1 12 13 13
REMARK SMILES IDX 14 14 15 15 16 16 17 17 18 18 19 19 20 20 21 21 22 22 23 23
REMARK SMILES IDX 24 24
REMARK H PARENT
REMARK Flexibility Score: inf
ROOT
ATOM      1  C   UNL     1      51.134  20.857  49.801  1.00  0.00     0.000 C 
ENDROOT
BRANCH   1   2
ATOM      2  C   UNL     1      52.657  20.960  49.600  1.00  0.00     0.000 C 
BRANCH   2   3
ATOM      3  C   UNL     1      53.421  21.043  50.931  1.00  0.00     0.000 C 
BRANCH   3   4
ATOM      4  C   UNL     1      53.090  22.315  51.727  1.00  0.00    -0.000 C 
BRANCH   4   5
ATOM      5  C   UNL     1      52.895  21.993  53.217  1.00  0.00    -0.000 C 
BRANCH   5   6
ATOM      6  C   UNL     1      51.840  20.901  53.453  1.00  0.00    -0.000 C 
BRANCH   6   7
ATOM      7  C   UNL     1      50.516  21.466  53.997  1.00  0.00    -0.000 C 
BRANCH   7   8
ATOM      8  C   UNL     1      49.686  22.167  52.901  1.00  0.00    -0.000 C 
BRANCH   8   9
ATOM      9  C   UNL     1      48.250  22.509  53.339  1.00  0.00    -0.000 C 
BRANCH   9  10
ATOM     10  C   UNL     1      48.182  23.102  54.755  1.00  0.00    -0.000 C 
BRANCH  10  11
ATOM     11  C   UNL     1      47.319  22.258  55.706  1.00  0.00    -0.003 C 
ATOM     12  C   UNL     1      46.641  21.084  55.001  1.00  0.00     0.004 C 
ENDBRANCH  10  11
ENDBRANCH   9  10
ENDBRANCH   8   9
ENDBRANCH   7   8
ENDBRANCH   6   7
ENDBRANCH   5   6
ENDBRANCH   4   5
ENDBRANCH   3   4
ENDBRANCH   2   3
ENDBRANCH   1   2
BRANCH   1  13
ATOM     13  C   UNL     1      50.669  19.425  50.107  1.00  0.00     0.000 C 
BRANCH  13  14
ATOM     14  C   UNL     1      49.154  19.334  50.362  1.00  0.00     0.000 C 
BRANCH  14  15
ATOM     15  C   UNL     1      48.409  20.609  49.934  1.00  0.00     0.000 C 
BRANCH  15  16
ATOM     16  C   UNL     1      46.917  20.582  50.314  1.00  0.00     0.000 C 
BRANCH  16  17
ATOM     17  C   UNL     1      46.638  19.641  51.506  1.00  0.00     0.000 C 
BRANCH  17  18
ATOM     18  C   UNL     1      45.373  18.783  51.334  1.00  0.00     0.000 C 
BRANCH  18  19
ATOM     19  C   UNL     1      45.298  17.622  52.339  1.00  0.00     0.000 C 
BRANCH  19  20
ATOM     20  C   UNL     1      44.031  17.670  53.213  1.00  0.00     0.006 C 
BRANCH  20  21
ATOM     21  C   UNL     1      43.918  18.924  54.095  1.00  0.00     0.053 C 
BRANCH  21  22
ATOM     22  C   UNL     1      42.535  19.103  54.645  1.00  0.00     0.041 C 
ATOM     23  O   UNL     1      42.125  18.368  55.581  1.00  0.00    -0.550 OA
ATOM     24  O   UNL     1      41.687  20.056  54.095  1.00  0.00    -0.550 OA
ENDBRANCH  21  22
ENDBRANCH  20  21
ENDBRANCH  19  20
ENDBRANCH  18  19
ENDBRANCH  17  18
ENDBRANCH  16  17
ENDBRANCH  15  16
ENDBRANCH  14  15
ENDBRANCH  13  14
ENDBRANCH   1  13
TORSDOF 20
ENDMDL
MODEL 8
REMARK VINA RESULT:    -4.698      2.058      3.712
REMARK INTER + INTRA:         -12.393
REMARK INTER:                  -9.650
REMARK INTRA:                  -2.743
REMARK UNBOUND:                -2.203
REMARK SMILES CCCCCCCCCCCCCCCCCCCCCC(=O)[O-]
REMARK SMILES IDX 12 1 11 2 10 3 9 4 8 5 7 6 6 7 5 8 4 9 3 10 2 11 1 12 13 13
REMARK SMILES IDX 14 14 15 15 16 16 17 17 18 18 19 19 20 20 21 21 22 22 23 23
REMARK SMILES IDX 24 24
REMARK H PARENT
REMARK Flexibility Score: inf
ROOT
ATOM      1  C   UNL     1      50.396  24.400  52.483  1.00  0.00     0.000 C 
ENDROOT
BRANCH   1   2
ATOM      2  C   UNL     1      51.614  25.010  53.201  1.00  0.00     0.000 C 
BRANCH   2   3
ATOM      3  C   UNL     1      51.950  24.282  54.512  1.00  0.00     0.000 C 
BRANCH   3   4
ATOM      4  C   UNL     1      53.402  23.782  54.558  1.00  0.00    -0.000 C 
BRANCH   4   5
ATOM      5  C   UNL     1      53.475  22.282  54.236  1.00  0.00    -0.000 C 
BRANCH   5   6
ATOM      6  C   UNL     1      52.112  21.582  54.364  1.00  0.00    -0.000 C 
BRANCH   6   7
ATOM      7  C   UNL     1      51.746  20.766  53.112  1.00  0.00    -0.000 C 
BRANCH   7   8
ATOM      8  C   UNL     1      52.290  21.408  51.818  1.00  0.00    -0.000 C 
BRANCH   8   9
ATOM      9  C   UNL     1      51.583  20.917  50.542  1.00  0.00    -0.000 C 
BRANCH   9  10
ATOM     10  C   UNL     1      52.566  20.444  49.458  1.00  0.00    -0.000 C 
BRANCH  10  11
ATOM     11  C   UNL     1      54.033  20.656  49.860  1.00  0.00    -0.003 C 
ATOM     12  C   UNL     1      55.009  19.935  48.930  1.00  0.00     0.004 C 
ENDBRANCH  10  11
ENDBRANCH   9  10
ENDBRANCH   8   9
ENDBRANCH   7   8
ENDBRANCH   6   7
ENDBRANCH   5   6
ENDBRANCH   4   5
ENDBRANCH   3   4
ENDBRANCH   2   3
ENDBRANCH   1   2
BRANCH   1  13
ATOM     13  C   UNL     1      49.082  25.125  52.817  1.00  0.00     0.000 C 
BRANCH  13  14
ATOM     14  C   UNL     1      48.070  24.218  53.539  1.00  0.00     0.000 C 
BRANCH  14  15
ATOM     15  C   UNL     1      48.573  22.772  53.681  1.00  0.00     0.000 C 
BRANCH  15  16
ATOM     16  C   UNL     1      47.736  21.769  52.867  1.00  0.00     0.000 C 
BRANCH  16  17
ATOM     17  C   UNL     1      48.144  21.745  51.379  1.00  0.00     0.000 C 
BRANCH  17  18
ATOM     18  C   UNL     1      47.836  20.413  50.674  1.00  0.00     0.000 C 
BRANCH  18  19
ATOM     19  C   UNL     1      46.371  19.976  50.838  1.00  0.00     0.000 C 
BRANCH  19  20
ATOM     20  C   UNL     1      46.232  18.594  51.503  1.00  0.00     0.006 C 
BRANCH  20  21
ATOM     21  C   UNL     1      45.013  18.458  52.430  1.00  0.00     0.053 C 
BRANCH  21  22
ATOM     22  C   UNL     1      43.794  17.991  51.692  1.00  0.00     0.041 C 
ATOM     23  O   UNL     1      43.766  16.843  51.177  1.00  0.00    -0.550 OA
ATOM     24  O   UNL     1      42.706  18.841  51.540  1.00  0.00    -0.550 OA
ENDBRANCH  21  22
ENDBRANCH  20  21
ENDBRANCH  19  20
ENDBRANCH  18  19
ENDBRANCH  17  18
ENDBRANCH  16  17
ENDBRANCH  15  16
ENDBRANCH  14  15
ENDBRANCH  13  14
ENDBRANCH   1  13
TORSDOF 20
ENDMDL
MODEL 9
REMARK VINA RESULT:    -4.691      2.045      5.413
REMARK INTER + INTRA:         -12.379
REMARK INTER:                  -9.886
REMARK INTRA:                  -2.493
REMARK UNBOUND:                -2.203
REMARK SMILES CCCCCCCCCCCCCCCCCCCCCC(=O)[O-]
REMARK SMILES IDX 12 1 11 2 10 3 9 4 8 5 7 6 6 7 5 8 4 9 3 10 2 11 1 12 13 13
REMARK SMILES IDX 14 14 15 15 16 16 17 17 18 18 19 19 20 20 21 21 22 22 23 23
REMARK SMILES IDX 24 24
REMARK H PARENT
REMARK Flexibility Score: inf
ROOT
ATOM      1  C   UNL     1      49.497  19.499  50.290  1.00  0.00     0.000 C 
ENDROOT
BRANCH   1   2
ATOM      2  C   UNL     1      50.977  19.415  49.873  1.00  0.00     0.000 C 
BRANCH   2   3
ATOM      3  C   UNL     1      51.635  20.799  49.756  1.00  0.00     0.000 C 
BRANCH   3   4
ATOM      4  C   UNL     1      53.107  20.795  50.194  1.00  0.00    -0.000 C 
BRANCH   4   5
ATOM      5  C   UNL     1      53.331  21.754  51.373  1.00  0.00    -0.000 C 
BRANCH   5   6
ATOM      6  C   UNL     1      52.501  21.375  52.610  1.00  0.00    -0.000 C 
BRANCH   6   7
ATOM      7  C   UNL     1      51.564  22.508  53.063  1.00  0.00    -0.000 C 
BRANCH   7   8
ATOM      8  C   UNL     1      50.075  22.129  52.916  1.00  0.00    -0.000 C 
BRANCH   8   9
ATOM      9  C   UNL     1      49.176  23.306  52.500  1.00  0.00    -0.000 C 
BRANCH   9  10
ATOM     10  C   UNL     1      47.735  23.171  53.017  1.00  0.00    -0.000 C 
BRANCH  10  11
ATOM     11  C   UNL     1      47.608  22.135  54.144  1.00  0.00    -0.003 C 
ATOM     12  C   UNL     1      46.590  22.543  55.208  1.00  0.00     0.004 C 
ENDBRANCH  10  11
ENDBRANCH   9  10
ENDBRANCH   8   9
ENDBRANCH   7   8
ENDBRANCH   6   7
ENDBRANCH   5   6
ENDBRANCH   4   5
ENDBRANCH   3   4
ENDBRANCH   2   3
ENDBRANCH   1   2
BRANCH   1  13
ATOM     13  C   UNL     1      48.799  20.762  49.759  1.00  0.00     0.000 C 
BRANCH  13  14
ATOM     14  C   UNL     1      47.339  20.876  50.230  1.00  0.00     0.000 C 
BRANCH  14  15
ATOM     15  C   UNL     1      47.002  19.876  51.348  1.00  0.00     0.000 C 
BRANCH  15  16
ATOM     16  C   UNL     1      45.793  18.986  51.006  1.00  0.00     0.000 C 
BRANCH  16  17
ATOM     17  C   UNL     1      45.477  17.979  52.132  1.00  0.00     0.000 C 
BRANCH  17  18
ATOM     18  C   UNL     1      44.094  18.183  52.774  1.00  0.00     0.000 C 
BRANCH  18  19
ATOM     19  C   UNL     1      44.175  18.779  54.189  1.00  0.00     0.000 C 
BRANCH  19  20
ATOM     20  C   UNL     1      42.815  18.790  54.911  1.00  0.00     0.006 C 
BRANCH  20  21
ATOM     21  C   UNL     1      42.247  20.197  55.166  1.00  0.00     0.053 C 
BRANCH  21  22
ATOM     22  C   UNL     1      41.181  20.560  54.177  1.00  0.00     0.041 C 
ATOM     23  O   UNL     1      40.416  19.674  53.714  1.00  0.00    -0.550 OA
ATOM     24  O   UNL     1      41.058  21.873  53.738  1.00  0.00    -0.550 OA
ENDBRANCH  21  22
ENDBRANCH  20  21
ENDBRANCH  19  20
ENDBRANCH  18  19
ENDBRANCH  17  18
ENDBRANCH  16  17
ENDBRANCH  15  16
ENDBRANCH  14  15
ENDBRANCH  13  14
ENDBRANCH   1  13
TORSDOF 20
ENDMDL
