MODEL 1
REMARK VINA RESULT:    -5.683      0.000      0.000
REMARK INTER + INTRA:          -5.849
REMARK INTER:                  -5.849
REMARK INTRA:                   0.000
REMARK UNBOUND:                 0.000
REMARK SMILES O=c1ccc2ccc(O)cc2o1
REMARK SMILES IDX 6 1 7 2 8 3 10 4 11 5 5 6 4 7 3 8 2 9 1 10 12 11 9 12
REMARK H PARENT 9 13
REMARK Flexibility Score: inf
ROOT
ATOM      1  C   UNL     1      20.628  -0.927 -21.631  1.00  0.00     0.016 A 
ATOM      2  C   UNL     1      21.341  -0.095 -22.501  1.00  0.00     0.047 A 
ATOM      3  C   UNL     1      21.870   1.118 -22.044  1.00  0.00     0.119 A 
ATOM      4  C   UNL     1      21.686   1.503 -20.708  1.00  0.00     0.094 A 
ATOM      5  C   UNL     1      20.975   0.677 -19.830  1.00  0.00     0.142 A 
ATOM      6  C   UNL     1      20.442  -0.547 -20.295  1.00  0.00     0.018 A 
ATOM      7  C   UNL     1      19.737  -1.351 -19.395  1.00  0.00     0.019 A 
ATOM      8  C   UNL     1      19.579  -0.926 -18.076  1.00  0.00     0.094 A 
ATOM      9  C   UNL     1      20.134   0.297 -17.686  1.00  0.00     0.336 A 
ATOM     10  O   UNL     1      20.003   0.698 -16.501  1.00  0.00    -0.246 OA
ATOM     11  O   UNL     1      20.802   1.044 -18.563  1.00  0.00    -0.423 OA
ENDROOT
BRANCH   3  12
ATOM     12  O   UNL     1      22.577   1.934 -22.925  1.00  0.00    -0.508 OA
ATOM     13  H   UNL     1      22.296   2.890 -23.103  1.00  0.00     0.293 HD
ENDBRANCH   3  12
TORSDOF 1
ENDMDL
MODEL 2
REMARK VINA RESULT:    -5.331      0.880      4.227
REMARK INTER + INTRA:          -5.487
REMARK INTER:                  -5.487
REMARK INTRA:                   0.000
REMARK UNBOUND:                 0.000
REMARK SMILES O=c1ccc2ccc(O)cc2o1
REMARK SMILES IDX 6 1 7 2 8 3 10 4 11 5 5 6 4 7 3 8 2 9 1 10 12 11 9 12
REMARK H PARENT 9 13
REMARK Flexibility Score: inf
ROOT
ATOM      1  C   UNL     1      19.500  -1.217 -19.100  1.00  0.00     0.016 A 
ATOM      2  C   UNL     1      19.522  -0.736 -17.787  1.00  0.00     0.047 A 
ATOM      3  C   UNL     1      20.307   0.374 -17.453  1.00  0.00     0.119 A 
ATOM      4  C   UNL     1      21.076   1.010 -18.439  1.00  0.00     0.094 A 
ATOM      5  C   UNL     1      21.060   0.537 -19.756  1.00  0.00     0.142 A 
ATOM      6  C   UNL     1      20.268  -0.585 -20.088  1.00  0.00     0.018 A 
ATOM      7  C   UNL     1      20.272  -1.034 -21.413  1.00  0.00     0.019 A 
ATOM      8  C   UNL     1      21.053  -0.370 -22.358  1.00  0.00     0.094 A 
ATOM      9  C   UNL     1      21.813   0.734 -21.956  1.00  0.00     0.336 A 
ATOM     10  O   UNL     1      22.524   1.347 -22.794  1.00  0.00    -0.246 OA
ATOM     11  O   UNL     1      21.790   1.142 -20.688  1.00  0.00    -0.423 OA
ENDROOT
BRANCH   3  12
ATOM     12  O   UNL     1      20.315   0.838 -16.139  1.00  0.00    -0.508 OA
ATOM     13  H   UNL     1      20.523   0.224 -15.361  1.00  0.00     0.293 HD
ENDBRANCH   3  12
TORSDOF 1
ENDMDL
MODEL 3
REMARK VINA RESULT:    -5.305      5.319      6.831
REMARK INTER + INTRA:          -5.460
REMARK INTER:                  -5.460
REMARK INTRA:                   0.000
REMARK UNBOUND:                 0.000
REMARK SMILES O=c1ccc2ccc(O)cc2o1
REMARK SMILES IDX 6 1 7 2 8 3 10 4 11 5 5 6 4 7 3 8 2 9 1 10 12 11 9 12
REMARK H PARENT 9 13
REMARK Flexibility Score: inf
ROOT
ATOM      1  C   UNL     1      23.987   6.153 -21.933  1.00  0.00     0.016 A 
ATOM      2  C   UNL     1      23.154   5.127 -22.392  1.00  0.00     0.047 A 
ATOM      3  C   UNL     1      22.495   4.290 -21.483  1.00  0.00     0.119 A 
ATOM      4  C   UNL     1      22.667   4.481 -20.104  1.00  0.00     0.094 A 
ATOM      5  C   UNL     1      23.497   5.506 -19.635  1.00  0.00     0.142 A 
ATOM      6  C   UNL     1      24.162   6.347 -20.556  1.00  0.00     0.018 A 
ATOM      7  C   UNL     1      24.984   7.362 -20.057  1.00  0.00     0.019 A 
ATOM      8  C   UNL     1      25.125   7.512 -18.677  1.00  0.00     0.094 A 
ATOM      9  C   UNL     1      24.436   6.642 -17.826  1.00  0.00     0.336 A 
ATOM     10  O   UNL     1      24.549   6.762 -16.578  1.00  0.00    -0.246 OA
ATOM     11  O   UNL     1      23.658   5.684 -18.327  1.00  0.00    -0.423 OA
ENDROOT
BRANCH   3  12
ATOM     12  O   UNL     1      21.669   3.274 -21.960  1.00  0.00    -0.508 OA
ATOM     13  H   UNL     1      20.878   2.939 -21.424  1.00  0.00     0.293 HD
ENDBRANCH   3  12
TORSDOF 1
ENDMDL
MODEL 4
REMARK VINA RESULT:    -5.153      1.533      2.300
REMARK INTER + INTRA:          -5.304
REMARK INTER:                  -5.304
REMARK INTRA:                   0.000
REMARK UNBOUND:                 0.000
REMARK SMILES O=c1ccc2ccc(O)cc2o1
REMARK SMILES IDX 6 1 7 2 8 3 10 4 11 5 5 6 4 7 3 8 2 9 1 10 12 11 9 12
REMARK H PARENT 9 13
REMARK Flexibility Score: inf
ROOT
ATOM      1  C   UNL     1      21.709   1.331 -19.978  1.00  0.00     0.016 A 
ATOM      2  C   UNL     1      21.877   0.936 -21.310  1.00  0.00     0.047 A 
ATOM      3  C   UNL     1      21.231  -0.207 -21.796  1.00  0.00     0.119 A 
ATOM      4  C   UNL     1      20.409  -0.961 -20.945  1.00  0.00     0.094 A 
ATOM      5  C   UNL     1      20.234  -0.574 -19.612  1.00  0.00     0.142 A 
ATOM      6  C   UNL     1      20.889   0.580 -19.125  1.00  0.00     0.018 A 
ATOM      7  C   UNL     1      20.694   0.942 -17.789  1.00  0.00     0.019 A 
ATOM      8  C   UNL     1      19.869   0.161 -16.981  1.00  0.00     0.094 A 
ATOM      9  C   UNL     1      19.253  -0.969 -17.531  1.00  0.00     0.336 A 
ATOM     10  O   UNL     1      18.504  -1.686 -16.820  1.00  0.00    -0.246 OA
ATOM     11  O   UNL     1      19.454  -1.291 -18.808  1.00  0.00    -0.423 OA
ENDROOT
BRANCH   3  12
ATOM     12  O   UNL     1      21.411  -0.584 -23.125  1.00  0.00    -0.508 OA
ATOM     13  H   UNL     1      20.642  -0.929 -23.686  1.00  0.00     0.293 HD
ENDBRANCH   3  12
TORSDOF 1
ENDMDL
MODEL 5
REMARK VINA RESULT:    -5.141     15.835     18.659
REMARK INTER + INTRA:          -5.291
REMARK INTER:                  -5.291
REMARK INTRA:                   0.000
REMARK UNBOUND:                 0.000
REMARK SMILES O=c1ccc2ccc(O)cc2o1
REMARK SMILES IDX 6 1 7 2 8 3 10 4 11 5 5 6 4 7 3 8 2 9 1 10 12 11 9 12
REMARK H PARENT 9 13
REMARK Flexibility Score: inf
ROOT
ATOM      1  C   UNL     1       8.266  -8.184  -6.853  1.00  0.00     0.016 A 
ATOM      2  C   UNL     1       7.668  -7.321  -5.928  1.00  0.00     0.047 A 
ATOM      3  C   UNL     1       8.100  -5.994  -5.817  1.00  0.00     0.119 A 
ATOM      4  C   UNL     1       9.136  -5.524  -6.637  1.00  0.00     0.094 A 
ATOM      5  C   UNL     1       9.739  -6.379  -7.567  1.00  0.00     0.142 A 
ATOM      6  C   UNL     1       9.302  -7.718  -7.675  1.00  0.00     0.018 A 
ATOM      7  C   UNL     1       9.924  -8.548  -8.613  1.00  0.00     0.019 A 
ATOM      8  C   UNL     1      10.950  -8.036  -9.405  1.00  0.00     0.094 A 
ATOM      9  C   UNL     1      11.331  -6.700  -9.243  1.00  0.00     0.336 A 
ATOM     10  O   UNL     1      12.255  -6.219  -9.949  1.00  0.00    -0.246 OA
ATOM     11  O   UNL     1      10.722  -5.930  -8.343  1.00  0.00    -0.423 OA
ENDROOT
BRANCH   3  12
ATOM     12  O   UNL     1       7.492  -5.150  -4.890  1.00  0.00    -0.508 OA
ATOM     13  H   UNL     1       7.369  -4.162  -5.074  1.00  0.00     0.293 HD
ENDBRANCH   3  12
TORSDOF 1
ENDMDL
MODEL 6
REMARK VINA RESULT:    -4.999      2.314      3.592
REMARK INTER + INTRA:          -5.145
REMARK INTER:                  -5.145
REMARK INTRA:                   0.000
REMARK UNBOUND:                 0.000
REMARK SMILES O=c1ccc2ccc(O)cc2o1
REMARK SMILES IDX 6 1 7 2 8 3 10 4 11 5 5 6 4 7 3 8 2 9 1 10 12 11 9 12
REMARK H PARENT 9 13
REMARK Flexibility Score: inf
ROOT
ATOM      1  C   UNL     1      21.077   0.809 -20.145  1.00  0.00     0.016 A 
ATOM      2  C   UNL     1      19.925   0.067 -20.426  1.00  0.00     0.047 A 
ATOM      3  C   UNL     1      19.154  -0.464 -19.385  1.00  0.00     0.119 A 
ATOM      4  C   UNL     1      19.537  -0.252 -18.052  1.00  0.00     0.094 A 
ATOM      5  C   UNL     1      20.687   0.489 -17.761  1.00  0.00     0.142 A 
ATOM      6  C   UNL     1      21.463   1.023 -18.814  1.00  0.00     0.018 A 
ATOM      7  C   UNL     1      22.607   1.759 -18.492  1.00  0.00     0.019 A 
ATOM      8  C   UNL     1      22.948   1.942 -17.152  1.00  0.00     0.094 A 
ATOM      9  C   UNL     1      22.133   1.384 -16.162  1.00  0.00     0.336 A 
ATOM     10  O   UNL     1      22.423   1.539 -14.948  1.00  0.00    -0.246 OA
ATOM     11  O   UNL     1      21.048   0.688 -16.496  1.00  0.00    -0.423 OA
ENDROOT
BRANCH   3  12
ATOM     12  O   UNL     1      18.009  -1.199 -19.685  1.00  0.00    -0.508 OA
ATOM     13  H   UNL     1      17.159  -1.100 -19.144  1.00  0.00     0.293 HD
ENDBRANCH   3  12
TORSDOF 1
ENDMDL
MODEL 7
REMARK VINA RESULT:    -4.935      1.984      4.547
REMARK INTER + INTRA:          -5.080
REMARK INTER:                  -5.080
REMARK INTRA:                   0.000
REMARK UNBOUND:                 0.000
REMARK SMILES O=c1ccc2ccc(O)cc2o1
REMARK SMILES IDX 6 1 7 2 8 3 10 4 11 5 5 6 4 7 3 8 2 9 1 10 12 11 9 12
REMARK H PARENT 9 13
REMARK Flexibility Score: inf
ROOT
ATOM      1  C   UNL     1      19.169   0.393 -16.399  1.00  0.00     0.016 A 
ATOM      2  C   UNL     1      20.054   1.014 -15.512  1.00  0.00     0.047 A 
ATOM      3  C   UNL     1      21.353   1.342 -15.921  1.00  0.00     0.119 A 
ATOM      4  C   UNL     1      21.770   1.047 -17.227  1.00  0.00     0.094 A 
ATOM      5  C   UNL     1      20.892   0.426 -18.123  1.00  0.00     0.142 A 
ATOM      6  C   UNL     1      19.583   0.097 -17.706  1.00  0.00     0.018 A 
ATOM      7  C   UNL     1      18.728  -0.523 -18.623  1.00  0.00     0.019 A 
ATOM      8  C   UNL     1      19.188  -0.796 -19.910  1.00  0.00     0.094 A 
ATOM      9  C   UNL     1      20.497  -0.442 -20.253  1.00  0.00     0.336 A 
ATOM     10  O   UNL     1      20.931  -0.680 -21.410  1.00  0.00    -0.246 OA
ATOM     11  O   UNL     1      21.291   0.148 -19.361  1.00  0.00    -0.423 OA
ENDROOT
BRANCH   3  12
ATOM     12  O   UNL     1      22.220   1.960 -15.023  1.00  0.00    -0.508 OA
ATOM     13  H   UNL     1      23.189   2.136 -15.257  1.00  0.00     0.293 HD
ENDBRANCH   3  12
TORSDOF 1
ENDMDL
MODEL 8
REMARK VINA RESULT:    -4.807     16.225     17.844
REMARK INTER + INTRA:          -4.947
REMARK INTER:                  -4.947
REMARK INTRA:                   0.000
REMARK UNBOUND:                 0.000
REMARK SMILES O=c1ccc2ccc(O)cc2o1
REMARK SMILES IDX 6 1 7 2 8 3 10 4 11 5 5 6 4 7 3 8 2 9 1 10 12 11 9 12
REMARK H PARENT 9 13
REMARK Flexibility Score: inf
ROOT
ATOM      1  C   UNL     1       7.771  -6.924  -7.896  1.00  0.00     0.016 A 
ATOM      2  C   UNL     1       8.469  -6.192  -6.930  1.00  0.00     0.047 A 
ATOM      3  C   UNL     1       9.796  -5.808  -7.155  1.00  0.00     0.119 A 
ATOM      4  C   UNL     1      10.432  -6.158  -8.356  1.00  0.00     0.094 A 
ATOM      5  C   UNL     1       9.741  -6.889  -9.329  1.00  0.00     0.142 A 
ATOM      6  C   UNL     1       8.402  -7.275  -9.097  1.00  0.00     0.018 A 
ATOM      7  C   UNL     1       7.738  -8.005 -10.088  1.00  0.00     0.019 A 
ATOM      8  C   UNL     1       8.412  -8.329 -11.265  1.00  0.00     0.094 A 
ATOM      9  C   UNL     1       9.737  -7.914 -11.426  1.00  0.00     0.336 A 
ATOM     10  O   UNL     1      10.362  -8.196 -12.481  1.00  0.00    -0.246 OA
ATOM     11  O   UNL     1      10.346  -7.219 -10.467  1.00  0.00    -0.423 OA
ENDROOT
BRANCH   3  12
ATOM     12  O   UNL     1      10.475  -5.079  -6.181  1.00  0.00    -0.508 OA
ATOM     13  H   UNL     1      11.039  -4.273  -6.419  1.00  0.00     0.293 HD
ENDBRANCH   3  12
TORSDOF 1
ENDMDL
MODEL 9
REMARK VINA RESULT:    -4.790     16.456     18.254
REMARK INTER + INTRA:          -4.930
REMARK INTER:                  -4.930
REMARK INTRA:                   0.000
REMARK UNBOUND:                 0.000
REMARK SMILES O=c1ccc2ccc(O)cc2o1
REMARK SMILES IDX 6 1 7 2 8 3 10 4 11 5 5 6 4 7 3 8 2 9 1 10 12 11 9 12
REMARK H PARENT 9 13
REMARK Flexibility Score: inf
ROOT
ATOM      1  C   UNL     1       8.163  -5.009 -10.191  1.00  0.00     0.016 A 
ATOM      2  C   UNL     1       8.268  -5.530 -11.485  1.00  0.00     0.047 A 
ATOM      3  C   UNL     1       8.274  -6.915 -11.692  1.00  0.00     0.119 A 
ATOM      4  C   UNL     1       8.173  -7.786 -10.597  1.00  0.00     0.094 A 
ATOM      5  C   UNL     1       8.066  -7.274  -9.299  1.00  0.00     0.142 A 
ATOM      6  C   UNL     1       8.062  -5.876  -9.095  1.00  0.00     0.018 A 
ATOM      7  C   UNL     1       7.953  -5.395  -7.786  1.00  0.00     0.019 A 
ATOM      8  C   UNL     1       7.856  -6.300  -6.730  1.00  0.00     0.094 A 
ATOM      9  C   UNL     1       7.867  -7.671  -7.008  1.00  0.00     0.336 A 
ATOM     10  O   UNL     1       7.779  -8.504  -6.069  1.00  0.00    -0.246 OA
ATOM     11  O   UNL     1       7.970  -8.103  -8.263  1.00  0.00    -0.423 OA
ENDROOT
BRANCH   3  12
ATOM     12  O   UNL     1       8.379  -7.415 -12.988  1.00  0.00    -0.508 OA
ATOM     13  H   UNL     1       8.016  -8.327 -13.235  1.00  0.00     0.293 HD
ENDBRANCH   3  12
TORSDOF 1
ENDMDL
