MODEL 1
REMARK VINA RESULT:     6.539      0.000      0.000
REMARK INTER + INTRA:          15.200
REMARK INTER:                  17.243
REMARK INTRA:                  -2.044
REMARK UNBOUND:                -2.044
REMARK SMILES CCCCCCCCCCCCCCCCCCCCCCCCCCCCCC(=O)[O-]
REMARK SMILES IDX 16 1 17 2 18 3 19 4 20 5 21 6 22 7 23 8 24 9 25 10 26 11
REMARK SMILES IDX 27 12 28 13 29 14 30 15 31 16 32 17 15 18 14 19 13 20 12 21
REMARK SMILES IDX 11 22 10 23 9 24 8 25 7 26 6 27 5 28 4 29 3 30 2 31 1 32
REMARK H PARENT
REMARK Flexibility Score: inf
ROOT
ATOM      1  C   UNL     1      -1.796  37.087  20.200  1.00  0.00     0.000 C 
ENDROOT
BRANCH   1   2
ATOM      2  C   UNL     1      -3.029  37.944  20.532  1.00  0.00     0.000 C 
BRANCH   2   3
ATOM      3  C   UNL     1      -4.212  37.788  19.556  1.00  0.00     0.000 C 
BRANCH   3   4
ATOM      4  C   UNL     1      -5.466  38.616  19.904  1.00  0.00     0.000 C 
BRANCH   4   5
ATOM      5  C   UNL     1      -5.871  38.591  21.391  1.00  0.00     0.000 C 
BRANCH   5   6
ATOM      6  C   UNL     1      -5.809  39.956  22.105  1.00  0.00     0.000 C 
BRANCH   6   7
ATOM      7  C   UNL     1      -5.545  39.885  23.621  1.00  0.00     0.000 C 
BRANCH   7   8
ATOM      8  C   UNL     1      -4.681  38.693  24.080  1.00  0.00     0.000 C 
BRANCH   8   9
ATOM      9  C   UNL     1      -5.389  37.699  25.022  1.00  0.00     0.000 C 
BRANCH   9  10
ATOM     10  C   UNL     1      -4.452  36.889  25.939  1.00  0.00     0.000 C 
BRANCH  10  11
ATOM     11  C   UNL     1      -3.480  37.736  26.784  1.00  0.00     0.000 C 
BRANCH  11  12
ATOM     12  C   UNL     1      -2.138  37.053  27.115  1.00  0.00     0.000 C 
BRANCH  12  13
ATOM     13  C   UNL     1      -2.256  35.641  27.716  1.00  0.00     0.006 C 
BRANCH  13  14
ATOM     14  C   UNL     1      -1.475  35.483  29.027  1.00  0.00     0.053 C 
BRANCH  14  15
ATOM     15  C   UNL     1      -1.649  34.103  29.580  1.00  0.00     0.041 C 
ATOM     16  O   UNL     1      -1.040  33.131  29.059  1.00  0.00    -0.550 OA
ATOM     17  O   UNL     1      -2.453  33.896  30.694  1.00  0.00    -0.550 OA
ENDBRANCH  14  15
ENDBRANCH  13  14
ENDBRANCH  12  13
ENDBRANCH  11  12
ENDBRANCH  10  11
ENDBRANCH   9  10
ENDBRANCH   8   9
ENDBRANCH   7   8
ENDBRANCH   6   7
ENDBRANCH   5   6
ENDBRANCH   4   5
ENDBRANCH   3   4
ENDBRANCH   2   3
ENDBRANCH   1   2
BRANCH   1  18
ATOM     18  C   UNL     1      -0.903  37.719  19.120  1.00  0.00     0.000 C 
BRANCH  18  19
ATOM     19  C   UNL     1      -1.446  37.490  17.701  1.00  0.00     0.000 C 
BRANCH  19  20
ATOM     20  C   UNL     1      -0.646  36.423  16.931  1.00  0.00     0.000 C 
BRANCH  20  21
ATOM     21  C   UNL     1      -1.502  35.659  15.910  1.00  0.00     0.000 C 
BRANCH  21  22
ATOM     22  C   UNL     1      -1.781  36.486  14.642  1.00  0.00     0.000 C 
BRANCH  22  23
ATOM     23  C   UNL     1      -3.274  36.513  14.271  1.00  0.00     0.000 C 
BRANCH  23  24
ATOM     24  C   UNL     1      -4.184  36.649  15.504  1.00  0.00    -0.000 C 
BRANCH  24  25
ATOM     25  C   UNL     1      -4.420  35.309  16.225  1.00  0.00    -0.000 C 
BRANCH  25  26
ATOM     26  C   UNL     1      -4.426  35.385  17.762  1.00  0.00    -0.000 C 
BRANCH  26  27
ATOM     27  C   UNL     1      -4.992  34.119  18.421  1.00  0.00    -0.000 C 
BRANCH  27  28
ATOM     28  C   UNL     1      -6.125  34.467  19.399  1.00  0.00    -0.000 C 
BRANCH  28  29
ATOM     29  C   UNL     1      -5.654  35.344  20.573  1.00  0.00    -0.000 C 
BRANCH  29  30
ATOM     30  C   UNL     1      -6.101  34.864  21.969  1.00  0.00    -0.000 C 
BRANCH  30  31
ATOM     31  C   UNL     1      -4.967  34.706  22.996  1.00  0.00    -0.003 C 
ATOM     32  C   UNL     1      -3.630  34.340  22.355  1.00  0.00     0.004 C 
ENDBRANCH  30  31
ENDBRANCH  29  30
ENDBRANCH  28  29
ENDBRANCH  27  28
ENDBRANCH  26  27
ENDBRANCH  25  26
ENDBRANCH  24  25
ENDBRANCH  23  24
ENDBRANCH  22  23
ENDBRANCH  21  22
ENDBRANCH  20  21
ENDBRANCH  19  20
ENDBRANCH  18  19
ENDBRANCH   1  18
TORSDOF 28
ENDMDL
MODEL 2
REMARK VINA RESULT:     8.060      4.514      9.541
REMARK INTER + INTRA:          19.210
REMARK INTER:                  13.097
REMARK INTRA:                   6.113
REMARK UNBOUND:                -2.044
REMARK SMILES CCCCCCCCCCCCCCCCCCCCCCCCCCCCCC(=O)[O-]
REMARK SMILES IDX 16 1 17 2 18 3 19 4 20 5 21 6 22 7 23 8 24 9 25 10 26 11
REMARK SMILES IDX 27 12 28 13 29 14 30 15 31 16 32 17 15 18 14 19 13 20 12 21
REMARK SMILES IDX 11 22 10 23 9 24 8 25 7 26 6 27 5 28 4 29 3 30 2 31 1 32
REMARK H PARENT
REMARK Flexibility Score: inf
ROOT
ATOM      1  C   UNL     1      -5.860  36.152  23.836  1.00  0.00     0.000 C 
ENDROOT
BRANCH   1   2
ATOM      2  C   UNL     1      -4.880  34.999  23.561  1.00  0.00     0.000 C 
BRANCH   2   3
ATOM      3  C   UNL     1      -5.081  34.282  22.210  1.00  0.00     0.000 C 
BRANCH   3   4
ATOM      4  C   UNL     1      -5.996  35.015  21.209  1.00  0.00     0.000 C 
BRANCH   4   5
ATOM      5  C   UNL     1      -6.101  34.356  19.819  1.00  0.00     0.000 C 
BRANCH   5   6
ATOM      6  C   UNL     1      -4.827  33.625  19.348  1.00  0.00     0.000 C 
BRANCH   6   7
ATOM      7  C   UNL     1      -4.614  33.608  17.822  1.00  0.00     0.000 C 
BRANCH   7   8
ATOM      8  C   UNL     1      -5.128  34.855  17.075  1.00  0.00     0.000 C 
BRANCH   8   9
ATOM      9  C   UNL     1      -4.087  35.552  16.177  1.00  0.00     0.000 C 
BRANCH   9  10
ATOM     10  C   UNL     1      -2.936  36.246  16.932  1.00  0.00     0.000 C 
BRANCH  10  11
ATOM     11  C   UNL     1      -1.554  36.124  16.261  1.00  0.00     0.000 C 
BRANCH  11  12
ATOM     12  C   UNL     1      -1.579  36.062  14.720  1.00  0.00     0.000 C 
BRANCH  12  13
ATOM     13  C   UNL     1      -2.765  36.784  14.058  1.00  0.00     0.006 C 
BRANCH  13  14
ATOM     14  C   UNL     1      -3.420  37.823  14.978  1.00  0.00     0.053 C 
BRANCH  14  15
ATOM     15  C   UNL     1      -4.677  38.353  14.362  1.00  0.00     0.041 C 
ATOM     16  O   UNL     1      -4.849  39.595  14.242  1.00  0.00    -0.550 OA
ATOM     17  O   UNL     1      -5.644  37.475  13.887  1.00  0.00    -0.550 OA
ENDBRANCH  14  15
ENDBRANCH  13  14
ENDBRANCH  12  13
ENDBRANCH  11  12
ENDBRANCH  10  11
ENDBRANCH   9  10
ENDBRANCH   8   9
ENDBRANCH   7   8
ENDBRANCH   6   7
ENDBRANCH   5   6
ENDBRANCH   4   5
ENDBRANCH   3   4
ENDBRANCH   2   3
ENDBRANCH   1   2
BRANCH   1  18
ATOM     18  C   UNL     1      -6.064  36.418  25.336  1.00  0.00     0.000 C 
BRANCH  18  19
ATOM     19  C   UNL     1      -4.825  36.054  26.170  1.00  0.00     0.000 C 
BRANCH  19  20
ATOM     20  C   UNL     1      -3.600  36.913  25.807  1.00  0.00     0.000 C 
BRANCH  20  21
ATOM     21  C   UNL     1      -3.889  38.421  25.882  1.00  0.00     0.000 C 
BRANCH  21  22
ATOM     22  C   UNL     1      -5.373  38.747  25.636  1.00  0.00     0.000 C 
BRANCH  22  23
ATOM     23  C   UNL     1      -5.644  39.213  24.195  1.00  0.00     0.000 C 
BRANCH  23  24
ATOM     24  C   UNL     1      -5.291  40.696  23.980  1.00  0.00    -0.000 C 
BRANCH  24  25
ATOM     25  C   UNL     1      -5.901  41.275  22.691  1.00  0.00    -0.000 C 
BRANCH  25  26
ATOM     26  C   UNL     1      -6.122  40.257  21.558  1.00  0.00    -0.000 C 
BRANCH  26  27
ATOM     27  C   UNL     1      -5.072  39.136  21.547  1.00  0.00    -0.000 C 
BRANCH  27  28
ATOM     28  C   UNL     1      -5.667  37.831  20.997  1.00  0.00    -0.000 C 
BRANCH  28  29
ATOM     29  C   UNL     1      -4.800  37.194  19.897  1.00  0.00    -0.000 C 
BRANCH  29  30
ATOM     30  C   UNL     1      -3.572  38.024  19.469  1.00  0.00    -0.000 C 
BRANCH  30  31
ATOM     31  C   UNL     1      -2.215  37.457  19.919  1.00  0.00    -0.003 C 
ATOM     32  C   UNL     1      -1.068  37.846  18.987  1.00  0.00     0.004 C 
ENDBRANCH  30  31
ENDBRANCH  29  30
ENDBRANCH  28  29
ENDBRANCH  27  28
ENDBRANCH  26  27
ENDBRANCH  25  26
ENDBRANCH  24  25
ENDBRANCH  23  24
ENDBRANCH  22  23
ENDBRANCH  21  22
ENDBRANCH  20  21
ENDBRANCH  19  20
ENDBRANCH  18  19
ENDBRANCH   1  18
TORSDOF 28
ENDMDL
MODEL 3
REMARK VINA RESULT:     8.218      1.252      3.700
REMARK INTER + INTRA:          19.627
REMARK INTER:                  16.885
REMARK INTRA:                   2.742
REMARK UNBOUND:                -2.044
REMARK SMILES CCCCCCCCCCCCCCCCCCCCCCCCCCCCCC(=O)[O-]
REMARK SMILES IDX 16 1 17 2 18 3 19 4 20 5 21 6 22 7 23 8 24 9 25 10 26 11
REMARK SMILES IDX 27 12 28 13 29 14 30 15 31 16 32 17 15 18 14 19 13 20 12 21
REMARK SMILES IDX 11 22 10 23 9 24 8 25 7 26 6 27 5 28 4 29 3 30 2 31 1 32
REMARK H PARENT
REMARK Flexibility Score: inf
ROOT
ATOM      1  C   UNL     1      -3.771  36.826  20.253  1.00  0.00     0.000 C 
ENDROOT
BRANCH   1   2
ATOM      2  C   UNL     1      -5.031  37.623  19.874  1.00  0.00     0.000 C 
BRANCH   2   3
ATOM      3  C   UNL     1      -5.597  38.516  20.996  1.00  0.00     0.000 C 
BRANCH   3   4
ATOM      4  C   UNL     1      -5.678  37.853  22.386  1.00  0.00     0.000 C 
BRANCH   4   5
ATOM      5  C   UNL     1      -6.124  36.378  22.379  1.00  0.00     0.000 C 
BRANCH   5   6
ATOM      6  C   UNL     1      -5.363  35.463  23.359  1.00  0.00     0.000 C 
BRANCH   6   7
ATOM      7  C   UNL     1      -6.078  35.209  24.700  1.00  0.00     0.000 C 
BRANCH   7   8
ATOM      8  C   UNL     1      -5.517  35.998  25.900  1.00  0.00     0.000 C 
BRANCH   8   9
ATOM      9  C   UNL     1      -4.878  37.356  25.547  1.00  0.00     0.000 C 
BRANCH   9  10
ATOM     10  C   UNL     1      -3.918  37.921  26.611  1.00  0.00     0.000 C 
BRANCH  10  11
ATOM     11  C   UNL     1      -2.422  37.676  26.330  1.00  0.00     0.000 C 
BRANCH  11  12
ATOM     12  C   UNL     1      -1.548  37.467  27.583  1.00  0.00     0.000 C 
BRANCH  12  13
ATOM     13  C   UNL     1      -2.098  36.451  28.599  1.00  0.00     0.006 C 
BRANCH  13  14
ATOM     14  C   UNL     1      -1.828  34.996  28.194  1.00  0.00     0.053 C 
BRANCH  14  15
ATOM     15  C   UNL     1      -1.278  34.221  29.351  1.00  0.00     0.041 C 
ATOM     16  O   UNL     1      -2.035  33.868  30.293  1.00  0.00    -0.550 OA
ATOM     17  O   UNL     1       0.062  33.856  29.370  1.00  0.00    -0.550 OA
ENDBRANCH  14  15
ENDBRANCH  13  14
ENDBRANCH  12  13
ENDBRANCH  11  12
ENDBRANCH  10  11
ENDBRANCH   9  10
ENDBRANCH   8   9
ENDBRANCH   7   8
ENDBRANCH   6   7
ENDBRANCH   5   6
ENDBRANCH   4   5
ENDBRANCH   3   4
ENDBRANCH   2   3
ENDBRANCH   1   2
BRANCH   1  18
ATOM     18  C   UNL     1      -3.885  35.332  19.910  1.00  0.00     0.000 C 
BRANCH  18  19
ATOM     19  C   UNL     1      -5.328  34.912  19.586  1.00  0.00     0.000 C 
BRANCH  19  20
ATOM     20  C   UNL     1      -5.418  34.060  18.308  1.00  0.00     0.000 C 
BRANCH  20  21
ATOM     21  C   UNL     1      -4.100  34.031  17.519  1.00  0.00     0.000 C 
BRANCH  21  22
ATOM     22  C   UNL     1      -4.073  35.066  16.380  1.00  0.00     0.000 C 
BRANCH  22  23
ATOM     23  C   UNL     1      -2.771  35.011  15.563  1.00  0.00     0.000 C 
BRANCH  23  24
ATOM     24  C   UNL     1      -2.793  35.965  14.356  1.00  0.00    -0.000 C 
BRANCH  24  25
ATOM     25  C   UNL     1      -4.185  36.569  14.097  1.00  0.00    -0.000 C 
BRANCH  25  26
ATOM     26  C   UNL     1      -4.263  38.103  14.206  1.00  0.00    -0.000 C 
BRANCH  26  27
ATOM     27  C   UNL     1      -3.564  38.649  15.460  1.00  0.00    -0.000 C 
BRANCH  27  28
ATOM     28  C   UNL     1      -3.668  37.653  16.626  1.00  0.00    -0.000 C 
BRANCH  28  29
ATOM     29  C   UNL     1      -2.297  37.260  17.202  1.00  0.00    -0.000 C 
BRANCH  29  30
ATOM     30  C   UNL     1      -2.032  37.735  18.645  1.00  0.00    -0.000 C 
BRANCH  30  31
ATOM     31  C   UNL     1      -0.560  38.044  18.968  1.00  0.00    -0.003 C 
ATOM     32  C   UNL     1       0.407  37.505  17.915  1.00  0.00     0.004 C 
ENDBRANCH  30  31
ENDBRANCH  29  30
ENDBRANCH  28  29
ENDBRANCH  27  28
ENDBRANCH  26  27
ENDBRANCH  25  26
ENDBRANCH  24  25
ENDBRANCH  23  24
ENDBRANCH  22  23
ENDBRANCH  21  22
ENDBRANCH  20  21
ENDBRANCH  19  20
ENDBRANCH  18  19
ENDBRANCH   1  18
TORSDOF 28
ENDMDL
MODEL 4
REMARK VINA RESULT:     8.577      4.417      9.462
REMARK INTER + INTRA:          20.574
REMARK INTER:                  18.542
REMARK INTRA:                   2.032
REMARK UNBOUND:                -2.044
REMARK SMILES CCCCCCCCCCCCCCCCCCCCCCCCCCCCCC(=O)[O-]
REMARK SMILES IDX 16 1 17 2 18 3 19 4 20 5 21 6 22 7 23 8 24 9 25 10 26 11
REMARK SMILES IDX 27 12 28 13 29 14 30 15 31 16 32 17 15 18 14 19 13 20 12 21
REMARK SMILES IDX 11 22 10 23 9 24 8 25 7 26 6 27 5 28 4 29 3 30 2 31 1 32
REMARK H PARENT
REMARK Flexibility Score: inf
ROOT
ATOM      1  C   UNL     1      -2.648  35.770  21.580  1.00  0.00     0.000 C 
ENDROOT
BRANCH   1   2
ATOM      2  C   UNL     1      -2.356  36.745  20.426  1.00  0.00     0.000 C 
BRANCH   2   3
ATOM      3  C   UNL     1      -3.214  38.026  20.426  1.00  0.00     0.000 C 
BRANCH   3   4
ATOM      4  C   UNL     1      -4.738  37.797  20.469  1.00  0.00     0.000 C 
BRANCH   4   5
ATOM      5  C   UNL     1      -5.336  37.150  19.205  1.00  0.00     0.000 C 
BRANCH   5   6
ATOM      6  C   UNL     1      -5.793  35.687  19.377  1.00  0.00     0.000 C 
BRANCH   6   7
ATOM      7  C   UNL     1      -4.723  34.629  19.044  1.00  0.00     0.000 C 
BRANCH   7   8
ATOM      8  C   UNL     1      -4.470  34.406  17.540  1.00  0.00     0.000 C 
BRANCH   8   9
ATOM      9  C   UNL     1      -4.150  35.683  16.736  1.00  0.00     0.000 C 
BRANCH   9  10
ATOM     10  C   UNL     1      -3.032  36.563  17.328  1.00  0.00     0.000 C 
BRANCH  10  11
ATOM     11  C   UNL     1      -1.622  36.282  16.772  1.00  0.00     0.000 C 
BRANCH  11  12
ATOM     12  C   UNL     1      -1.551  36.078  15.245  1.00  0.00     0.000 C 
BRANCH  12  13
ATOM     13  C   UNL     1      -2.339  37.104  14.413  1.00  0.00     0.006 C 
BRANCH  13  14
ATOM     14  C   UNL     1      -3.695  36.570  13.935  1.00  0.00     0.053 C 
BRANCH  14  15
ATOM     15  C   UNL     1      -4.716  37.665  13.919  1.00  0.00     0.041 C 
ATOM     16  O   UNL     1      -5.943  37.387  13.981  1.00  0.00    -0.550 OA
ATOM     17  O   UNL     1      -4.313  38.993  13.875  1.00  0.00    -0.550 OA
ENDBRANCH  14  15
ENDBRANCH  13  14
ENDBRANCH  12  13
ENDBRANCH  11  12
ENDBRANCH  10  11
ENDBRANCH   9  10
ENDBRANCH   8   9
ENDBRANCH   7   8
ENDBRANCH   6   7
ENDBRANCH   5   6
ENDBRANCH   4   5
ENDBRANCH   3   4
ENDBRANCH   2   3
ENDBRANCH   1   2
BRANCH   1  18
ATOM     18  C   UNL     1      -3.421  34.522  21.126  1.00  0.00     0.000 C 
BRANCH  18  19
ATOM     19  C   UNL     1      -3.872  33.648  22.308  1.00  0.00     0.000 C 
BRANCH  19  20
ATOM     20  C   UNL     1      -4.782  34.411  23.288  1.00  0.00     0.000 C 
BRANCH  20  21
ATOM     21  C   UNL     1      -6.028  34.997  22.606  1.00  0.00     0.000 C 
BRANCH  21  22
ATOM     22  C   UNL     1      -6.011  36.536  22.575  1.00  0.00     0.000 C 
BRANCH  22  23
ATOM     23  C   UNL     1      -6.125  37.156  23.979  1.00  0.00     0.000 C 
BRANCH  23  24
ATOM     24  C   UNL     1      -5.936  36.116  25.097  1.00  0.00    -0.000 C 
BRANCH  24  25
ATOM     25  C   UNL     1      -5.083  36.643  26.265  1.00  0.00    -0.000 C 
BRANCH  25  26
ATOM     26  C   UNL     1      -4.347  37.967  25.993  1.00  0.00    -0.000 C 
BRANCH  26  27
ATOM     27  C   UNL     1      -2.819  37.830  26.072  1.00  0.00    -0.000 C 
BRANCH  27  28
ATOM     28  C   UNL     1      -2.359  37.632  27.524  1.00  0.00    -0.000 C 
BRANCH  28  29
ATOM     29  C   UNL     1      -1.464  36.394  27.706  1.00  0.00    -0.000 C 
BRANCH  29  30
ATOM     30  C   UNL     1      -2.168  35.159  28.305  1.00  0.00    -0.000 C 
BRANCH  30  31
ATOM     31  C   UNL     1      -1.487  34.561  29.547  1.00  0.00    -0.003 C 
ATOM     32  C   UNL     1      -1.239  33.059  29.425  1.00  0.00     0.004 C 
ENDBRANCH  30  31
ENDBRANCH  29  30
ENDBRANCH  28  29
ENDBRANCH  27  28
ENDBRANCH  26  27
ENDBRANCH  25  26
ENDBRANCH  24  25
ENDBRANCH  23  24
ENDBRANCH  22  23
ENDBRANCH  21  22
ENDBRANCH  20  21
ENDBRANCH  19  20
ENDBRANCH  18  19
ENDBRANCH   1  18
TORSDOF 28
ENDMDL
MODEL 5
REMARK VINA RESULT:     8.718      3.702      7.193
REMARK INTER + INTRA:          20.945
REMARK INTER:                  20.138
REMARK INTRA:                   0.807
REMARK UNBOUND:                -2.044
REMARK SMILES CCCCCCCCCCCCCCCCCCCCCCCCCCCCCC(=O)[O-]
REMARK SMILES IDX 16 1 17 2 18 3 19 4 20 5 21 6 22 7 23 8 24 9 25 10 26 11
REMARK SMILES IDX 27 12 28 13 29 14 30 15 31 16 32 17 15 18 14 19 13 20 12 21
REMARK SMILES IDX 11 22 10 23 9 24 8 25 7 26 6 27 5 28 4 29 3 30 2 31 1 32
REMARK H PARENT
REMARK Flexibility Score: inf
ROOT
ATOM      1  C   UNL     1      -5.295  39.111  23.596  1.00  0.00     0.000 C 
ENDROOT
BRANCH   1   2
ATOM      2  C   UNL     1      -4.983  39.347  25.084  1.00  0.00     0.000 C 
BRANCH   2   3
ATOM      3  C   UNL     1      -5.044  38.085  25.969  1.00  0.00     0.000 C 
BRANCH   3   4
ATOM      4  C   UNL     1      -5.724  36.862  25.322  1.00  0.00     0.000 C 
BRANCH   4   5
ATOM      5  C   UNL     1      -5.917  35.652  26.258  1.00  0.00     0.000 C 
BRANCH   5   6
ATOM      6  C   UNL     1      -6.124  34.303  25.542  1.00  0.00     0.000 C 
BRANCH   6   7
ATOM      7  C   UNL     1      -5.949  34.345  24.012  1.00  0.00     0.000 C 
BRANCH   7   8
ATOM      8  C   UNL     1      -4.570  33.886  23.497  1.00  0.00     0.000 C 
BRANCH   8   9
ATOM      9  C   UNL     1      -4.409  33.903  21.964  1.00  0.00     0.000 C 
BRANCH   9  10
ATOM     10  C   UNL     1      -2.957  33.790  21.461  1.00  0.00     0.000 C 
BRANCH  10  11
ATOM     11  C   UNL     1      -2.110  35.067  21.628  1.00  0.00     0.000 C 
BRANCH  11  12
ATOM     12  C   UNL     1      -2.299  36.125  20.522  1.00  0.00     0.000 C 
BRANCH  12  13
ATOM     13  C   UNL     1      -0.995  36.668  19.911  1.00  0.00     0.006 C 
BRANCH  13  14
ATOM     14  C   UNL     1      -1.186  37.221  18.493  1.00  0.00     0.053 C 
BRANCH  14  15
ATOM     15  C   UNL     1      -0.347  38.443  18.287  1.00  0.00     0.041 C 
ATOM     16  O   UNL     1      -0.604  39.502  18.920  1.00  0.00    -0.550 OA
ATOM     17  O   UNL     1       0.741  38.404  17.425  1.00  0.00    -0.550 OA
ENDBRANCH  14  15
ENDBRANCH  13  14
ENDBRANCH  12  13
ENDBRANCH  11  12
ENDBRANCH  10  11
ENDBRANCH   9  10
ENDBRANCH   8   9
ENDBRANCH   7   8
ENDBRANCH   6   7
ENDBRANCH   5   6
ENDBRANCH   4   5
ENDBRANCH   3   4
ENDBRANCH   2   3
ENDBRANCH   1   2
BRANCH   1  18
ATOM     18  C   UNL     1      -5.098  40.372  22.738  1.00  0.00     0.000 C 
BRANCH  18  19
ATOM     19  C   UNL     1      -5.375  40.116  21.248  1.00  0.00     0.000 C 
BRANCH  19  20
ATOM     20  C   UNL     1      -6.074  38.766  21.004  1.00  0.00     0.000 C 
BRANCH  20  21
ATOM     21  C   UNL     1      -5.090  37.586  20.968  1.00  0.00     0.000 C 
BRANCH  21  22
ATOM     22  C   UNL     1      -4.837  37.077  19.537  1.00  0.00     0.000 C 
BRANCH  22  23
ATOM     23  C   UNL     1      -5.612  35.786  19.225  1.00  0.00     0.000 C 
BRANCH  23  24
ATOM     24  C   UNL     1      -4.680  34.587  18.975  1.00  0.00    -0.000 C 
BRANCH  24  25
ATOM     25  C   UNL     1      -4.722  34.090  17.519  1.00  0.00    -0.000 C 
BRANCH  25  26
ATOM     26  C   UNL     1      -4.169  35.076  16.475  1.00  0.00    -0.000 C 
BRANCH  26  27
ATOM     27  C   UNL     1      -2.862  35.748  16.921  1.00  0.00    -0.000 C 
BRANCH  27  28
ATOM     28  C   UNL     1      -1.945  36.021  15.718  1.00  0.00    -0.000 C 
BRANCH  28  29
ATOM     29  C   UNL     1      -2.716  36.136  14.391  1.00  0.00    -0.000 C 
BRANCH  29  30
ATOM     30  C   UNL     1      -4.050  36.905  14.473  1.00  0.00    -0.000 C 
BRANCH  30  31
ATOM     31  C   UNL     1      -3.917  38.406  14.785  1.00  0.00    -0.003 C 
ATOM     32  C   UNL     1      -4.968  39.257  14.074  1.00  0.00     0.004 C 
ENDBRANCH  30  31
ENDBRANCH  29  30
ENDBRANCH  28  29
ENDBRANCH  27  28
ENDBRANCH  26  27
ENDBRANCH  25  26
ENDBRANCH  24  25
ENDBRANCH  23  24
ENDBRANCH  22  23
ENDBRANCH  21  22
ENDBRANCH  20  21
ENDBRANCH  19  20
ENDBRANCH  18  19
ENDBRANCH   1  18
TORSDOF 28
ENDMDL
MODEL 6
REMARK VINA RESULT:     8.729      3.185      8.275
REMARK INTER + INTRA:          20.974
REMARK INTER:                  20.139
REMARK INTRA:                   0.834
REMARK UNBOUND:                -2.044
REMARK SMILES CCCCCCCCCCCCCCCCCCCCCCCCCCCCCC(=O)[O-]
REMARK SMILES IDX 16 1 17 2 18 3 19 4 20 5 21 6 22 7 23 8 24 9 25 10 26 11
REMARK SMILES IDX 27 12 28 13 29 14 30 15 31 16 32 17 15 18 14 19 13 20 12 21
REMARK SMILES IDX 11 22 10 23 9 24 8 25 7 26 6 27 5 28 4 29 3 30 2 31 1 32
REMARK H PARENT
REMARK Flexibility Score: inf
ROOT
ATOM      1  C   UNL     1      -4.752  38.083  21.662  1.00  0.00     0.000 C 
ENDROOT
BRANCH   1   2
ATOM      2  C   UNL     1      -4.407  37.806  20.189  1.00  0.00     0.000 C 
BRANCH   2   3
ATOM      3  C   UNL     1      -5.525  37.121  19.377  1.00  0.00     0.000 C 
BRANCH   3   4
ATOM      4  C   UNL     1      -5.804  35.652  19.754  1.00  0.00     0.000 C 
BRANCH   4   5
ATOM      5  C   UNL     1      -5.791  34.662  18.573  1.00  0.00     0.000 C 
BRANCH   5   6
ATOM      6  C   UNL     1      -4.430  34.514  17.864  1.00  0.00     0.000 C 
BRANCH   6   7
ATOM      7  C   UNL     1      -3.960  35.761  17.092  1.00  0.00     0.000 C 
BRANCH   7   8
ATOM      8  C   UNL     1      -4.930  36.262  16.004  1.00  0.00     0.000 C 
BRANCH   8   9
ATOM      9  C   UNL     1      -4.290  36.512  14.624  1.00  0.00     0.000 C 
BRANCH   9  10
ATOM     10  C   UNL     1      -3.020  35.688  14.336  1.00  0.00     0.000 C 
BRANCH  10  11
ATOM     11  C   UNL     1      -1.693  36.429  14.595  1.00  0.00     0.000 C 
BRANCH  11  12
ATOM     12  C   UNL     1      -0.927  35.976  15.855  1.00  0.00     0.000 C 
BRANCH  12  13
ATOM     13  C   UNL     1      -1.454  36.553  17.180  1.00  0.00     0.006 C 
BRANCH  13  14
ATOM     14  C   UNL     1      -0.361  37.241  18.008  1.00  0.00     0.053 C 
BRANCH  14  15
ATOM     15  C   UNL     1      -0.774  37.345  19.443  1.00  0.00     0.041 C 
ATOM     16  O   UNL     1       0.037  37.043  20.358  1.00  0.00    -0.550 OA
ATOM     17  O   UNL     1      -2.041  37.810  19.771  1.00  0.00    -0.550 OA
ENDBRANCH  14  15
ENDBRANCH  13  14
ENDBRANCH  12  13
ENDBRANCH  11  12
ENDBRANCH  10  11
ENDBRANCH   9  10
ENDBRANCH   8   9
ENDBRANCH   7   8
ENDBRANCH   6   7
ENDBRANCH   5   6
ENDBRANCH   4   5
ENDBRANCH   3   4
ENDBRANCH   2   3
ENDBRANCH   1   2
BRANCH   1  18
ATOM     18  C   UNL     1      -6.125  38.753  21.838  1.00  0.00     0.000 C 
BRANCH  18  19
ATOM     19  C   UNL     1      -6.125  40.220  21.379  1.00  0.00     0.000 C 
BRANCH  19  20
ATOM     20  C   UNL     1      -5.587  41.173  22.461  1.00  0.00     0.000 C 
BRANCH  20  21
ATOM     21  C   UNL     1      -5.793  40.633  23.884  1.00  0.00     0.000 C 
BRANCH  21  22
ATOM     22  C   UNL     1      -4.498  40.064  24.491  1.00  0.00     0.000 C 
BRANCH  22  23
ATOM     23  C   UNL     1      -4.767  38.976  25.544  1.00  0.00     0.000 C 
BRANCH  23  24
ATOM     24  C   UNL     1      -5.798  37.937  25.066  1.00  0.00    -0.000 C 
BRANCH  24  25
ATOM     25  C   UNL     1      -6.032  36.812  26.091  1.00  0.00    -0.000 C 
BRANCH  25  26
ATOM     26  C   UNL     1      -5.329  35.481  25.772  1.00  0.00    -0.000 C 
BRANCH  26  27
ATOM     27  C   UNL     1      -6.027  34.688  24.657  1.00  0.00    -0.000 C 
BRANCH  27  28
ATOM     28  C   UNL     1      -5.799  35.346  23.287  1.00  0.00    -0.000 C 
BRANCH  28  29
ATOM     29  C   UNL     1      -5.769  34.331  22.132  1.00  0.00    -0.000 C 
BRANCH  29  30
ATOM     30  C   UNL     1      -4.687  33.239  22.247  1.00  0.00    -0.000 C 
BRANCH  30  31
ATOM     31  C   UNL     1      -3.238  33.755  22.227  1.00  0.00    -0.003 C 
ATOM     32  C   UNL     1      -3.057  34.989  21.346  1.00  0.00     0.004 C 
ENDBRANCH  30  31
ENDBRANCH  29  30
ENDBRANCH  28  29
ENDBRANCH  27  28
ENDBRANCH  26  27
ENDBRANCH  25  26
ENDBRANCH  24  25
ENDBRANCH  23  24
ENDBRANCH  22  23
ENDBRANCH  21  22
ENDBRANCH  20  21
ENDBRANCH  19  20
ENDBRANCH  18  19
ENDBRANCH   1  18
TORSDOF 28
ENDMDL
MODEL 7
REMARK VINA RESULT:     8.805      4.423      9.190
REMARK INTER + INTRA:          21.174
REMARK INTER:                  11.051
REMARK INTRA:                  10.123
REMARK UNBOUND:                -2.044
REMARK SMILES CCCCCCCCCCCCCCCCCCCCCCCCCCCCCC(=O)[O-]
REMARK SMILES IDX 16 1 17 2 18 3 19 4 20 5 21 6 22 7 23 8 24 9 25 10 26 11
REMARK SMILES IDX 27 12 28 13 29 14 30 15 31 16 32 17 15 18 14 19 13 20 12 21
REMARK SMILES IDX 11 22 10 23 9 24 8 25 7 26 6 27 5 28 4 29 3 30 2 31 1 32
REMARK H PARENT
REMARK Flexibility Score: inf
ROOT
ATOM      1  C   UNL     1      -2.802  35.794  21.521  1.00  0.00     0.000 C 
ENDROOT
BRANCH   1   2
ATOM      2  C   UNL     1      -2.634  36.758  20.334  1.00  0.00     0.000 C 
BRANCH   2   3
ATOM      3  C   UNL     1      -3.538  38.007  20.379  1.00  0.00     0.000 C 
BRANCH   3   4
ATOM      4  C   UNL     1      -5.045  37.722  20.541  1.00  0.00     0.000 C 
BRANCH   4   5
ATOM      5  C   UNL     1      -5.711  37.028  19.337  1.00  0.00     0.000 C 
BRANCH   5   6
ATOM      6  C   UNL     1      -5.943  35.513  19.505  1.00  0.00     0.000 C 
BRANCH   6   7
ATOM      7  C   UNL     1      -4.826  34.618  18.936  1.00  0.00     0.000 C 
BRANCH   7   8
ATOM      8  C   UNL     1      -4.875  34.400  17.410  1.00  0.00     0.000 C 
BRANCH   8   9
ATOM      9  C   UNL     1      -4.261  35.537  16.569  1.00  0.00     0.000 C 
BRANCH   9  10
ATOM     10  C   UNL     1      -3.142  36.333  17.267  1.00  0.00     0.000 C 
BRANCH  10  11
ATOM     11  C   UNL     1      -1.709  35.911  16.883  1.00  0.00     0.000 C 
BRANCH  11  12
ATOM     12  C   UNL     1      -1.523  35.497  15.410  1.00  0.00     0.000 C 
BRANCH  12  13
ATOM     13  C   UNL     1      -1.999  36.534  14.377  1.00  0.00     0.006 C 
BRANCH  13  14
ATOM     14  C   UNL     1      -3.434  36.281  13.895  1.00  0.00     0.053 C 
BRANCH  14  15
ATOM     15  C   UNL     1      -4.306  37.459  14.197  1.00  0.00     0.041 C 
ATOM     16  O   UNL     1      -3.792  38.551  14.561  1.00  0.00    -0.550 OA
ATOM     17  O   UNL     1      -5.683  37.365  14.041  1.00  0.00    -0.550 OA
ENDBRANCH  14  15
ENDBRANCH  13  14
ENDBRANCH  12  13
ENDBRANCH  11  12
ENDBRANCH  10  11
ENDBRANCH   9  10
ENDBRANCH   8   9
ENDBRANCH   7   8
ENDBRANCH   6   7
ENDBRANCH   5   6
ENDBRANCH   4   5
ENDBRANCH   3   4
ENDBRANCH   2   3
ENDBRANCH   1   2
BRANCH   1  18
ATOM     18  C   UNL     1      -3.524  34.492  21.135  1.00  0.00     0.000 C 
BRANCH  18  19
ATOM     19  C   UNL     1      -3.622  33.505  22.310  1.00  0.00     0.000 C 
BRANCH  19  20
ATOM     20  C   UNL     1      -4.530  34.026  23.438  1.00  0.00     0.000 C 
BRANCH  20  21
ATOM     21  C   UNL     1      -5.936  34.400  22.945  1.00  0.00     0.000 C 
BRANCH  21  22
ATOM     22  C   UNL     1      -6.098  35.915  22.725  1.00  0.00     0.000 C 
BRANCH  22  23
ATOM     23  C   UNL     1      -6.119  36.704  24.046  1.00  0.00     0.000 C 
BRANCH  23  24
ATOM     24  C   UNL     1      -5.936  35.797  25.275  1.00  0.00    -0.000 C 
BRANCH  24  25
ATOM     25  C   UNL     1      -4.903  36.347  26.276  1.00  0.00    -0.000 C 
BRANCH  25  26
ATOM     26  C   UNL     1      -4.352  37.745  25.944  1.00  0.00    -0.000 C 
BRANCH  26  27
ATOM     27  C   UNL     1      -5.357  38.618  25.179  1.00  0.00    -0.000 C 
BRANCH  27  28
ATOM     28  C   UNL     1      -5.514  38.134  23.729  1.00  0.00    -0.000 C 
BRANCH  28  29
ATOM     29  C   UNL     1      -6.052  39.225  22.787  1.00  0.00    -0.000 C 
BRANCH  29  30
ATOM     30  C   UNL     1      -5.292  40.565  22.836  1.00  0.00    -0.000 C 
BRANCH  30  31
ATOM     31  C   UNL     1      -6.125  41.768  23.312  1.00  0.00    -0.003 C 
ATOM     32  C   UNL     1      -5.880  42.118  24.779  1.00  0.00     0.004 C 
ENDBRANCH  30  31
ENDBRANCH  29  30
ENDBRANCH  28  29
ENDBRANCH  27  28
ENDBRANCH  26  27
ENDBRANCH  25  26
ENDBRANCH  24  25
ENDBRANCH  23  24
ENDBRANCH  22  23
ENDBRANCH  21  22
ENDBRANCH  20  21
ENDBRANCH  19  20
ENDBRANCH  18  19
ENDBRANCH   1  18
TORSDOF 28
ENDMDL
MODEL 8
REMARK VINA RESULT:     9.050      4.356      9.365
REMARK INTER + INTRA:          21.820
REMARK INTER:                  19.459
REMARK INTRA:                   2.360
REMARK UNBOUND:                -2.044
REMARK SMILES CCCCCCCCCCCCCCCCCCCCCCCCCCCCCC(=O)[O-]
REMARK SMILES IDX 16 1 17 2 18 3 19 4 20 5 21 6 22 7 23 8 24 9 25 10 26 11
REMARK SMILES IDX 27 12 28 13 29 14 30 15 31 16 32 17 15 18 14 19 13 20 12 21
REMARK SMILES IDX 11 22 10 23 9 24 8 25 7 26 6 27 5 28 4 29 3 30 2 31 1 32
REMARK H PARENT
REMARK Flexibility Score: inf
ROOT
ATOM      1  C   UNL     1      -4.709  38.823  21.402  1.00  0.00     0.000 C 
ENDROOT
BRANCH   1   2
ATOM      2  C   UNL     1      -4.810  38.459  19.911  1.00  0.00     0.000 C 
BRANCH   2   3
ATOM      3  C   UNL     1      -5.747  37.277  19.592  1.00  0.00     0.000 C 
BRANCH   3   4
ATOM      4  C   UNL     1      -5.239  35.894  20.046  1.00  0.00     0.000 C 
BRANCH   4   5
ATOM      5  C   UNL     1      -6.097  34.700  19.585  1.00  0.00     0.000 C 
BRANCH   5   6
ATOM      6  C   UNL     1      -5.758  34.159  18.181  1.00  0.00     0.000 C 
BRANCH   6   7
ATOM      7  C   UNL     1      -4.255  33.949  17.912  1.00  0.00     0.000 C 
BRANCH   7   8
ATOM      8  C   UNL     1      -3.592  35.025  17.030  1.00  0.00     0.000 C 
BRANCH   8   9
ATOM      9  C   UNL     1      -2.110  34.767  16.691  1.00  0.00     0.000 C 
BRANCH   9  10
ATOM     10  C   UNL     1      -1.304  36.020  16.298  1.00  0.00     0.000 C 
BRANCH  10  11
ATOM     11  C   UNL     1      -2.000  36.948  15.283  1.00  0.00     0.000 C 
BRANCH  11  12
ATOM     12  C   UNL     1      -2.748  36.226  14.145  1.00  0.00     0.000 C 
BRANCH  12  13
ATOM     13  C   UNL     1      -4.282  36.226  14.271  1.00  0.00     0.006 C 
BRANCH  13  14
ATOM     14  C   UNL     1      -4.913  37.567  13.876  1.00  0.00     0.053 C 
BRANCH  14  15
ATOM     15  C   UNL     1      -4.442  38.659  14.786  1.00  0.00     0.041 C 
ATOM     16  O   UNL     1      -3.608  38.408  15.696  1.00  0.00    -0.550 OA
ATOM     17  O   UNL     1      -4.893  39.960  14.605  1.00  0.00    -0.550 OA
ENDBRANCH  14  15
ENDBRANCH  13  14
ENDBRANCH  12  13
ENDBRANCH  11  12
ENDBRANCH  10  11
ENDBRANCH   9  10
ENDBRANCH   8   9
ENDBRANCH   7   8
ENDBRANCH   6   7
ENDBRANCH   5   6
ENDBRANCH   4   5
ENDBRANCH   3   4
ENDBRANCH   2   3
ENDBRANCH   1   2
BRANCH   1  18
ATOM     18  C   UNL     1      -6.011  39.422  21.959  1.00  0.00     0.000 C 
BRANCH  18  19
ATOM     19  C   UNL     1      -6.109  40.938  21.721  1.00  0.00     0.000 C 
BRANCH  19  20
ATOM     20  C   UNL     1      -5.775  41.753  22.984  1.00  0.00     0.000 C 
BRANCH  20  21
ATOM     21  C   UNL     1      -5.995  40.956  24.280  1.00  0.00     0.000 C 
BRANCH  21  22
ATOM     22  C   UNL     1      -4.671  40.554  24.953  1.00  0.00     0.000 C 
BRANCH  22  23
ATOM     23  C   UNL     1      -4.476  39.028  25.006  1.00  0.00     0.000 C 
BRANCH  23  24
ATOM     24  C   UNL     1      -5.810  38.263  24.964  1.00  0.00    -0.000 C 
BRANCH  24  25
ATOM     25  C   UNL     1      -5.923  37.198  26.069  1.00  0.00    -0.000 C 
BRANCH  25  26
ATOM     26  C   UNL     1      -5.806  35.741  25.588  1.00  0.00    -0.000 C 
BRANCH  26  27
ATOM     27  C   UNL     1      -5.836  35.612  24.058  1.00  0.00    -0.000 C 
BRANCH  27  28
ATOM     28  C   UNL     1      -5.264  34.259  23.608  1.00  0.00    -0.000 C 
BRANCH  28  29
ATOM     29  C   UNL     1      -5.007  34.190  22.092  1.00  0.00    -0.000 C 
BRANCH  29  30
ATOM     30  C   UNL     1      -3.808  33.319  21.670  1.00  0.00    -0.000 C 
BRANCH  30  31
ATOM     31  C   UNL     1      -2.463  34.061  21.582  1.00  0.00    -0.003 C 
ATOM     32  C   UNL     1      -2.623  35.580  21.553  1.00  0.00     0.004 C 
ENDBRANCH  30  31
ENDBRANCH  29  30
ENDBRANCH  28  29
ENDBRANCH  27  28
ENDBRANCH  26  27
ENDBRANCH  25  26
ENDBRANCH  24  25
ENDBRANCH  23  24
ENDBRANCH  22  23
ENDBRANCH  21  22
ENDBRANCH  20  21
ENDBRANCH  19  20
ENDBRANCH  18  19
ENDBRANCH   1  18
TORSDOF 28
ENDMDL
