MODEL 1
REMARK VINA RESULT:    -3.567      0.000      0.000
REMARK INTER + INTRA:          -4.410
REMARK INTER:                  -4.193
REMARK INTRA:                  -0.217
REMARK UNBOUND:                -0.217
REMARK SMILES O=C([O-])C=Cc1ccc(O)c(O)c1
REMARK SMILES IDX 6 1 13 2 7 3 11 4 8 5 9 6 5 7 4 8 2 9 1 10 3 11 12 12 10 14
REMARK H PARENT 12 13 10 15
REMARK Flexibility Score: inf
ROOT
ATOM      1  C   UNL     1       8.580 -22.031  13.819  1.00  0.00    -0.022 A 
ATOM      2  C   UNL     1       8.769 -20.646  13.672  1.00  0.00     0.058 A 
ATOM      3  C   UNL     1       7.775 -22.714  12.896  1.00  0.00     0.012 A 
ATOM      4  C   UNL     1       8.203 -19.961  12.587  1.00  0.00     0.157 A 
ATOM      5  C   UNL     1       7.211 -22.035  11.813  1.00  0.00     0.051 A 
ATOM      6  C   UNL     1       7.424 -20.662  11.651  1.00  0.00     0.157 A 
ENDROOT
BRANCH   1   7
ATOM      7  C   UNL     1       9.124 -22.759  14.983  1.00  0.00     0.010 C 
ATOM      8  C   UNL     1       8.517 -22.890  16.173  1.00  0.00     0.025 C 
BRANCH   8   9
ATOM      9  C   UNL     1       7.288 -22.188  16.596  1.00  0.00     0.064 C 
ATOM     10  O   UNL     1       7.307 -21.319  17.507  1.00  0.00    -0.545 OA
ATOM     11  O   UNL     1       6.075 -22.545  16.024  1.00  0.00    -0.545 OA
ENDBRANCH   8   9
ENDBRANCH   1   7
BRANCH   4  12
ATOM     12  O   UNL     1       8.408 -18.590  12.439  1.00  0.00    -0.504 OA
ATOM     13  H   UNL     1       9.054 -18.221  11.752  1.00  0.00     0.293 HD
ENDBRANCH   4  12
BRANCH   6  14
ATOM     14  O   UNL     1       6.850 -20.012  10.558  1.00  0.00    -0.504 OA
ATOM     15  H   UNL     1       7.074 -20.266   9.603  1.00  0.00     0.293 HD
ENDBRANCH   6  14
TORSDOF 4
ENDMDL
MODEL 2
REMARK VINA RESULT:    -3.483      1.601      2.656
REMARK INTER + INTRA:          -4.311
REMARK INTER:                  -4.063
REMARK INTRA:                  -0.247
REMARK UNBOUND:                -0.217
REMARK SMILES O=C([O-])C=Cc1ccc(O)c(O)c1
REMARK SMILES IDX 6 1 13 2 7 3 11 4 8 5 9 6 5 7 4 8 2 9 1 10 3 11 12 12 10 14
REMARK H PARENT 12 13 10 15
REMARK Flexibility Score: inf
ROOT
ATOM      1  C   UNL     1       8.408 -21.667  12.155  1.00  0.00    -0.022 A 
ATOM      2  C   UNL     1       7.680 -22.177  11.066  1.00  0.00     0.058 A 
ATOM      3  C   UNL     1       8.538 -20.279  12.301  1.00  0.00     0.012 A 
ATOM      4  C   UNL     1       7.047 -21.309  10.164  1.00  0.00     0.157 A 
ATOM      5  C   UNL     1       7.907 -19.412  11.406  1.00  0.00     0.051 A 
ATOM      6  C   UNL     1       7.158 -19.920  10.339  1.00  0.00     0.157 A 
ENDROOT
BRANCH   1   7
ATOM      7  C   UNL     1       9.125 -22.563  13.084  1.00  0.00     0.010 C 
ATOM      8  C   UNL     1       8.693 -22.929  14.301  1.00  0.00     0.025 C 
BRANCH   8   9
ATOM      9  C   UNL     1       7.521 -22.370  15.005  1.00  0.00     0.064 C 
ATOM     10  O   UNL     1       6.375 -22.875  14.879  1.00  0.00    -0.545 OA
ATOM     11  O   UNL     1       7.676 -21.220  15.768  1.00  0.00    -0.545 OA
ENDBRANCH   8   9
ENDBRANCH   1   7
BRANCH   4  12
ATOM     12  O   UNL     1       6.314 -21.823   9.095  1.00  0.00    -0.504 OA
ATOM     13  H   UNL     1       6.175 -21.292   8.243  1.00  0.00     0.293 HD
ENDBRANCH   4  12
BRANCH   6  14
ATOM     14  O   UNL     1       6.537 -19.030   9.463  1.00  0.00    -0.504 OA
ATOM     15  H   UNL     1       6.803 -18.054   9.410  1.00  0.00     0.293 HD
ENDBRANCH   6  14
TORSDOF 4
ENDMDL
MODEL 3
REMARK VINA RESULT:    -3.345     18.579     19.412
REMARK INTER + INTRA:          -4.148
REMARK INTER:                  -3.854
REMARK INTRA:                  -0.295
REMARK UNBOUND:                -0.217
REMARK SMILES O=C([O-])C=Cc1ccc(O)c(O)c1
REMARK SMILES IDX 6 1 13 2 7 3 11 4 8 5 9 6 5 7 4 8 2 9 1 10 3 11 12 12 10 14
REMARK H PARENT 12 13 10 15
REMARK Flexibility Score: inf
ROOT
ATOM      1  C   UNL     1     -11.003 -20.972  20.859  1.00  0.00    -0.022 A 
ATOM      2  C   UNL     1     -11.099 -19.570  20.897  1.00  0.00     0.058 A 
ATOM      3  C   UNL     1     -10.907 -21.618  19.618  1.00  0.00     0.012 A 
ATOM      4  C   UNL     1     -11.046 -18.820  19.714  1.00  0.00     0.157 A 
ATOM      5  C   UNL     1     -10.853 -20.874  18.437  1.00  0.00     0.051 A 
ATOM      6  C   UNL     1     -10.917 -19.477  18.478  1.00  0.00     0.157 A 
ENDROOT
BRANCH   1   7
ATOM      7  C   UNL     1     -11.110 -21.781  22.090  1.00  0.00     0.010 C 
ATOM      8  C   UNL     1     -10.097 -22.066  22.924  1.00  0.00     0.025 C 
BRANCH   8   9
ATOM      9  C   UNL     1      -8.670 -21.780  22.677  1.00  0.00     0.064 C 
ATOM     10  O   UNL     1      -8.122 -20.735  23.118  1.00  0.00    -0.545 OA
ATOM     11  O   UNL     1      -7.933 -22.649  21.883  1.00  0.00    -0.545 OA
ENDBRANCH   8   9
ENDBRANCH   1   7
BRANCH   4  12
ATOM     12  O   UNL     1     -11.125 -17.430  19.761  1.00  0.00    -0.504 OA
ATOM     13  H   UNL     1     -10.414 -16.843  19.340  1.00  0.00     0.293 HD
ENDBRANCH   4  12
BRANCH   6  14
ATOM     14  O   UNL     1     -10.857 -18.761  17.283  1.00  0.00    -0.504 OA
ATOM     15  H   UNL     1     -11.321 -17.868  17.168  1.00  0.00     0.293 HD
ENDBRANCH   6  14
TORSDOF 4
ENDMDL
MODEL 4
REMARK VINA RESULT:    -3.324     16.265     17.991
REMARK INTER + INTRA:          -4.124
REMARK INTER:                  -3.976
REMARK INTRA:                  -0.148
REMARK UNBOUND:                -0.217
REMARK SMILES O=C([O-])C=Cc1ccc(O)c(O)c1
REMARK SMILES IDX 6 1 13 2 7 3 11 4 8 5 9 6 5 7 4 8 2 9 1 10 3 11 12 12 10 14
REMARK H PARENT 12 13 10 15
REMARK Flexibility Score: inf
ROOT
ATOM      1  C   UNL     1      -9.493 -21.962  18.972  1.00  0.00    -0.022 A 
ATOM      2  C   UNL     1      -9.725 -20.578  18.907  1.00  0.00     0.058 A 
ATOM      3  C   UNL     1      -9.388 -22.581  20.225  1.00  0.00     0.012 A 
ATOM      4  C   UNL     1      -9.903 -19.830  20.081  1.00  0.00     0.157 A 
ATOM      5  C   UNL     1      -9.566 -21.840  21.396  1.00  0.00     0.051 A 
ATOM      6  C   UNL     1      -9.827 -20.467  21.331  1.00  0.00     0.157 A 
ENDROOT
BRANCH   1   7
ATOM      7  C   UNL     1      -9.251 -22.756  17.750  1.00  0.00     0.010 C 
ATOM      8  C   UNL     1      -8.046 -23.125  17.288  1.00  0.00     0.025 C 
BRANCH   8   9
ATOM      9  C   UNL     1      -6.744 -22.661  17.806  1.00  0.00     0.064 C 
ATOM     10  O   UNL     1      -5.997 -21.906  17.129  1.00  0.00    -0.545 OA
ATOM     11  O   UNL     1      -6.302 -23.125  19.038  1.00  0.00    -0.545 OA
ENDBRANCH   8   9
ENDBRANCH   1   7
BRANCH   4  12
ATOM     12  O   UNL     1     -10.149 -18.460  20.008  1.00  0.00    -0.504 OA
ATOM     13  H   UNL     1     -10.187 -17.883  20.840  1.00  0.00     0.293 HD
ENDBRANCH   4  12
BRANCH   6  14
ATOM     14  O   UNL     1     -10.003 -19.754  22.516  1.00  0.00    -0.504 OA
ATOM     15  H   UNL     1     -10.342 -18.800  22.524  1.00  0.00     0.293 HD
ENDBRANCH   6  14
TORSDOF 4
ENDMDL
MODEL 5
REMARK VINA RESULT:    -3.264      2.032      4.900
REMARK INTER + INTRA:          -4.054
REMARK INTER:                  -3.982
REMARK INTRA:                  -0.072
REMARK UNBOUND:                -0.217
REMARK SMILES O=C([O-])C=Cc1ccc(O)c(O)c1
REMARK SMILES IDX 6 1 13 2 7 3 11 4 8 5 9 6 5 7 4 8 2 9 1 10 3 11 12 12 10 14
REMARK H PARENT 12 13 10 15
REMARK Flexibility Score: inf
ROOT
ATOM      1  C   UNL     1       8.896 -21.968  11.316  1.00  0.00    -0.022 A 
ATOM      2  C   UNL     1       8.923 -20.579  11.530  1.00  0.00     0.058 A 
ATOM      3  C   UNL     1       8.750 -22.827  12.414  1.00  0.00     0.012 A 
ATOM      4  C   UNL     1       8.755 -20.054  12.820  1.00  0.00     0.157 A 
ATOM      5  C   UNL     1       8.581 -22.309  13.700  1.00  0.00     0.051 A 
ATOM      6  C   UNL     1       8.578 -20.925  13.909  1.00  0.00     0.157 A 
ENDROOT
BRANCH   1   7
ATOM      7  C   UNL     1       9.124 -22.541   9.973  1.00  0.00     0.010 C 
ATOM      8  C   UNL     1       8.245 -22.521   8.959  1.00  0.00     0.025 C 
BRANCH   8   9
ATOM      9  C   UNL     1       6.836 -22.088   9.047  1.00  0.00     0.064 C 
ATOM     10  O   UNL     1       5.887 -22.897   8.874  1.00  0.00    -0.545 OA
ATOM     11  O   UNL     1       6.553 -20.745   9.255  1.00  0.00    -0.545 OA
ENDBRANCH   8   9
ENDBRANCH   1   7
BRANCH   4  12
ATOM     12  O   UNL     1       8.767 -18.676  13.022  1.00  0.00    -0.504 OA
ATOM     13  H   UNL     1       7.914 -18.156  13.194  1.00  0.00     0.293 HD
ENDBRANCH   4  12
BRANCH   6  14
ATOM     14  O   UNL     1       8.403 -20.436  15.203  1.00  0.00    -0.504 OA
ATOM     15  H   UNL     1       7.634 -20.733  15.791  1.00  0.00     0.293 HD
ENDBRANCH   6  14
TORSDOF 4
ENDMDL
MODEL 6
REMARK VINA RESULT:    -3.222     16.422     17.985
REMARK INTER + INTRA:          -4.004
REMARK INTER:                  -3.789
REMARK INTRA:                  -0.216
REMARK UNBOUND:                -0.217
REMARK SMILES O=C([O-])C=Cc1ccc(O)c(O)c1
REMARK SMILES IDX 6 1 13 2 7 3 11 4 8 5 9 6 5 7 4 8 2 9 1 10 3 11 12 12 10 14
REMARK H PARENT 12 13 10 15
REMARK Flexibility Score: inf
ROOT
ATOM      1  C   UNL     1      -9.450 -21.740  18.495  1.00  0.00    -0.022 A 
ATOM      2  C   UNL     1      -9.103 -21.333  19.794  1.00  0.00     0.058 A 
ATOM      3  C   UNL     1     -10.371 -20.978  17.762  1.00  0.00     0.012 A 
ATOM      4  C   UNL     1      -9.629 -20.152  20.335  1.00  0.00     0.157 A 
ATOM      5  C   UNL     1     -10.897 -19.799  18.297  1.00  0.00     0.051 A 
ATOM      6  C   UNL     1     -10.527 -19.379  19.579  1.00  0.00     0.157 A 
ENDROOT
BRANCH   1   7
ATOM      7  C   UNL     1      -8.947 -23.008  17.928  1.00  0.00     0.010 C 
ATOM      8  C   UNL     1      -7.915 -23.125  17.078  1.00  0.00     0.025 C 
BRANCH   8   9
ATOM      9  C   UNL     1      -7.210 -22.009  16.417  1.00  0.00     0.064 C 
ATOM     10  O   UNL     1      -7.737 -21.366  15.471  1.00  0.00    -0.545 OA
ATOM     11  O   UNL     1      -5.910 -21.707  16.802  1.00  0.00    -0.545 OA
ENDBRANCH   8   9
ENDBRANCH   1   7
BRANCH   4  12
ATOM     12  O   UNL     1      -9.268 -19.747  21.619  1.00  0.00    -0.504 OA
ATOM     13  H   UNL     1      -8.610 -20.278  22.178  1.00  0.00     0.293 HD
ENDBRANCH   4  12
BRANCH   6  14
ATOM     14  O   UNL     1     -11.066 -18.196  20.086  1.00  0.00    -0.504 OA
ATOM     15  H   UNL     1     -10.654 -17.292  19.891  1.00  0.00     0.293 HD
ENDBRANCH   6  14
TORSDOF 4
ENDMDL
MODEL 7
REMARK VINA RESULT:    -3.194      1.518      4.815
REMARK INTER + INTRA:          -3.971
REMARK INTER:                  -3.819
REMARK INTRA:                  -0.152
REMARK UNBOUND:                -0.217
REMARK SMILES O=C([O-])C=Cc1ccc(O)c(O)c1
REMARK SMILES IDX 6 1 13 2 7 3 11 4 8 5 9 6 5 7 4 8 2 9 1 10 3 11 12 12 10 14
REMARK H PARENT 12 13 10 15
REMARK Flexibility Score: inf
ROOT
ATOM      1  C   UNL     1       8.358 -21.738  12.080  1.00  0.00    -0.022 A 
ATOM      2  C   UNL     1       8.900 -21.129  13.225  1.00  0.00     0.058 A 
ATOM      3  C   UNL     1       7.320 -22.669  12.226  1.00  0.00     0.012 A 
ATOM      4  C   UNL     1       8.376 -21.408  14.495  1.00  0.00     0.157 A 
ATOM      5  C   UNL     1       6.795 -22.948  13.490  1.00  0.00     0.051 A 
ATOM      6  C   UNL     1       7.314 -22.319  14.626  1.00  0.00     0.157 A 
ENDROOT
BRANCH   1   7
ATOM      7  C   UNL     1       8.931 -21.497  10.739  1.00  0.00     0.010 C 
ATOM      8  C   UNL     1       8.549 -20.528   9.893  1.00  0.00     0.025 C 
BRANCH   8   9
ATOM      9  C   UNL     1       7.378 -19.645  10.064  1.00  0.00     0.064 C 
ATOM     10  O   UNL     1       6.455 -19.602   9.209  1.00  0.00    -0.545 OA
ATOM     11  O   UNL     1       7.329 -18.791  11.158  1.00  0.00    -0.545 OA
ENDBRANCH   8   9
ENDBRANCH   1   7
BRANCH   4  12
ATOM     12  O   UNL     1       8.908 -20.788  15.624  1.00  0.00    -0.504 OA
ATOM     13  H   UNL     1       8.553 -19.900  15.960  1.00  0.00     0.293 HD
ENDBRANCH   4  12
BRANCH   6  14
ATOM     14  O   UNL     1       6.768 -22.615  15.875  1.00  0.00    -0.504 OA
ATOM     15  H   UNL     1       6.067 -23.337  15.997  1.00  0.00     0.293 HD
ENDBRANCH   6  14
TORSDOF 4
ENDMDL
MODEL 8
REMARK VINA RESULT:    -3.115      1.172      4.841
REMARK INTER + INTRA:          -3.879
REMARK INTER:                  -3.614
REMARK INTRA:                  -0.265
REMARK UNBOUND:                -0.217
REMARK SMILES O=C([O-])C=Cc1ccc(O)c(O)c1
REMARK SMILES IDX 6 1 13 2 7 3 11 4 8 5 9 6 5 7 4 8 2 9 1 10 3 11 12 12 10 14
REMARK H PARENT 12 13 10 15
REMARK Flexibility Score: inf
ROOT
ATOM      1  C   UNL     1       8.198 -22.230  13.610  1.00  0.00    -0.022 A 
ATOM      2  C   UNL     1       6.878 -22.687  13.765  1.00  0.00     0.058 A 
ATOM      3  C   UNL     1       8.871 -21.693  14.716  1.00  0.00     0.012 A 
ATOM      4  C   UNL     1       6.257 -22.655  15.021  1.00  0.00     0.157 A 
ATOM      5  C   UNL     1       8.256 -21.661  15.970  1.00  0.00     0.051 A 
ATOM      6  C   UNL     1       6.953 -22.143  16.130  1.00  0.00     0.157 A 
ENDROOT
BRANCH   1   7
ATOM      7  C   UNL     1       8.851 -22.207  12.285  1.00  0.00     0.010 C 
ATOM      8  C   UNL     1       8.860 -21.164  11.440  1.00  0.00     0.025 C 
BRANCH   8   9
ATOM      9  C   UNL     1       8.079 -19.921  11.596  1.00  0.00     0.064 C 
ATOM     10  O   UNL     1       7.040 -19.707  10.916  1.00  0.00    -0.545 OA
ATOM     11  O   UNL     1       8.539 -18.936  12.459  1.00  0.00    -0.545 OA
ENDBRANCH   8   9
ENDBRANCH   1   7
BRANCH   4  12
ATOM     12  O   UNL     1       4.953 -23.124  15.171  1.00  0.00    -0.504 OA
ATOM     13  H   UNL     1       4.603 -23.443  16.066  1.00  0.00     0.293 HD
ENDBRANCH   4  12
BRANCH   6  14
ATOM     14  O   UNL     1       6.365 -22.101  17.394  1.00  0.00    -0.504 OA
ATOM     15  H   UNL     1       5.442 -21.712  17.545  1.00  0.00     0.293 HD
ENDBRANCH   6  14
TORSDOF 4
ENDMDL
