MODEL 1
REMARK VINA RESULT:    -5.894      0.000      0.000
REMARK INTER + INTRA:          -7.069
REMARK INTER:                  -6.927
REMARK INTRA:                  -0.142
REMARK UNBOUND:                -0.142
REMARK SMILES O=C([O-])C=Cc1ccc(O)c(O)c1
REMARK SMILES IDX 6 1 13 2 7 3 11 4 8 5 9 6 5 7 4 8 2 9 1 10 3 11 12 12 10 14
REMARK H PARENT 12 13 10 15
REMARK Flexibility Score: inf
ROOT
ATOM      1  C   UNL     1       9.881 -13.630 -22.119  1.00  0.00    -0.022 A 
ATOM      2  C   UNL     1      10.088 -15.024 -22.139  1.00  0.00     0.058 A 
ATOM      3  C   UNL     1      10.115 -12.928 -20.926  1.00  0.00     0.012 A 
ATOM      4  C   UNL     1      10.496 -15.702 -20.981  1.00  0.00     0.157 A 
ATOM      5  C   UNL     1      10.520 -13.604 -19.771  1.00  0.00     0.051 A 
ATOM      6  C   UNL     1      10.709 -14.988 -19.791  1.00  0.00     0.157 A 
ENDROOT
BRANCH   1   7
ATOM      7  C   UNL     1       9.461 -12.867 -23.320  1.00  0.00     0.010 C 
ATOM      8  C   UNL     1      10.067 -11.747 -23.741  1.00  0.00     0.025 C 
BRANCH   8   9
ATOM      9  C   UNL     1       9.630 -11.023 -24.946  1.00  0.00     0.064 C 
ATOM     10  O   UNL     1      10.130  -9.907 -25.253  1.00  0.00    -0.545 OA
ATOM     11  O   UNL     1       8.653 -11.579 -25.760  1.00  0.00    -0.545 OA
ENDBRANCH   8   9
ENDBRANCH   1   7
BRANCH   4  12
ATOM     12  O   UNL     1      10.695 -17.082 -21.010  1.00  0.00    -0.504 OA
ATOM     13  H   UNL     1      11.426 -17.502 -21.573  1.00  0.00     0.293 HD
ENDBRANCH   4  12
BRANCH   6  14
ATOM     14  O   UNL     1      11.112 -15.633 -18.623  1.00  0.00    -0.504 OA
ATOM     15  H   UNL     1      10.752 -15.371 -17.713  1.00  0.00     0.293 HD
ENDBRANCH   6  14
TORSDOF 4
ENDMDL
MODEL 2
REMARK VINA RESULT:    -5.642      0.913      2.118
REMARK INTER + INTRA:          -6.774
REMARK INTER:                  -6.650
REMARK INTRA:                  -0.124
REMARK UNBOUND:                -0.142
REMARK SMILES O=C([O-])C=Cc1ccc(O)c(O)c1
REMARK SMILES IDX 6 1 13 2 7 3 11 4 8 5 9 6 5 7 4 8 2 9 1 10 3 11 12 12 10 14
REMARK H PARENT 12 13 10 15
REMARK Flexibility Score: inf
ROOT
ATOM      1  C   UNL     1       9.790 -13.765 -22.377  1.00  0.00    -0.022 A 
ATOM      2  C   UNL     1      10.195 -12.979 -21.279  1.00  0.00     0.058 A 
ATOM      3  C   UNL     1       9.761 -15.161 -22.236  1.00  0.00     0.012 A 
ATOM      4  C   UNL     1      10.587 -13.583 -20.075  1.00  0.00     0.157 A 
ATOM      5  C   UNL     1      10.153 -15.764 -21.038  1.00  0.00     0.051 A 
ATOM      6  C   UNL     1      10.569 -14.982 -19.957  1.00  0.00     0.157 A 
ENDROOT
BRANCH   1   7
ATOM      7  C   UNL     1       9.356 -13.172 -23.667  1.00  0.00     0.010 C 
ATOM      8  C   UNL     1       9.583 -11.896 -24.014  1.00  0.00     0.025 C 
BRANCH   8   9
ATOM      9  C   UNL     1       9.148 -11.345 -25.308  1.00  0.00     0.064 C 
ATOM     10  O   UNL     1       8.149 -11.816 -25.915  1.00  0.00    -0.545 OA
ATOM     11  O   UNL     1       9.850 -10.287 -25.869  1.00  0.00    -0.545 OA
ENDBRANCH   8   9
ENDBRANCH   1   7
BRANCH   4  12
ATOM     12  O   UNL     1      10.989 -12.798 -18.995  1.00  0.00    -0.504 OA
ATOM     13  H   UNL     1      11.643 -13.143 -18.301  1.00  0.00     0.293 HD
ENDBRANCH   4  12
BRANCH   6  14
ATOM     14  O   UNL     1      10.955 -15.613 -18.774  1.00  0.00    -0.504 OA
ATOM     15  H   UNL     1      10.549 -16.492 -18.477  1.00  0.00     0.293 HD
ENDBRANCH   6  14
TORSDOF 4
ENDMDL
MODEL 3
REMARK VINA RESULT:    -5.360      1.194      2.151
REMARK INTER + INTRA:          -6.442
REMARK INTER:                  -6.304
REMARK INTRA:                  -0.138
REMARK UNBOUND:                -0.142
REMARK SMILES O=C([O-])C=Cc1ccc(O)c(O)c1
REMARK SMILES IDX 6 1 13 2 7 3 11 4 8 5 9 6 5 7 4 8 2 9 1 10 3 11 12 12 10 14
REMARK H PARENT 12 13 10 15
REMARK Flexibility Score: inf
ROOT
ATOM      1  C   UNL     1      10.443 -13.639 -22.635  1.00  0.00    -0.022 A 
ATOM      2  C   UNL     1      10.033 -13.945 -21.322  1.00  0.00     0.058 A 
ATOM      3  C   UNL     1      10.811 -14.690 -23.491  1.00  0.00     0.012 A 
ATOM      4  C   UNL     1      10.016 -15.272 -20.869  1.00  0.00     0.157 A 
ATOM      5  C   UNL     1      10.796 -16.013 -23.040  1.00  0.00     0.051 A 
ATOM      6  C   UNL     1      10.404 -16.309 -21.732  1.00  0.00     0.157 A 
ENDROOT
BRANCH   1   7
ATOM      7  C   UNL     1      10.467 -12.252 -23.163  1.00  0.00     0.010 C 
ATOM      8  C   UNL     1       9.790 -11.859 -24.252  1.00  0.00     0.025 C 
BRANCH   8   9
ATOM      9  C   UNL     1       9.827 -10.470 -24.740  1.00  0.00     0.064 C 
ATOM     10  O   UNL     1       9.791  -9.497 -23.941  1.00  0.00    -0.545 OA
ATOM     11  O   UNL     1       9.905 -10.229 -26.105  1.00  0.00    -0.545 OA
ENDBRANCH   8   9
ENDBRANCH   1   7
BRANCH   4  12
ATOM     12  O   UNL     1       9.612 -15.564 -19.566  1.00  0.00    -0.504 OA
ATOM     13  H   UNL     1       8.632 -15.630 -19.316  1.00  0.00     0.293 HD
ENDBRANCH   4  12
BRANCH   6  14
ATOM     14  O   UNL     1      10.401 -17.639 -21.311  1.00  0.00    -0.504 OA
ATOM     15  H   UNL     1      10.009 -18.381 -21.878  1.00  0.00     0.293 HD
ENDBRANCH   6  14
TORSDOF 4
ENDMDL
MODEL 4
REMARK VINA RESULT:    -5.336      3.076      5.563
REMARK INTER + INTRA:          -6.414
REMARK INTER:                  -6.261
REMARK INTRA:                  -0.153
REMARK UNBOUND:                -0.142
REMARK SMILES O=C([O-])C=Cc1ccc(O)c(O)c1
REMARK SMILES IDX 6 1 13 2 7 3 11 4 8 5 9 6 5 7 4 8 2 9 1 10 3 11 12 12 10 14
REMARK H PARENT 12 13 10 15
REMARK Flexibility Score: inf
ROOT
ATOM      1  C   UNL     1      10.854 -15.808 -22.854  1.00  0.00    -0.022 A 
ATOM      2  C   UNL     1      11.208 -14.505 -23.259  1.00  0.00     0.058 A 
ATOM      3  C   UNL     1      10.112 -15.972 -21.673  1.00  0.00     0.012 A 
ATOM      4  C   UNL     1      10.847 -13.393 -22.483  1.00  0.00     0.157 A 
ATOM      5  C   UNL     1       9.755 -14.865 -20.898  1.00  0.00     0.051 A 
ATOM      6  C   UNL     1      10.121 -13.576 -21.296  1.00  0.00     0.157 A 
ENDROOT
BRANCH   1   7
ATOM      7  C   UNL     1      11.202 -17.014 -23.647  1.00  0.00     0.010 C 
ATOM      8  C   UNL     1      10.895 -18.264 -23.274  1.00  0.00     0.025 C 
BRANCH   8   9
ATOM      9  C   UNL     1      11.245 -19.437 -24.092  1.00  0.00     0.064 C 
ATOM     10  O   UNL     1      11.221 -20.600 -23.609  1.00  0.00    -0.545 OA
ATOM     11  O   UNL     1      11.607 -19.258 -25.420  1.00  0.00    -0.545 OA
ENDBRANCH   8   9
ENDBRANCH   1   7
BRANCH   4  12
ATOM     12  O   UNL     1      11.205 -12.108 -22.890  1.00  0.00    -0.504 OA
ATOM     13  H   UNL     1      12.132 -11.736 -22.721  1.00  0.00     0.293 HD
ENDBRANCH   4  12
BRANCH   6  14
ATOM     14  O   UNL     1       9.750 -12.492 -20.501  1.00  0.00    -0.504 OA
ATOM     15  H   UNL     1      10.413 -11.777 -20.224  1.00  0.00     0.293 HD
ENDBRANCH   6  14
TORSDOF 4
ENDMDL
MODEL 5
REMARK VINA RESULT:    -5.336      2.897      5.374
REMARK INTER + INTRA:          -6.413
REMARK INTER:                  -6.291
REMARK INTRA:                  -0.122
REMARK UNBOUND:                -0.142
REMARK SMILES O=C([O-])C=Cc1ccc(O)c(O)c1
REMARK SMILES IDX 6 1 13 2 7 3 11 4 8 5 9 6 5 7 4 8 2 9 1 10 3 11 12 12 10 14
REMARK H PARENT 12 13 10 15
REMARK Flexibility Score: inf
ROOT
ATOM      1  C   UNL     1      10.860 -15.839 -22.692  1.00  0.00    -0.022 A 
ATOM      2  C   UNL     1      10.941 -15.865 -21.284  1.00  0.00     0.058 A 
ATOM      3  C   UNL     1      10.447 -14.656 -23.324  1.00  0.00     0.012 A 
ATOM      4  C   UNL     1      10.591 -14.736 -20.528  1.00  0.00     0.157 A 
ATOM      5  C   UNL     1      10.096 -13.532 -22.571  1.00  0.00     0.051 A 
ATOM      6  C   UNL     1      10.163 -13.567 -21.176  1.00  0.00     0.157 A 
ENDROOT
BRANCH   1   7
ATOM      7  C   UNL     1      11.230 -17.003 -23.535  1.00  0.00     0.010 C 
ATOM      8  C   UNL     1      10.875 -18.266 -23.258  1.00  0.00     0.025 C 
BRANCH   8   9
ATOM      9  C   UNL     1      11.250 -19.395 -24.125  1.00  0.00     0.064 C 
ATOM     10  O   UNL     1      11.274 -20.576 -23.684  1.00  0.00    -0.545 OA
ATOM     11  O   UNL     1      11.580 -19.156 -25.452  1.00  0.00    -0.545 OA
ENDBRANCH   8   9
ENDBRANCH   1   7
BRANCH   4  12
ATOM     12  O   UNL     1      10.671 -14.773 -19.136  1.00  0.00    -0.504 OA
ATOM     13  H   UNL     1       9.855 -14.951 -18.562  1.00  0.00     0.293 HD
ENDBRANCH   4  12
BRANCH   6  14
ATOM     14  O   UNL     1       9.806 -12.429 -20.452  1.00  0.00    -0.504 OA
ATOM     15  H   UNL     1       9.466 -12.483 -19.499  1.00  0.00     0.293 HD
ENDBRANCH   6  14
TORSDOF 4
ENDMDL
MODEL 6
REMARK VINA RESULT:    -5.254      3.256      5.248
REMARK INTER + INTRA:          -6.317
REMARK INTER:                  -6.167
REMARK INTRA:                  -0.149
REMARK UNBOUND:                -0.142
REMARK SMILES O=C([O-])C=Cc1ccc(O)c(O)c1
REMARK SMILES IDX 6 1 13 2 7 3 11 4 8 5 9 6 5 7 4 8 2 9 1 10 3 11 12 12 10 14
REMARK H PARENT 12 13 10 15
REMARK Flexibility Score: inf
ROOT
ATOM      1  C   UNL     1      10.864 -16.611 -22.775  1.00  0.00    -0.022 A 
ATOM      2  C   UNL     1      11.058 -18.003 -22.667  1.00  0.00     0.058 A 
ATOM      3  C   UNL     1      10.936 -16.014 -24.043  1.00  0.00     0.012 A 
ATOM      4  C   UNL     1      11.343 -18.775 -23.803  1.00  0.00     0.157 A 
ATOM      5  C   UNL     1      11.223 -16.782 -25.176  1.00  0.00     0.051 A 
ATOM      6  C   UNL     1      11.430 -18.159 -25.062  1.00  0.00     0.157 A 
ENDROOT
BRANCH   1   7
ATOM      7  C   UNL     1      10.549 -15.755 -21.605  1.00  0.00     0.010 C 
ATOM      8  C   UNL     1      10.721 -14.425 -21.586  1.00  0.00     0.025 C 
BRANCH   8   9
ATOM      9  C   UNL     1      10.385 -13.606 -20.410  1.00  0.00     0.064 C 
ATOM     10  O   UNL     1       9.862 -12.466 -20.538  1.00  0.00    -0.545 OA
ATOM     11  O   UNL     1      10.647 -14.097 -19.139  1.00  0.00    -0.545 OA
ENDBRANCH   8   9
ENDBRANCH   1   7
BRANCH   4  12
ATOM     12  O   UNL     1      11.537 -20.151 -23.686  1.00  0.00    -0.504 OA
ATOM     13  H   UNL     1      12.463 -20.550 -23.584  1.00  0.00     0.293 HD
ENDBRANCH   4  12
BRANCH   6  14
ATOM     14  O   UNL     1      11.715 -18.898 -26.210  1.00  0.00    -0.504 OA
ATOM     15  H   UNL     1      11.541 -19.894 -26.265  1.00  0.00     0.293 HD
ENDBRANCH   6  14
TORSDOF 4
ENDMDL
MODEL 7
REMARK VINA RESULT:    -5.230      2.840      5.923
REMARK INTER + INTRA:          -6.289
REMARK INTER:                  -6.157
REMARK INTRA:                  -0.131
REMARK UNBOUND:                -0.142
REMARK SMILES O=C([O-])C=Cc1ccc(O)c(O)c1
REMARK SMILES IDX 6 1 13 2 7 3 11 4 8 5 9 6 5 7 4 8 2 9 1 10 3 11 12 12 10 14
REMARK H PARENT 12 13 10 15
REMARK Flexibility Score: inf
ROOT
ATOM      1  C   UNL     1      10.148 -16.335 -21.810  1.00  0.00    -0.022 A 
ATOM      2  C   UNL     1      10.552 -15.770 -20.583  1.00  0.00     0.058 A 
ATOM      3  C   UNL     1       9.807 -15.479 -22.869  1.00  0.00     0.012 A 
ATOM      4  C   UNL     1      10.587 -14.378 -20.415  1.00  0.00     0.157 A 
ATOM      5  C   UNL     1       9.839 -14.091 -22.701  1.00  0.00     0.051 A 
ATOM      6  C   UNL     1      10.225 -13.536 -21.478  1.00  0.00     0.157 A 
ENDROOT
BRANCH   1   7
ATOM      7  C   UNL     1      10.106 -17.800 -22.040  1.00  0.00     0.010 C 
ATOM      8  C   UNL     1       8.980 -18.528 -22.002  1.00  0.00     0.025 C 
BRANCH   8   9
ATOM      9  C   UNL     1       8.975 -19.979 -22.248  1.00  0.00     0.064 C 
ATOM     10  O   UNL     1       9.818 -20.514 -23.017  1.00  0.00    -0.545 OA
ATOM     11  O   UNL     1       8.026 -20.774 -21.620  1.00  0.00    -0.545 OA
ENDBRANCH   8   9
ENDBRANCH   1   7
BRANCH   4  12
ATOM     12  O   UNL     1      10.985 -13.828 -19.196  1.00  0.00    -0.504 OA
ATOM     13  H   UNL     1      10.339 -13.313 -18.609  1.00  0.00     0.293 HD
ENDBRANCH   4  12
BRANCH   6  14
ATOM     14  O   UNL     1      10.247 -12.148 -21.342  1.00  0.00    -0.504 OA
ATOM     15  H   UNL     1      10.852 -11.683 -20.676  1.00  0.00     0.293 HD
ENDBRANCH   6  14
TORSDOF 4
ENDMDL
MODEL 8
REMARK VINA RESULT:    -5.219      2.844      5.731
REMARK INTER + INTRA:          -6.276
REMARK INTER:                  -6.124
REMARK INTRA:                  -0.151
REMARK UNBOUND:                -0.142
REMARK SMILES O=C([O-])C=Cc1ccc(O)c(O)c1
REMARK SMILES IDX 6 1 13 2 7 3 11 4 8 5 9 6 5 7 4 8 2 9 1 10 3 11 12 12 10 14
REMARK H PARENT 12 13 10 15
REMARK Flexibility Score: inf
ROOT
ATOM      1  C   UNL     1      10.647 -14.754 -23.657  1.00  0.00    -0.022 A 
ATOM      2  C   UNL     1      11.238 -13.707 -22.921  1.00  0.00     0.058 A 
ATOM      3  C   UNL     1       9.508 -14.479 -24.429  1.00  0.00     0.012 A 
ATOM      4  C   UNL     1      10.683 -12.419 -22.940  1.00  0.00     0.157 A 
ATOM      5  C   UNL     1       8.953 -13.196 -24.447  1.00  0.00     0.051 A 
ATOM      6  C   UNL     1       9.533 -12.165 -23.703  1.00  0.00     0.157 A 
ENDROOT
BRANCH   1   7
ATOM      7  C   UNL     1      11.203 -16.130 -23.678  1.00  0.00     0.010 C 
ATOM      8  C   UNL     1      10.959 -17.017 -24.653  1.00  0.00     0.025 C 
BRANCH   8   9
ATOM      9  C   UNL     1      11.539 -18.371 -24.647  1.00  0.00     0.064 C 
ATOM     10  O   UNL     1      12.003 -18.876 -23.590  1.00  0.00    -0.545 OA
ATOM     11  O   UNL     1      11.573 -19.103 -25.826  1.00  0.00    -0.545 OA
ENDBRANCH   8   9
ENDBRANCH   1   7
BRANCH   4  12
ATOM     12  O   UNL     1      11.274 -11.391 -22.205  1.00  0.00    -0.504 OA
ATOM     13  H   UNL     1      12.259 -11.406 -21.966  1.00  0.00     0.293 HD
ENDBRANCH   4  12
BRANCH   6  14
ATOM     14  O   UNL     1       8.956 -10.896 -23.740  1.00  0.00    -0.504 OA
ATOM     15  H   UNL     1       7.969 -10.760 -23.921  1.00  0.00     0.293 HD
ENDBRANCH   6  14
TORSDOF 4
ENDMDL
MODEL 9
REMARK VINA RESULT:    -5.089      1.250      6.148
REMARK INTER + INTRA:          -6.123
REMARK INTER:                  -6.000
REMARK INTRA:                  -0.123
REMARK UNBOUND:                -0.142
REMARK SMILES O=C([O-])C=Cc1ccc(O)c(O)c1
REMARK SMILES IDX 6 1 13 2 7 3 11 4 8 5 9 6 5 7 4 8 2 9 1 10 3 11 12 12 10 14
REMARK H PARENT 12 13 10 15
REMARK Flexibility Score: inf
ROOT
ATOM      1  C   UNL     1       9.389 -12.821 -23.558  1.00  0.00    -0.022 A 
ATOM      2  C   UNL     1      10.019 -11.566 -23.684  1.00  0.00     0.058 A 
ATOM      3  C   UNL     1       8.525 -13.249 -24.577  1.00  0.00     0.012 A 
ATOM      4  C   UNL     1       9.767 -10.749 -24.796  1.00  0.00     0.157 A 
ATOM      5  C   UNL     1       8.272 -12.435 -25.685  1.00  0.00     0.051 A 
ATOM      6  C   UNL     1       8.886 -11.185 -25.798  1.00  0.00     0.157 A 
ENDROOT
BRANCH   1   7
ATOM      7  C   UNL     1       9.633 -13.725 -22.406  1.00  0.00     0.010 C 
ATOM      8  C   UNL     1       9.954 -13.295 -21.177  1.00  0.00     0.025 C 
BRANCH   8   9
ATOM      9  C   UNL     1      10.176 -14.222 -20.055  1.00  0.00     0.064 C 
ATOM     10  O   UNL     1      10.869 -13.883 -19.058  1.00  0.00    -0.545 OA
ATOM     11  O   UNL     1       9.611 -15.489 -20.094  1.00  0.00    -0.545 OA
ENDBRANCH   8   9
ENDBRANCH   1   7
BRANCH   4  12
ATOM     12  O   UNL     1      10.393  -9.508 -24.911  1.00  0.00    -0.504 OA
ATOM     13  H   UNL     1      11.213  -9.377 -25.492  1.00  0.00     0.293 HD
ENDBRANCH   4  12
BRANCH   6  14
ATOM     14  O   UNL     1       8.613 -10.395 -26.915  1.00  0.00    -0.504 OA
ATOM     15  H   UNL     1       9.347 -10.053 -27.523  1.00  0.00     0.293 HD
ENDBRANCH   6  14
TORSDOF 4
ENDMDL
