MODEL 1
REMARK VINA RESULT:    -4.554      0.000      0.000
REMARK INTER + INTRA:         -11.568
REMARK INTER:                  -8.548
REMARK INTRA:                  -3.021
REMARK UNBOUND:                -3.021
REMARK SMILES CCCCCCCCC=CCCCCCCCC(=O)[O-]
REMARK SMILES IDX 10 1 9 2 11 3 12 4 13 5 14 6 15 7 16 8 17 9 18 10 19 11
REMARK SMILES IDX 20 12 8 13 7 14 6 15 5 16 4 17 3 18 2 19 1 20
REMARK H PARENT
REMARK Flexibility Score: inf
ROOT
ATOM      1  C   UNL     1     -29.412  48.647   1.787  1.00  0.00    -0.031 C 
ATOM      2  C   UNL     1     -30.746  48.823   1.741  1.00  0.00    -0.031 C 
ENDROOT
BRANCH   1   3
ATOM      3  C   UNL     1     -28.725  47.387   2.255  1.00  0.00     0.027 C 
BRANCH   3   4
ATOM      4  C   UNL     1     -27.613  46.938   1.291  1.00  0.00     0.004 C 
BRANCH   4   5
ATOM      5  C   UNL     1     -27.934  45.654   0.504  1.00  0.00     0.000 C 
BRANCH   5   6
ATOM      6  C   UNL     1     -27.921  45.866  -1.016  1.00  0.00     0.000 C 
BRANCH   6   7
ATOM      7  C   UNL     1     -29.327  46.197  -1.536  1.00  0.00     0.000 C 
BRANCH   7   8
ATOM      8  C   UNL     1     -29.342  47.405  -2.492  1.00  0.00     0.006 C 
BRANCH   8   9
ATOM      9  C   UNL     1     -28.795  48.704  -1.881  1.00  0.00     0.053 C 
BRANCH   9  10
ATOM     10  C   UNL     1     -29.848  49.765  -1.776  1.00  0.00     0.041 C 
ATOM     11  O   UNL     1     -29.520  50.980  -1.732  1.00  0.00    -0.550 OA
ATOM     12  O   UNL     1     -31.188  49.409  -1.690  1.00  0.00    -0.550 OA
ENDBRANCH   9  10
ENDBRANCH   8   9
ENDBRANCH   7   8
ENDBRANCH   6   7
ENDBRANCH   5   6
ENDBRANCH   4   5
ENDBRANCH   3   4
ENDBRANCH   1   3
BRANCH   2  13
ATOM     13  C   UNL     1     -31.767  47.755   2.049  1.00  0.00     0.027 C 
BRANCH  13  14
ATOM     14  C   UNL     1     -32.074  46.874   0.825  1.00  0.00     0.004 C 
BRANCH  14  15
ATOM     15  C   UNL     1     -31.677  45.395   0.992  1.00  0.00     0.000 C 
BRANCH  15  16
ATOM     16  C   UNL     1     -32.745  44.569   1.725  1.00  0.00     0.000 C 
BRANCH  16  17
ATOM     17  C   UNL     1     -32.228  44.090   3.088  1.00  0.00    -0.000 C 
BRANCH  17  18
ATOM     18  C   UNL     1     -30.729  44.376   3.241  1.00  0.00    -0.000 C 
BRANCH  18  19
ATOM     19  C   UNL     1     -30.384  44.739   4.690  1.00  0.00    -0.003 C 
ATOM     20  C   UNL     1     -31.080  46.029   5.116  1.00  0.00     0.004 C 
ENDBRANCH  18  19
ENDBRANCH  17  18
ENDBRANCH  16  17
ENDBRANCH  15  16
ENDBRANCH  14  15
ENDBRANCH  13  14
ENDBRANCH   2  13
TORSDOF 15
ENDMDL
MODEL 2
REMARK VINA RESULT:    -4.519      3.073      5.770
REMARK INTER + INTRA:         -11.503
REMARK INTER:                  -8.739
REMARK INTRA:                  -2.764
REMARK UNBOUND:                -3.021
REMARK SMILES CCCCCCCCC=CCCCCCCCC(=O)[O-]
REMARK SMILES IDX 10 1 9 2 11 3 12 4 13 5 14 6 15 7 16 8 17 9 18 10 19 11
REMARK SMILES IDX 20 12 8 13 7 14 6 15 5 16 4 17 3 18 2 19 1 20
REMARK H PARENT
REMARK Flexibility Score: inf
ROOT
ATOM      1  C   UNL     1     -32.234  48.128   0.588  1.00  0.00    -0.031 C 
ATOM      2  C   UNL     1     -31.656  48.962  -0.297  1.00  0.00    -0.031 C 
ENDROOT
BRANCH   1   3
ATOM      3  C   UNL     1     -31.544  46.957   1.245  1.00  0.00     0.027 C 
BRANCH   3   4
ATOM      4  C   UNL     1     -31.730  45.651   0.452  1.00  0.00     0.004 C 
BRANCH   4   5
ATOM      5  C   UNL     1     -31.589  44.371   1.295  1.00  0.00     0.000 C 
BRANCH   5   6
ATOM      6  C   UNL     1     -32.677  44.239   2.370  1.00  0.00     0.000 C 
BRANCH   6   7
ATOM      7  C   UNL     1     -32.056  43.966   3.748  1.00  0.00     0.000 C 
BRANCH   7   8
ATOM      8  C   UNL     1     -30.713  44.691   3.953  1.00  0.00     0.006 C 
BRANCH   8   9
ATOM      9  C   UNL     1     -30.815  46.004   4.744  1.00  0.00     0.053 C 
BRANCH   9  10
ATOM     10  C   UNL     1     -30.077  45.937   6.046  1.00  0.00     0.041 C 
ATOM     11  O   UNL     1     -28.857  46.243   6.099  1.00  0.00    -0.550 OA
ATOM     12  O   UNL     1     -30.728  45.501   7.194  1.00  0.00    -0.550 OA
ENDBRANCH   9  10
ENDBRANCH   8   9
ENDBRANCH   7   8
ENDBRANCH   6   7
ENDBRANCH   5   6
ENDBRANCH   4   5
ENDBRANCH   3   4
ENDBRANCH   1   3
BRANCH   2  13
ATOM     13  C   UNL     1     -30.200  48.924  -0.692  1.00  0.00     0.027 C 
BRANCH  13  14
ATOM     14  C   UNL     1     -30.005  48.479  -2.152  1.00  0.00     0.004 C 
BRANCH  14  15
ATOM     15  C   UNL     1     -29.182  47.188  -2.318  1.00  0.00     0.000 C 
BRANCH  15  16
ATOM     16  C   UNL     1     -28.172  46.974  -1.180  1.00  0.00     0.000 C 
BRANCH  16  17
ATOM     17  C   UNL     1     -28.225  45.530  -0.664  1.00  0.00    -0.000 C 
BRANCH  17  18
ATOM     18  C   UNL     1     -28.123  45.488   0.866  1.00  0.00    -0.000 C 
BRANCH  18  19
ATOM     19  C   UNL     1     -27.373  46.713   1.400  1.00  0.00    -0.003 C 
ATOM     20  C   UNL     1     -28.158  47.398   2.515  1.00  0.00     0.004 C 
ENDBRANCH  18  19
ENDBRANCH  17  18
ENDBRANCH  16  17
ENDBRANCH  15  16
ENDBRANCH  14  15
ENDBRANCH  13  14
ENDBRANCH   2  13
TORSDOF 15
ENDMDL
MODEL 3
REMARK VINA RESULT:    -4.519      2.245      5.484
REMARK INTER + INTRA:         -11.502
REMARK INTER:                  -8.768
REMARK INTRA:                  -2.735
REMARK UNBOUND:                -3.021
REMARK SMILES CCCCCCCCC=CCCCCCCCC(=O)[O-]
REMARK SMILES IDX 10 1 9 2 11 3 12 4 13 5 14 6 15 7 16 8 17 9 18 10 19 11
REMARK SMILES IDX 20 12 8 13 7 14 6 15 5 16 4 17 3 18 2 19 1 20
REMARK H PARENT
REMARK Flexibility Score: inf
ROOT
ATOM      1  C   UNL     1     -31.621  44.998   0.872  1.00  0.00    -0.031 C 
ATOM      2  C   UNL     1     -31.373  46.274   0.525  1.00  0.00    -0.031 C 
ENDROOT
BRANCH   1   3
ATOM      3  C   UNL     1     -32.729  44.557   1.798  1.00  0.00     0.027 C 
BRANCH   3   4
ATOM      4  C   UNL     1     -32.193  44.058   3.151  1.00  0.00     0.004 C 
BRANCH   4   5
ATOM      5  C   UNL     1     -30.699  44.343   3.387  1.00  0.00     0.000 C 
BRANCH   5   6
ATOM      6  C   UNL     1     -30.452  45.329   4.538  1.00  0.00     0.000 C 
BRANCH   6   7
ATOM      7  C   UNL     1     -30.082  46.718   4.000  1.00  0.00     0.000 C 
BRANCH   7   8
ATOM      8  C   UNL     1     -28.880  46.687   3.037  1.00  0.00     0.006 C 
BRANCH   8   9
ATOM      9  C   UNL     1     -28.399  48.072   2.577  1.00  0.00     0.053 C 
BRANCH   9  10
ATOM     10  C   UNL     1     -26.913  48.219   2.694  1.00  0.00     0.041 C 
ATOM     11  O   UNL     1     -26.420  49.204   3.304  1.00  0.00    -0.550 OA
ATOM     12  O   UNL     1     -26.072  47.288   2.098  1.00  0.00    -0.550 OA
ENDBRANCH   9  10
ENDBRANCH   8   9
ENDBRANCH   7   8
ENDBRANCH   6   7
ENDBRANCH   5   6
ENDBRANCH   4   5
ENDBRANCH   3   4
ENDBRANCH   1   3
BRANCH   2  13
ATOM     13  C   UNL     1     -32.224  47.456   0.921  1.00  0.00     0.027 C 
BRANCH  13  14
ATOM     14  C   UNL     1     -31.544  48.797   0.597  1.00  0.00     0.004 C 
BRANCH  14  15
ATOM     15  C   UNL     1     -31.713  49.258  -0.864  1.00  0.00     0.000 C 
BRANCH  15  16
ATOM     16  C   UNL     1     -30.454  49.935  -1.426  1.00  0.00     0.000 C 
BRANCH  16  17
ATOM     17  C   UNL     1     -29.291  48.939  -1.521  1.00  0.00    -0.000 C 
BRANCH  17  18
ATOM     18  C   UNL     1     -29.633  47.781  -2.467  1.00  0.00    -0.000 C 
BRANCH  18  19
ATOM     19  C   UNL     1     -28.811  46.533  -2.126  1.00  0.00    -0.003 C 
ATOM     20  C   UNL     1     -27.986  46.745  -0.859  1.00  0.00     0.004 C 
ENDBRANCH  18  19
ENDBRANCH  17  18
ENDBRANCH  16  17
ENDBRANCH  15  16
ENDBRANCH  14  15
ENDBRANCH  13  14
ENDBRANCH   2  13
TORSDOF 15
ENDMDL
MODEL 4
REMARK VINA RESULT:    -4.519      2.345      4.336
REMARK INTER + INTRA:         -11.502
REMARK INTER:                  -8.871
REMARK INTRA:                  -2.631
REMARK UNBOUND:                -3.021
REMARK SMILES CCCCCCCCC=CCCCCCCCC(=O)[O-]
REMARK SMILES IDX 10 1 9 2 11 3 12 4 13 5 14 6 15 7 16 8 17 9 18 10 19 11
REMARK SMILES IDX 20 12 8 13 7 14 6 15 5 16 4 17 3 18 2 19 1 20
REMARK H PARENT
REMARK Flexibility Score: inf
ROOT
ATOM      1  C   UNL     1     -32.187  45.652   1.077  1.00  0.00    -0.031 C 
ATOM      2  C   UNL     1     -31.725  44.487   1.566  1.00  0.00    -0.031 C 
ENDROOT
BRANCH   1   3
ATOM      3  C   UNL     1     -31.845  47.015   1.630  1.00  0.00     0.027 C 
BRANCH   3   4
ATOM      4  C   UNL     1     -31.710  48.075   0.523  1.00  0.00     0.004 C 
BRANCH   4   5
ATOM      5  C   UNL     1     -30.263  48.515   0.237  1.00  0.00     0.000 C 
BRANCH   5   6
ATOM      6  C   UNL     1     -29.323  48.290   1.429  1.00  0.00     0.000 C 
BRANCH   6   7
ATOM      7  C   UNL     1     -27.973  47.723   0.966  1.00  0.00     0.000 C 
BRANCH   7   8
ATOM      8  C   UNL     1     -27.824  46.219   1.261  1.00  0.00     0.006 C 
BRANCH   8   9
ATOM      9  C   UNL     1     -28.322  45.299   0.136  1.00  0.00     0.053 C 
BRANCH   9  10
ATOM     10  C   UNL     1     -27.683  45.620  -1.180  1.00  0.00     0.041 C 
ATOM     11  O   UNL     1     -26.504  45.249  -1.419  1.00  0.00    -0.550 OA
ATOM     12  O   UNL     1     -28.378  46.361  -2.129  1.00  0.00    -0.550 OA
ENDBRANCH   9  10
ENDBRANCH   8   9
ENDBRANCH   7   8
ENDBRANCH   6   7
ENDBRANCH   5   6
ENDBRANCH   4   5
ENDBRANCH   3   4
ENDBRANCH   1   3
BRANCH   2  13
ATOM     13  C   UNL     1     -30.710  44.361   2.677  1.00  0.00     0.027 C 
BRANCH  13  14
ATOM     14  C   UNL     1     -31.373  44.284   4.063  1.00  0.00     0.004 C 
BRANCH  14  15
ATOM     15  C   UNL     1     -30.562  44.952   5.191  1.00  0.00     0.000 C 
BRANCH  15  16
ATOM     16  C   UNL     1     -30.468  46.477   5.035  1.00  0.00     0.000 C 
BRANCH  16  17
ATOM     17  C   UNL     1     -29.018  46.915   4.787  1.00  0.00    -0.000 C 
BRANCH  17  18
ATOM     18  C   UNL     1     -28.222  46.951   6.097  1.00  0.00    -0.000 C 
BRANCH  18  19
ATOM     19  C   UNL     1     -26.720  47.083   5.822  1.00  0.00    -0.003 C 
ATOM     20  C   UNL     1     -26.462  47.824   4.513  1.00  0.00     0.004 C 
ENDBRANCH  18  19
ENDBRANCH  17  18
ENDBRANCH  16  17
ENDBRANCH  15  16
ENDBRANCH  14  15
ENDBRANCH  13  14
ENDBRANCH   2  13
TORSDOF 15
ENDMDL
MODEL 5
REMARK VINA RESULT:    -4.517      2.157      3.818
REMARK INTER + INTRA:         -11.499
REMARK INTER:                  -8.797
REMARK INTRA:                  -2.702
REMARK UNBOUND:                -3.021
REMARK SMILES CCCCCCCCC=CCCCCCCCC(=O)[O-]
REMARK SMILES IDX 10 1 9 2 11 3 12 4 13 5 14 6 15 7 16 8 17 9 18 10 19 11
REMARK SMILES IDX 20 12 8 13 7 14 6 15 5 16 4 17 3 18 2 19 1 20
REMARK H PARENT
REMARK Flexibility Score: inf
ROOT
ATOM      1  C   UNL     1     -32.618  48.412   0.983  1.00  0.00    -0.031 C 
ATOM      2  C   UNL     1     -31.889  47.755   1.904  1.00  0.00    -0.031 C 
ENDROOT
BRANCH   1   3
ATOM      3  C   UNL     1     -32.279  49.774   0.427  1.00  0.00     0.027 C 
BRANCH   3   4
ATOM      4  C   UNL     1     -32.105  49.752  -1.102  1.00  0.00     0.004 C 
BRANCH   4   5
ATOM      5  C   UNL     1     -30.693  50.128  -1.586  1.00  0.00     0.000 C 
BRANCH   5   6
ATOM      6  C   UNL     1     -29.602  49.206  -1.024  1.00  0.00     0.000 C 
BRANCH   6   7
ATOM      7  C   UNL     1     -28.957  48.374  -2.142  1.00  0.00     0.000 C 
BRANCH   7   8
ATOM      8  C   UNL     1     -29.274  46.871  -2.028  1.00  0.00     0.006 C 
BRANCH   8   9
ATOM      9  C   UNL     1     -29.505  46.379  -0.591  1.00  0.00     0.053 C 
BRANCH   9  10
ATOM     10  C   UNL     1     -28.238  45.906   0.054  1.00  0.00     0.041 C 
ATOM     11  O   UNL     1     -27.458  46.731   0.596  1.00  0.00    -0.550 OA
ATOM     12  O   UNL     1     -27.903  44.558   0.023  1.00  0.00    -0.550 OA
ENDBRANCH   9  10
ENDBRANCH   8   9
ENDBRANCH   7   8
ENDBRANCH   6   7
ENDBRANCH   5   6
ENDBRANCH   4   5
ENDBRANCH   3   4
ENDBRANCH   1   3
BRANCH   2  13
ATOM     13  C   UNL     1     -30.563  48.227   2.450  1.00  0.00     0.027 C 
BRANCH  13  14
ATOM     14  C   UNL     1     -30.226  47.577   3.803  1.00  0.00     0.004 C 
BRANCH  14  15
ATOM     15  C   UNL     1     -29.665  46.146   3.697  1.00  0.00     0.000 C 
BRANCH  15  16
ATOM     16  C   UNL     1     -30.495  45.119   4.480  1.00  0.00     0.000 C 
BRANCH  16  17
ATOM     17  C   UNL     1     -31.433  44.344   3.545  1.00  0.00    -0.000 C 
BRANCH  17  18
ATOM     18  C   UNL     1     -30.854  44.262   2.128  1.00  0.00    -0.000 C 
BRANCH  18  19
ATOM     19  C   UNL     1     -31.972  44.225   1.079  1.00  0.00    -0.003 C 
ATOM     20  C   UNL     1     -33.345  44.151   1.740  1.00  0.00     0.004 C 
ENDBRANCH  18  19
ENDBRANCH  17  18
ENDBRANCH  16  17
ENDBRANCH  15  16
ENDBRANCH  14  15
ENDBRANCH  13  14
ENDBRANCH   2  13
TORSDOF 15
ENDMDL
MODEL 6
REMARK VINA RESULT:    -4.507      2.671      5.519
REMARK INTER + INTRA:         -11.479
REMARK INTER:                  -8.675
REMARK INTRA:                  -2.805
REMARK UNBOUND:                -3.021
REMARK SMILES CCCCCCCCC=CCCCCCCCC(=O)[O-]
REMARK SMILES IDX 10 1 9 2 11 3 12 4 13 5 14 6 15 7 16 8 17 9 18 10 19 11
REMARK SMILES IDX 20 12 8 13 7 14 6 15 5 16 4 17 3 18 2 19 1 20
REMARK H PARENT
REMARK Flexibility Score: inf
ROOT
ATOM      1  C   UNL     1     -30.287  49.404  -0.602  1.00  0.00    -0.031 C 
ATOM      2  C   UNL     1     -29.423  49.053  -1.573  1.00  0.00    -0.031 C 
ENDROOT
BRANCH   1   3
ATOM      3  C   UNL     1     -31.607  48.721  -0.336  1.00  0.00     0.027 C 
BRANCH   3   4
ATOM      4  C   UNL     1     -31.710  48.195   1.107  1.00  0.00     0.004 C 
BRANCH   4   5
ATOM      5  C   UNL     1     -32.492  46.877   1.248  1.00  0.00     0.000 C 
BRANCH   5   6
ATOM      6  C   UNL     1     -31.795  45.691   0.567  1.00  0.00     0.000 C 
BRANCH   6   7
ATOM      7  C   UNL     1     -32.279  44.358   1.155  1.00  0.00     0.000 C 
BRANCH   7   8
ATOM      8  C   UNL     1     -32.238  44.332   2.694  1.00  0.00     0.006 C 
BRANCH   8   9
ATOM      9  C   UNL     1     -30.822  44.289   3.290  1.00  0.00     0.053 C 
BRANCH   9  10
ATOM     10  C   UNL     1     -30.700  45.140   4.517  1.00  0.00     0.041 C 
ATOM     11  O   UNL     1     -30.348  44.626   5.611  1.00  0.00    -0.550 OA
ATOM     12  O   UNL     1     -31.011  46.492   4.459  1.00  0.00    -0.550 OA
ENDBRANCH   9  10
ENDBRANCH   8   9
ENDBRANCH   7   8
ENDBRANCH   6   7
ENDBRANCH   5   6
ENDBRANCH   4   5
ENDBRANCH   3   4
ENDBRANCH   1   3
BRANCH   2  13
ATOM     13  C   UNL     1     -29.585  47.859  -2.480  1.00  0.00     0.027 C 
BRANCH  13  14
ATOM     14  C   UNL     1     -28.601  46.727  -2.134  1.00  0.00     0.004 C 
BRANCH  14  15
ATOM     15  C   UNL     1     -29.001  45.894  -0.902  1.00  0.00     0.000 C 
BRANCH  15  16
ATOM     16  C   UNL     1     -27.790  45.341  -0.136  1.00  0.00     0.000 C 
BRANCH  16  17
ATOM     17  C   UNL     1     -27.250  46.378   0.858  1.00  0.00    -0.000 C 
BRANCH  17  18
ATOM     18  C   UNL     1     -28.341  46.820   1.841  1.00  0.00    -0.000 C 
BRANCH  18  19
ATOM     19  C   UNL     1     -28.157  48.289   2.241  1.00  0.00    -0.003 C 
ATOM     20  C   UNL     1     -27.097  48.967   1.377  1.00  0.00     0.004 C 
ENDBRANCH  18  19
ENDBRANCH  17  18
ENDBRANCH  16  17
ENDBRANCH  15  16
ENDBRANCH  14  15
ENDBRANCH  13  14
ENDBRANCH   2  13
TORSDOF 15
ENDMDL
MODEL 7
REMARK VINA RESULT:    -4.499      2.133      3.365
REMARK INTER + INTRA:         -11.464
REMARK INTER:                  -8.608
REMARK INTRA:                  -2.856
REMARK UNBOUND:                -3.021
REMARK SMILES CCCCCCCCC=CCCCCCCCC(=O)[O-]
REMARK SMILES IDX 10 1 9 2 11 3 12 4 13 5 14 6 15 7 16 8 17 9 18 10 19 11
REMARK SMILES IDX 20 12 8 13 7 14 6 15 5 16 4 17 3 18 2 19 1 20
REMARK H PARENT
REMARK Flexibility Score: inf
ROOT
ATOM      1  C   UNL     1     -31.104  48.755   0.758  1.00  0.00    -0.031 C 
ATOM      2  C   UNL     1     -31.345  47.585   1.379  1.00  0.00    -0.031 C 
ENDROOT
BRANCH   1   3
ATOM      3  C   UNL     1     -31.599  49.115  -0.622  1.00  0.00     0.027 C 
BRANCH   3   4
ATOM      4  C   UNL     1     -30.465  49.613  -1.536  1.00  0.00     0.004 C 
BRANCH   4   5
ATOM      5  C   UNL     1     -29.214  48.716  -1.542  1.00  0.00     0.000 C 
BRANCH   5   6
ATOM      6  C   UNL     1     -29.445  47.370  -2.244  1.00  0.00     0.000 C 
BRANCH   6   7
ATOM      7  C   UNL     1     -28.965  46.204  -1.368  1.00  0.00     0.000 C 
BRANCH   7   8
ATOM      8  C   UNL     1     -27.727  46.559  -0.525  1.00  0.00     0.006 C 
BRANCH   8   9
ATOM      9  C   UNL     1     -27.881  46.278   0.978  1.00  0.00     0.053 C 
BRANCH   9  10
ATOM     10  C   UNL     1     -27.223  47.329   1.818  1.00  0.00     0.041 C 
ATOM     11  O   UNL     1     -27.810  48.422   2.039  1.00  0.00    -0.550 OA
ATOM     12  O   UNL     1     -25.949  47.117   2.328  1.00  0.00    -0.550 OA
ENDBRANCH   9  10
ENDBRANCH   8   9
ENDBRANCH   7   8
ENDBRANCH   6   7
ENDBRANCH   5   6
ENDBRANCH   4   5
ENDBRANCH   3   4
ENDBRANCH   1   3
BRANCH   2  13
ATOM     13  C   UNL     1     -32.233  46.491   0.840  1.00  0.00     0.027 C 
BRANCH  13  14
ATOM     14  C   UNL     1     -32.281  45.268   1.773  1.00  0.00     0.004 C 
BRANCH  14  15
ATOM     15  C   UNL     1     -31.007  44.403   1.751  1.00  0.00     0.000 C 
BRANCH  15  16
ATOM     16  C   UNL     1     -30.241  44.432   3.082  1.00  0.00     0.000 C 
BRANCH  16  17
ATOM     17  C   UNL     1     -31.207  44.565   4.267  1.00  0.00    -0.000 C 
BRANCH  17  18
ATOM     18  C   UNL     1     -30.871  45.797   5.116  1.00  0.00    -0.000 C 
BRANCH  18  19
ATOM     19  C   UNL     1     -29.700  46.578   4.510  1.00  0.00    -0.003 C 
ATOM     20  C   UNL     1     -28.649  46.906   5.567  1.00  0.00     0.004 C 
ENDBRANCH  18  19
ENDBRANCH  17  18
ENDBRANCH  16  17
ENDBRANCH  15  16
ENDBRANCH  14  15
ENDBRANCH  13  14
ENDBRANCH   2  13
TORSDOF 15
ENDMDL
MODEL 8
REMARK VINA RESULT:    -4.491      2.312      3.618
REMARK INTER + INTRA:         -11.451
REMARK INTER:                  -9.032
REMARK INTRA:                  -2.419
REMARK UNBOUND:                -3.021
REMARK SMILES CCCCCCCCC=CCCCCCCCC(=O)[O-]
REMARK SMILES IDX 10 1 9 2 11 3 12 4 13 5 14 6 15 7 16 8 17 9 18 10 19 11
REMARK SMILES IDX 20 12 8 13 7 14 6 15 5 16 4 17 3 18 2 19 1 20
REMARK H PARENT
REMARK Flexibility Score: inf
ROOT
ATOM      1  C   UNL     1     -32.651  48.414   0.970  1.00  0.00    -0.031 C 
ATOM      2  C   UNL     1     -32.268  47.174   1.328  1.00  0.00    -0.031 C 
ENDROOT
BRANCH   1   3
ATOM      3  C   UNL     1     -32.150  49.152  -0.248  1.00  0.00     0.027 C 
BRANCH   3   4
ATOM      4  C   UNL     1     -30.995  50.112   0.086  1.00  0.00     0.004 C 
BRANCH   4   5
ATOM      5  C   UNL     1     -29.653  49.745  -0.573  1.00  0.00     0.000 C 
BRANCH   5   6
ATOM      6  C   UNL     1     -29.783  49.453  -2.074  1.00  0.00     0.000 C 
BRANCH   6   7
ATOM      7  C   UNL     1     -29.601  47.955  -2.360  1.00  0.00     0.000 C 
BRANCH   7   8
ATOM      8  C   UNL     1     -28.567  47.290  -1.432  1.00  0.00     0.006 C 
BRANCH   8   9
ATOM      9  C   UNL     1     -28.205  45.847  -1.817  1.00  0.00     0.053 C 
BRANCH   9  10
ATOM     10  C   UNL     1     -27.479  45.136  -0.717  1.00  0.00     0.041 C 
ATOM     11  O   UNL     1     -27.671  45.465   0.484  1.00  0.00    -0.550 OA
ATOM     12  O   UNL     1     -26.564  44.136  -1.019  1.00  0.00    -0.550 OA
ENDBRANCH   9  10
ENDBRANCH   8   9
ENDBRANCH   7   8
ENDBRANCH   6   7
ENDBRANCH   5   6
ENDBRANCH   4   5
ENDBRANCH   3   4
ENDBRANCH   1   3
BRANCH   2  13
ATOM     13  C   UNL     1     -31.360  46.284   0.513  1.00  0.00     0.027 C 
BRANCH  13  14
ATOM     14  C   UNL     1     -31.400  44.821   0.989  1.00  0.00     0.004 C 
BRANCH  14  15
ATOM     15  C   UNL     1     -32.604  44.480   1.888  1.00  0.00     0.000 C 
BRANCH  15  16
ATOM     16  C   UNL     1     -32.187  43.930   3.261  1.00  0.00     0.000 C 
BRANCH  16  17
ATOM     17  C   UNL     1     -30.869  44.562   3.727  1.00  0.00    -0.000 C 
BRANCH  17  18
ATOM     18  C   UNL     1     -31.113  45.590   4.839  1.00  0.00    -0.000 C 
BRANCH  18  19
ATOM     19  C   UNL     1     -30.251  46.840   4.630  1.00  0.00    -0.003 C 
ATOM     20  C   UNL     1     -29.247  46.634   3.499  1.00  0.00     0.004 C 
ENDBRANCH  18  19
ENDBRANCH  17  18
ENDBRANCH  16  17
ENDBRANCH  15  16
ENDBRANCH  14  15
ENDBRANCH  13  14
ENDBRANCH   2  13
TORSDOF 15
ENDMDL
MODEL 9
REMARK VINA RESULT:    -4.445      2.122      5.044
REMARK INTER + INTRA:         -11.363
REMARK INTER:                  -8.528
REMARK INTRA:                  -2.835
REMARK UNBOUND:                -3.021
REMARK SMILES CCCCCCCCC=CCCCCCCCC(=O)[O-]
REMARK SMILES IDX 10 1 9 2 11 3 12 4 13 5 14 6 15 7 16 8 17 9 18 10 19 11
REMARK SMILES IDX 20 12 8 13 7 14 6 15 5 16 4 17 3 18 2 19 1 20
REMARK H PARENT
REMARK Flexibility Score: inf
ROOT
ATOM      1  C   UNL     1     -30.403  44.691   3.644  1.00  0.00    -0.031 C 
ATOM      2  C   UNL     1     -30.793  44.382   2.394  1.00  0.00    -0.031 C 
ENDROOT
BRANCH   1   3
ATOM      3  C   UNL     1     -31.103  45.679   4.546  1.00  0.00     0.027 C 
BRANCH   3   4
ATOM      4  C   UNL     1     -30.314  46.992   4.695  1.00  0.00     0.004 C 
BRANCH   4   5
ATOM      5  C   UNL     1     -28.867  46.927   4.172  1.00  0.00     0.000 C 
BRANCH   5   6
ATOM      6  C   UNL     1     -28.578  47.966   3.079  1.00  0.00     0.000 C 
BRANCH   6   7
ATOM      7  C   UNL     1     -27.578  47.417   2.051  1.00  0.00     0.000 C 
BRANCH   7   8
ATOM      8  C   UNL     1     -28.266  46.802   0.818  1.00  0.00     0.006 C 
BRANCH   8   9
ATOM      9  C   UNL     1     -27.808  45.374   0.482  1.00  0.00     0.053 C 
BRANCH   9  10
ATOM     10  C   UNL     1     -27.469  45.217  -0.969  1.00  0.00     0.041 C 
ATOM     11  O   UNL     1     -26.750  44.257  -1.351  1.00  0.00    -0.550 OA
ATOM     12  O   UNL     1     -27.919  46.152  -1.893  1.00  0.00    -0.550 OA
ENDBRANCH   9  10
ENDBRANCH   8   9
ENDBRANCH   7   8
ENDBRANCH   6   7
ENDBRANCH   5   6
ENDBRANCH   4   5
ENDBRANCH   3   4
ENDBRANCH   1   3
BRANCH   2  13
ATOM     13  C   UNL     1     -32.050  44.893   1.733  1.00  0.00     0.027 C 
BRANCH  13  14
ATOM     14  C   UNL     1     -31.772  46.081   0.795  1.00  0.00     0.004 C 
BRANCH  14  15
ATOM     15  C   UNL     1     -32.238  47.443   1.342  1.00  0.00     0.000 C 
BRANCH  15  16
ATOM     16  C   UNL     1     -31.379  48.613   0.840  1.00  0.00     0.000 C 
BRANCH  16  17
ATOM     17  C   UNL     1     -31.677  48.921  -0.633  1.00  0.00    -0.000 C 
BRANCH  17  18
ATOM     18  C   UNL     1     -30.426  48.731  -1.500  1.00  0.00    -0.000 C 
BRANCH  18  19
ATOM     19  C   UNL     1     -29.732  50.072  -1.762  1.00  0.00    -0.003 C 
ATOM     20  C   UNL     1     -28.234  49.981  -1.485  1.00  0.00     0.004 C 
ENDBRANCH  18  19
ENDBRANCH  17  18
ENDBRANCH  16  17
ENDBRANCH  15  16
ENDBRANCH  14  15
ENDBRANCH  13  14
ENDBRANCH   2  13
TORSDOF 15
ENDMDL
