MODEL 1
REMARK VINA RESULT:    -2.573      0.000      0.000
REMARK INTER + INTRA:          -5.782
REMARK INTER:                  -4.980
REMARK INTRA:                  -0.802
REMARK UNBOUND:                -0.802
REMARK SMILES CCCCCCCCCCCCCCCCCC(=O)[O-]
REMARK SMILES IDX 10 1 11 2 12 3 13 4 14 5 15 6 16 7 17 8 18 9 19 10 20 11
REMARK SMILES IDX 9 12 8 13 7 14 6 15 5 16 4 17 3 18 2 19 1 20
REMARK H PARENT
REMARK Flexibility Score: inf
ROOT
ATOM      1  C   UNL     1      -6.490 -22.359  18.762  1.00  0.00     0.000 C 
ENDROOT
BRANCH   1   2
ATOM      2  C   UNL     1      -5.744 -22.021  17.455  1.00  0.00     0.000 C 
BRANCH   2   3
ATOM      3  C   UNL     1      -4.802 -23.125  16.937  1.00  0.00     0.000 C 
BRANCH   3   4
ATOM      4  C   UNL     1      -3.775 -22.664  15.882  1.00  0.00     0.000 C 
BRANCH   4   5
ATOM      5  C   UNL     1      -2.316 -23.061  16.174  1.00  0.00     0.000 C 
BRANCH   5   6
ATOM      6  C   UNL     1      -1.341 -21.878  16.057  1.00  0.00     0.000 C 
BRANCH   6   7
ATOM      7  C   UNL     1       0.115 -22.284  16.342  1.00  0.00     0.006 C 
BRANCH   7   8
ATOM      8  C   UNL     1       0.727 -23.125  15.215  1.00  0.00     0.053 C 
BRANCH   8   9
ATOM      9  C   UNL     1       2.160 -22.751  15.005  1.00  0.00     0.041 C 
ATOM     10  O   UNL     1       2.642 -22.714  13.842  1.00  0.00    -0.550 OA
ATOM     11  O   UNL     1       2.979 -22.492  16.097  1.00  0.00    -0.550 OA
ENDBRANCH   8   9
ENDBRANCH   7   8
ENDBRANCH   6   7
ENDBRANCH   5   6
ENDBRANCH   4   5
ENDBRANCH   3   4
ENDBRANCH   2   3
ENDBRANCH   1   2
BRANCH   1  12
ATOM     12  C   UNL     1      -7.826 -23.101  18.582  1.00  0.00     0.000 C 
BRANCH  12  13
ATOM     13  C   UNL     1      -8.831 -22.323  17.716  1.00  0.00    -0.000 C 
BRANCH  13  14
ATOM     14  C   UNL     1      -9.868 -21.550  18.550  1.00  0.00    -0.000 C 
BRANCH  14  15
ATOM     15  C   UNL     1      -9.912 -21.918  20.046  1.00  0.00    -0.000 C 
BRANCH  15  16
ATOM     16  C   UNL     1     -10.456 -20.817  20.977  1.00  0.00    -0.000 C 
BRANCH  16  17
ATOM     17  C   UNL     1     -10.884 -19.531  20.237  1.00  0.00    -0.000 C 
BRANCH  17  18
ATOM     18  C   UNL     1     -10.811 -18.284  21.135  1.00  0.00    -0.000 C 
BRANCH  18  19
ATOM     19  C   UNL     1     -10.360 -18.615  22.566  1.00  0.00    -0.003 C 
ATOM     20  C   UNL     1      -9.147 -17.794  23.005  1.00  0.00     0.004 C 
ENDBRANCH  18  19
ENDBRANCH  17  18
ENDBRANCH  16  17
ENDBRANCH  15  16
ENDBRANCH  14  15
ENDBRANCH  13  14
ENDBRANCH  12  13
ENDBRANCH   1  12
TORSDOF 16
ENDMDL
MODEL 2
REMARK VINA RESULT:    -2.527      4.942      6.857
REMARK INTER + INTRA:          -5.693
REMARK INTER:                  -4.517
REMARK INTRA:                  -1.176
REMARK UNBOUND:                -0.802
REMARK SMILES CCCCCCCCCCCCCCCCCC(=O)[O-]
REMARK SMILES IDX 10 1 11 2 12 3 13 4 14 5 15 6 16 7 17 8 18 9 19 10 20 11
REMARK SMILES IDX 9 12 8 13 7 14 6 15 5 16 4 17 3 18 2 19 1 20
REMARK H PARENT
REMARK Flexibility Score: inf
ROOT
ATOM      1  C   UNL     1      -5.529 -22.348  19.315  1.00  0.00     0.000 C 
ENDROOT
BRANCH   1   2
ATOM      2  C   UNL     1      -5.414 -23.066  17.954  1.00  0.00     0.000 C 
BRANCH   2   3
ATOM      3  C   UNL     1      -6.202 -22.411  16.803  1.00  0.00     0.000 C 
BRANCH   3   4
ATOM      4  C   UNL     1      -7.676 -22.852  16.688  1.00  0.00     0.000 C 
BRANCH   4   5
ATOM      5  C   UNL     1      -8.684 -21.963  17.439  1.00  0.00     0.000 C 
BRANCH   5   6
ATOM      6  C   UNL     1     -10.095 -22.573  17.491  1.00  0.00     0.000 C 
BRANCH   6   7
ATOM      7  C   UNL     1     -11.124 -21.746  16.704  1.00  0.00     0.006 C 
BRANCH   7   8
ATOM      8  C   UNL     1     -10.586 -20.368  16.293  1.00  0.00     0.053 C 
BRANCH   8   9
ATOM      9  C   UNL     1     -10.144 -20.387  14.864  1.00  0.00     0.041 C 
ATOM     10  O   UNL     1      -8.924 -20.268  14.576  1.00  0.00    -0.550 OA
ATOM     11  O   UNL     1     -11.084 -20.484  13.846  1.00  0.00    -0.550 OA
ENDBRANCH   8   9
ENDBRANCH   7   8
ENDBRANCH   6   7
ENDBRANCH   5   6
ENDBRANCH   4   5
ENDBRANCH   3   4
ENDBRANCH   2   3
ENDBRANCH   1   2
BRANCH   1  12
ATOM     12  C   UNL     1      -6.303 -23.120  20.399  1.00  0.00     0.000 C 
BRANCH  12  13
ATOM     13  C   UNL     1      -7.826 -23.080  20.190  1.00  0.00    -0.000 C 
BRANCH  13  14
ATOM     14  C   UNL     1      -8.572 -22.389  21.346  1.00  0.00    -0.000 C 
BRANCH  14  15
ATOM     15  C   UNL     1     -10.026 -21.983  21.038  1.00  0.00    -0.000 C 
BRANCH  15  16
ATOM     16  C   UNL     1     -10.202 -20.564  20.465  1.00  0.00    -0.000 C 
BRANCH  16  17
ATOM     17  C   UNL     1     -11.113 -19.656  21.320  1.00  0.00    -0.000 C 
BRANCH  17  18
ATOM     18  C   UNL     1     -11.013 -18.175  20.915  1.00  0.00    -0.000 C 
BRANCH  18  19
ATOM     19  C   UNL     1      -9.734 -17.505  21.441  1.00  0.00    -0.003 C 
ATOM     20  C   UNL     1      -9.458 -17.834  22.909  1.00  0.00     0.004 C 
ENDBRANCH  18  19
ENDBRANCH  17  18
ENDBRANCH  16  17
ENDBRANCH  15  16
ENDBRANCH  14  15
ENDBRANCH  13  14
ENDBRANCH  12  13
ENDBRANCH   1  12
TORSDOF 16
ENDMDL
MODEL 3
REMARK VINA RESULT:    -2.387      5.679      8.945
REMARK INTER + INTRA:          -5.422
REMARK INTER:                  -4.190
REMARK INTRA:                  -1.232
REMARK UNBOUND:                -0.802
REMARK SMILES CCCCCCCCCCCCCCCCCC(=O)[O-]
REMARK SMILES IDX 10 1 11 2 12 3 13 4 14 5 15 6 16 7 17 8 18 9 19 10 20 11
REMARK SMILES IDX 9 12 8 13 7 14 6 15 5 16 4 17 3 18 2 19 1 20
REMARK H PARENT
REMARK Flexibility Score: inf
ROOT
ATOM      1  C   UNL     1      -6.804 -23.125  19.856  1.00  0.00     0.000 C 
ENDROOT
BRANCH   1   2
ATOM      2  C   UNL     1      -8.138 -22.600  19.286  1.00  0.00     0.000 C 
BRANCH   2   3
ATOM      3  C   UNL     1      -9.180 -22.184  20.342  1.00  0.00     0.000 C 
BRANCH   3   4
ATOM      4  C   UNL     1      -9.028 -22.871  21.715  1.00  0.00     0.000 C 
BRANCH   4   5
ATOM      5  C   UNL     1     -10.337 -23.048  22.505  1.00  0.00     0.000 C 
BRANCH   5   6
ATOM      6  C   UNL     1     -10.627 -21.871  23.451  1.00  0.00     0.000 C 
BRANCH   6   7
ATOM      7  C   UNL     1      -9.788 -20.626  23.117  1.00  0.00     0.006 C 
BRANCH   7   8
ATOM      8  C   UNL     1     -10.646 -19.370  22.917  1.00  0.00     0.053 C 
BRANCH   8   9
ATOM      9  C   UNL     1      -9.875 -18.326  22.173  1.00  0.00     0.041 C 
ATOM     10  O   UNL     1      -9.890 -18.303  20.914  1.00  0.00    -0.550 OA
ATOM     11  O   UNL     1      -9.098 -17.408  22.868  1.00  0.00    -0.550 OA
ENDBRANCH   8   9
ENDBRANCH   7   8
ENDBRANCH   6   7
ENDBRANCH   5   6
ENDBRANCH   4   5
ENDBRANCH   3   4
ENDBRANCH   2   3
ENDBRANCH   1   2
BRANCH   1  12
ATOM     12  C   UNL     1      -5.559 -22.810  19.006  1.00  0.00     0.000 C 
BRANCH  12  13
ATOM     13  C   UNL     1      -5.883 -21.971  17.758  1.00  0.00    -0.000 C 
BRANCH  13  14
ATOM     14  C   UNL     1      -5.877 -22.799  16.461  1.00  0.00    -0.000 C 
BRANCH  14  15
ATOM     15  C   UNL     1      -7.029 -22.494  15.484  1.00  0.00    -0.000 C 
BRANCH  15  16
ATOM     16  C   UNL     1      -8.155 -21.611  16.054  1.00  0.00    -0.000 C 
BRANCH  16  17
ATOM     17  C   UNL     1      -8.907 -20.792  14.982  1.00  0.00    -0.000 C 
BRANCH  17  18
ATOM     18  C   UNL     1     -10.246 -20.238  15.497  1.00  0.00    -0.000 C 
BRANCH  18  19
ATOM     19  C   UNL     1     -10.800 -21.044  16.683  1.00  0.00    -0.003 C 
ATOM     20  C   UNL     1     -11.088 -20.171  17.904  1.00  0.00     0.004 C 
ENDBRANCH  18  19
ENDBRANCH  17  18
ENDBRANCH  16  17
ENDBRANCH  15  16
ENDBRANCH  14  15
ENDBRANCH  13  14
ENDBRANCH  12  13
ENDBRANCH   1  12
TORSDOF 16
ENDMDL
MODEL 4
REMARK VINA RESULT:    -2.078      3.113      6.395
REMARK INTER + INTRA:          -4.823
REMARK INTER:                  -4.355
REMARK INTRA:                  -0.468
REMARK UNBOUND:                -0.802
REMARK SMILES CCCCCCCCCCCCCCCCCC(=O)[O-]
REMARK SMILES IDX 10 1 11 2 12 3 13 4 14 5 15 6 16 7 17 8 18 9 19 10 20 11
REMARK SMILES IDX 9 12 8 13 7 14 6 15 5 16 4 17 3 18 2 19 1 20
REMARK H PARENT
REMARK Flexibility Score: inf
ROOT
ATOM      1  C   UNL     1      -0.325 -22.121  16.386  1.00  0.00     0.000 C 
ENDROOT
BRANCH   1   2
ATOM      2  C   UNL     1       0.499 -23.082  15.505  1.00  0.00     0.000 C 
BRANCH   2   3
ATOM      3  C   UNL     1       2.007 -22.770  15.433  1.00  0.00     0.000 C 
BRANCH   3   4
ATOM      4  C   UNL     1       2.682 -23.121  14.091  1.00  0.00     0.000 C 
BRANCH   4   5
ATOM      5  C   UNL     1       4.221 -23.067  14.101  1.00  0.00     0.000 C 
BRANCH   5   6
ATOM      6  C   UNL     1       4.823 -22.946  12.691  1.00  0.00     0.000 C 
BRANCH   6   7
ATOM      7  C   UNL     1       6.292 -22.493  12.715  1.00  0.00     0.006 C 
BRANCH   7   8
ATOM      8  C   UNL     1       6.905 -22.545  14.121  1.00  0.00     0.053 C 
BRANCH   8   9
ATOM      9  C   UNL     1       7.970 -21.504  14.264  1.00  0.00     0.041 C 
ATOM     10  O   UNL     1       8.593 -21.380  15.351  1.00  0.00    -0.550 OA
ATOM     11  O   UNL     1       8.241 -20.637  13.214  1.00  0.00    -0.550 OA
ENDBRANCH   8   9
ENDBRANCH   7   8
ENDBRANCH   6   7
ENDBRANCH   5   6
ENDBRANCH   4   5
ENDBRANCH   3   4
ENDBRANCH   2   3
ENDBRANCH   1   2
BRANCH   1  12
ATOM     12  C   UNL     1      -1.699 -21.723  15.815  1.00  0.00     0.000 C 
BRANCH  12  13
ATOM     13  C   UNL     1      -2.762 -22.819  15.996  1.00  0.00    -0.000 C 
BRANCH  13  14
ATOM     14  C   UNL     1      -4.199 -22.265  16.006  1.00  0.00    -0.000 C 
BRANCH  14  15
ATOM     15  C   UNL     1      -5.228 -23.125  16.764  1.00  0.00    -0.000 C 
BRANCH  15  16
ATOM     16  C   UNL     1      -6.617 -22.482  16.939  1.00  0.00    -0.000 C 
BRANCH  16  17
ATOM     17  C   UNL     1      -7.078 -22.389  18.410  1.00  0.00    -0.000 C 
BRANCH  17  18
ATOM     18  C   UNL     1      -8.491 -21.794  18.547  1.00  0.00    -0.000 C 
BRANCH  18  19
ATOM     19  C   UNL     1      -9.503 -22.456  17.598  1.00  0.00    -0.003 C 
ATOM     20  C   UNL     1     -10.797 -21.653  17.465  1.00  0.00     0.004 C 
ENDBRANCH  18  19
ENDBRANCH  17  18
ENDBRANCH  16  17
ENDBRANCH  15  16
ENDBRANCH  14  15
ENDBRANCH  13  14
ENDBRANCH  12  13
ENDBRANCH   1  12
TORSDOF 16
ENDMDL
MODEL 5
REMARK VINA RESULT:    -1.941      3.006      5.403
REMARK INTER + INTRA:          -4.559
REMARK INTER:                  -4.093
REMARK INTRA:                  -0.467
REMARK UNBOUND:                -0.802
REMARK SMILES CCCCCCCCCCCCCCCCCC(=O)[O-]
REMARK SMILES IDX 10 1 11 2 12 3 13 4 14 5 15 6 16 7 17 8 18 9 19 10 20 11
REMARK SMILES IDX 9 12 8 13 7 14 6 15 5 16 4 17 3 18 2 19 1 20
REMARK H PARENT
REMARK Flexibility Score: inf
ROOT
ATOM      1  C   UNL     1      -1.819 -22.744  16.359  1.00  0.00     0.000 C 
ENDROOT
BRANCH   1   2
ATOM      2  C   UNL     1      -0.673 -22.957  15.349  1.00  0.00     0.000 C 
BRANCH   2   3
ATOM      3  C   UNL     1       0.675 -22.326  15.749  1.00  0.00     0.000 C 
BRANCH   3   4
ATOM      4  C   UNL     1       1.923 -23.112  15.296  1.00  0.00     0.000 C 
BRANCH   4   5
ATOM      5  C   UNL     1       2.494 -22.699  13.927  1.00  0.00     0.000 C 
BRANCH   5   6
ATOM      6  C   UNL     1       3.960 -23.125  13.738  1.00  0.00     0.000 C 
BRANCH   6   7
ATOM      7  C   UNL     1       4.766 -23.056  15.046  1.00  0.00     0.006 C 
BRANCH   7   8
ATOM      8  C   UNL     1       6.282 -23.077  14.808  1.00  0.00     0.053 C 
BRANCH   8   9
ATOM      9  C   UNL     1       6.991 -22.345  15.904  1.00  0.00     0.041 C 
ATOM     10  O   UNL     1       6.368 -21.519  16.621  1.00  0.00    -0.550 OA
ATOM     11  O   UNL     1       8.353 -22.538  16.101  1.00  0.00    -0.550 OA
ENDBRANCH   8   9
ENDBRANCH   7   8
ENDBRANCH   6   7
ENDBRANCH   5   6
ENDBRANCH   4   5
ENDBRANCH   3   4
ENDBRANCH   2   3
ENDBRANCH   1   2
BRANCH   1  12
ATOM     12  C   UNL     1      -3.238 -22.866  15.775  1.00  0.00     0.000 C 
BRANCH  12  13
ATOM     13  C   UNL     1      -4.330 -22.903  16.858  1.00  0.00    -0.000 C 
BRANCH  13  14
ATOM     14  C   UNL     1      -5.652 -22.262  16.398  1.00  0.00    -0.000 C 
BRANCH  14  15
ATOM     15  C   UNL     1      -6.774 -22.247  17.453  1.00  0.00    -0.000 C 
BRANCH  15  16
ATOM     16  C   UNL     1      -8.201 -22.419  16.896  1.00  0.00    -0.000 C 
BRANCH  16  17
ATOM     17  C   UNL     1      -9.310 -21.981  17.877  1.00  0.00    -0.000 C 
BRANCH  17  18
ATOM     18  C   UNL     1     -10.667 -21.782  17.180  1.00  0.00    -0.000 C 
BRANCH  18  19
ATOM     19  C   UNL     1     -10.849 -20.354  16.642  1.00  0.00    -0.003 C 
ATOM     20  C   UNL     1     -10.738 -20.281  15.119  1.00  0.00     0.004 C 
ENDBRANCH  18  19
ENDBRANCH  17  18
ENDBRANCH  16  17
ENDBRANCH  15  16
ENDBRANCH  14  15
ENDBRANCH  13  14
ENDBRANCH  12  13
ENDBRANCH   1  12
TORSDOF 16
ENDMDL
MODEL 6
REMARK VINA RESULT:    -1.933      4.983     13.098
REMARK INTER + INTRA:          -4.543
REMARK INTER:                  -3.945
REMARK INTRA:                  -0.598
REMARK UNBOUND:                -0.802
REMARK SMILES CCCCCCCCCCCCCCCCCC(=O)[O-]
REMARK SMILES IDX 10 1 11 2 12 3 13 4 14 5 15 6 16 7 17 8 18 9 19 10 20 11
REMARK SMILES IDX 9 12 8 13 7 14 6 15 5 16 4 17 3 18 2 19 1 20
REMARK H PARENT
REMARK Flexibility Score: inf
ROOT
ATOM      1  C   UNL     1       1.366 -22.304  14.329  1.00  0.00     0.000 C 
ENDROOT
BRANCH   1   2
ATOM      2  C   UNL     1       0.263 -23.039  15.117  1.00  0.00     0.000 C 
BRANCH   2   3
ATOM      3  C   UNL     1      -0.549 -22.155  16.083  1.00  0.00     0.000 C 
BRANCH   3   4
ATOM      4  C   UNL     1      -1.876 -22.772  16.574  1.00  0.00     0.000 C 
BRANCH   4   5
ATOM      5  C   UNL     1      -3.140 -22.246  15.870  1.00  0.00     0.000 C 
BRANCH   5   6
ATOM      6  C   UNL     1      -4.422 -22.954  16.340  1.00  0.00     0.000 C 
BRANCH   6   7
ATOM      7  C   UNL     1      -5.651 -22.030  16.304  1.00  0.00     0.006 C 
BRANCH   7   8
ATOM      8  C   UNL     1      -6.975 -22.806  16.317  1.00  0.00     0.053 C 
BRANCH   8   9
ATOM      9  C   UNL     1      -7.870 -22.291  17.400  1.00  0.00     0.041 C 
ATOM     10  O   UNL     1      -7.470 -22.262  18.594  1.00  0.00    -0.550 OA
ATOM     11  O   UNL     1      -9.166 -21.890  17.100  1.00  0.00    -0.550 OA
ENDBRANCH   8   9
ENDBRANCH   7   8
ENDBRANCH   6   7
ENDBRANCH   5   6
ENDBRANCH   4   5
ENDBRANCH   3   4
ENDBRANCH   2   3
ENDBRANCH   1   2
BRANCH   1  12
ATOM     12  C   UNL     1       2.806 -22.738  14.656  1.00  0.00     0.000 C 
BRANCH  12  13
ATOM     13  C   UNL     1       3.678 -22.914  13.402  1.00  0.00    -0.000 C 
BRANCH  13  14
ATOM     14  C   UNL     1       5.167 -23.124  13.732  1.00  0.00    -0.000 C 
BRANCH  14  15
ATOM     15  C   UNL     1       6.155 -22.471  12.747  1.00  0.00    -0.000 C 
BRANCH  15  16
ATOM     16  C   UNL     1       7.637 -22.535  13.165  1.00  0.00    -0.000 C 
BRANCH  16  17
ATOM     17  C   UNL     1       8.120 -21.290  13.941  1.00  0.00    -0.000 C 
BRANCH  17  18
ATOM     18  C   UNL     1       8.752 -21.651  15.296  1.00  0.00    -0.000 C 
BRANCH  18  19
ATOM     19  C   UNL     1       7.791 -22.436  16.204  1.00  0.00    -0.003 C 
ATOM     20  C   UNL     1       7.455 -21.686  17.493  1.00  0.00     0.004 C 
ENDBRANCH  18  19
ENDBRANCH  17  18
ENDBRANCH  16  17
ENDBRANCH  15  16
ENDBRANCH  14  15
ENDBRANCH  13  14
ENDBRANCH  12  13
ENDBRANCH   1  12
TORSDOF 16
ENDMDL
MODEL 7
REMARK VINA RESULT:    -1.730      5.028     12.580
REMARK INTER + INTRA:          -4.150
REMARK INTER:                  -3.642
REMARK INTRA:                  -0.508
REMARK UNBOUND:                -0.802
REMARK SMILES CCCCCCCCCCCCCCCCCC(=O)[O-]
REMARK SMILES IDX 10 1 11 2 12 3 13 4 14 5 15 6 16 7 17 8 18 9 19 10 20 11
REMARK SMILES IDX 9 12 8 13 7 14 6 15 5 16 4 17 3 18 2 19 1 20
REMARK H PARENT
REMARK Flexibility Score: inf
ROOT
ATOM      1  C   UNL     1      -1.167 -23.079  16.235  1.00  0.00     0.000 C 
ENDROOT
BRANCH   1   2
ATOM      2  C   UNL     1      -2.503 -22.598  15.630  1.00  0.00     0.000 C 
BRANCH   2   3
ATOM      3  C   UNL     1      -3.761 -22.995  16.427  1.00  0.00     0.000 C 
BRANCH   3   4
ATOM      4  C   UNL     1      -4.924 -21.984  16.358  1.00  0.00     0.000 C 
BRANCH   4   5
ATOM      5  C   UNL     1      -6.324 -22.583  16.584  1.00  0.00     0.000 C 
BRANCH   5   6
ATOM      6  C   UNL     1      -6.991 -22.073  17.873  1.00  0.00     0.000 C 
BRANCH   6   7
ATOM      7  C   UNL     1      -8.436 -22.575  18.025  1.00  0.00     0.006 C 
BRANCH   7   8
ATOM      8  C   UNL     1      -9.135 -21.997  19.263  1.00  0.00     0.053 C 
BRANCH   8   9
ATOM      9  C   UNL     1     -10.046 -20.876  18.872  1.00  0.00     0.041 C 
ATOM     10  O   UNL     1     -10.170 -19.870  19.618  1.00  0.00    -0.550 OA
ATOM     11  O   UNL     1     -10.798 -20.966  17.707  1.00  0.00    -0.550 OA
ENDBRANCH   8   9
ENDBRANCH   7   8
ENDBRANCH   6   7
ENDBRANCH   5   6
ENDBRANCH   4   5
ENDBRANCH   3   4
ENDBRANCH   2   3
ENDBRANCH   1   2
BRANCH   1  12
ATOM     12  C   UNL     1       0.045 -23.000  15.290  1.00  0.00     0.000 C 
BRANCH  12  13
ATOM     13  C   UNL     1       1.280 -22.365  15.952  1.00  0.00    -0.000 C 
BRANCH  13  14
ATOM     14  C   UNL     1       2.606 -22.936  15.418  1.00  0.00    -0.000 C 
BRANCH  14  15
ATOM     15  C   UNL     1       2.744 -22.946  13.883  1.00  0.00    -0.000 C 
BRANCH  15  16
ATOM     16  C   UNL     1       4.181 -23.121  13.355  1.00  0.00    -0.000 C 
BRANCH  16  17
ATOM     17  C   UNL     1       5.272 -22.813  14.403  1.00  0.00    -0.000 C 
BRANCH  17  18
ATOM     18  C   UNL     1       6.634 -22.503  13.760  1.00  0.00    -0.000 C 
BRANCH  18  19
ATOM     19  C   UNL     1       6.504 -21.666  12.478  1.00  0.00    -0.003 C 
ATOM     20  C   UNL     1       7.600 -20.608  12.352  1.00  0.00     0.004 C 
ENDBRANCH  18  19
ENDBRANCH  17  18
ENDBRANCH  16  17
ENDBRANCH  15  16
ENDBRANCH  14  15
ENDBRANCH  13  14
ENDBRANCH  12  13
ENDBRANCH   1  12
TORSDOF 16
ENDMDL
MODEL 8
REMARK VINA RESULT:    -1.701      3.502      7.697
REMARK INTER + INTRA:          -4.093
REMARK INTER:                  -3.499
REMARK INTRA:                  -0.595
REMARK UNBOUND:                -0.802
REMARK SMILES CCCCCCCCCCCCCCCCCC(=O)[O-]
REMARK SMILES IDX 10 1 11 2 12 3 13 4 14 5 15 6 16 7 17 8 18 9 19 10 20 11
REMARK SMILES IDX 9 12 8 13 7 14 6 15 5 16 4 17 3 18 2 19 1 20
REMARK H PARENT
REMARK Flexibility Score: inf
ROOT
ATOM      1  C   UNL     1       1.545 -22.220  14.929  1.00  0.00     0.000 C 
ENDROOT
BRANCH   1   2
ATOM      2  C   UNL     1       2.438 -22.212  16.187  1.00  0.00     0.000 C 
BRANCH   2   3
ATOM      3  C   UNL     1       3.831 -22.845  16.004  1.00  0.00     0.000 C 
BRANCH   3   4
ATOM      4  C   UNL     1       4.341 -22.889  14.549  1.00  0.00     0.000 C 
BRANCH   4   5
ATOM      5  C   UNL     1       5.860 -23.082  14.395  1.00  0.00     0.000 C 
BRANCH   5   6
ATOM      6  C   UNL     1       6.652 -22.593  15.620  1.00  0.00     0.000 C 
BRANCH   6   7
ATOM      7  C   UNL     1       8.100 -22.210  15.271  1.00  0.00     0.006 C 
BRANCH   7   8
ATOM      8  C   UNL     1       8.319 -22.039  13.762  1.00  0.00     0.053 C 
BRANCH   8   9
ATOM      9  C   UNL     1       8.192 -20.598  13.377  1.00  0.00     0.041 C 
ATOM     10  O   UNL     1       8.559 -19.694  14.173  1.00  0.00    -0.550 OA
ATOM     11  O   UNL     1       7.623 -20.251  12.158  1.00  0.00    -0.550 OA
ENDBRANCH   8   9
ENDBRANCH   7   8
ENDBRANCH   6   7
ENDBRANCH   5   6
ENDBRANCH   4   5
ENDBRANCH   3   4
ENDBRANCH   2   3
ENDBRANCH   1   2
BRANCH   1  12
ATOM     12  C   UNL     1       0.241 -23.029  15.057  1.00  0.00     0.000 C 
BRANCH  12  13
ATOM     13  C   UNL     1      -0.859 -22.274  15.823  1.00  0.00    -0.000 C 
BRANCH  13  14
ATOM     14  C   UNL     1      -2.122 -23.125  16.050  1.00  0.00    -0.000 C 
BRANCH  14  15
ATOM     15  C   UNL     1      -3.452 -22.350  15.995  1.00  0.00    -0.000 C 
BRANCH  15  16
ATOM     16  C   UNL     1      -4.631 -23.018  16.729  1.00  0.00    -0.000 C 
BRANCH  16  17
ATOM     17  C   UNL     1      -5.992 -22.338  16.468  1.00  0.00    -0.000 C 
BRANCH  17  18
ATOM     18  C   UNL     1      -6.690 -21.901  17.767  1.00  0.00    -0.000 C 
BRANCH  18  19
ATOM     19  C   UNL     1      -7.827 -22.852  18.174  1.00  0.00    -0.003 C 
ATOM     20  C   UNL     1      -9.206 -22.202  18.064  1.00  0.00     0.004 C 
ENDBRANCH  18  19
ENDBRANCH  17  18
ENDBRANCH  16  17
ENDBRANCH  15  16
ENDBRANCH  14  15
ENDBRANCH  13  14
ENDBRANCH  12  13
ENDBRANCH   1  12
TORSDOF 16
ENDMDL
MODEL 9
REMARK VINA RESULT:    -1.575      4.058      8.312
REMARK INTER + INTRA:          -3.850
REMARK INTER:                  -3.332
REMARK INTRA:                  -0.517
REMARK UNBOUND:                -0.802
REMARK SMILES CCCCCCCCCCCCCCCCCC(=O)[O-]
REMARK SMILES IDX 10 1 11 2 12 3 13 4 14 5 15 6 16 7 17 8 18 9 19 10 20 11
REMARK SMILES IDX 9 12 8 13 7 14 6 15 5 16 4 17 3 18 2 19 1 20
REMARK H PARENT
REMARK Flexibility Score: inf
ROOT
ATOM      1  C   UNL     1       1.915 -23.125  15.344  1.00  0.00     0.000 C 
ENDROOT
BRANCH   1   2
ATOM      2  C   UNL     1       3.004 -22.412  14.517  1.00  0.00     0.000 C 
BRANCH   2   3
ATOM      3  C   UNL     1       4.442 -22.909  14.766  1.00  0.00     0.000 C 
BRANCH   3   4
ATOM      4  C   UNL     1       5.446 -22.593  13.638  1.00  0.00     0.000 C 
BRANCH   4   5
ATOM      5  C   UNL     1       6.900 -23.008  13.923  1.00  0.00     0.000 C 
BRANCH   5   6
ATOM      6  C   UNL     1       7.926 -21.995  13.388  1.00  0.00     0.000 C 
BRANCH   6   7
ATOM      7  C   UNL     1       7.370 -21.149  12.231  1.00  0.00     0.006 C 
BRANCH   7   8
ATOM      8  C   UNL     1       8.314 -21.108  11.021  1.00  0.00     0.053 C 
BRANCH   8   9
ATOM      9  C   UNL     1       7.894 -22.117   9.999  1.00  0.00     0.041 C 
ATOM     10  O   UNL     1       8.625 -22.351   9.001  1.00  0.00    -0.550 OA
ATOM     11  O   UNL     1       6.671 -22.764  10.121  1.00  0.00    -0.550 OA
ENDBRANCH   8   9
ENDBRANCH   7   8
ENDBRANCH   6   7
ENDBRANCH   5   6
ENDBRANCH   4   5
ENDBRANCH   3   4
ENDBRANCH   2   3
ENDBRANCH   1   2
BRANCH   1  12
ATOM     12  C   UNL     1       0.654 -22.288  15.628  1.00  0.00     0.000 C 
BRANCH  12  13
ATOM     13  C   UNL     1      -0.648 -23.084  15.439  1.00  0.00    -0.000 C 
BRANCH  13  14
ATOM     14  C   UNL     1      -1.735 -22.705  16.462  1.00  0.00    -0.000 C 
BRANCH  14  15
ATOM     15  C   UNL     1      -3.087 -22.285  15.855  1.00  0.00    -0.000 C 
BRANCH  15  16
ATOM     16  C   UNL     1      -4.312 -23.055  16.385  1.00  0.00    -0.000 C 
BRANCH  16  17
ATOM     17  C   UNL     1      -5.604 -22.211  16.438  1.00  0.00    -0.000 C 
BRANCH  17  18
ATOM     18  C   UNL     1      -6.272 -22.245  17.822  1.00  0.00    -0.000 C 
BRANCH  18  19
ATOM     19  C   UNL     1      -7.789 -22.476  17.739  1.00  0.00    -0.003 C 
ATOM     20  C   UNL     1      -8.459 -22.488  19.113  1.00  0.00     0.004 C 
ENDBRANCH  18  19
ENDBRANCH  17  18
ENDBRANCH  16  17
ENDBRANCH  15  16
ENDBRANCH  14  15
ENDBRANCH  13  14
ENDBRANCH  12  13
ENDBRANCH   1  12
TORSDOF 16
ENDMDL
