MODEL 1
REMARK VINA RESULT:    -4.441      0.000      0.000
REMARK INTER + INTRA:          -5.382
REMARK INTER:                  -5.091
REMARK INTRA:                  -0.292
REMARK UNBOUND:                -0.292
REMARK SMILES O=C([O-])C=Cc1ccc(O)cc1
REMARK SMILES IDX 6 1 7 2 12 3 8 4 11 5 9 6 5 7 4 8 2 9 1 10 3 11 10 12
REMARK H PARENT 10 13
REMARK Flexibility Score: inf
ROOT
ATOM      1  C   UNL     1       5.123  16.816   2.604  1.00  0.00    -0.025 A 
ATOM      2  C   UNL     1       5.374  15.457   2.366  1.00  0.00     0.012 A 
ATOM      3  C   UNL     1       5.983  17.537   3.451  1.00  0.00     0.012 A 
ATOM      4  C   UNL     1       6.438  14.812   3.006  1.00  0.00     0.047 A 
ATOM      5  C   UNL     1       7.046  16.891   4.090  1.00  0.00     0.047 A 
ATOM      6  C   UNL     1       7.274  15.525   3.871  1.00  0.00     0.115 A 
ENDROOT
BRANCH   1   7
ATOM      7  C   UNL     1       4.027  17.487   1.876  1.00  0.00     0.010 C 
ATOM      8  C   UNL     1       2.766  17.614   2.316  1.00  0.00     0.025 C 
BRANCH   8   9
ATOM      9  C   UNL     1       2.203  16.946   3.506  1.00  0.00     0.064 C 
ATOM     10  O   UNL     1       1.669  15.814   3.381  1.00  0.00    -0.545 OA
ATOM     11  O   UNL     1       2.314  17.507   4.772  1.00  0.00    -0.545 OA
ENDBRANCH   8   9
ENDBRANCH   1   7
BRANCH   6  12
ATOM     12  O   UNL     1       8.329  14.871   4.504  1.00  0.00    -0.508 OA
ATOM     13  H   UNL     1       9.094  14.468   3.976  1.00  0.00     0.293 HD
ENDBRANCH   6  12
TORSDOF 3
ENDMDL
MODEL 2
REMARK VINA RESULT:    -4.400      1.470      4.588
REMARK INTER + INTRA:          -5.335
REMARK INTER:                  -5.217
REMARK INTRA:                  -0.118
REMARK UNBOUND:                -0.292
REMARK SMILES O=C([O-])C=Cc1ccc(O)cc1
REMARK SMILES IDX 6 1 7 2 12 3 8 4 11 5 9 6 5 7 4 8 2 9 1 10 3 11 10 12
REMARK H PARENT 10 13
REMARK Flexibility Score: inf
ROOT
ATOM      1  C   UNL     1       4.895  16.830   2.355  1.00  0.00    -0.025 A 
ATOM      2  C   UNL     1       3.898  17.753   2.007  1.00  0.00     0.012 A 
ATOM      3  C   UNL     1       4.532  15.636   3.004  1.00  0.00     0.012 A 
ATOM      4  C   UNL     1       2.562  17.512   2.347  1.00  0.00     0.047 A 
ATOM      5  C   UNL     1       3.197  15.397   3.344  1.00  0.00     0.047 A 
ATOM      6  C   UNL     1       2.209  16.337   3.019  1.00  0.00     0.115 A 
ENDROOT
BRANCH   1   7
ATOM      7  C   UNL     1       6.290  17.081   1.938  1.00  0.00     0.010 C 
ATOM      8  C   UNL     1       7.350  17.128   2.758  1.00  0.00     0.025 C 
BRANCH   8   9
ATOM      9  C   UNL     1       7.291  17.130   4.233  1.00  0.00     0.064 C 
ATOM     10  O   UNL     1       7.752  16.147   4.869  1.00  0.00    -0.545 OA
ATOM     11  O   UNL     1       6.803  18.223   4.939  1.00  0.00    -0.545 OA
ENDBRANCH   8   9
ENDBRANCH   1   7
BRANCH   6  12
ATOM     12  O   UNL     1       0.875  16.110   3.354  1.00  0.00    -0.508 OA
ATOM     13  H   UNL     1       0.133  16.699   2.997  1.00  0.00     0.293 HD
ENDBRANCH   6  12
TORSDOF 3
ENDMDL
MODEL 3
REMARK VINA RESULT:    -4.313     18.857     21.092
REMARK INTER + INTRA:          -5.236
REMARK INTER:                  -4.939
REMARK INTRA:                  -0.297
REMARK UNBOUND:                -0.292
REMARK SMILES O=C([O-])C=Cc1ccc(O)cc1
REMARK SMILES IDX 6 1 7 2 12 3 8 4 11 5 9 6 5 7 4 8 2 9 1 10 3 11 10 12
REMARK H PARENT 10 13
REMARK Flexibility Score: inf
ROOT
ATOM      1  C   UNL     1      18.231  21.119  18.877  1.00  0.00    -0.025 A 
ATOM      2  C   UNL     1      18.701  22.174  18.082  1.00  0.00     0.012 A 
ATOM      3  C   UNL     1      17.260  20.245  18.357  1.00  0.00     0.012 A 
ATOM      4  C   UNL     1      18.173  22.387  16.805  1.00  0.00     0.047 A 
ATOM      5  C   UNL     1      16.732  20.458  17.080  1.00  0.00     0.047 A 
ATOM      6  C   UNL     1      17.186  21.532  16.301  1.00  0.00     0.115 A 
ENDROOT
BRANCH   1   7
ATOM      7  C   UNL     1      18.843  20.883  20.202  1.00  0.00     0.010 C 
ATOM      8  C   UNL     1      18.323  21.268  21.376  1.00  0.00     0.025 C 
BRANCH   8   9
ATOM      9  C   UNL     1      17.156  22.156  21.547  1.00  0.00     0.064 C 
ATOM     10  O   UNL     1      17.317  23.402  21.486  1.00  0.00    -0.545 OA
ATOM     11  O   UNL     1      15.872  21.646  21.701  1.00  0.00    -0.545 OA
ENDBRANCH   8   9
ENDBRANCH   1   7
BRANCH   6  12
ATOM     12  O   UNL     1      16.666  21.756  15.028  1.00  0.00    -0.508 OA
ATOM     13  H   UNL     1      16.152  22.601  14.808  1.00  0.00     0.293 HD
ENDBRANCH   6  12
TORSDOF 3
ENDMDL
MODEL 4
REMARK VINA RESULT:    -3.930     10.051     11.691
REMARK INTER + INTRA:          -4.796
REMARK INTER:                  -4.553
REMARK INTRA:                  -0.242
REMARK UNBOUND:                -0.292
REMARK SMILES O=C([O-])C=Cc1ccc(O)cc1
REMARK SMILES IDX 6 1 7 2 12 3 8 4 11 5 9 6 5 7 4 8 2 9 1 10 3 11 10 12
REMARK H PARENT 10 13
REMARK Flexibility Score: inf
ROOT
ATOM      1  C   UNL     1      14.976  20.711   3.532  1.00  0.00    -0.025 A 
ATOM      2  C   UNL     1      15.621  21.952   3.429  1.00  0.00     0.012 A 
ATOM      3  C   UNL     1      13.570  20.663   3.529  1.00  0.00     0.012 A 
ATOM      4  C   UNL     1      14.875  23.134   3.375  1.00  0.00     0.047 A 
ATOM      5  C   UNL     1      12.826  21.845   3.476  1.00  0.00     0.047 A 
ATOM      6  C   UNL     1      13.477  23.084   3.402  1.00  0.00     0.115 A 
ENDROOT
BRANCH   1   7
ATOM      7  C   UNL     1      15.784  19.474   3.534  1.00  0.00     0.010 C 
ATOM      8  C   UNL     1      15.990  18.682   4.596  1.00  0.00     0.025 C 
BRANCH   8   9
ATOM      9  C   UNL     1      15.611  19.000   5.987  1.00  0.00     0.064 C 
ATOM     10  O   UNL     1      14.744  18.295   6.565  1.00  0.00    -0.545 OA
ATOM     11  O   UNL     1      16.243  20.014   6.697  1.00  0.00    -0.545 OA
ENDBRANCH   8   9
ENDBRANCH   1   7
BRANCH   6  12
ATOM     12  O   UNL     1      12.745  24.269   3.350  1.00  0.00    -0.508 OA
ATOM     13  H   UNL     1      11.784  24.311   3.665  1.00  0.00     0.293 HD
ENDBRANCH   6  12
TORSDOF 3
ENDMDL
MODEL 5
REMARK VINA RESULT:    -3.877     18.401     19.308
REMARK INTER + INTRA:          -4.735
REMARK INTER:                  -4.533
REMARK INTRA:                  -0.202
REMARK UNBOUND:                -0.292
REMARK SMILES O=C([O-])C=Cc1ccc(O)cc1
REMARK SMILES IDX 6 1 7 2 12 3 8 4 11 5 9 6 5 7 4 8 2 9 1 10 3 11 10 12
REMARK H PARENT 10 13
REMARK Flexibility Score: inf
ROOT
ATOM      1  C   UNL     1      18.591  21.568  16.825  1.00  0.00    -0.025 A 
ATOM      2  C   UNL     1      19.717  20.857  16.382  1.00  0.00     0.012 A 
ATOM      3  C   UNL     1      17.860  22.342  15.907  1.00  0.00     0.012 A 
ATOM      4  C   UNL     1      20.138  20.960  15.052  1.00  0.00     0.047 A 
ATOM      5  C   UNL     1      18.283  22.444  14.578  1.00  0.00     0.047 A 
ATOM      6  C   UNL     1      19.426  21.755  14.148  1.00  0.00     0.115 A 
ENDROOT
BRANCH   1   7
ATOM      7  C   UNL     1      18.134  21.401  18.221  1.00  0.00     0.010 C 
ATOM      8  C   UNL     1      17.213  20.520  18.636  1.00  0.00     0.025 C 
BRANCH   8   9
ATOM      9  C   UNL     1      16.356  19.698  17.757  1.00  0.00     0.064 C 
ATOM     10  O   UNL     1      16.500  18.448  17.753  1.00  0.00    -0.545 OA
ATOM     11  O   UNL     1      15.348  20.267  16.990  1.00  0.00    -0.545 OA
ENDBRANCH   8   9
ENDBRANCH   1   7
BRANCH   6  12
ATOM     12  O   UNL     1      19.858  21.850  12.827  1.00  0.00    -0.508 OA
ATOM     13  H   UNL     1      19.234  21.661  12.051  1.00  0.00     0.293 HD
ENDBRANCH   6  12
TORSDOF 3
ENDMDL
MODEL 6
REMARK VINA RESULT:    -3.813     18.728     21.069
REMARK INTER + INTRA:          -4.662
REMARK INTER:                  -4.405
REMARK INTRA:                  -0.257
REMARK UNBOUND:                -0.292
REMARK SMILES O=C([O-])C=Cc1ccc(O)cc1
REMARK SMILES IDX 6 1 7 2 12 3 8 4 11 5 9 6 5 7 4 8 2 9 1 10 3 11 10 12
REMARK H PARENT 10 13
REMARK Flexibility Score: inf
ROOT
ATOM      1  C   UNL     1      18.716  21.291  17.894  1.00  0.00    -0.025 A 
ATOM      2  C   UNL     1      17.907  20.503  18.725  1.00  0.00     0.012 A 
ATOM      3  C   UNL     1      18.197  21.765  16.676  1.00  0.00     0.012 A 
ATOM      4  C   UNL     1      16.615  20.148  18.323  1.00  0.00     0.047 A 
ATOM      5  C   UNL     1      16.906  21.409  16.275  1.00  0.00     0.047 A 
ATOM      6  C   UNL     1      16.112  20.597  17.097  1.00  0.00     0.115 A 
ENDROOT
BRANCH   1   7
ATOM      7  C   UNL     1      20.057  21.697  18.365  1.00  0.00     0.010 C 
ATOM      8  C   UNL     1      20.303  22.634  19.293  1.00  0.00     0.025 C 
BRANCH   8   9
ATOM      9  C   UNL     1      19.303  23.556  19.866  1.00  0.00     0.064 C 
ATOM     10  O   UNL     1      18.991  24.597  19.232  1.00  0.00    -0.545 OA
ATOM     11  O   UNL     1      18.644  23.264  21.054  1.00  0.00    -0.545 OA
ENDBRANCH   8   9
ENDBRANCH   1   7
BRANCH   6  12
ATOM     12  O   UNL     1      14.825  20.234  16.707  1.00  0.00    -0.508 OA
ATOM     13  H   UNL     1      14.315  20.762  16.009  1.00  0.00     0.293 HD
ENDBRANCH   6  12
TORSDOF 3
ENDMDL
MODEL 7
REMARK VINA RESULT:    -3.795     17.905     19.206
REMARK INTER + INTRA:          -4.642
REMARK INTER:                  -4.379
REMARK INTRA:                  -0.263
REMARK UNBOUND:                -0.292
REMARK SMILES O=C([O-])C=Cc1ccc(O)cc1
REMARK SMILES IDX 6 1 7 2 12 3 8 4 11 5 9 6 5 7 4 8 2 9 1 10 3 11 10 12
REMARK H PARENT 10 13
REMARK Flexibility Score: inf
ROOT
ATOM      1  C   UNL     1      18.018  21.972  16.305  1.00  0.00    -0.025 A 
ATOM      2  C   UNL     1      16.719  21.687  15.857  1.00  0.00     0.012 A 
ATOM      3  C   UNL     1      18.545  21.253  17.392  1.00  0.00     0.012 A 
ATOM      4  C   UNL     1      15.937  20.734  16.517  1.00  0.00     0.047 A 
ATOM      5  C   UNL     1      17.762  20.300  18.051  1.00  0.00     0.047 A 
ATOM      6  C   UNL     1      16.454  20.040  17.617  1.00  0.00     0.115 A 
ENDROOT
BRANCH   1   7
ATOM      7  C   UNL     1      18.843  22.944  15.558  1.00  0.00     0.010 C 
ATOM      8  C   UNL     1      19.451  22.708  14.386  1.00  0.00     0.025 C 
BRANCH   8   9
ATOM      9  C   UNL     1      19.565  21.390  13.731  1.00  0.00     0.064 C 
ATOM     10  O   UNL     1      20.447  20.583  14.124  1.00  0.00    -0.545 OA
ATOM     11  O   UNL     1      18.676  20.993  12.740  1.00  0.00    -0.545 OA
ENDBRANCH   8   9
ENDBRANCH   1   7
BRANCH   6  12
ATOM     12  O   UNL     1      15.664  19.095  18.267  1.00  0.00    -0.508 OA
ATOM     13  H   UNL     1      14.842  19.365  18.793  1.00  0.00     0.293 HD
ENDBRANCH   6  12
TORSDOF 3
ENDMDL
MODEL 8
REMARK VINA RESULT:    -3.778     10.262     12.082
REMARK INTER + INTRA:          -4.622
REMARK INTER:                  -4.427
REMARK INTRA:                  -0.195
REMARK UNBOUND:                -0.292
REMARK SMILES O=C([O-])C=Cc1ccc(O)cc1
REMARK SMILES IDX 6 1 7 2 12 3 8 4 11 5 9 6 5 7 4 8 2 9 1 10 3 11 10 12
REMARK H PARENT 10 13
REMARK Flexibility Score: inf
ROOT
ATOM      1  C   UNL     1      15.124  20.725   3.770  1.00  0.00    -0.025 A 
ATOM      2  C   UNL     1      15.742  21.954   3.498  1.00  0.00     0.012 A 
ATOM      3  C   UNL     1      13.723  20.663   3.863  1.00  0.00     0.012 A 
ATOM      4  C   UNL     1      14.975  23.117   3.372  1.00  0.00     0.047 A 
ATOM      5  C   UNL     1      12.957  21.827   3.737  1.00  0.00     0.047 A 
ATOM      6  C   UNL     1      13.583  23.058   3.494  1.00  0.00     0.115 A 
ENDROOT
BRANCH   1   7
ATOM      7  C   UNL     1      15.951  19.502   3.846  1.00  0.00     0.010 C 
ATOM      8  C   UNL     1      16.399  18.937   4.977  1.00  0.00     0.025 C 
BRANCH   8   9
ATOM      9  C   UNL     1      16.312  19.532   6.325  1.00  0.00     0.064 C 
ATOM     10  O   UNL     1      16.900  20.621   6.555  1.00  0.00    -0.545 OA
ATOM     11  O   UNL     1      15.538  18.956   7.324  1.00  0.00    -0.545 OA
ENDBRANCH   8   9
ENDBRANCH   1   7
BRANCH   6  12
ATOM     12  O   UNL     1      12.831  24.224   3.368  1.00  0.00    -0.508 OA
ATOM     13  H   UNL     1      12.185  24.357   2.599  1.00  0.00     0.293 HD
ENDBRANCH   6  12
TORSDOF 3
ENDMDL
MODEL 9
REMARK VINA RESULT:    -3.661     18.237     20.326
REMARK INTER + INTRA:          -4.488
REMARK INTER:                  -4.289
REMARK INTRA:                  -0.200
REMARK UNBOUND:                -0.292
REMARK SMILES O=C([O-])C=Cc1ccc(O)cc1
REMARK SMILES IDX 6 1 7 2 12 3 8 4 11 5 9 6 5 7 4 8 2 9 1 10 3 11 10 12
REMARK H PARENT 10 13
REMARK Flexibility Score: inf
ROOT
ATOM      1  C   UNL     1      17.844  20.943  17.100  1.00  0.00    -0.025 A 
ATOM      2  C   UNL     1      19.193  20.847  16.728  1.00  0.00     0.012 A 
ATOM      3  C   UNL     1      16.912  21.460  16.183  1.00  0.00     0.012 A 
ATOM      4  C   UNL     1      19.615  21.309  15.477  1.00  0.00     0.047 A 
ATOM      5  C   UNL     1      17.335  21.922  14.933  1.00  0.00     0.047 A 
ATOM      6  C   UNL     1      18.690  21.850  14.578  1.00  0.00     0.115 A 
ENDROOT
BRANCH   1   7
ATOM      7  C   UNL     1      17.413  20.399  18.405  1.00  0.00     0.010 C 
ATOM      8  C   UNL     1      17.596  20.995  19.593  1.00  0.00     0.025 C 
BRANCH   8   9
ATOM      9  C   UNL     1      18.421  22.196  19.830  1.00  0.00     0.064 C 
ATOM     10  O   UNL     1      19.637  22.059  20.125  1.00  0.00    -0.545 OA
ATOM     11  O   UNL     1      17.905  23.476  19.665  1.00  0.00    -0.545 OA
ENDBRANCH   8   9
ENDBRANCH   1   7
BRANCH   6  12
ATOM     12  O   UNL     1      19.124  22.308  13.336  1.00  0.00    -0.508 OA
ATOM     13  H   UNL     1      18.846  23.215  12.981  1.00  0.00     0.293 HD
ENDBRANCH   6  12
TORSDOF 3
ENDMDL
