MODEL 1
REMARK VINA RESULT:     7.535      0.000      0.000
REMARK INTER + INTRA:           9.334
REMARK INTER:                   9.077
REMARK INTRA:                   0.257
REMARK UNBOUND:                 0.257
REMARK SMILES O=c1c(O)c(-c2ccc(O)c(O)c2)oc2cc(O)cc(O)c12
REMARK SMILES IDX 5 1 3 2 2 3 1 4 22 5 20 6 19 7 17 8 16 9 15 10 14 11 6 12
REMARK SMILES IDX 7 13 8 14 9 15 13 16 11 17 10 18 12 20 4 22 21 24 18 26
REMARK H PARENT 10 19 12 21 4 23 21 25 18 27
REMARK Flexibility Score: inf
ROOT
ATOM      1  C   UNL     1      20.892   9.098   5.934  1.00  0.00     0.180 A 
ATOM      2  C   UNL     1      22.186   9.208   5.396  1.00  0.00     0.208 A 
ATOM      3  C   UNL     1      23.013   8.073   5.372  1.00  0.00     0.238 A 
ATOM      4  O   UNL     1      24.195   8.197   4.958  1.00  0.00    -0.285 OA
ATOM      5  C   UNL     1      22.517   6.830   5.833  1.00  0.00     0.111 A 
ATOM      6  C   UNL     1      23.252   5.605   5.815  1.00  0.00     0.134 A 
ATOM      7  C   UNL     1      22.696   4.458   6.396  1.00  0.00     0.093 A 
ATOM      8  C   UNL     1      21.409   4.476   6.938  1.00  0.00     0.123 A 
ATOM      9  C   UNL     1      20.664   5.652   6.912  1.00  0.00     0.094 A 
ATOM     10  C   UNL     1      21.205   6.822   6.374  1.00  0.00     0.146 A 
ATOM     11  O   UNL     1      20.467   7.925   6.390  1.00  0.00    -0.452 OA
ENDROOT
BRANCH   1  12
ATOM     12  C   UNL     1      19.968  10.252   6.007  1.00  0.00     0.025 A 
ATOM     13  C   UNL     1      18.582  10.027   5.998  1.00  0.00     0.016 A 
ATOM     14  C   UNL     1      17.691  11.100   6.088  1.00  0.00     0.051 A 
ATOM     15  C   UNL     1      18.173  12.410   6.204  1.00  0.00     0.157 A 
ATOM     16  C   UNL     1      20.447  11.567   6.145  1.00  0.00     0.062 A 
ATOM     17  C   UNL     1      19.553  12.644   6.237  1.00  0.00     0.158 A 
BRANCH  15  18
ATOM     18  O   UNL     1      17.287  13.482   6.292  1.00  0.00    -0.504 OA
ATOM     19  H   UNL     1      17.538  14.338   6.773  1.00  0.00     0.293 HD
ENDBRANCH  15  18
BRANCH  17  20
ATOM     20  O   UNL     1      20.029  13.947   6.367  1.00  0.00    -0.504 OA
ATOM     21  H   UNL     1      19.944  14.459   7.238  1.00  0.00     0.293 HD
ENDBRANCH  17  20
ENDBRANCH   1  12
BRANCH   2  22
ATOM     22  O   UNL     1      22.630  10.426   4.875  1.00  0.00    -0.502 OA
ATOM     23  H   UNL     1      22.260  11.317   5.185  1.00  0.00     0.293 HD
ENDBRANCH   2  22
BRANCH   6  24
ATOM     24  O   UNL     1      24.508   5.454   5.219  1.00  0.00    -0.507 OA
ATOM     25  H   UNL     1      25.387   5.492   5.710  1.00  0.00     0.293 HD
ENDBRANCH   6  24
BRANCH   8  26
ATOM     26  O   UNL     1      20.858   3.325   7.499  1.00  0.00    -0.508 OA
ATOM     27  H   UNL     1      19.988   2.934   7.158  1.00  0.00     0.293 HD
ENDBRANCH   8  26
TORSDOF 6
ENDMDL
MODEL 2
REMARK VINA RESULT:     8.839      1.248      2.827
REMARK INTER + INTRA:          10.905
REMARK INTER:                  10.587
REMARK INTRA:                   0.318
REMARK UNBOUND:                 0.257
REMARK SMILES O=c1c(O)c(-c2ccc(O)c(O)c2)oc2cc(O)cc(O)c12
REMARK SMILES IDX 5 1 3 2 2 3 1 4 22 5 20 6 19 7 17 8 16 9 15 10 14 11 6 12
REMARK SMILES IDX 7 13 8 14 9 15 13 16 11 17 10 18 12 20 4 22 21 24 18 26
REMARK H PARENT 10 19 12 21 4 23 21 25 18 27
REMARK Flexibility Score: inf
ROOT
ATOM      1  C   UNL     1      20.674   9.065   6.101  1.00  0.00     0.180 A 
ATOM      2  C   UNL     1      19.996   7.958   6.642  1.00  0.00     0.208 A 
ATOM      3  C   UNL     1      20.667   6.728   6.739  1.00  0.00     0.238 A 
ATOM      4  O   UNL     1      20.030   5.726   7.154  1.00  0.00    -0.285 OA
ATOM      5  C   UNL     1      22.024   6.633   6.347  1.00  0.00     0.111 A 
ATOM      6  C   UNL     1      22.816   5.448   6.444  1.00  0.00     0.134 A 
ATOM      7  C   UNL     1      24.117   5.444   5.926  1.00  0.00     0.093 A 
ATOM      8  C   UNL     1      24.678   6.599   5.374  1.00  0.00     0.123 A 
ATOM      9  C   UNL     1      23.932   7.773   5.325  1.00  0.00     0.094 A 
ATOM     10  C   UNL     1      22.618   7.800   5.798  1.00  0.00     0.146 A 
ATOM     11  O   UNL     1      21.937   8.936   5.711  1.00  0.00    -0.452 OA
ENDROOT
BRANCH   1  12
ATOM     12  C   UNL     1      20.030  10.389   5.952  1.00  0.00     0.025 A 
ATOM     13  C   UNL     1      18.642  10.462   5.753  1.00  0.00     0.016 A 
ATOM     14  C   UNL     1      18.009  11.702   5.631  1.00  0.00     0.051 A 
ATOM     15  C   UNL     1      18.752  12.885   5.722  1.00  0.00     0.157 A 
ATOM     16  C   UNL     1      20.769  11.580   6.064  1.00  0.00     0.062 A 
ATOM     17  C   UNL     1      20.133  12.826   5.944  1.00  0.00     0.158 A 
BRANCH  15  18
ATOM     18  O   UNL     1      18.125  14.124   5.599  1.00  0.00    -0.504 OA
ATOM     19  H   UNL     1      18.394  14.785   4.880  1.00  0.00     0.293 HD
ENDBRANCH  15  18
BRANCH  17  20
ATOM     20  O   UNL     1      20.867  14.005   6.048  1.00  0.00    -0.504 OA
ATOM     21  H   UNL     1      20.784  14.745   5.360  1.00  0.00     0.293 HD
ENDBRANCH  17  20
ENDBRANCH   1  12
BRANCH   2  22
ATOM     22  O   UNL     1      18.680   8.092   7.093  1.00  0.00    -0.502 OA
ATOM     23  H   UNL     1      18.151   8.948   6.978  1.00  0.00     0.293 HD
ENDBRANCH   2  22
BRANCH   6  24
ATOM     24  O   UNL     1      22.387   4.267   7.057  1.00  0.00    -0.507 OA
ATOM     25  H   UNL     1      22.496   4.052   8.035  1.00  0.00     0.293 HD
ENDBRANCH   6  24
BRANCH   8  26
ATOM     26  O   UNL     1      25.980   6.589   4.877  1.00  0.00    -0.508 OA
ATOM     27  H   UNL     1      26.648   5.881   5.157  1.00  0.00     0.293 HD
ENDBRANCH   8  26
TORSDOF 6
ENDMDL
MODEL 3
REMARK VINA RESULT:     9.321      0.711      1.454
REMARK INTER + INTRA:          11.486
REMARK INTER:                  11.058
REMARK INTRA:                   0.428
REMARK UNBOUND:                 0.257
REMARK SMILES O=c1c(O)c(-c2ccc(O)c(O)c2)oc2cc(O)cc(O)c12
REMARK SMILES IDX 5 1 3 2 2 3 1 4 22 5 20 6 19 7 17 8 16 9 15 10 14 11 6 12
REMARK SMILES IDX 7 13 8 14 9 15 13 16 11 17 10 18 12 20 4 22 21 24 18 26
REMARK H PARENT 10 19 12 21 4 23 21 25 18 27
REMARK Flexibility Score: inf
ROOT
ATOM      1  C   UNL     1      21.288   8.904   5.935  1.00  0.00     0.180 A 
ATOM      2  C   UNL     1      22.577   8.942   5.377  1.00  0.00     0.208 A 
ATOM      3  C   UNL     1      23.326   7.756   5.308  1.00  0.00     0.238 A 
ATOM      4  O   UNL     1      24.506   7.811   4.876  1.00  0.00    -0.285 OA
ATOM      5  C   UNL     1      22.755   6.536   5.746  1.00  0.00     0.111 A 
ATOM      6  C   UNL     1      23.405   5.266   5.681  1.00  0.00     0.134 A 
ATOM      7  C   UNL     1      22.783   4.143   6.243  1.00  0.00     0.093 A 
ATOM      8  C   UNL     1      21.509   4.232   6.808  1.00  0.00     0.123 A 
ATOM      9  C   UNL     1      20.845   5.455   6.826  1.00  0.00     0.094 A 
ATOM     10  C   UNL     1      21.454   6.601   6.310  1.00  0.00     0.146 A 
ATOM     11  O   UNL     1      20.793   7.750   6.368  1.00  0.00    -0.452 OA
ENDROOT
BRANCH   1  12
ATOM     12  C   UNL     1      20.445  10.114   6.056  1.00  0.00     0.025 A 
ATOM     13  C   UNL     1      21.048  11.381   6.015  1.00  0.00     0.016 A 
ATOM     14  C   UNL     1      20.270  12.539   6.106  1.00  0.00     0.051 A 
ATOM     15  C   UNL     1      18.878  12.446   6.223  1.00  0.00     0.157 A 
ATOM     16  C   UNL     1      19.045  10.026   6.154  1.00  0.00     0.062 A 
ATOM     17  C   UNL     1      18.263  11.188   6.242  1.00  0.00     0.158 A 
BRANCH  15  18
ATOM     18  O   UNL     1      18.099  13.597   6.316  1.00  0.00    -0.504 OA
ATOM     19  H   UNL     1      17.912  14.040   7.209  1.00  0.00     0.293 HD
ENDBRANCH  15  18
BRANCH  17  20
ATOM     20  O   UNL     1      16.876  11.098   6.345  1.00  0.00    -0.504 OA
ATOM     21  H   UNL     1      16.266  11.762   5.883  1.00  0.00     0.293 HD
ENDBRANCH  17  20
ENDBRANCH   1  12
BRANCH   2  22
ATOM     22  O   UNL     1      23.093  10.142   4.880  1.00  0.00    -0.502 OA
ATOM     23  H   UNL     1      23.283  10.940   5.475  1.00  0.00     0.293 HD
ENDBRANCH   2  22
BRANCH   6  24
ATOM     24  O   UNL     1      24.638   5.048   5.060  1.00  0.00    -0.507 OA
ATOM     25  H   UNL     1      24.823   5.189   4.079  1.00  0.00     0.293 HD
ENDBRANCH   6  24
BRANCH   8  26
ATOM     26  O   UNL     1      20.892   3.106   7.349  1.00  0.00    -0.508 OA
ATOM     27  H   UNL     1      20.172   2.602   6.844  1.00  0.00     0.293 HD
ENDBRANCH   8  26
TORSDOF 6
ENDMDL
MODEL 4
REMARK VINA RESULT:    10.306      1.005      1.217
REMARK INTER + INTRA:          12.672
REMARK INTER:                  12.466
REMARK INTRA:                   0.206
REMARK UNBOUND:                 0.257
REMARK SMILES O=c1c(O)c(-c2ccc(O)c(O)c2)oc2cc(O)cc(O)c12
REMARK SMILES IDX 5 1 3 2 2 3 1 4 22 5 20 6 19 7 17 8 16 9 15 10 14 11 6 12
REMARK SMILES IDX 7 13 8 14 9 15 13 16 11 17 10 18 12 20 4 22 21 24 18 26
REMARK H PARENT 10 19 12 21 4 23 21 25 18 27
REMARK Flexibility Score: inf
ROOT
ATOM      1  C   UNL     1      21.215   8.033   6.010  1.00  0.00     0.180 A 
ATOM      2  C   UNL     1      22.510   7.944   5.470  1.00  0.00     0.208 A 
ATOM      3  C   UNL     1      23.185   6.713   5.519  1.00  0.00     0.238 A 
ATOM      4  O   UNL     1      24.371   6.659   5.101  1.00  0.00    -0.285 OA
ATOM      5  C   UNL     1      22.537   5.574   6.055  1.00  0.00     0.111 A 
ATOM      6  C   UNL     1      23.109   4.267   6.115  1.00  0.00     0.134 A 
ATOM      7  C   UNL     1      22.415   3.239   6.765  1.00  0.00     0.093 A 
ATOM      8  C   UNL     1      21.144   3.454   7.302  1.00  0.00     0.123 A 
ATOM      9  C   UNL     1      20.555   4.711   7.200  1.00  0.00     0.094 A 
ATOM     10  C   UNL     1      21.237   5.768   6.592  1.00  0.00     0.146 A 
ATOM     11  O   UNL     1      20.647   6.955   6.537  1.00  0.00    -0.452 OA
ENDROOT
BRANCH   1  12
ATOM     12  C   UNL     1      20.446   9.298   6.010  1.00  0.00     0.025 A 
ATOM     13  C   UNL     1      19.046   9.253   5.922  1.00  0.00     0.016 A 
ATOM     14  C   UNL     1      18.298  10.434   5.940  1.00  0.00     0.051 A 
ATOM     15  C   UNL     1      18.939  11.673   6.064  1.00  0.00     0.157 A 
ATOM     16  C   UNL     1      21.084  10.543   6.154  1.00  0.00     0.062 A 
ATOM     17  C   UNL     1      20.333  11.728   6.175  1.00  0.00     0.158 A 
BRANCH  15  18
ATOM     18  O   UNL     1      18.197  12.853   6.081  1.00  0.00    -0.504 OA
ATOM     19  H   UNL     1      17.474  13.034   5.393  1.00  0.00     0.293 HD
ENDBRANCH  15  18
BRANCH  17  20
ATOM     20  O   UNL     1      20.967  12.961   6.312  1.00  0.00    -0.504 OA
ATOM     21  H   UNL     1      20.582  13.694   6.897  1.00  0.00     0.293 HD
ENDBRANCH  17  20
ENDBRANCH   1  12
BRANCH   2  22
ATOM     22  O   UNL     1      23.102   9.061   4.876  1.00  0.00    -0.502 OA
ATOM     23  H   UNL     1      23.347   9.891   5.402  1.00  0.00     0.293 HD
ENDBRANCH   2  22
BRANCH   6  24
ATOM     24  O   UNL     1      24.333   3.920   5.533  1.00  0.00    -0.507 OA
ATOM     25  H   UNL     1      24.911   3.147   5.823  1.00  0.00     0.293 HD
ENDBRANCH   6  24
BRANCH   8  26
ATOM     26  O   UNL     1      20.454   2.420   7.932  1.00  0.00    -0.508 OA
ATOM     27  H   UNL     1      20.273   2.434   8.928  1.00  0.00     0.293 HD
ENDBRANCH   8  26
TORSDOF 6
ENDMDL
