MODEL 1
REMARK VINA RESULT:    -5.328      0.000      0.000
REMARK INTER + INTRA:          -5.484
REMARK INTER:                  -5.484
REMARK INTRA:                   0.000
REMARK UNBOUND:                 0.000
REMARK SMILES CC1(C)CC[C@]2(C)CC[C@@]3(C)C(=CC[C@H]4[C@@]5(C)CC[C@H](O)C(C)(C)[C@H]5CC[C@]43C)[C@@H]2C1
REMARK SMILES IDX 1 1 2 2 4 3 5 4 6 5 8 6 9 7 10 8 12 9 13 10 14 11 15 12
REMARK SMILES IDX 28 13 27 14 26 15 25 16 16 17 18 18 19 19 20 20 22 21 23 22
REMARK SMILES IDX 24 23 17 24 29 25 30 26 31 27 11 28 7 29 3 30 21 31
REMARK H PARENT 21 32
REMARK Flexibility Score: inf
ROOT
ATOM      1  C   UNL     1      -4.018 -64.486 -37.122  1.00  0.00     0.011 C 
ATOM      2  C   UNL     1      -4.286 -63.873 -35.727  1.00  0.00    -0.035 C 
ATOM      3  C   UNL     1      -3.022 -64.019 -34.823  1.00  0.00     0.007 C 
ATOM      4  C   UNL     1      -2.487 -62.682 -34.297  1.00  0.00     0.008 C 
ATOM      5  C   UNL     1      -2.276 -61.619 -35.415  1.00  0.00    -0.026 C 
ATOM      6  C   UNL     1      -1.849 -60.316 -34.698  1.00  0.00     0.008 C 
ATOM      7  C   UNL     1      -1.701 -59.131 -35.656  1.00  0.00     0.012 C 
ATOM      8  C   UNL     1      -3.000 -58.795 -36.487  1.00  0.00    -0.006 C 
ATOM      9  C   UNL     1      -4.056 -59.902 -36.296  1.00  0.00    -0.064 C 
ATOM     10  C   UNL     1      -5.368 -59.597 -36.440  1.00  0.00    -0.027 C 
ATOM     11  C   UNL     1      -5.944 -58.216 -36.476  1.00  0.00     0.032 C 
ATOM     12  C   UNL     1      -4.952 -57.063 -36.778  1.00  0.00     0.006 C 
ATOM     13  C   UNL     1      -3.559 -57.332 -36.090  1.00  0.00    -0.020 C 
ATOM     14  C   UNL     1      -3.735 -57.203 -34.538  1.00  0.00     0.008 C 
ATOM     15  C   UNL     1      -4.892 -56.311 -34.047  1.00  0.00     0.005 C 
ATOM     16  C   UNL     1      -5.284 -55.137 -34.986  1.00  0.00     0.003 C 
ATOM     17  C   UNL     1      -5.568 -55.602 -36.487  1.00  0.00    -0.025 C 
ATOM     18  C   UNL     1      -7.106 -55.572 -36.771  1.00  0.00     0.010 C 
ATOM     19  C   UNL     1      -7.802 -54.222 -36.489  1.00  0.00     0.033 C 
ATOM     20  C   UNL     1      -7.132 -53.355 -35.396  1.00  0.00     0.120 C 
ATOM     21  C   UNL     1      -6.394 -54.202 -34.320  1.00  0.00    -0.006 C 
ATOM     22  C   UNL     1      -7.459 -54.989 -33.498  1.00  0.00     0.014 C 
ATOM     23  C   UNL     1      -5.716 -53.223 -33.323  1.00  0.00     0.014 C 
ATOM     24  C   UNL     1      -4.926 -54.595 -37.517  1.00  0.00     0.012 C 
ATOM     25  C   UNL     1      -2.513 -56.262 -36.553  1.00  0.00     0.012 C 
ATOM     26  C   UNL     1      -3.591 -61.392 -36.271  1.00  0.00     0.022 C 
ATOM     27  C   UNL     1      -4.728 -62.389 -35.878  1.00  0.00     0.015 C 
ATOM     28  C   UNL     1      -2.617 -58.850 -38.000  1.00  0.00     0.017 C 
ATOM     29  C   UNL     1      -1.103 -62.090 -36.322  1.00  0.00     0.012 C 
ATOM     30  C   UNL     1      -5.458 -64.659 -35.093  1.00  0.00     0.011 C 
ENDROOT
BRANCH  20  31
ATOM     31  O   UNL     1      -6.246 -52.429 -35.975  1.00  0.00    -0.393 OA
ATOM     32  H   UNL     1      -6.491 -51.531 -35.629  1.00  0.00     0.210 HD
ENDBRANCH  20  31
TORSDOF 1
ENDMDL
MODEL 2
REMARK VINA RESULT:    -4.980      2.000      3.185
REMARK INTER + INTRA:          -5.126
REMARK INTER:                  -5.126
REMARK INTRA:                   0.000
REMARK UNBOUND:                 0.000
REMARK SMILES CC1(C)CC[C@]2(C)CC[C@@]3(C)C(=CC[C@H]4[C@@]5(C)CC[C@H](O)C(C)(C)[C@H]5CC[C@]43C)[C@@H]2C1
REMARK SMILES IDX 1 1 2 2 4 3 5 4 6 5 8 6 9 7 10 8 12 9 13 10 14 11 15 12
REMARK SMILES IDX 28 13 27 14 26 15 25 16 16 17 18 18 19 19 20 20 22 21 23 22
REMARK SMILES IDX 24 23 17 24 29 25 30 26 31 27 11 28 7 29 3 30 21 31
REMARK H PARENT 21 32
REMARK Flexibility Score: inf
ROOT
ATOM      1  C   UNL     1      -9.358 -64.198 -35.546  1.00  0.00     0.011 C 
ATOM      2  C   UNL     1      -8.258 -63.879 -34.506  1.00  0.00    -0.035 C 
ATOM      3  C   UNL     1      -6.959 -64.681 -34.832  1.00  0.00     0.007 C 
ATOM      4  C   UNL     1      -5.729 -63.792 -35.050  1.00  0.00     0.008 C 
ATOM      5  C   UNL     1      -5.971 -62.644 -36.074  1.00  0.00    -0.026 C 
ATOM      6  C   UNL     1      -4.678 -61.793 -36.081  1.00  0.00     0.008 C 
ATOM      7  C   UNL     1      -4.790 -60.550 -36.969  1.00  0.00     0.012 C 
ATOM      8  C   UNL     1      -5.978 -59.581 -36.593  1.00  0.00    -0.006 C 
ATOM      9  C   UNL     1      -6.894 -60.245 -35.544  1.00  0.00    -0.064 C 
ATOM     10  C   UNL     1      -7.611 -59.462 -34.702  1.00  0.00    -0.027 C 
ATOM     11  C   UNL     1      -7.390 -58.000 -34.469  1.00  0.00     0.032 C 
ATOM     12  C   UNL     1      -6.571 -57.246 -35.548  1.00  0.00     0.006 C 
ATOM     13  C   UNL     1      -5.405 -58.154 -36.098  1.00  0.00    -0.020 C 
ATOM     14  C   UNL     1      -4.341 -58.343 -34.963  1.00  0.00     0.008 C 
ATOM     15  C   UNL     1      -4.273 -57.236 -33.890  1.00  0.00     0.005 C 
ATOM     16  C   UNL     1      -4.681 -55.814 -34.363  1.00  0.00     0.003 C 
ATOM     17  C   UNL     1      -6.106 -55.775 -35.081  1.00  0.00    -0.025 C 
ATOM     18  C   UNL     1      -7.164 -55.126 -34.129  1.00  0.00     0.010 C 
ATOM     19  C   UNL     1      -6.797 -53.723 -33.594  1.00  0.00     0.033 C 
ATOM     20  C   UNL     1      -5.279 -53.443 -33.482  1.00  0.00     0.120 C 
ATOM     21  C   UNL     1      -4.444 -54.728 -33.216  1.00  0.00    -0.006 C 
ATOM     22  C   UNL     1      -4.781 -55.248 -31.787  1.00  0.00     0.014 C 
ATOM     23  C   UNL     1      -2.944 -54.325 -33.186  1.00  0.00     0.014 C 
ATOM     24  C   UNL     1      -6.065 -54.854 -36.361  1.00  0.00     0.012 C 
ATOM     25  C   UNL     1      -4.704 -57.457 -37.312  1.00  0.00     0.012 C 
ATOM     26  C   UNL     1      -7.230 -61.762 -35.688  1.00  0.00     0.022 C 
ATOM     27  C   UNL     1      -8.002 -62.345 -34.461  1.00  0.00     0.015 C 
ATOM     28  C   UNL     1      -6.867 -59.411 -37.865  1.00  0.00     0.017 C 
ATOM     29  C   UNL     1      -6.152 -63.278 -37.483  1.00  0.00     0.012 C 
ATOM     30  C   UNL     1      -8.790 -64.315 -33.120  1.00  0.00     0.011 C 
ENDROOT
BRANCH  20  31
ATOM     31  O   UNL     1      -4.811 -52.790 -34.636  1.00  0.00    -0.393 OA
ATOM     32  H   UNL     1      -5.501 -52.907 -35.340  1.00  0.00     0.210 HD
ENDBRANCH  20  31
TORSDOF 1
ENDMDL
MODEL 3
REMARK VINA RESULT:    -4.958      1.623      3.447
REMARK INTER + INTRA:          -5.102
REMARK INTER:                  -5.102
REMARK INTRA:                   0.000
REMARK UNBOUND:                 0.000
REMARK SMILES CC1(C)CC[C@]2(C)CC[C@@]3(C)C(=CC[C@H]4[C@@]5(C)CC[C@H](O)C(C)(C)[C@H]5CC[C@]43C)[C@@H]2C1
REMARK SMILES IDX 1 1 2 2 4 3 5 4 6 5 8 6 9 7 10 8 12 9 13 10 14 11 15 12
REMARK SMILES IDX 28 13 27 14 26 15 25 16 16 17 18 18 19 19 20 20 22 21 23 22
REMARK SMILES IDX 24 23 17 24 29 25 30 26 31 27 11 28 7 29 3 30 21 31
REMARK H PARENT 21 32
REMARK Flexibility Score: inf
ROOT
ATOM      1  C   UNL     1      -0.875 -64.287 -38.128  1.00  0.00     0.011 C 
ATOM      2  C   UNL     1      -2.131 -63.767 -38.866  1.00  0.00    -0.035 C 
ATOM      3  C   UNL     1      -3.371 -64.642 -38.503  1.00  0.00     0.007 C 
ATOM      4  C   UNL     1      -4.526 -63.844 -37.887  1.00  0.00     0.008 C 
ATOM      5  C   UNL     1      -4.086 -62.944 -36.694  1.00  0.00    -0.026 C 
ATOM      6  C   UNL     1      -5.339 -62.137 -36.277  1.00  0.00     0.008 C 
ATOM      7  C   UNL     1      -5.048 -61.117 -35.173  1.00  0.00     0.012 C 
ATOM      8  C   UNL     1      -3.923 -60.069 -35.529  1.00  0.00    -0.006 C 
ATOM      9  C   UNL     1      -3.216 -60.471 -36.839  1.00  0.00    -0.064 C 
ATOM     10  C   UNL     1      -2.639 -59.511 -37.602  1.00  0.00    -0.027 C 
ATOM     11  C   UNL     1      -2.865 -58.038 -37.468  1.00  0.00     0.032 C 
ATOM     12  C   UNL     1      -3.470 -57.552 -36.125  1.00  0.00     0.006 C 
ATOM     13  C   UNL     1      -4.542 -58.578 -35.593  1.00  0.00    -0.020 C 
ATOM     14  C   UNL     1      -5.790 -58.532 -36.540  1.00  0.00     0.008 C 
ATOM     15  C   UNL     1      -6.018 -57.219 -37.316  1.00  0.00     0.005 C 
ATOM     16  C   UNL     1      -5.504 -55.928 -36.623  1.00  0.00     0.003 C 
ATOM     17  C   UNL     1      -3.976 -56.023 -36.172  1.00  0.00    -0.025 C 
ATOM     18  C   UNL     1      -3.085 -55.163 -37.128  1.00  0.00     0.010 C 
ATOM     19  C   UNL     1      -3.508 -53.684 -37.272  1.00  0.00     0.033 C 
ATOM     20  C   UNL     1      -5.017 -53.411 -37.055  1.00  0.00     0.120 C 
ATOM     21  C   UNL     1      -5.912 -54.622 -37.446  1.00  0.00    -0.006 C 
ATOM     22  C   UNL     1      -5.839 -54.811 -38.991  1.00  0.00     0.014 C 
ATOM     23  C   UNL     1      -7.386 -54.248 -37.127  1.00  0.00     0.014 C 
ATOM     24  C   UNL     1      -3.775 -55.405 -34.734  1.00  0.00     0.012 C 
ATOM     25  C   UNL     1      -5.008 -58.176 -34.153  1.00  0.00     0.012 C 
ATOM     26  C   UNL     1      -2.893 -61.978 -37.091  1.00  0.00     0.022 C 
ATOM     27  C   UNL     1      -2.358 -62.265 -38.530  1.00  0.00     0.015 C 
ATOM     28  C   UNL     1      -2.824 -60.166 -34.423  1.00  0.00     0.017 C 
ATOM     29  C   UNL     1      -3.677 -63.867 -35.510  1.00  0.00     0.012 C 
ATOM     30  C   UNL     1      -1.856 -63.880 -40.384  1.00  0.00     0.011 C 
ENDROOT
BRANCH  20  31
ATOM     31  O   UNL     1      -5.264 -53.035 -35.723  1.00  0.00    -0.393 OA
ATOM     32  H   UNL     1      -6.070 -52.455 -35.727  1.00  0.00     0.210 HD
ENDBRANCH  20  31
TORSDOF 1
ENDMDL
MODEL 4
REMARK VINA RESULT:    -4.798      2.189      2.996
REMARK INTER + INTRA:          -4.938
REMARK INTER:                  -4.938
REMARK INTRA:                   0.000
REMARK UNBOUND:                 0.000
REMARK SMILES CC1(C)CC[C@]2(C)CC[C@@]3(C)C(=CC[C@H]4[C@@]5(C)CC[C@H](O)C(C)(C)[C@H]5CC[C@]43C)[C@@H]2C1
REMARK SMILES IDX 1 1 2 2 4 3 5 4 6 5 8 6 9 7 10 8 12 9 13 10 14 11 15 12
REMARK SMILES IDX 28 13 27 14 26 15 25 16 16 17 18 18 19 19 20 20 22 21 23 22
REMARK SMILES IDX 24 23 17 24 29 25 30 26 31 27 11 28 7 29 3 30 21 31
REMARK H PARENT 21 32
REMARK Flexibility Score: inf
ROOT
ATOM      1  C   UNL     1      -7.553 -63.061 -37.947  1.00  0.00     0.011 C 
ATOM      2  C   UNL     1      -7.279 -63.034 -36.425  1.00  0.00    -0.035 C 
ATOM      3  C   UNL     1      -6.235 -64.132 -36.047  1.00  0.00     0.007 C 
ATOM      4  C   UNL     1      -4.984 -63.577 -35.356  1.00  0.00     0.008 C 
ATOM      5  C   UNL     1      -4.325 -62.397 -36.129  1.00  0.00    -0.026 C 
ATOM      6  C   UNL     1      -3.162 -61.895 -35.241  1.00  0.00     0.008 C 
ATOM      7  C   UNL     1      -2.467 -60.657 -35.815  1.00  0.00     0.012 C 
ATOM      8  C   UNL     1      -3.423 -59.425 -36.061  1.00  0.00    -0.006 C 
ATOM      9  C   UNL     1      -4.894 -59.847 -35.873  1.00  0.00    -0.064 C 
ATOM     10  C   UNL     1      -5.807 -58.917 -35.503  1.00  0.00    -0.027 C 
ATOM     11  C   UNL     1      -5.497 -57.558 -34.958  1.00  0.00     0.032 C 
ATOM     12  C   UNL     1      -4.063 -57.024 -35.213  1.00  0.00     0.006 C 
ATOM     13  C   UNL     1      -3.007 -58.190 -35.106  1.00  0.00    -0.020 C 
ATOM     14  C   UNL     1      -2.916 -58.647 -33.610  1.00  0.00     0.008 C 
ATOM     15  C   UNL     1      -3.303 -57.601 -32.545  1.00  0.00     0.005 C 
ATOM     16  C   UNL     1      -3.054 -56.118 -32.935  1.00  0.00     0.003 C 
ATOM     17  C   UNL     1      -3.706 -55.720 -34.337  1.00  0.00    -0.025 C 
ATOM     18  C   UNL     1      -4.974 -54.834 -34.101  1.00  0.00     0.010 C 
ATOM     19  C   UNL     1      -4.746 -53.572 -33.239  1.00  0.00     0.033 C 
ATOM     20  C   UNL     1      -3.592 -53.679 -32.213  1.00  0.00     0.120 C 
ATOM     21  C   UNL     1      -3.360 -55.134 -31.715  1.00  0.00    -0.006 C 
ATOM     22  C   UNL     1      -4.590 -55.566 -30.861  1.00  0.00     0.014 C 
ATOM     23  C   UNL     1      -2.146 -55.119 -30.745  1.00  0.00     0.014 C 
ATOM     24  C   UNL     1      -2.717 -54.828 -35.183  1.00  0.00     0.012 C 
ATOM     25  C   UNL     1      -1.594 -57.681 -35.548  1.00  0.00     0.012 C 
ATOM     26  C   UNL     1      -5.359 -61.232 -36.425  1.00  0.00     0.022 C 
ATOM     27  C   UNL     1      -6.812 -61.613 -35.997  1.00  0.00     0.015 C 
ATOM     28  C   UNL     1      -3.299 -59.028 -37.567  1.00  0.00     0.017 C 
ATOM     29  C   UNL     1      -3.729 -62.954 -37.454  1.00  0.00     0.012 C 
ATOM     30  C   UNL     1      -8.615 -63.335 -35.708  1.00  0.00     0.011 C 
ENDROOT
BRANCH  20  31
ATOM     31  O   UNL     1      -2.403 -53.155 -32.750  1.00  0.00    -0.393 OA
ATOM     32  H   UNL     1      -2.656 -52.584 -33.523  1.00  0.00     0.210 HD
ENDBRANCH  20  31
TORSDOF 1
ENDMDL
MODEL 5
REMARK VINA RESULT:    -4.574     13.012     16.573
REMARK INTER + INTRA:          -4.708
REMARK INTER:                  -4.708
REMARK INTRA:                   0.000
REMARK UNBOUND:                 0.000
REMARK SMILES CC1(C)CC[C@]2(C)CC[C@@]3(C)C(=CC[C@H]4[C@@]5(C)CC[C@H](O)C(C)(C)[C@H]5CC[C@]43C)[C@@H]2C1
REMARK SMILES IDX 1 1 2 2 4 3 5 4 6 5 8 6 9 7 10 8 12 9 13 10 14 11 15 12
REMARK SMILES IDX 28 13 27 14 26 15 25 16 16 17 18 18 19 19 20 20 22 21 23 22
REMARK SMILES IDX 24 23 17 24 29 25 30 26 31 27 11 28 7 29 3 30 21 31
REMARK H PARENT 21 32
REMARK Flexibility Score: inf
ROOT
ATOM      1  C   UNL     1     -12.756 -64.264 -22.619  1.00  0.00     0.011 C 
ATOM      2  C   UNL     1     -12.499 -65.768 -22.365  1.00  0.00    -0.035 C 
ATOM      3  C   UNL     1     -13.444 -66.634 -23.257  1.00  0.00     0.007 C 
ATOM      4  C   UNL     1     -12.697 -67.600 -24.183  1.00  0.00     0.008 C 
ATOM      5  C   UNL     1     -11.583 -66.910 -25.025  1.00  0.00    -0.026 C 
ATOM      6  C   UNL     1     -10.868 -68.040 -25.805  1.00  0.00     0.008 C 
ATOM      7  C   UNL     1      -9.667 -67.538 -26.610  1.00  0.00     0.012 C 
ATOM      8  C   UNL     1      -8.565 -66.802 -25.753  1.00  0.00    -0.006 C 
ATOM      9  C   UNL     1      -9.078 -66.563 -24.319  1.00  0.00    -0.064 C 
ATOM     10  C   UNL     1      -8.186 -66.463 -23.304  1.00  0.00    -0.027 C 
ATOM     11  C   UNL     1      -6.744 -66.859 -23.369  1.00  0.00     0.032 C 
ATOM     12  C   UNL     1      -6.132 -67.007 -24.786  1.00  0.00     0.006 C 
ATOM     13  C   UNL     1      -7.180 -67.634 -25.783  1.00  0.00    -0.020 C 
ATOM     14  C   UNL     1      -7.419 -69.131 -25.381  1.00  0.00     0.008 C 
ATOM     15  C   UNL     1      -6.273 -69.832 -24.624  1.00  0.00     0.005 C 
ATOM     16  C   UNL     1      -4.842 -69.317 -24.941  1.00  0.00     0.003 C 
ATOM     17  C   UNL     1      -4.695 -67.736 -24.784  1.00  0.00    -0.025 C 
ATOM     18  C   UNL     1      -3.894 -67.402 -23.482  1.00  0.00     0.010 C 
ATOM     19  C   UNL     1      -2.511 -68.081 -23.366  1.00  0.00     0.033 C 
ATOM     20  C   UNL     1      -2.381 -69.432 -24.110  1.00  0.00     0.120 C 
ATOM     21  C   UNL     1      -3.730 -70.200 -24.210  1.00  0.00    -0.006 C 
ATOM     22  C   UNL     1      -4.141 -70.661 -22.779  1.00  0.00     0.014 C 
ATOM     23  C   UNL     1      -3.480 -71.499 -25.026  1.00  0.00     0.014 C 
ATOM     24  C   UNL     1      -3.848 -67.131 -25.970  1.00  0.00     0.012 C 
ATOM     25  C   UNL     1      -6.620 -67.606 -27.245  1.00  0.00     0.012 C 
ATOM     26  C   UNL     1     -10.559 -66.114 -24.113  1.00  0.00     0.022 C 
ATOM     27  C   UNL     1     -10.999 -66.097 -22.613  1.00  0.00     0.015 C 
ATOM     28  C   UNL     1      -8.369 -65.378 -26.362  1.00  0.00     0.017 C 
ATOM     29  C   UNL     1     -12.264 -65.958 -26.050  1.00  0.00     0.012 C 
ATOM     30  C   UNL     1     -12.809 -66.046 -20.876  1.00  0.00     0.011 C 
ENDROOT
BRANCH  20  31
ATOM     31  O   UNL     1      -1.837 -69.238 -25.393  1.00  0.00    -0.393 OA
ATOM     32  H   UNL     1      -1.967 -68.281 -25.626  1.00  0.00     0.210 HD
ENDBRANCH  20  31
TORSDOF 1
ENDMDL
MODEL 6
REMARK VINA RESULT:    -4.211      1.364      2.233
REMARK INTER + INTRA:          -4.334
REMARK INTER:                  -4.334
REMARK INTRA:                   0.000
REMARK UNBOUND:                 0.000
REMARK SMILES CC1(C)CC[C@]2(C)CC[C@@]3(C)C(=CC[C@H]4[C@@]5(C)CC[C@H](O)C(C)(C)[C@H]5CC[C@]43C)[C@@H]2C1
REMARK SMILES IDX 1 1 2 2 4 3 5 4 6 5 8 6 9 7 10 8 12 9 13 10 14 11 15 12
REMARK SMILES IDX 28 13 27 14 26 15 25 16 16 17 18 18 19 19 20 20 22 21 23 22
REMARK SMILES IDX 24 23 17 24 29 25 30 26 31 27 11 28 7 29 3 30 21 31
REMARK H PARENT 21 32
REMARK Flexibility Score: inf
ROOT
ATOM      1  C   UNL     1      -1.009 -63.425 -38.413  1.00  0.00     0.011 C 
ATOM      2  C   UNL     1      -2.465 -63.362 -37.897  1.00  0.00    -0.035 C 
ATOM      3  C   UNL     1      -2.618 -64.232 -36.609  1.00  0.00     0.007 C 
ATOM      4  C   UNL     1      -3.121 -63.445 -35.394  1.00  0.00     0.008 C 
ATOM      5  C   UNL     1      -2.305 -62.148 -35.119  1.00  0.00    -0.026 C 
ATOM      6  C   UNL     1      -3.014 -61.433 -33.944  1.00  0.00     0.008 C 
ATOM      7  C   UNL     1      -2.392 -60.074 -33.612  1.00  0.00     0.012 C 
ATOM      8  C   UNL     1      -2.360 -59.056 -34.819  1.00  0.00    -0.006 C 
ATOM      9  C   UNL     1      -2.767 -59.768 -36.125  1.00  0.00    -0.064 C 
ATOM     10  C   UNL     1      -3.323 -59.045 -37.127  1.00  0.00    -0.027 C 
ATOM     11  C   UNL     1      -3.871 -57.658 -37.002  1.00  0.00     0.032 C 
ATOM     12  C   UNL     1      -3.411 -56.843 -35.765  1.00  0.00     0.006 C 
ATOM     13  C   UNL     1      -3.290 -57.775 -34.498  1.00  0.00    -0.020 C 
ATOM     14  C   UNL     1      -4.730 -58.222 -34.068  1.00  0.00     0.008 C 
ATOM     15  C   UNL     1      -5.890 -57.288 -34.467  1.00  0.00     0.005 C 
ATOM     16  C   UNL     1      -5.532 -55.781 -34.583  1.00  0.00     0.003 C 
ATOM     17  C   UNL     1      -4.276 -55.504 -35.528  1.00  0.00    -0.025 C 
ATOM     18  C   UNL     1      -4.755 -54.895 -36.887  1.00  0.00     0.010 C 
ATOM     19  C   UNL     1      -5.625 -53.623 -36.769  1.00  0.00     0.033 C 
ATOM     20  C   UNL     1      -6.443 -53.509 -35.460  1.00  0.00     0.120 C 
ATOM     21  C   UNL     1      -6.830 -54.894 -34.866  1.00  0.00    -0.006 C 
ATOM     22  C   UNL     1      -7.852 -55.573 -35.826  1.00  0.00     0.014 C 
ATOM     23  C   UNL     1      -7.589 -54.646 -33.533  1.00  0.00     0.014 C 
ATOM     24  C   UNL     1      -3.321 -54.422 -34.890  1.00  0.00     0.012 C 
ATOM     25  C   UNL     1      -2.649 -56.986 -33.307  1.00  0.00     0.012 C 
ATOM     26  C   UNL     1      -2.235 -61.211 -36.395  1.00  0.00     0.022 C 
ATOM     27  C   UNL     1      -2.877 -61.882 -37.652  1.00  0.00     0.015 C 
ATOM     28  C   UNL     1      -0.875 -58.625 -35.031  1.00  0.00     0.017 C 
ATOM     29  C   UNL     1      -0.877 -62.558 -34.657  1.00  0.00     0.012 C 
ATOM     30  C   UNL     1      -3.377 -63.934 -39.008  1.00  0.00     0.011 C 
ENDROOT
BRANCH  20  31
ATOM     31  O   UNL     1      -5.744 -52.750 -34.505  1.00  0.00    -0.393 OA
ATOM     32  H   UNL     1      -4.912 -52.426 -34.939  1.00  0.00     0.210 HD
ENDBRANCH  20  31
TORSDOF 1
ENDMDL
MODEL 7
REMARK VINA RESULT:    -4.013      1.712      4.038
REMARK INTER + INTRA:          -4.130
REMARK INTER:                  -4.130
REMARK INTRA:                   0.000
REMARK UNBOUND:                 0.000
REMARK SMILES CC1(C)CC[C@]2(C)CC[C@@]3(C)C(=CC[C@H]4[C@@]5(C)CC[C@H](O)C(C)(C)[C@H]5CC[C@]43C)[C@@H]2C1
REMARK SMILES IDX 1 1 2 2 4 3 5 4 6 5 8 6 9 7 10 8 12 9 13 10 14 11 15 12
REMARK SMILES IDX 28 13 27 14 26 15 25 16 16 17 18 18 19 19 20 20 22 21 23 22
REMARK SMILES IDX 24 23 17 24 29 25 30 26 31 27 11 28 7 29 3 30 21 31
REMARK H PARENT 21 32
REMARK Flexibility Score: inf
ROOT
ATOM      1  C   UNL     1      -4.469 -64.588 -34.283  1.00  0.00     0.011 C 
ATOM      2  C   UNL     1      -4.140 -64.097 -35.713  1.00  0.00    -0.035 C 
ATOM      3  C   UNL     1      -5.203 -64.633 -36.724  1.00  0.00     0.007 C 
ATOM      4  C   UNL     1      -5.928 -63.525 -37.496  1.00  0.00     0.008 C 
ATOM      5  C   UNL     1      -6.516 -62.415 -36.575  1.00  0.00    -0.026 C 
ATOM      6  C   UNL     1      -7.103 -61.337 -37.518  1.00  0.00     0.008 C 
ATOM      7  C   UNL     1      -7.634 -60.114 -36.766  1.00  0.00     0.012 C 
ATOM      8  C   UNL     1      -6.568 -59.395 -35.850  1.00  0.00    -0.006 C 
ATOM      9  C   UNL     1      -5.285 -60.246 -35.758  1.00  0.00    -0.064 C 
ATOM     10  C   UNL     1      -4.101 -59.633 -35.512  1.00  0.00    -0.027 C 
ATOM     11  C   UNL     1      -3.842 -58.163 -35.613  1.00  0.00     0.032 C 
ATOM     12  C   UNL     1      -5.088 -57.240 -35.596  1.00  0.00     0.006 C 
ATOM     13  C   UNL     1      -6.280 -57.899 -36.390  1.00  0.00    -0.020 C 
ATOM     14  C   UNL     1      -5.916 -57.916 -37.915  1.00  0.00     0.008 C 
ATOM     15  C   UNL     1      -4.916 -56.846 -38.397  1.00  0.00     0.005 C 
ATOM     16  C   UNL     1      -4.920 -55.513 -37.599  1.00  0.00     0.003 C 
ATOM     17  C   UNL     1      -4.761 -55.722 -36.025  1.00  0.00    -0.025 C 
ATOM     18  C   UNL     1      -3.320 -55.307 -35.576  1.00  0.00     0.010 C 
ATOM     19  C   UNL     1      -2.893 -53.876 -35.971  1.00  0.00     0.033 C 
ATOM     20  C   UNL     1      -3.569 -53.319 -37.247  1.00  0.00     0.120 C 
ATOM     21  C   UNL     1      -3.949 -54.433 -38.265  1.00  0.00    -0.006 C 
ATOM     22  C   UNL     1      -2.636 -55.045 -38.838  1.00  0.00     0.014 C 
ATOM     23  C   UNL     1      -4.670 -53.758 -39.464  1.00  0.00     0.014 C 
ATOM     24  C   UNL     1      -5.742 -54.775 -35.231  1.00  0.00     0.012 C 
ATOM     25  C   UNL     1      -7.584 -57.051 -36.210  1.00  0.00     0.012 C 
ATOM     26  C   UNL     1      -5.415 -61.795 -35.618  1.00  0.00     0.022 C 
ATOM     27  C   UNL     1      -4.049 -62.544 -35.731  1.00  0.00     0.015 C 
ATOM     28  C   UNL     1      -7.142 -59.359 -34.399  1.00  0.00     0.017 C 
ATOM     29  C   UNL     1      -7.680 -63.033 -35.748  1.00  0.00     0.012 C 
ATOM     30  C   UNL     1      -2.751 -64.662 -36.090  1.00  0.00     0.011 C 
ENDROOT
BRANCH  20  31
ATOM     31  O   UNL     1      -4.704 -52.560 -36.913  1.00  0.00    -0.393 OA
ATOM     32  H   UNL     1      -5.092 -52.956 -36.089  1.00  0.00     0.210 HD
ENDBRANCH  20  31
TORSDOF 1
ENDMDL
MODEL 8
REMARK VINA RESULT:    -3.289      3.164      7.392
REMARK INTER + INTRA:          -3.385
REMARK INTER:                  -3.385
REMARK INTRA:                   0.000
REMARK UNBOUND:                 0.000
REMARK SMILES CC1(C)CC[C@]2(C)CC[C@@]3(C)C(=CC[C@H]4[C@@]5(C)CC[C@H](O)C(C)(C)[C@H]5CC[C@]43C)[C@@H]2C1
REMARK SMILES IDX 1 1 2 2 4 3 5 4 6 5 8 6 9 7 10 8 12 9 13 10 14 11 15 12
REMARK SMILES IDX 28 13 27 14 26 15 25 16 16 17 18 18 19 19 20 20 22 21 23 22
REMARK SMILES IDX 24 23 17 24 29 25 30 26 31 27 11 28 7 29 3 30 21 31
REMARK H PARENT 21 32
REMARK Flexibility Score: inf
ROOT
ATOM      1  C   UNL     1      -1.237 -54.942 -32.486  1.00  0.00     0.011 C 
ATOM      2  C   UNL     1      -2.208 -55.801 -31.643  1.00  0.00    -0.035 C 
ATOM      3  C   UNL     1      -3.310 -54.899 -31.004  1.00  0.00     0.007 C 
ATOM      4  C   UNL     1      -4.737 -55.307 -31.389  1.00  0.00     0.008 C 
ATOM      5  C   UNL     1      -4.939 -55.464 -32.926  1.00  0.00    -0.026 C 
ATOM      6  C   UNL     1      -6.383 -55.984 -33.120  1.00  0.00     0.008 C 
ATOM      7  C   UNL     1      -6.712 -56.293 -34.583  1.00  0.00     0.012 C 
ATOM      8  C   UNL     1      -5.749 -57.343 -35.263  1.00  0.00    -0.006 C 
ATOM      9  C   UNL     1      -4.550 -57.641 -34.340  1.00  0.00    -0.064 C 
ATOM     10  C   UNL     1      -3.922 -58.838 -34.437  1.00  0.00    -0.027 C 
ATOM     11  C   UNL     1      -4.450 -60.045 -35.146  1.00  0.00     0.032 C 
ATOM     12  C   UNL     1      -5.583 -59.799 -36.176  1.00  0.00     0.006 C 
ATOM     13  C   UNL     1      -6.566 -58.677 -35.666  1.00  0.00    -0.020 C 
ATOM     14  C   UNL     1      -7.366 -59.234 -34.438  1.00  0.00     0.008 C 
ATOM     15  C   UNL     1      -7.532 -60.765 -34.361  1.00  0.00     0.005 C 
ATOM     16  C   UNL     1      -7.557 -61.510 -35.725  1.00  0.00     0.003 C 
ATOM     17  C   UNL     1      -6.310 -61.155 -36.657  1.00  0.00    -0.025 C 
ATOM     18  C   UNL     1      -5.307 -62.354 -36.683  1.00  0.00     0.010 C 
ATOM     19  C   UNL     1      -5.914 -63.713 -37.098  1.00  0.00     0.033 C 
ATOM     20  C   UNL     1      -7.419 -63.882 -36.779  1.00  0.00     0.120 C 
ATOM     21  C   UNL     1      -7.869 -63.065 -35.534  1.00  0.00    -0.006 C 
ATOM     22  C   UNL     1      -7.201 -63.684 -34.270  1.00  0.00     0.014 C 
ATOM     23  C   UNL     1      -9.399 -63.268 -35.357  1.00  0.00     0.014 C 
ATOM     24  C   UNL     1      -6.769 -60.951 -38.153  1.00  0.00     0.012 C 
ATOM     25  C   UNL     1      -7.593 -58.306 -36.789  1.00  0.00     0.012 C 
ATOM     26  C   UNL     1      -3.885 -56.462 -33.563  1.00  0.00     0.022 C 
ATOM     27  C   UNL     1      -2.816 -56.930 -32.523  1.00  0.00     0.015 C 
ATOM     28  C   UNL     1      -5.134 -56.666 -36.529  1.00  0.00     0.017 C 
ATOM     29  C   UNL     1      -4.829 -54.056 -33.579  1.00  0.00     0.012 C 
ATOM     30  C   UNL     1      -1.380 -56.466 -30.517  1.00  0.00     0.011 C 
ENDROOT
BRANCH  20  31
ATOM     31  O   UNL     1      -8.202 -63.538 -37.895  1.00  0.00    -0.393 OA
ATOM     32  H   UNL     1      -9.129 -63.389 -37.569  1.00  0.00     0.210 HD
ENDBRANCH  20  31
TORSDOF 1
ENDMDL
MODEL 9
REMARK VINA RESULT:    -3.253      8.869     13.306
REMARK INTER + INTRA:          -3.348
REMARK INTER:                  -3.348
REMARK INTRA:                   0.000
REMARK UNBOUND:                 0.000
REMARK SMILES CC1(C)CC[C@]2(C)CC[C@@]3(C)C(=CC[C@H]4[C@@]5(C)CC[C@H](O)C(C)(C)[C@H]5CC[C@]43C)[C@@H]2C1
REMARK SMILES IDX 1 1 2 2 4 3 5 4 6 5 8 6 9 7 10 8 12 9 13 10 14 11 15 12
REMARK SMILES IDX 28 13 27 14 26 15 25 16 16 17 18 18 19 19 20 20 22 21 23 22
REMARK SMILES IDX 24 23 17 24 29 25 30 26 31 27 11 28 7 29 3 30 21 31
REMARK H PARENT 21 32
REMARK Flexibility Score: inf
ROOT
ATOM      1  C   UNL     1      -7.057 -63.524 -32.167  1.00  0.00     0.011 C 
ATOM      2  C   UNL     1      -6.790 -65.048 -32.198  1.00  0.00    -0.035 C 
ATOM      3  C   UNL     1      -5.799 -65.398 -33.353  1.00  0.00     0.007 C 
ATOM      4  C   UNL     1      -4.528 -66.110 -32.875  1.00  0.00     0.008 C 
ATOM      5  C   UNL     1      -3.812 -65.375 -31.704  1.00  0.00    -0.026 C 
ATOM      6  C   UNL     1      -2.633 -66.283 -31.281  1.00  0.00     0.008 C 
ATOM      7  C   UNL     1      -1.880 -65.749 -30.059  1.00  0.00     0.012 C 
ATOM      8  C   UNL     1      -2.778 -65.535 -28.779  1.00  0.00    -0.006 C 
ATOM      9  C   UNL     1      -4.268 -65.705 -29.140  1.00  0.00    -0.064 C 
ATOM     10  C   UNL     1      -5.140 -66.098 -28.180  1.00  0.00    -0.027 C 
ATOM     11  C   UNL     1      -4.772 -66.685 -26.854  1.00  0.00     0.032 C 
ATOM     12  C   UNL     1      -3.315 -66.452 -26.377  1.00  0.00     0.006 C 
ATOM     13  C   UNL     1      -2.313 -66.528 -27.593  1.00  0.00    -0.020 C 
ATOM     14  C   UNL     1      -2.250 -68.011 -28.097  1.00  0.00     0.008 C 
ATOM     15  C   UNL     1      -2.596 -69.105 -27.067  1.00  0.00     0.005 C 
ATOM     16  C   UNL     1      -2.278 -68.760 -25.586  1.00  0.00     0.003 C 
ATOM     17  C   UNL     1      -2.904 -67.368 -25.117  1.00  0.00    -0.025 C 
ATOM     18  C   UNL     1      -4.132 -67.625 -24.182  1.00  0.00     0.010 C 
ATOM     19  C   UNL     1      -3.853 -68.525 -22.958  1.00  0.00     0.033 C 
ATOM     20  C   UNL     1      -2.711 -69.552 -23.148  1.00  0.00     0.120 C 
ATOM     21  C   UNL     1      -2.547 -70.008 -24.626  1.00  0.00    -0.006 C 
ATOM     22  C   UNL     1      -3.800 -70.843 -25.026  1.00  0.00     0.014 C 
ATOM     23  C   UNL     1      -1.339 -70.983 -24.694  1.00  0.00     0.014 C 
ATOM     24  C   UNL     1      -1.871 -66.553 -24.246  1.00  0.00     0.012 C 
ATOM     25  C   UNL     1      -0.875 -66.108 -27.134  1.00  0.00     0.012 C 
ATOM     26  C   UNL     1      -4.791 -65.110 -30.485  1.00  0.00     0.022 C 
ATOM     27  C   UNL     1      -6.262 -65.521 -30.813  1.00  0.00     0.015 C 
ATOM     28  C   UNL     1      -2.628 -64.043 -28.344  1.00  0.00     0.017 C 
ATOM     29  C   UNL     1      -3.235 -64.037 -32.248  1.00  0.00     0.012 C 
ATOM     30  C   UNL     1      -8.143 -65.750 -32.459  1.00  0.00     0.011 C 
ENDROOT
BRANCH  20  31
ATOM     31  O   UNL     1      -1.496 -69.036 -22.661  1.00  0.00    -0.393 OA
ATOM     32  H   UNL     1      -1.221 -69.604 -21.895  1.00  0.00     0.210 HD
ENDBRANCH  20  31
TORSDOF 1
ENDMDL
