MODEL 1
REMARK VINA RESULT:    -5.033      0.000      0.000
REMARK INTER + INTRA:         -15.155
REMARK INTER:                 -11.506
REMARK INTRA:                  -3.649
REMARK UNBOUND:                -3.649
REMARK SMILES CCCCCCCCCCCCCCCCCCCCCCCC(=O)[O-]
REMARK SMILES IDX 13 1 14 2 15 3 16 4 17 5 18 6 19 7 20 8 21 9 22 10 23 11
REMARK SMILES IDX 24 12 25 13 26 14 12 15 11 16 10 17 9 18 8 19 7 20 6 21 5 22
REMARK SMILES IDX 4 23 3 24 2 25 1 26
REMARK H PARENT
REMARK Flexibility Score: inf
ROOT
ATOM      1  C   UNL     1      15.056 -33.866  20.101  1.00  0.00     0.000 C 
ENDROOT
BRANCH   1   2
ATOM      2  C   UNL     1      16.092 -34.681  19.312  1.00  0.00     0.000 C 
BRANCH   2   3
ATOM      3  C   UNL     1      16.161 -36.124  19.826  1.00  0.00     0.000 C 
BRANCH   3   4
ATOM      4  C   UNL     1      17.562 -36.719  19.611  1.00  0.00     0.000 C 
BRANCH   4   5
ATOM      5  C   UNL     1      18.263 -37.081  20.929  1.00  0.00     0.000 C 
BRANCH   5   6
ATOM      6  C   UNL     1      18.314 -35.901  21.916  1.00  0.00     0.000 C 
BRANCH   6   7
ATOM      7  C   UNL     1      19.383 -34.863  21.537  1.00  0.00     0.000 C 
BRANCH   7   8
ATOM      8  C   UNL     1      18.903 -33.417  21.754  1.00  0.00     0.000 C 
BRANCH   8   9
ATOM      9  C   UNL     1      18.772 -32.627  20.439  1.00  0.00     0.000 C 
BRANCH   9  10
ATOM     10  C   UNL     1      17.795 -31.433  20.487  1.00  0.00     0.006 C 
BRANCH  10  11
ATOM     11  C   UNL     1      18.233 -30.287  21.411  1.00  0.00     0.053 C 
BRANCH  11  12
ATOM     12  C   UNL     1      17.312 -30.130  22.583  1.00  0.00     0.041 C 
ATOM     13  O   UNL     1      16.205 -29.547  22.446  1.00  0.00    -0.550 OA
ATOM     14  O   UNL     1      17.691 -30.603  23.834  1.00  0.00    -0.550 OA
ENDBRANCH  11  12
ENDBRANCH  10  11
ENDBRANCH   9  10
ENDBRANCH   8   9
ENDBRANCH   7   8
ENDBRANCH   6   7
ENDBRANCH   5   6
ENDBRANCH   4   5
ENDBRANCH   3   4
ENDBRANCH   2   3
ENDBRANCH   1   2
BRANCH   1  15
ATOM     15  C   UNL     1      15.200 -34.038  21.621  1.00  0.00     0.000 C 
BRANCH  15  16
ATOM     16  C   UNL     1      14.830 -32.767  22.399  1.00  0.00     0.000 C 
BRANCH  16  17
ATOM     17  C   UNL     1      15.185 -32.908  23.884  1.00  0.00     0.000 C 
BRANCH  17  18
ATOM     18  C   UNL     1      16.227 -34.017  24.098  1.00  0.00    -0.000 C 
BRANCH  18  19
ATOM     19  C   UNL     1      16.939 -33.903  25.455  1.00  0.00    -0.000 C 
BRANCH  19  20
ATOM     20  C   UNL     1      18.203 -34.777  25.534  1.00  0.00    -0.000 C 
BRANCH  20  21
ATOM     21  C   UNL     1      17.889 -36.284  25.502  1.00  0.00    -0.000 C 
BRANCH  21  22
ATOM     22  C   UNL     1      16.668 -36.708  26.336  1.00  0.00    -0.000 C 
BRANCH  22  23
ATOM     23  C   UNL     1      16.981 -37.843  27.324  1.00  0.00    -0.000 C 
BRANCH  23  24
ATOM     24  C   UNL     1      18.229 -37.515  28.157  1.00  0.00    -0.000 C 
BRANCH  24  25
ATOM     25  C   UNL     1      17.933 -37.448  29.663  1.00  0.00    -0.003 C 
ATOM     26  C   UNL     1      19.054 -38.043  30.513  1.00  0.00     0.004 C 
ENDBRANCH  24  25
ENDBRANCH  23  24
ENDBRANCH  22  23
ENDBRANCH  21  22
ENDBRANCH  20  21
ENDBRANCH  19  20
ENDBRANCH  18  19
ENDBRANCH  17  18
ENDBRANCH  16  17
ENDBRANCH  15  16
ENDBRANCH   1  15
TORSDOF 22
ENDMDL
MODEL 2
REMARK VINA RESULT:    -4.960      4.195      6.427
REMARK INTER + INTRA:         -14.988
REMARK INTER:                 -11.585
REMARK INTRA:                  -3.403
REMARK UNBOUND:                -3.649
REMARK SMILES CCCCCCCCCCCCCCCCCCCCCCCC(=O)[O-]
REMARK SMILES IDX 13 1 14 2 15 3 16 4 17 5 18 6 19 7 20 8 21 9 22 10 23 11
REMARK SMILES IDX 24 12 25 13 26 14 12 15 11 16 10 17 9 18 8 19 7 20 6 21 5 22
REMARK SMILES IDX 4 23 3 24 2 25 1 26
REMARK H PARENT
REMARK Flexibility Score: inf
ROOT
ATOM      1  C   UNL     1      14.803 -28.534  22.120  1.00  0.00     0.000 C 
ENDROOT
BRANCH   1   2
ATOM      2  C   UNL     1      16.029 -29.403  21.802  1.00  0.00     0.000 C 
BRANCH   2   3
ATOM      3  C   UNL     1      16.452 -30.224  23.026  1.00  0.00     0.000 C 
BRANCH   3   4
ATOM      4  C   UNL     1      17.615 -31.168  22.683  1.00  0.00     0.000 C 
BRANCH   4   5
ATOM      5  C   UNL     1      17.808 -31.346  21.168  1.00  0.00     0.000 C 
BRANCH   5   6
ATOM      6  C   UNL     1      19.289 -31.304  20.752  1.00  0.00     0.000 C 
BRANCH   6   7
ATOM      7  C   UNL     1      20.030 -30.091  21.338  1.00  0.00     0.000 C 
BRANCH   7   8
ATOM      8  C   UNL     1      19.589 -28.764  20.695  1.00  0.00     0.000 C 
BRANCH   8   9
ATOM      9  C   UNL     1      20.545 -27.599  21.012  1.00  0.00     0.000 C 
BRANCH   9  10
ATOM     10  C   UNL     1      20.034 -26.203  20.599  1.00  0.00     0.006 C 
BRANCH  10  11
ATOM     11  C   UNL     1      21.039 -25.370  19.788  1.00  0.00     0.053 C 
BRANCH  11  12
ATOM     12  C   UNL     1      22.318 -25.150  20.539  1.00  0.00     0.041 C 
ATOM     13  O   UNL     1      22.374 -24.290  21.457  1.00  0.00    -0.550 OA
ATOM     14  O   UNL     1      23.454 -25.875  20.203  1.00  0.00    -0.550 OA
ENDBRANCH  11  12
ENDBRANCH  10  11
ENDBRANCH   9  10
ENDBRANCH   8   9
ENDBRANCH   7   8
ENDBRANCH   6   7
ENDBRANCH   5   6
ENDBRANCH   4   5
ENDBRANCH   3   4
ENDBRANCH   2   3
ENDBRANCH   1   2
BRANCH   1  15
ATOM     15  C   UNL     1      13.952 -29.106  23.264  1.00  0.00     0.000 C 
BRANCH  15  16
ATOM     16  C   UNL     1      12.562 -29.562  22.797  1.00  0.00     0.000 C 
BRANCH  16  17
ATOM     17  C   UNL     1      12.578 -31.037  22.381  1.00  0.00     0.000 C 
BRANCH  17  18
ATOM     18  C   UNL     1      12.778 -31.180  20.864  1.00  0.00    -0.000 C 
BRANCH  18  19
ATOM     19  C   UNL     1      13.758 -32.307  20.502  1.00  0.00    -0.000 C 
BRANCH  19  20
ATOM     20  C   UNL     1      14.461 -32.898  21.736  1.00  0.00    -0.000 C 
BRANCH  20  21
ATOM     21  C   UNL     1      15.280 -34.161  21.409  1.00  0.00    -0.000 C 
BRANCH  21  22
ATOM     22  C   UNL     1      15.353 -34.514  19.913  1.00  0.00    -0.000 C 
BRANCH  22  23
ATOM     23  C   UNL     1      16.532 -35.439  19.572  1.00  0.00    -0.000 C 
BRANCH  23  24
ATOM     24  C   UNL     1      17.871 -34.765  19.904  1.00  0.00    -0.000 C 
BRANCH  24  25
ATOM     25  C   UNL     1      18.661 -35.519  20.984  1.00  0.00    -0.003 C 
ATOM     26  C   UNL     1      18.907 -34.675  22.234  1.00  0.00     0.004 C 
ENDBRANCH  24  25
ENDBRANCH  23  24
ENDBRANCH  22  23
ENDBRANCH  21  22
ENDBRANCH  20  21
ENDBRANCH  19  20
ENDBRANCH  18  19
ENDBRANCH  17  18
ENDBRANCH  16  17
ENDBRANCH  15  16
ENDBRANCH   1  15
TORSDOF 22
ENDMDL
MODEL 3
REMARK VINA RESULT:    -4.919      3.172      7.206
REMARK INTER + INTRA:         -14.895
REMARK INTER:                 -11.244
REMARK INTRA:                  -3.651
REMARK UNBOUND:                -3.649
REMARK SMILES CCCCCCCCCCCCCCCCCCCCCCCC(=O)[O-]
REMARK SMILES IDX 13 1 14 2 15 3 16 4 17 5 18 6 19 7 20 8 21 9 22 10 23 11
REMARK SMILES IDX 24 12 25 13 26 14 12 15 11 16 10 17 9 18 8 19 7 20 6 21 5 22
REMARK SMILES IDX 4 23 3 24 2 25 1 26
REMARK H PARENT
REMARK Flexibility Score: inf
ROOT
ATOM      1  C   UNL     1      16.138 -35.866  19.847  1.00  0.00     0.000 C 
ENDROOT
BRANCH   1   2
ATOM      2  C   UNL     1      17.577 -36.404  19.837  1.00  0.00     0.000 C 
BRANCH   2   3
ATOM      3  C   UNL     1      18.000 -36.865  21.237  1.00  0.00     0.000 C 
BRANCH   3   4
ATOM      4  C   UNL     1      19.133 -35.986  21.787  1.00  0.00     0.000 C 
BRANCH   4   5
ATOM      5  C   UNL     1      18.750 -35.270  23.093  1.00  0.00     0.000 C 
BRANCH   5   6
ATOM      6  C   UNL     1      17.262 -34.883  23.141  1.00  0.00     0.000 C 
BRANCH   6   7
ATOM      7  C   UNL     1      17.016 -33.584  23.926  1.00  0.00     0.000 C 
BRANCH   7   8
ATOM      8  C   UNL     1      15.983 -32.670  23.244  1.00  0.00     0.000 C 
BRANCH   8   9
ATOM      9  C   UNL     1      16.202 -31.180  23.560  1.00  0.00     0.000 C 
BRANCH   9  10
ATOM     10  C   UNL     1      15.187 -30.217  22.909  1.00  0.00     0.006 C 
BRANCH  10  11
ATOM     11  C   UNL     1      14.816 -30.566  21.459  1.00  0.00     0.053 C 
BRANCH  11  12
ATOM     12  C   UNL     1      13.458 -31.191  21.364  1.00  0.00     0.041 C 
ATOM     13  O   UNL     1      12.618 -31.029  22.288  1.00  0.00    -0.550 OA
ATOM     14  O   UNL     1      13.129 -31.977  20.266  1.00  0.00    -0.550 OA
ENDBRANCH  11  12
ENDBRANCH  10  11
ENDBRANCH   9  10
ENDBRANCH   8   9
ENDBRANCH   7   8
ENDBRANCH   6   7
ENDBRANCH   5   6
ENDBRANCH   4   5
ENDBRANCH   3   4
ENDBRANCH   2   3
ENDBRANCH   1   2
BRANCH   1  15
ATOM     15  C   UNL     1      16.068 -34.355  19.579  1.00  0.00     0.000 C 
BRANCH  15  16
ATOM     16  C   UNL     1      17.443 -33.743  19.278  1.00  0.00     0.000 C 
BRANCH  16  17
ATOM     17  C   UNL     1      17.645 -32.436  20.053  1.00  0.00     0.000 C 
BRANCH  17  18
ATOM     18  C   UNL     1      18.964 -32.460  20.841  1.00  0.00    -0.000 C 
BRANCH  18  19
ATOM     19  C   UNL     1      19.388 -31.064  21.324  1.00  0.00    -0.000 C 
BRANCH  19  20
ATOM     20  C   UNL     1      18.432 -29.957  20.846  1.00  0.00    -0.000 C 
BRANCH  20  21
ATOM     21  C   UNL     1      19.109 -28.576  20.770  1.00  0.00    -0.000 C 
BRANCH  21  22
ATOM     22  C   UNL     1      20.644 -28.613  20.672  1.00  0.00    -0.000 C 
BRANCH  22  23
ATOM     23  C   UNL     1      21.289 -27.226  20.826  1.00  0.00    -0.000 C 
BRANCH  23  24
ATOM     24  C   UNL     1      20.316 -26.120  20.392  1.00  0.00    -0.000 C 
BRANCH  24  25
ATOM     25  C   UNL     1      20.328 -24.916  21.347  1.00  0.00    -0.003 C 
ATOM     26  C   UNL     1      21.403 -25.028  22.427  1.00  0.00     0.004 C 
ENDBRANCH  24  25
ENDBRANCH  23  24
ENDBRANCH  22  23
ENDBRANCH  21  22
ENDBRANCH  20  21
ENDBRANCH  19  20
ENDBRANCH  18  19
ENDBRANCH  17  18
ENDBRANCH  16  17
ENDBRANCH  15  16
ENDBRANCH   1  15
TORSDOF 22
ENDMDL
MODEL 4
REMARK VINA RESULT:    -4.905      2.882      4.843
REMARK INTER + INTRA:         -14.861
REMARK INTER:                 -10.854
REMARK INTRA:                  -4.008
REMARK UNBOUND:                -3.649
REMARK SMILES CCCCCCCCCCCCCCCCCCCCCCCC(=O)[O-]
REMARK SMILES IDX 13 1 14 2 15 3 16 4 17 5 18 6 19 7 20 8 21 9 22 10 23 11
REMARK SMILES IDX 24 12 25 13 26 14 12 15 11 16 10 17 9 18 8 19 7 20 6 21 5 22
REMARK SMILES IDX 4 23 3 24 2 25 1 26
REMARK H PARENT
REMARK Flexibility Score: inf
ROOT
ATOM      1  C   UNL     1      17.905 -33.542  19.327  1.00  0.00     0.000 C 
ENDROOT
BRANCH   1   2
ATOM      2  C   UNL     1      17.907 -35.075  19.427  1.00  0.00     0.000 C 
BRANCH   2   3
ATOM      3  C   UNL     1      16.476 -35.627  19.428  1.00  0.00     0.000 C 
BRANCH   3   4
ATOM      4  C   UNL     1      15.612 -34.916  20.481  1.00  0.00     0.000 C 
BRANCH   4   5
ATOM      5  C   UNL     1      14.625 -33.913  19.863  1.00  0.00     0.000 C 
BRANCH   5   6
ATOM      6  C   UNL     1      14.247 -32.780  20.833  1.00  0.00     0.000 C 
BRANCH   6   7
ATOM      7  C   UNL     1      14.833 -32.989  22.239  1.00  0.00     0.000 C 
BRANCH   7   8
ATOM      8  C   UNL     1      14.300 -31.966  23.257  1.00  0.00     0.000 C 
BRANCH   8   9
ATOM      9  C   UNL     1      15.109 -30.656  23.268  1.00  0.00     0.000 C 
BRANCH   9  10
ATOM     10  C   UNL     1      14.268 -29.367  23.151  1.00  0.00     0.006 C 
BRANCH  10  11
ATOM     11  C   UNL     1      12.756 -29.573  23.326  1.00  0.00     0.053 C 
BRANCH  11  12
ATOM     12  C   UNL     1      12.090 -28.364  23.911  1.00  0.00     0.041 C 
ATOM     13  O   UNL     1      12.614 -27.759  24.882  1.00  0.00    -0.550 OA
ATOM     14  O   UNL     1      10.875 -27.924  23.400  1.00  0.00    -0.550 OA
ENDBRANCH  11  12
ENDBRANCH  10  11
ENDBRANCH   9  10
ENDBRANCH   8   9
ENDBRANCH   7   8
ENDBRANCH   6   7
ENDBRANCH   5   6
ENDBRANCH   4   5
ENDBRANCH   3   4
ENDBRANCH   2   3
ENDBRANCH   1   2
BRANCH   1  15
ATOM     15  C   UNL     1      18.455 -32.865  20.592  1.00  0.00     0.000 C 
BRANCH  15  16
ATOM     16  C   UNL     1      17.853 -31.473  20.828  1.00  0.00     0.000 C 
BRANCH  16  17
ATOM     17  C   UNL     1      18.928 -30.479  21.285  1.00  0.00     0.000 C 
BRANCH  17  18
ATOM     18  C   UNL     1      19.644 -30.985  22.546  1.00  0.00    -0.000 C 
BRANCH  18  19
ATOM     19  C   UNL     1      18.725 -31.008  23.778  1.00  0.00    -0.000 C 
BRANCH  19  20
ATOM     20  C   UNL     1      18.870 -32.301  24.599  1.00  0.00    -0.000 C 
BRANCH  20  21
ATOM     21  C   UNL     1      17.552 -33.088  24.711  1.00  0.00    -0.000 C 
BRANCH  21  22
ATOM     22  C   UNL     1      17.711 -34.619  24.718  1.00  0.00    -0.000 C 
BRANCH  22  23
ATOM     23  C   UNL     1      17.694 -35.230  23.308  1.00  0.00    -0.000 C 
BRANCH  23  24
ATOM     24  C   UNL     1      18.939 -36.096  23.072  1.00  0.00    -0.000 C 
BRANCH  24  25
ATOM     25  C   UNL     1      20.084 -35.315  22.407  1.00  0.00    -0.003 C 
ATOM     26  C   UNL     1      21.211 -34.974  23.382  1.00  0.00     0.004 C 
ENDBRANCH  24  25
ENDBRANCH  23  24
ENDBRANCH  22  23
ENDBRANCH  21  22
ENDBRANCH  20  21
ENDBRANCH  19  20
ENDBRANCH  18  19
ENDBRANCH  17  18
ENDBRANCH  16  17
ENDBRANCH  15  16
ENDBRANCH   1  15
TORSDOF 22
ENDMDL
MODEL 5
REMARK VINA RESULT:    -4.855      1.739      4.416
REMARK INTER + INTRA:         -14.747
REMARK INTER:                 -11.012
REMARK INTRA:                  -3.735
REMARK UNBOUND:                -3.649
REMARK SMILES CCCCCCCCCCCCCCCCCCCCCCCC(=O)[O-]
REMARK SMILES IDX 13 1 14 2 15 3 16 4 17 5 18 6 19 7 20 8 21 9 22 10 23 11
REMARK SMILES IDX 24 12 25 13 26 14 12 15 11 16 10 17 9 18 8 19 7 20 6 21 5 22
REMARK SMILES IDX 4 23 3 24 2 25 1 26
REMARK H PARENT
REMARK Flexibility Score: inf
ROOT
ATOM      1  C   UNL     1      17.949 -31.533  20.312  1.00  0.00     0.000 C 
ENDROOT
BRANCH   1   2
ATOM      2  C   UNL     1      18.448 -31.007  21.667  1.00  0.00     0.000 C 
BRANCH   2   3
ATOM      3  C   UNL     1      17.346 -30.227  22.393  1.00  0.00     0.000 C 
BRANCH   3   4
ATOM      4  C   UNL     1      17.028 -30.863  23.755  1.00  0.00     0.000 C 
BRANCH   4   5
ATOM      5  C   UNL     1      17.382 -32.357  23.812  1.00  0.00     0.000 C 
BRANCH   5   6
ATOM      6  C   UNL     1      16.218 -33.222  24.327  1.00  0.00     0.000 C 
BRANCH   6   7
ATOM      7  C   UNL     1      14.957 -33.088  23.458  1.00  0.00     0.000 C 
BRANCH   7   8
ATOM      8  C   UNL     1      15.156 -33.650  22.039  1.00  0.00     0.000 C 
BRANCH   8   9
ATOM      9  C   UNL     1      14.519 -32.768  20.951  1.00  0.00     0.000 C 
BRANCH   9  10
ATOM     10  C   UNL     1      13.491 -31.736  21.463  1.00  0.00     0.006 C 
BRANCH  10  11
ATOM     11  C   UNL     1      13.955 -30.274  21.372  1.00  0.00     0.053 C 
BRANCH  11  12
ATOM     12  C   UNL     1      13.421 -29.446  22.502  1.00  0.00     0.041 C 
ATOM     13  O   UNL     1      14.206 -28.781  23.227  1.00  0.00    -0.550 OA
ATOM     14  O   UNL     1      12.057 -29.433  22.770  1.00  0.00    -0.550 OA
ENDBRANCH  11  12
ENDBRANCH  10  11
ENDBRANCH   9  10
ENDBRANCH   8   9
ENDBRANCH   7   8
ENDBRANCH   6   7
ENDBRANCH   5   6
ENDBRANCH   4   5
ENDBRANCH   3   4
ENDBRANCH   2   3
ENDBRANCH   1   2
BRANCH   1  15
ATOM     15  C   UNL     1      18.282 -33.017  20.093  1.00  0.00     0.000 C 
BRANCH  15  16
ATOM     16  C   UNL     1      17.491 -33.636  18.932  1.00  0.00     0.000 C 
BRANCH  16  17
ATOM     17  C   UNL     1      17.318 -35.146  19.129  1.00  0.00     0.000 C 
BRANCH  17  18
ATOM     18  C   UNL     1      18.367 -35.698  20.107  1.00  0.00    -0.000 C 
BRANCH  18  19
ATOM     19  C   UNL     1      17.734 -36.459  21.283  1.00  0.00    -0.000 C 
BRANCH  19  20
ATOM     20  C   UNL     1      17.945 -35.745  22.630  1.00  0.00    -0.000 C 
BRANCH  20  21
ATOM     21  C   UNL     1      19.077 -36.370  23.466  1.00  0.00    -0.000 C 
BRANCH  21  22
ATOM     22  C   UNL     1      19.154 -35.876  24.921  1.00  0.00    -0.000 C 
BRANCH  22  23
ATOM     23  C   UNL     1      19.341 -37.017  25.933  1.00  0.00    -0.000 C 
BRANCH  23  24
ATOM     24  C   UNL     1      18.076 -37.883  26.022  1.00  0.00    -0.000 C 
BRANCH  24  25
ATOM     25  C   UNL     1      16.865 -37.106  26.561  1.00  0.00    -0.003 C 
ATOM     26  C   UNL     1      16.534 -37.458  28.011  1.00  0.00     0.004 C 
ENDBRANCH  24  25
ENDBRANCH  23  24
ENDBRANCH  22  23
ENDBRANCH  21  22
ENDBRANCH  20  21
ENDBRANCH  19  20
ENDBRANCH  18  19
ENDBRANCH  17  18
ENDBRANCH  16  17
ENDBRANCH  15  16
ENDBRANCH   1  15
TORSDOF 22
ENDMDL
MODEL 6
REMARK VINA RESULT:    -4.844      3.436      5.966
REMARK INTER + INTRA:         -14.722
REMARK INTER:                 -11.701
REMARK INTRA:                  -3.021
REMARK UNBOUND:                -3.649
REMARK SMILES CCCCCCCCCCCCCCCCCCCCCCCC(=O)[O-]
REMARK SMILES IDX 13 1 14 2 15 3 16 4 17 5 18 6 19 7 20 8 21 9 22 10 23 11
REMARK SMILES IDX 24 12 25 13 26 14 12 15 11 16 10 17 9 18 8 19 7 20 6 21 5 22
REMARK SMILES IDX 4 23 3 24 2 25 1 26
REMARK H PARENT
REMARK Flexibility Score: inf
ROOT
ATOM      1  C   UNL     1      15.896 -35.855  19.878  1.00  0.00     0.000 C 
ENDROOT
BRANCH   1   2
ATOM      2  C   UNL     1      16.016 -34.325  19.805  1.00  0.00     0.000 C 
BRANCH   2   3
ATOM      3  C   UNL     1      17.260 -33.910  19.011  1.00  0.00     0.000 C 
BRANCH   3   4
ATOM      4  C   UNL     1      18.210 -33.068  19.876  1.00  0.00     0.000 C 
BRANCH   4   5
ATOM      5  C   UNL     1      17.544 -31.798  20.428  1.00  0.00     0.000 C 
BRANCH   5   6
ATOM      6  C   UNL     1      18.394 -31.106  21.509  1.00  0.00     0.000 C 
BRANCH   6   7
ATOM      7  C   UNL     1      19.867 -30.959  21.094  1.00  0.00     0.000 C 
BRANCH   7   8
ATOM      8  C   UNL     1      20.530 -29.714  21.711  1.00  0.00     0.000 C 
BRANCH   8   9
ATOM      9  C   UNL     1      20.962 -28.681  20.655  1.00  0.00     0.000 C 
BRANCH   9  10
ATOM     10  C   UNL     1      21.912 -27.578  21.167  1.00  0.00     0.006 C 
BRANCH  10  11
ATOM     11  C   UNL     1      22.698 -26.850  20.066  1.00  0.00     0.053 C 
BRANCH  11  12
ATOM     12  C   UNL     1      22.089 -25.523  19.728  1.00  0.00     0.041 C 
ATOM     13  O   UNL     1      22.822 -24.550  19.413  1.00  0.00    -0.550 OA
ATOM     14  O   UNL     1      20.711 -25.355  19.789  1.00  0.00    -0.550 OA
ENDBRANCH  11  12
ENDBRANCH  10  11
ENDBRANCH   9  10
ENDBRANCH   8   9
ENDBRANCH   7   8
ENDBRANCH   6   7
ENDBRANCH   5   6
ENDBRANCH   4   5
ENDBRANCH   3   4
ENDBRANCH   2   3
ENDBRANCH   1   2
BRANCH   1  15
ATOM     15  C   UNL     1      17.217 -36.569  19.549  1.00  0.00     0.000 C 
BRANCH  15  16
ATOM     16  C   UNL     1      17.845 -37.246  20.776  1.00  0.00     0.000 C 
BRANCH  16  17
ATOM     17  C   UNL     1      18.781 -36.284  21.516  1.00  0.00     0.000 C 
BRANCH  17  18
ATOM     18  C   UNL     1      18.049 -35.586  22.673  1.00  0.00    -0.000 C 
BRANCH  18  19
ATOM     19  C   UNL     1      18.894 -34.479  23.323  1.00  0.00    -0.000 C 
BRANCH  19  20
ATOM     20  C   UNL     1      18.072 -33.585  24.267  1.00  0.00    -0.000 C 
BRANCH  20  21
ATOM     21  C   UNL     1      16.553 -33.772  24.094  1.00  0.00    -0.000 C 
BRANCH  21  22
ATOM     22  C   UNL     1      15.791 -32.507  23.662  1.00  0.00    -0.000 C 
BRANCH  22  23
ATOM     23  C   UNL     1      14.274 -32.728  23.553  1.00  0.00    -0.000 C 
BRANCH  23  24
ATOM     24  C   UNL     1      13.537 -31.392  23.384  1.00  0.00    -0.000 C 
BRANCH  24  25
ATOM     25  C   UNL     1      13.726 -30.786  21.984  1.00  0.00    -0.003 C 
ATOM     26  C   UNL     1      13.453 -31.789  20.864  1.00  0.00     0.004 C 
ENDBRANCH  24  25
ENDBRANCH  23  24
ENDBRANCH  22  23
ENDBRANCH  21  22
ENDBRANCH  20  21
ENDBRANCH  19  20
ENDBRANCH  18  19
ENDBRANCH  17  18
ENDBRANCH  16  17
ENDBRANCH  15  16
ENDBRANCH   1  15
TORSDOF 22
ENDMDL
MODEL 7
REMARK VINA RESULT:    -4.810      2.754      6.229
REMARK INTER + INTRA:         -14.646
REMARK INTER:                 -11.031
REMARK INTRA:                  -3.615
REMARK UNBOUND:                -3.649
REMARK SMILES CCCCCCCCCCCCCCCCCCCCCCCC(=O)[O-]
REMARK SMILES IDX 13 1 14 2 15 3 16 4 17 5 18 6 19 7 20 8 21 9 22 10 23 11
REMARK SMILES IDX 24 12 25 13 26 14 12 15 11 16 10 17 9 18 8 19 7 20 6 21 5 22
REMARK SMILES IDX 4 23 3 24 2 25 1 26
REMARK H PARENT
REMARK Flexibility Score: inf
ROOT
ATOM      1  C   UNL     1      14.814 -33.504  21.193  1.00  0.00     0.000 C 
ENDROOT
BRANCH   1   2
ATOM      2  C   UNL     1      15.117 -34.620  20.182  1.00  0.00     0.000 C 
BRANCH   2   3
ATOM      3  C   UNL     1      16.316 -34.250  19.300  1.00  0.00     0.000 C 
BRANCH   3   4
ATOM      4  C   UNL     1      17.403 -35.333  19.366  1.00  0.00     0.000 C 
BRANCH   4   5
ATOM      5  C   UNL     1      16.991 -36.538  20.227  1.00  0.00     0.000 C 
BRANCH   5   6
ATOM      6  C   UNL     1      18.144 -37.063  21.100  1.00  0.00     0.000 C 
BRANCH   6   7
ATOM      7  C   UNL     1      19.044 -35.933  21.628  1.00  0.00     0.000 C 
BRANCH   7   8
ATOM      8  C   UNL     1      18.909 -35.736  23.148  1.00  0.00     0.000 C 
BRANCH   8   9
ATOM      9  C   UNL     1      17.498 -35.288  23.571  1.00  0.00     0.000 C 
BRANCH   9  10
ATOM     10  C   UNL     1      17.208 -35.380  25.084  1.00  0.00     0.006 C 
BRANCH  10  11
ATOM     11  C   UNL     1      18.338 -36.009  25.913  1.00  0.00     0.053 C 
BRANCH  11  12
ATOM     12  C   UNL     1      17.823 -37.039  26.872  1.00  0.00     0.041 C 
ATOM     13  O   UNL     1      18.554 -37.459  27.806  1.00  0.00    -0.550 OA
ATOM     14  O   UNL     1      16.543 -37.557  26.714  1.00  0.00    -0.550 OA
ENDBRANCH  11  12
ENDBRANCH  10  11
ENDBRANCH   9  10
ENDBRANCH   8   9
ENDBRANCH   7   8
ENDBRANCH   6   7
ENDBRANCH   5   6
ENDBRANCH   4   5
ENDBRANCH   3   4
ENDBRANCH   2   3
ENDBRANCH   1   2
BRANCH   1  15
ATOM     15  C   UNL     1      13.852 -32.444  20.635  1.00  0.00     0.000 C 
BRANCH  15  16
ATOM     16  C   UNL     1      13.335 -31.484  21.716  1.00  0.00     0.000 C 
BRANCH  16  17
ATOM     17  C   UNL     1      14.306 -30.316  21.924  1.00  0.00     0.000 C 
BRANCH  17  18
ATOM     18  C   UNL     1      15.133 -30.510  23.204  1.00  0.00    -0.000 C 
BRANCH  18  19
ATOM     19  C   UNL     1      16.628 -30.223  22.990  1.00  0.00    -0.000 C 
BRANCH  19  20
ATOM     20  C   UNL     1      16.962 -29.892  21.525  1.00  0.00    -0.000 C 
BRANCH  20  21
ATOM     21  C   UNL     1      17.617 -31.071  20.782  1.00  0.00    -0.000 C 
BRANCH  21  22
ATOM     22  C   UNL     1      18.248 -32.139  21.692  1.00  0.00    -0.000 C 
BRANCH  22  23
ATOM     23  C   UNL     1      19.783 -32.065  21.729  1.00  0.00    -0.000 C 
BRANCH  23  24
ATOM     24  C   UNL     1      20.252 -30.796  22.453  1.00  0.00    -0.000 C 
BRANCH  24  25
ATOM     25  C   UNL     1      21.233 -29.964  21.612  1.00  0.00    -0.003 C 
ATOM     26  C   UNL     1      20.568 -28.761  20.946  1.00  0.00     0.004 C 
ENDBRANCH  24  25
ENDBRANCH  23  24
ENDBRANCH  22  23
ENDBRANCH  21  22
ENDBRANCH  20  21
ENDBRANCH  19  20
ENDBRANCH  18  19
ENDBRANCH  17  18
ENDBRANCH  16  17
ENDBRANCH  15  16
ENDBRANCH   1  15
TORSDOF 22
ENDMDL
MODEL 8
REMARK VINA RESULT:    -4.785      3.778      5.984
REMARK INTER + INTRA:         -14.587
REMARK INTER:                 -11.033
REMARK INTRA:                  -3.554
REMARK UNBOUND:                -3.649
REMARK SMILES CCCCCCCCCCCCCCCCCCCCCCCC(=O)[O-]
REMARK SMILES IDX 13 1 14 2 15 3 16 4 17 5 18 6 19 7 20 8 21 9 22 10 23 11
REMARK SMILES IDX 24 12 25 13 26 14 12 15 11 16 10 17 9 18 8 19 7 20 6 21 5 22
REMARK SMILES IDX 4 23 3 24 2 25 1 26
REMARK H PARENT
REMARK Flexibility Score: inf
ROOT
ATOM      1  C   UNL     1      17.653 -36.374  19.940  1.00  0.00     0.000 C 
ENDROOT
BRANCH   1   2
ATOM      2  C   UNL     1      18.308 -36.530  21.321  1.00  0.00     0.000 C 
BRANCH   2   3
ATOM      3  C   UNL     1      17.624 -35.631  22.358  1.00  0.00     0.000 C 
BRANCH   3   4
ATOM      4  C   UNL     1      18.564 -34.507  22.818  1.00  0.00     0.000 C 
BRANCH   4   5
ATOM      5  C   UNL     1      19.964 -34.609  22.192  1.00  0.00     0.000 C 
BRANCH   5   6
ATOM      6  C   UNL     1      20.901 -33.478  22.652  1.00  0.00     0.000 C 
BRANCH   6   7
ATOM      7  C   UNL     1      20.188 -32.119  22.733  1.00  0.00     0.000 C 
BRANCH   7   8
ATOM      8  C   UNL     1      21.039 -30.972  22.158  1.00  0.00     0.000 C 
BRANCH   8   9
ATOM      9  C   UNL     1      20.202 -29.934  21.388  1.00  0.00     0.000 C 
BRANCH   9  10
ATOM     10  C   UNL     1      21.018 -28.914  20.568  1.00  0.00     0.006 C 
BRANCH  10  11
ATOM     11  C   UNL     1      21.274 -27.578  21.283  1.00  0.00     0.053 C 
BRANCH  11  12
ATOM     12  C   UNL     1      21.966 -26.590  20.393  1.00  0.00     0.041 C 
ATOM     13  O   UNL     1      21.487 -25.437  20.232  1.00  0.00    -0.550 OA
ATOM     14  O   UNL     1      23.125 -26.954  19.719  1.00  0.00    -0.550 OA
ENDBRANCH  11  12
ENDBRANCH  10  11
ENDBRANCH   9  10
ENDBRANCH   8   9
ENDBRANCH   7   8
ENDBRANCH   6   7
ENDBRANCH   5   6
ENDBRANCH   4   5
ENDBRANCH   3   4
ENDBRANCH   2   3
ENDBRANCH   1   2
BRANCH   1  15
ATOM     15  C   UNL     1      16.344 -35.572  19.993  1.00  0.00     0.000 C 
BRANCH  15  16
ATOM     16  C   UNL     1      16.415 -34.267  19.187  1.00  0.00     0.000 C 
BRANCH  16  17
ATOM     17  C   UNL     1      17.822 -33.661  19.245  1.00  0.00     0.000 C 
BRANCH  17  18
ATOM     18  C   UNL     1      17.804 -32.293  19.944  1.00  0.00    -0.000 C 
BRANCH  18  19
ATOM     19  C   UNL     1      16.655 -32.163  20.957  1.00  0.00    -0.000 C 
BRANCH  19  20
ATOM     20  C   UNL     1      16.680 -30.822  21.710  1.00  0.00    -0.000 C 
BRANCH  20  21
ATOM     21  C   UNL     1      16.314 -30.966  23.199  1.00  0.00    -0.000 C 
BRANCH  21  22
ATOM     22  C   UNL     1      15.536 -32.246  23.552  1.00  0.00    -0.000 C 
BRANCH  22  23
ATOM     23  C   UNL     1      14.014 -32.037  23.574  1.00  0.00    -0.000 C 
BRANCH  23  24
ATOM     24  C   UNL     1      13.668 -30.546  23.700  1.00  0.00    -0.000 C 
BRANCH  24  25
ATOM     25  C   UNL     1      12.811 -30.038  22.530  1.00  0.00    -0.003 C 
ATOM     26  C   UNL     1      12.762 -31.021  21.362  1.00  0.00     0.004 C 
ENDBRANCH  24  25
ENDBRANCH  23  24
ENDBRANCH  22  23
ENDBRANCH  21  22
ENDBRANCH  20  21
ENDBRANCH  19  20
ENDBRANCH  18  19
ENDBRANCH  17  18
ENDBRANCH  16  17
ENDBRANCH  15  16
ENDBRANCH   1  15
TORSDOF 22
ENDMDL
MODEL 9
REMARK VINA RESULT:    -4.758      2.962      5.190
REMARK INTER + INTRA:         -14.527
REMARK INTER:                 -10.956
REMARK INTRA:                  -3.570
REMARK UNBOUND:                -3.649
REMARK SMILES CCCCCCCCCCCCCCCCCCCCCCCC(=O)[O-]
REMARK SMILES IDX 13 1 14 2 15 3 16 4 17 5 18 6 19 7 20 8 21 9 22 10 23 11
REMARK SMILES IDX 24 12 25 13 26 14 12 15 11 16 10 17 9 18 8 19 7 20 6 21 5 22
REMARK SMILES IDX 4 23 3 24 2 25 1 26
REMARK H PARENT
REMARK Flexibility Score: inf
ROOT
ATOM      1  C   UNL     1      13.184 -31.322  20.945  1.00  0.00     0.000 C 
ENDROOT
BRANCH   1   2
ATOM      2  C   UNL     1      12.513 -30.544  22.087  1.00  0.00     0.000 C 
BRANCH   2   3
ATOM      3  C   UNL     1      13.556 -30.022  23.083  1.00  0.00     0.000 C 
BRANCH   3   4
ATOM      4  C   UNL     1      14.359 -28.859  22.481  1.00  0.00     0.000 C 
BRANCH   4   5
ATOM      5  C   UNL     1      15.815 -29.241  22.170  1.00  0.00     0.000 C 
BRANCH   5   6
ATOM      6  C   UNL     1      16.385 -30.263  23.170  1.00  0.00     0.000 C 
BRANCH   6   7
ATOM      7  C   UNL     1      17.050 -31.461  22.472  1.00  0.00     0.000 C 
BRANCH   7   8
ATOM      8  C   UNL     1      17.639 -31.090  21.099  1.00  0.00     0.000 C 
BRANCH   8   9
ATOM      9  C   UNL     1      19.161 -31.313  21.022  1.00  0.00     0.000 C 
BRANCH   9  10
ATOM     10  C   UNL     1      20.020 -30.176  21.614  1.00  0.00     0.006 C 
BRANCH  10  11
ATOM     11  C   UNL     1      20.342 -29.041  20.630  1.00  0.00     0.053 C 
BRANCH  11  12
ATOM     12  C   UNL     1      21.403 -28.125  21.160  1.00  0.00     0.041 C 
ATOM     13  O   UNL     1      22.046 -28.432  22.198  1.00  0.00    -0.550 OA
ATOM     14  O   UNL     1      21.660 -26.917  20.523  1.00  0.00    -0.550 OA
ENDBRANCH  11  12
ENDBRANCH  10  11
ENDBRANCH   9  10
ENDBRANCH   8   9
ENDBRANCH   7   8
ENDBRANCH   6   7
ENDBRANCH   5   6
ENDBRANCH   4   5
ENDBRANCH   3   4
ENDBRANCH   2   3
ENDBRANCH   1   2
BRANCH   1  15
ATOM     15  C   UNL     1      13.989 -32.531  21.445  1.00  0.00     0.000 C 
BRANCH  15  16
ATOM     16  C   UNL     1      14.603 -33.349  20.300  1.00  0.00     0.000 C 
BRANCH  16  17
ATOM     17  C   UNL     1      15.351 -34.574  20.839  1.00  0.00     0.000 C 
BRANCH  17  18
ATOM     18  C   UNL     1      15.991 -35.375  19.695  1.00  0.00    -0.000 C 
BRANCH  18  19
ATOM     19  C   UNL     1      17.260 -36.122  20.136  1.00  0.00    -0.000 C 
BRANCH  19  20
ATOM     20  C   UNL     1      18.338 -35.177  20.694  1.00  0.00    -0.000 C 
BRANCH  20  21
ATOM     21  C   UNL     1      18.820 -35.585  22.098  1.00  0.00    -0.000 C 
BRANCH  21  22
ATOM     22  C   UNL     1      18.618 -34.516  23.187  1.00  0.00    -0.000 C 
BRANCH  22  23
ATOM     23  C   UNL     1      17.386 -34.780  24.066  1.00  0.00    -0.000 C 
BRANCH  23  24
ATOM     24  C   UNL     1      17.354 -33.822  25.266  1.00  0.00    -0.000 C 
BRANCH  24  25
ATOM     25  C   UNL     1      18.733 -33.219  25.577  1.00  0.00    -0.003 C 
ATOM     26  C   UNL     1      18.678 -31.712  25.821  1.00  0.00     0.004 C 
ENDBRANCH  24  25
ENDBRANCH  23  24
ENDBRANCH  22  23
ENDBRANCH  21  22
ENDBRANCH  20  21
ENDBRANCH  19  20
ENDBRANCH  18  19
ENDBRANCH  17  18
ENDBRANCH  16  17
ENDBRANCH  15  16
ENDBRANCH   1  15
TORSDOF 22
ENDMDL
