MODEL 1
REMARK VINA RESULT:    -3.931      0.000      0.000
REMARK INTER + INTRA:         -12.408
REMARK INTER:                  -8.528
REMARK INTRA:                  -3.880
REMARK UNBOUND:                -3.880
REMARK SMILES CCCCCCCCCCCCCCCCCCCCCC(=O)[O-]
REMARK SMILES IDX 12 1 11 2 10 3 9 4 8 5 7 6 6 7 5 8 4 9 3 10 2 11 1 12 13 13
REMARK SMILES IDX 14 14 15 15 16 16 17 17 18 18 19 19 20 20 21 21 22 22 23 23
REMARK SMILES IDX 24 24
REMARK H PARENT
REMARK Flexibility Score: inf
ROOT
ATOM      1  C   UNL     1      47.725  -5.058  73.545  1.00  0.00     0.000 C 
ENDROOT
BRANCH   1   2
ATOM      2  C   UNL     1      47.339  -4.249  74.797  1.00  0.00     0.000 C 
BRANCH   2   3
ATOM      3  C   UNL     1      48.002  -2.865  74.843  1.00  0.00     0.000 C 
BRANCH   3   4
ATOM      4  C   UNL     1      48.774  -2.665  76.153  1.00  0.00    -0.000 C 
BRANCH   4   5
ATOM      5  C   UNL     1      50.260  -2.405  75.879  1.00  0.00    -0.000 C 
BRANCH   5   6
ATOM      6  C   UNL     1      50.991  -3.706  75.515  1.00  0.00    -0.000 C 
BRANCH   6   7
ATOM      7  C   UNL     1      51.984  -3.523  74.356  1.00  0.00    -0.000 C 
BRANCH   7   8
ATOM      8  C   UNL     1      51.501  -4.179  73.051  1.00  0.00    -0.000 C 
BRANCH   8   9
ATOM      9  C   UNL     1      50.609  -3.232  72.220  1.00  0.00    -0.000 C 
BRANCH   9  10
ATOM     10  C   UNL     1      51.149  -1.793  72.138  1.00  0.00    -0.000 C 
BRANCH  10  11
ATOM     11  C   UNL     1      50.104  -0.740  72.526  1.00  0.00    -0.003 C 
ATOM     12  C   UNL     1      48.806  -0.941  71.750  1.00  0.00     0.004 C 
ENDBRANCH  10  11
ENDBRANCH   9  10
ENDBRANCH   8   9
ENDBRANCH   7   8
ENDBRANCH   6   7
ENDBRANCH   5   6
ENDBRANCH   4   5
ENDBRANCH   3   4
ENDBRANCH   2   3
ENDBRANCH   1   2
BRANCH   1  13
ATOM     13  C   UNL     1      48.560  -6.324  73.814  1.00  0.00     0.000 C 
BRANCH  13  14
ATOM     14  C   UNL     1      48.448  -6.816  75.268  1.00  0.00     0.000 C 
BRANCH  14  15
ATOM     15  C   UNL     1      49.813  -7.177  75.877  1.00  0.00     0.000 C 
BRANCH  15  16
ATOM     16  C   UNL     1      49.687  -8.000  77.170  1.00  0.00     0.000 C 
BRANCH  16  17
ATOM     17  C   UNL     1      49.201  -7.157  78.359  1.00  0.00     0.000 C 
BRANCH  17  18
ATOM     18  C   UNL     1      50.105  -5.943  78.637  1.00  0.00     0.000 C 
BRANCH  18  19
ATOM     19  C   UNL     1      49.285  -4.669  78.932  1.00  0.00     0.000 C 
BRANCH  19  20
ATOM     20  C   UNL     1      50.114  -3.514  79.526  1.00  0.00     0.006 C 
BRANCH  20  21
ATOM     21  C   UNL     1      51.630  -3.639  79.291  1.00  0.00     0.053 C 
BRANCH  21  22
ATOM     22  C   UNL     1      52.429  -2.764  80.211  1.00  0.00     0.041 C 
ATOM     23  O   UNL     1      53.498  -3.190  80.723  1.00  0.00    -0.550 OA
ATOM     24  O   UNL     1      52.025  -1.458  80.460  1.00  0.00    -0.550 OA
ENDBRANCH  21  22
ENDBRANCH  20  21
ENDBRANCH  19  20
ENDBRANCH  18  19
ENDBRANCH  17  18
ENDBRANCH  16  17
ENDBRANCH  15  16
ENDBRANCH  14  15
ENDBRANCH  13  14
ENDBRANCH   1  13
TORSDOF 20
ENDMDL
MODEL 2
REMARK VINA RESULT:    -3.914      2.627      5.702
REMARK INTER + INTRA:         -12.371
REMARK INTER:                  -9.296
REMARK INTRA:                  -3.075
REMARK UNBOUND:                -3.880
REMARK SMILES CCCCCCCCCCCCCCCCCCCCCC(=O)[O-]
REMARK SMILES IDX 12 1 11 2 10 3 9 4 8 5 7 6 6 7 5 8 4 9 3 10 2 11 1 12 13 13
REMARK SMILES IDX 14 14 15 15 16 16 17 17 18 18 19 19 20 20 21 21 22 22 23 23
REMARK SMILES IDX 24 24
REMARK H PARENT
REMARK Flexibility Score: inf
ROOT
ATOM      1  C   UNL     1      46.181  -5.676  74.069  1.00  0.00     0.000 C 
ENDROOT
BRANCH   1   2
ATOM      2  C   UNL     1      46.173  -5.046  75.474  1.00  0.00     0.000 C 
BRANCH   2   3
ATOM      3  C   UNL     1      47.433  -5.379  76.286  1.00  0.00     0.000 C 
BRANCH   3   4
ATOM      4  C   UNL     1      47.283  -6.720  77.013  1.00  0.00    -0.000 C 
BRANCH   4   5
ATOM      5  C   UNL     1      47.672  -6.589  78.491  1.00  0.00    -0.000 C 
BRANCH   5   6
ATOM      6  C   UNL     1      48.540  -5.344  78.726  1.00  0.00    -0.000 C 
BRANCH   6   7
ATOM      7  C   UNL     1      50.027  -5.687  78.916  1.00  0.00    -0.000 C 
BRANCH   7   8
ATOM      8  C   UNL     1      50.962  -4.629  78.305  1.00  0.00    -0.000 C 
BRANCH   8   9
ATOM      9  C   UNL     1      51.289  -4.926  76.826  1.00  0.00    -0.000 C 
BRANCH   9  10
ATOM     10  C   UNL     1      50.919  -3.777  75.872  1.00  0.00    -0.000 C 
BRANCH  10  11
ATOM     11  C   UNL     1      50.544  -2.486  76.610  1.00  0.00    -0.003 C 
ATOM     12  C   UNL     1      49.112  -2.066  76.293  1.00  0.00     0.004 C 
ENDBRANCH  10  11
ENDBRANCH   9  10
ENDBRANCH   8   9
ENDBRANCH   7   8
ENDBRANCH   6   7
ENDBRANCH   5   6
ENDBRANCH   4   5
ENDBRANCH   3   4
ENDBRANCH   2   3
ENDBRANCH   1   2
BRANCH   1  13
ATOM     13  C   UNL     1      47.570  -5.805  73.417  1.00  0.00     0.000 C 
BRANCH  13  14
ATOM     14  C   UNL     1      47.862  -4.685  72.403  1.00  0.00     0.000 C 
BRANCH  14  15
ATOM     15  C   UNL     1      49.031  -3.784  72.837  1.00  0.00     0.000 C 
BRANCH  15  16
ATOM     16  C   UNL     1      48.734  -2.289  72.633  1.00  0.00     0.000 C 
BRANCH  16  17
ATOM     17  C   UNL     1      49.808  -1.587  71.788  1.00  0.00     0.000 C 
BRANCH  17  18
ATOM     18  C   UNL     1      50.847  -0.841  72.644  1.00  0.00     0.000 C 
BRANCH  18  19
ATOM     19  C   UNL     1      52.279  -1.359  72.395  1.00  0.00     0.000 C 
BRANCH  19  20
ATOM     20  C   UNL     1      52.620  -2.652  73.162  1.00  0.00     0.006 C 
BRANCH  20  21
ATOM     21  C   UNL     1      54.123  -2.851  73.426  1.00  0.00     0.053 C 
BRANCH  21  22
ATOM     22  C   UNL     1      54.494  -4.296  73.587  1.00  0.00     0.041 C 
ATOM     23  O   UNL     1      53.668  -5.112  74.073  1.00  0.00    -0.550 OA
ATOM     24  O   UNL     1      55.731  -4.753  73.150  1.00  0.00    -0.550 OA
ENDBRANCH  21  22
ENDBRANCH  20  21
ENDBRANCH  19  20
ENDBRANCH  18  19
ENDBRANCH  17  18
ENDBRANCH  16  17
ENDBRANCH  15  16
ENDBRANCH  14  15
ENDBRANCH  13  14
ENDBRANCH   1  13
TORSDOF 20
ENDMDL
MODEL 3
REMARK VINA RESULT:    -3.895      2.848      4.589
REMARK INTER + INTRA:         -12.328
REMARK INTER:                  -9.069
REMARK INTRA:                  -3.260
REMARK UNBOUND:                -3.880
REMARK SMILES CCCCCCCCCCCCCCCCCCCCCC(=O)[O-]
REMARK SMILES IDX 12 1 11 2 10 3 9 4 8 5 7 6 6 7 5 8 4 9 3 10 2 11 1 12 13 13
REMARK SMILES IDX 14 14 15 15 16 16 17 17 18 18 19 19 20 20 21 21 22 22 23 23
REMARK SMILES IDX 24 24
REMARK H PARENT
REMARK Flexibility Score: inf
ROOT
ATOM      1  C   UNL     1      47.682  -4.925  74.865  1.00  0.00     0.000 C 
ENDROOT
BRANCH   1   2
ATOM      2  C   UNL     1      47.506  -4.955  73.335  1.00  0.00     0.000 C 
BRANCH   2   3
ATOM      3  C   UNL     1      48.834  -5.126  72.584  1.00  0.00     0.000 C 
BRANCH   3   4
ATOM      4  C   UNL     1      49.659  -3.834  72.620  1.00  0.00    -0.000 C 
BRANCH   4   5
ATOM      5  C   UNL     1      48.769  -2.609  72.376  1.00  0.00    -0.000 C 
BRANCH   5   6
ATOM      6  C   UNL     1      49.524  -1.306  72.681  1.00  0.00    -0.000 C 
BRANCH   6   7
ATOM      7  C   UNL     1      50.991  -1.550  73.070  1.00  0.00    -0.000 C 
BRANCH   7   8
ATOM      8  C   UNL     1      51.980  -0.804  72.156  1.00  0.00    -0.000 C 
BRANCH   8   9
ATOM      9  C   UNL     1      53.379  -1.457  72.158  1.00  0.00    -0.000 C 
BRANCH   9  10
ATOM     10  C   UNL     1      53.629  -2.370  73.370  1.00  0.00    -0.000 C 
BRANCH  10  11
ATOM     11  C   UNL     1      53.764  -3.849  72.986  1.00  0.00    -0.003 C 
ATOM     12  C   UNL     1      54.941  -4.499  73.706  1.00  0.00     0.004 C 
ENDBRANCH  10  11
ENDBRANCH   9  10
ENDBRANCH   8   9
ENDBRANCH   7   8
ENDBRANCH   6   7
ENDBRANCH   5   6
ENDBRANCH   4   5
ENDBRANCH   3   4
ENDBRANCH   2   3
ENDBRANCH   1   2
BRANCH   1  13
ATOM     13  C   UNL     1      46.554  -4.218  75.639  1.00  0.00     0.000 C 
BRANCH  13  14
ATOM     14  C   UNL     1      47.073  -3.118  76.583  1.00  0.00     0.000 C 
BRANCH  14  15
ATOM     15  C   UNL     1      48.308  -2.393  76.022  1.00  0.00     0.000 C 
BRANCH  15  16
ATOM     16  C   UNL     1      49.521  -2.472  76.964  1.00  0.00     0.000 C 
BRANCH  16  17
ATOM     17  C   UNL     1      50.659  -3.328  76.387  1.00  0.00     0.000 C 
BRANCH  17  18
ATOM     18  C   UNL     1      51.046  -4.502  77.304  1.00  0.00     0.000 C 
BRANCH  18  19
ATOM     19  C   UNL     1      50.101  -4.621  78.518  1.00  0.00     0.000 C 
BRANCH  19  20
ATOM     20  C   UNL     1      49.547  -6.042  78.743  1.00  0.00     0.006 C 
BRANCH  20  21
ATOM     21  C   UNL     1      48.024  -6.162  78.557  1.00  0.00     0.053 C 
BRANCH  21  22
ATOM     22  C   UNL     1      47.593  -7.560  78.226  1.00  0.00     0.041 C 
ATOM     23  O   UNL     1      48.014  -8.532  78.905  1.00  0.00    -0.550 OA
ATOM     24  O   UNL     1      46.681  -7.786  77.201  1.00  0.00    -0.550 OA
ENDBRANCH  21  22
ENDBRANCH  20  21
ENDBRANCH  19  20
ENDBRANCH  18  19
ENDBRANCH  17  18
ENDBRANCH  16  17
ENDBRANCH  15  16
ENDBRANCH  14  15
ENDBRANCH  13  14
ENDBRANCH   1  13
TORSDOF 20
ENDMDL
MODEL 4
REMARK VINA RESULT:    -3.833      2.865      6.292
REMARK INTER + INTRA:         -12.194
REMARK INTER:                  -8.980
REMARK INTRA:                  -3.214
REMARK UNBOUND:                -3.880
REMARK SMILES CCCCCCCCCCCCCCCCCCCCCC(=O)[O-]
REMARK SMILES IDX 12 1 11 2 10 3 9 4 8 5 7 6 6 7 5 8 4 9 3 10 2 11 1 12 13 13
REMARK SMILES IDX 14 14 15 15 16 16 17 17 18 18 19 19 20 20 21 21 22 22 23 23
REMARK SMILES IDX 24 24
REMARK H PARENT
REMARK Flexibility Score: inf
ROOT
ATOM      1  C   UNL     1      47.133  -6.396  72.177  1.00  0.00     0.000 C 
ENDROOT
BRANCH   1   2
ATOM      2  C   UNL     1      46.246  -6.929  73.318  1.00  0.00     0.000 C 
BRANCH   2   3
ATOM      3  C   UNL     1      47.004  -7.078  74.645  1.00  0.00     0.000 C 
BRANCH   3   4
ATOM      4  C   UNL     1      46.291  -6.328  75.776  1.00  0.00    -0.000 C 
BRANCH   4   5
ATOM      5  C   UNL     1      45.645  -5.038  75.255  1.00  0.00    -0.000 C 
BRANCH   5   6
ATOM      6  C   UNL     1      46.414  -3.799  75.739  1.00  0.00    -0.000 C 
BRANCH   6   7
ATOM      7  C   UNL     1      47.498  -4.143  76.773  1.00  0.00    -0.000 C 
BRANCH   7   8
ATOM      8  C   UNL     1      48.325  -2.916  77.196  1.00  0.00    -0.000 C 
BRANCH   8   9
ATOM      9  C   UNL     1      49.728  -3.308  77.706  1.00  0.00    -0.000 C 
BRANCH   9  10
ATOM     10  C   UNL     1      50.296  -4.570  77.033  1.00  0.00    -0.000 C 
BRANCH  10  11
ATOM     11  C   UNL     1      50.875  -5.573  78.037  1.00  0.00    -0.003 C 
ATOM     12  C   UNL     1      49.781  -6.463  78.619  1.00  0.00     0.004 C 
ENDBRANCH  10  11
ENDBRANCH   9  10
ENDBRANCH   8   9
ENDBRANCH   7   8
ENDBRANCH   6   7
ENDBRANCH   5   6
ENDBRANCH   4   5
ENDBRANCH   3   4
ENDBRANCH   2   3
ENDBRANCH   1   2
BRANCH   1  13
ATOM     13  C   UNL     1      48.426  -5.692  72.627  1.00  0.00     0.000 C 
BRANCH  13  14
ATOM     14  C   UNL     1      48.305  -4.157  72.623  1.00  0.00     0.000 C 
BRANCH  14  15
ATOM     15  C   UNL     1      49.312  -3.482  73.569  1.00  0.00     0.000 C 
BRANCH  15  16
ATOM     16  C   UNL     1      49.074  -1.969  73.708  1.00  0.00     0.000 C 
BRANCH  16  17
ATOM     17  C   UNL     1      48.768  -1.296  72.361  1.00  0.00     0.000 C 
BRANCH  17  18
ATOM     18  C   UNL     1      50.021  -1.117  71.486  1.00  0.00     0.000 C 
BRANCH  18  19
ATOM     19  C   UNL     1      51.154  -0.393  72.243  1.00  0.00     0.000 C 
BRANCH  19  20
ATOM     20  C   UNL     1      52.516  -1.111  72.168  1.00  0.00     0.006 C 
BRANCH  20  21
ATOM     21  C   UNL     1      52.770  -2.104  73.316  1.00  0.00     0.053 C 
BRANCH  21  22
ATOM     22  C   UNL     1      53.433  -3.366  72.849  1.00  0.00     0.041 C 
ATOM     23  O   UNL     1      53.011  -4.486  73.239  1.00  0.00    -0.550 OA
ATOM     24  O   UNL     1      54.481  -3.310  71.939  1.00  0.00    -0.550 OA
ENDBRANCH  21  22
ENDBRANCH  20  21
ENDBRANCH  19  20
ENDBRANCH  18  19
ENDBRANCH  17  18
ENDBRANCH  16  17
ENDBRANCH  15  16
ENDBRANCH  14  15
ENDBRANCH  13  14
ENDBRANCH   1  13
TORSDOF 20
ENDMDL
MODEL 5
REMARK VINA RESULT:    -3.824      3.048      6.609
REMARK INTER + INTRA:         -12.175
REMARK INTER:                  -9.338
REMARK INTRA:                  -2.837
REMARK UNBOUND:                -3.880
REMARK SMILES CCCCCCCCCCCCCCCCCCCCCC(=O)[O-]
REMARK SMILES IDX 12 1 11 2 10 3 9 4 8 5 7 6 6 7 5 8 4 9 3 10 2 11 1 12 13 13
REMARK SMILES IDX 14 14 15 15 16 16 17 17 18 18 19 19 20 20 21 21 22 22 23 23
REMARK SMILES IDX 24 24
REMARK H PARENT
REMARK Flexibility Score: inf
ROOT
ATOM      1  C   UNL     1      47.137  -5.655  74.905  1.00  0.00     0.000 C 
ENDROOT
BRANCH   1   2
ATOM      2  C   UNL     1      46.898  -6.841  75.857  1.00  0.00     0.000 C 
BRANCH   2   3
ATOM      3  C   UNL     1      47.522  -8.149  75.352  1.00  0.00     0.000 C 
BRANCH   3   4
ATOM      4  C   UNL     1      47.478  -9.235  76.433  1.00  0.00    -0.000 C 
BRANCH   4   5
ATOM      5  C   UNL     1      47.169  -8.629  77.807  1.00  0.00    -0.000 C 
BRANCH   5   6
ATOM      6  C   UNL     1      48.307  -8.905  78.802  1.00  0.00    -0.000 C 
BRANCH   6   7
ATOM      7  C   UNL     1      49.673  -9.049  78.114  1.00  0.00    -0.000 C 
BRANCH   7   8
ATOM      8  C   UNL     1      50.587  -7.833  78.346  1.00  0.00    -0.000 C 
BRANCH   8   9
ATOM      9  C   UNL     1      50.651  -6.909  77.111  1.00  0.00    -0.000 C 
BRANCH   9  10
ATOM     10  C   UNL     1      50.045  -5.516  77.352  1.00  0.00    -0.000 C 
BRANCH  10  11
ATOM     11  C   UNL     1      49.709  -5.258  78.826  1.00  0.00    -0.003 C 
ATOM     12  C   UNL     1      48.201  -5.206  79.047  1.00  0.00     0.004 C 
ENDBRANCH  10  11
ENDBRANCH   9  10
ENDBRANCH   8   9
ENDBRANCH   7   8
ENDBRANCH   6   7
ENDBRANCH   5   6
ENDBRANCH   4   5
ENDBRANCH   3   4
ENDBRANCH   2   3
ENDBRANCH   1   2
BRANCH   1  13
ATOM     13  C   UNL     1      46.554  -5.824  73.489  1.00  0.00     0.000 C 
BRANCH  13  14
ATOM     14  C   UNL     1      47.543  -5.415  72.382  1.00  0.00     0.000 C 
BRANCH  14  15
ATOM     15  C   UNL     1      48.751  -4.636  72.927  1.00  0.00     0.000 C 
BRANCH  15  16
ATOM     16  C   UNL     1      48.612  -3.117  72.736  1.00  0.00     0.000 C 
BRANCH  16  17
ATOM     17  C   UNL     1      48.637  -2.352  74.069  1.00  0.00     0.000 C 
BRANCH  17  18
ATOM     18  C   UNL     1      49.373  -1.005  73.969  1.00  0.00     0.000 C 
BRANCH  18  19
ATOM     19  C   UNL     1      49.710  -0.638  72.508  1.00  0.00     0.000 C 
BRANCH  19  20
ATOM     20  C   UNL     1      51.221  -0.567  72.212  1.00  0.00     0.006 C 
BRANCH  20  21
ATOM     21  C   UNL     1      52.009  -1.814  72.650  1.00  0.00     0.053 C 
BRANCH  21  22
ATOM     22  C   UNL     1      53.419  -1.814  72.138  1.00  0.00     0.041 C 
ATOM     23  O   UNL     1      53.864  -0.822  71.504  1.00  0.00    -0.550 OA
ATOM     24  O   UNL     1      54.261  -2.886  72.409  1.00  0.00    -0.550 OA
ENDBRANCH  21  22
ENDBRANCH  20  21
ENDBRANCH  19  20
ENDBRANCH  18  19
ENDBRANCH  17  18
ENDBRANCH  16  17
ENDBRANCH  15  16
ENDBRANCH  14  15
ENDBRANCH  13  14
ENDBRANCH   1  13
TORSDOF 20
ENDMDL
MODEL 6
REMARK VINA RESULT:    -3.819      2.669      6.465
REMARK INTER + INTRA:         -12.165
REMARK INTER:                  -9.209
REMARK INTRA:                  -2.956
REMARK UNBOUND:                -3.880
REMARK SMILES CCCCCCCCCCCCCCCCCCCCCC(=O)[O-]
REMARK SMILES IDX 12 1 11 2 10 3 9 4 8 5 7 6 6 7 5 8 4 9 3 10 2 11 1 12 13 13
REMARK SMILES IDX 14 14 15 15 16 16 17 17 18 18 19 19 20 20 21 21 22 22 23 23
REMARK SMILES IDX 24 24
REMARK H PARENT
REMARK Flexibility Score: inf
ROOT
ATOM      1  C   UNL     1      49.263  -4.777  73.303  1.00  0.00     0.000 C 
ENDROOT
BRANCH   1   2
ATOM      2  C   UNL     1      47.910  -4.549  72.603  1.00  0.00     0.000 C 
BRANCH   2   3
ATOM      3  C   UNL     1      46.978  -5.766  72.694  1.00  0.00     0.000 C 
BRANCH   3   4
ATOM      4  C   UNL     1      46.183  -5.756  74.006  1.00  0.00    -0.000 C 
BRANCH   4   5
ATOM      5  C   UNL     1      46.586  -6.934  74.900  1.00  0.00    -0.000 C 
BRANCH   5   6
ATOM      6  C   UNL     1      46.637  -6.516  76.377  1.00  0.00    -0.000 C 
BRANCH   6   7
ATOM      7  C   UNL     1      48.067  -6.507  76.941  1.00  0.00    -0.000 C 
BRANCH   7   8
ATOM      8  C   UNL     1      48.100  -6.413  78.476  1.00  0.00    -0.000 C 
BRANCH   8   9
ATOM      9  C   UNL     1      48.612  -5.041  78.964  1.00  0.00    -0.000 C 
BRANCH   9  10
ATOM     10  C   UNL     1      50.039  -4.714  78.491  1.00  0.00    -0.000 C 
BRANCH  10  11
ATOM     11  C   UNL     1      50.979  -5.925  78.546  1.00  0.00    -0.003 C 
ATOM     12  C   UNL     1      52.402  -5.501  78.896  1.00  0.00     0.004 C 
ENDBRANCH  10  11
ENDBRANCH   9  10
ENDBRANCH   8   9
ENDBRANCH   7   8
ENDBRANCH   6   7
ENDBRANCH   5   6
ENDBRANCH   4   5
ENDBRANCH   3   4
ENDBRANCH   2   3
ENDBRANCH   1   2
BRANCH   1  13
ATOM     13  C   UNL     1      49.474  -3.972  74.599  1.00  0.00     0.000 C 
BRANCH  13  14
ATOM     14  C   UNL     1      48.476  -2.810  74.751  1.00  0.00     0.000 C 
BRANCH  14  15
ATOM     15  C   UNL     1      49.132  -1.435  74.538  1.00  0.00     0.000 C 
BRANCH  15  16
ATOM     16  C   UNL     1      48.775  -0.812  73.178  1.00  0.00     0.000 C 
BRANCH  16  17
ATOM     17  C   UNL     1      49.794  -1.166  72.084  1.00  0.00     0.000 C 
BRANCH  17  18
ATOM     18  C   UNL     1      51.249  -1.094  72.579  1.00  0.00     0.000 C 
BRANCH  18  19
ATOM     19  C   UNL     1      52.036  -2.379  72.246  1.00  0.00     0.000 C 
BRANCH  19  20
ATOM     20  C   UNL     1      52.953  -2.865  73.385  1.00  0.00     0.006 C 
BRANCH  20  21
ATOM     21  C   UNL     1      52.995  -4.395  73.552  1.00  0.00     0.053 C 
BRANCH  21  22
ATOM     22  C   UNL     1      54.364  -4.899  73.898  1.00  0.00     0.041 C 
ATOM     23  O   UNL     1      55.349  -4.115  73.896  1.00  0.00    -0.550 OA
ATOM     24  O   UNL     1      54.546  -6.224  74.277  1.00  0.00    -0.550 OA
ENDBRANCH  21  22
ENDBRANCH  20  21
ENDBRANCH  19  20
ENDBRANCH  18  19
ENDBRANCH  17  18
ENDBRANCH  16  17
ENDBRANCH  15  16
ENDBRANCH  14  15
ENDBRANCH  13  14
ENDBRANCH   1  13
TORSDOF 20
ENDMDL
MODEL 7
REMARK VINA RESULT:    -3.772      2.918      6.661
REMARK INTER + INTRA:         -12.062
REMARK INTER:                  -8.810
REMARK INTRA:                  -3.252
REMARK UNBOUND:                -3.880
REMARK SMILES CCCCCCCCCCCCCCCCCCCCCC(=O)[O-]
REMARK SMILES IDX 12 1 11 2 10 3 9 4 8 5 7 6 6 7 5 8 4 9 3 10 2 11 1 12 13 13
REMARK SMILES IDX 14 14 15 15 16 16 17 17 18 18 19 19 20 20 21 21 22 22 23 23
REMARK SMILES IDX 24 24
REMARK H PARENT
REMARK Flexibility Score: inf
ROOT
ATOM      1  C   UNL     1      47.403  -3.521  76.689  1.00  0.00     0.000 C 
ENDROOT
BRANCH   1   2
ATOM      2  C   UNL     1      47.367  -2.450  77.795  1.00  0.00     0.000 C 
BRANCH   2   3
ATOM      3  C   UNL     1      48.194  -2.836  79.029  1.00  0.00     0.000 C 
BRANCH   3   4
ATOM      4  C   UNL     1      49.115  -1.688  79.459  1.00  0.00    -0.000 C 
BRANCH   4   5
ATOM      5  C   UNL     1      50.475  -2.222  79.925  1.00  0.00    -0.000 C 
BRANCH   5   6
ATOM      6  C   UNL     1      51.216  -2.924  78.777  1.00  0.00    -0.000 C 
BRANCH   6   7
ATOM      7  C   UNL     1      51.456  -4.417  79.054  1.00  0.00    -0.000 C 
BRANCH   7   8
ATOM      8  C   UNL     1      51.148  -5.304  77.835  1.00  0.00    -0.000 C 
BRANCH   8   9
ATOM      9  C   UNL     1      50.309  -6.543  78.214  1.00  0.00    -0.000 C 
BRANCH   9  10
ATOM     10  C   UNL     1      48.936  -6.195  78.813  1.00  0.00    -0.000 C 
BRANCH  10  11
ATOM     11  C   UNL     1      47.909  -7.321  78.647  1.00  0.00    -0.003 C 
ATOM     12  C   UNL     1      47.167  -7.199  77.320  1.00  0.00     0.004 C 
ENDBRANCH  10  11
ENDBRANCH   9  10
ENDBRANCH   8   9
ENDBRANCH   7   8
ENDBRANCH   6   7
ENDBRANCH   5   6
ENDBRANCH   4   5
ENDBRANCH   3   4
ENDBRANCH   2   3
ENDBRANCH   1   2
BRANCH   1  13
ATOM     13  C   UNL     1      48.027  -3.066  75.356  1.00  0.00     0.000 C 
BRANCH  13  14
ATOM     14  C   UNL     1      49.529  -2.750  75.476  1.00  0.00     0.000 C 
BRANCH  14  15
ATOM     15  C   UNL     1      49.804  -1.250  75.668  1.00  0.00     0.000 C 
BRANCH  15  16
ATOM     16  C   UNL     1      48.711  -0.363  75.048  1.00  0.00     0.000 C 
BRANCH  16  17
ATOM     17  C   UNL     1      49.174   0.323  73.753  1.00  0.00     0.000 C 
BRANCH  17  18
ATOM     18  C   UNL     1      48.617  -0.353  72.488  1.00  0.00     0.000 C 
BRANCH  18  19
ATOM     19  C   UNL     1      49.652  -1.289  71.831  1.00  0.00     0.000 C 
BRANCH  19  20
ATOM     20  C   UNL     1      51.113  -0.963  72.196  1.00  0.00     0.006 C 
BRANCH  20  21
ATOM     21  C   UNL     1      51.942  -2.184  72.635  1.00  0.00     0.053 C 
BRANCH  21  22
ATOM     22  C   UNL     1      53.396  -2.047  72.292  1.00  0.00     0.041 C 
ATOM     23  O   UNL     1      54.209  -2.958  72.597  1.00  0.00    -0.550 OA
ATOM     24  O   UNL     1      53.845  -0.938  71.584  1.00  0.00    -0.550 OA
ENDBRANCH  21  22
ENDBRANCH  20  21
ENDBRANCH  19  20
ENDBRANCH  18  19
ENDBRANCH  17  18
ENDBRANCH  16  17
ENDBRANCH  15  16
ENDBRANCH  14  15
ENDBRANCH  13  14
ENDBRANCH   1  13
TORSDOF 20
ENDMDL
MODEL 8
REMARK VINA RESULT:    -3.759      3.527      6.761
REMARK INTER + INTRA:         -12.034
REMARK INTER:                  -8.627
REMARK INTRA:                  -3.407
REMARK UNBOUND:                -3.880
REMARK SMILES CCCCCCCCCCCCCCCCCCCCCC(=O)[O-]
REMARK SMILES IDX 12 1 11 2 10 3 9 4 8 5 7 6 6 7 5 8 4 9 3 10 2 11 1 12 13 13
REMARK SMILES IDX 14 14 15 15 16 16 17 17 18 18 19 19 20 20 21 21 22 22 23 23
REMARK SMILES IDX 24 24
REMARK H PARENT
REMARK Flexibility Score: inf
ROOT
ATOM      1  C   UNL     1      51.235  -0.559  72.279  1.00  0.00     0.000 C 
ENDROOT
BRANCH   1   2
ATOM      2  C   UNL     1      52.550  -1.361  72.249  1.00  0.00     0.000 C 
BRANCH   2   3
ATOM      3  C   UNL     1      52.679  -2.343  73.422  1.00  0.00     0.000 C 
BRANCH   3   4
ATOM      4  C   UNL     1      52.665  -3.795  72.930  1.00  0.00    -0.000 C 
BRANCH   4   5
ATOM      5  C   UNL     1      51.492  -4.570  73.544  1.00  0.00    -0.000 C 
BRANCH   5   6
ATOM      6  C   UNL     1      51.944  -5.374  74.773  1.00  0.00    -0.000 C 
BRANCH   6   7
ATOM      7  C   UNL     1      50.937  -5.299  75.932  1.00  0.00    -0.000 C 
BRANCH   7   8
ATOM      8  C   UNL     1      50.405  -6.682  76.347  1.00  0.00    -0.000 C 
BRANCH   8   9
ATOM      9  C   UNL     1      50.422  -6.876  77.878  1.00  0.00    -0.000 C 
BRANCH   9  10
ATOM     10  C   UNL     1      50.481  -5.555  78.664  1.00  0.00    -0.000 C 
BRANCH  10  11
ATOM     11  C   UNL     1      49.094  -5.028  79.053  1.00  0.00    -0.003 C 
ATOM     12  C   UNL     1      49.135  -3.531  79.343  1.00  0.00     0.004 C 
ENDBRANCH  10  11
ENDBRANCH   9  10
ENDBRANCH   8   9
ENDBRANCH   7   8
ENDBRANCH   6   7
ENDBRANCH   5   6
ENDBRANCH   4   5
ENDBRANCH   3   4
ENDBRANCH   2   3
ENDBRANCH   1   2
BRANCH   1  13
ATOM     13  C   UNL     1      50.021  -1.269  71.650  1.00  0.00     0.000 C 
BRANCH  13  14
ATOM     14  C   UNL     1      49.063  -1.859  72.701  1.00  0.00     0.000 C 
BRANCH  14  15
ATOM     15  C   UNL     1      49.206  -1.187  74.076  1.00  0.00     0.000 C 
BRANCH  15  16
ATOM     16  C   UNL     1      49.114  -2.190  75.239  1.00  0.00     0.000 C 
BRANCH  16  17
ATOM     17  C   UNL     1      47.662  -2.550  75.590  1.00  0.00     0.000 C 
BRANCH  17  18
ATOM     18  C   UNL     1      47.483  -4.040  75.930  1.00  0.00     0.000 C 
BRANCH  18  19
ATOM     19  C   UNL     1      46.864  -4.829  74.758  1.00  0.00     0.000 C 
BRANCH  19  20
ATOM     20  C   UNL     1      47.885  -5.270  73.691  1.00  0.00     0.006 C 
BRANCH  20  21
ATOM     21  C   UNL     1      47.251  -5.832  72.406  1.00  0.00     0.053 C 
BRANCH  21  22
ATOM     22  C   UNL     1      47.233  -7.332  72.381  1.00  0.00     0.041 C 
ATOM     23  O   UNL     1      47.630  -7.955  71.362  1.00  0.00    -0.550 OA
ATOM     24  O   UNL     1      46.830  -8.045  73.504  1.00  0.00    -0.550 OA
ENDBRANCH  21  22
ENDBRANCH  20  21
ENDBRANCH  19  20
ENDBRANCH  18  19
ENDBRANCH  17  18
ENDBRANCH  16  17
ENDBRANCH  15  16
ENDBRANCH  14  15
ENDBRANCH  13  14
ENDBRANCH   1  13
TORSDOF 20
ENDMDL
MODEL 9
REMARK VINA RESULT:    -3.743      3.590      6.754
REMARK INTER + INTRA:         -11.999
REMARK INTER:                  -8.735
REMARK INTRA:                  -3.264
REMARK UNBOUND:                -3.880
REMARK SMILES CCCCCCCCCCCCCCCCCCCCCC(=O)[O-]
REMARK SMILES IDX 12 1 11 2 10 3 9 4 8 5 7 6 6 7 5 8 4 9 3 10 2 11 1 12 13 13
REMARK SMILES IDX 14 14 15 15 16 16 17 17 18 18 19 19 20 20 21 21 22 22 23 23
REMARK SMILES IDX 24 24
REMARK H PARENT
REMARK Flexibility Score: inf
ROOT
ATOM      1  C   UNL     1      51.152  -0.487  72.245  1.00  0.00     0.000 C 
ENDROOT
BRANCH   1   2
ATOM      2  C   UNL     1      49.794  -1.111  71.874  1.00  0.00     0.000 C 
BRANCH   2   3
ATOM      3  C   UNL     1      48.621  -0.497  72.651  1.00  0.00     0.000 C 
BRANCH   3   4
ATOM      4  C   UNL     1      48.977  -0.309  74.131  1.00  0.00    -0.000 C 
BRANCH   4   5
ATOM      5  C   UNL     1      47.909   0.524  74.850  1.00  0.00    -0.000 C 
BRANCH   5   6
ATOM      6  C   UNL     1      47.305  -0.251  76.031  1.00  0.00    -0.000 C 
BRANCH   6   7
ATOM      7  C   UNL     1      47.977  -1.616  76.248  1.00  0.00    -0.000 C 
BRANCH   7   8
ATOM      8  C   UNL     1      48.792  -1.677  77.552  1.00  0.00    -0.000 C 
BRANCH   8   9
ATOM      9  C   UNL     1      48.236  -2.726  78.538  1.00  0.00    -0.000 C 
BRANCH   9  10
ATOM     10  C   UNL     1      49.314  -3.659  79.115  1.00  0.00    -0.000 C 
BRANCH  10  11
ATOM     11  C   UNL     1      48.994  -5.144  78.906  1.00  0.00    -0.003 C 
ATOM     12  C   UNL     1      50.253  -5.936  78.566  1.00  0.00     0.004 C 
ENDBRANCH  10  11
ENDBRANCH   9  10
ENDBRANCH   8   9
ENDBRANCH   7   8
ENDBRANCH   6   7
ENDBRANCH   5   6
ENDBRANCH   4   5
ENDBRANCH   3   4
ENDBRANCH   2   3
ENDBRANCH   1   2
BRANCH   1  13
ATOM     13  C   UNL     1      52.345  -1.461  72.235  1.00  0.00     0.000 C 
BRANCH  13  14
ATOM     14  C   UNL     1      51.958  -2.887  72.668  1.00  0.00     0.000 C 
BRANCH  14  15
ATOM     15  C   UNL     1      52.231  -3.147  74.158  1.00  0.00     0.000 C 
BRANCH  15  16
ATOM     16  C   UNL     1      50.939  -3.309  74.978  1.00  0.00     0.000 C 
BRANCH  16  17
ATOM     17  C   UNL     1      50.414  -4.752  74.967  1.00  0.00     0.000 C 
BRANCH  17  18
ATOM     18  C   UNL     1      48.881  -4.828  74.863  1.00  0.00     0.000 C 
BRANCH  18  19
ATOM     19  C   UNL     1      48.352  -4.115  73.601  1.00  0.00     0.000 C 
BRANCH  19  20
ATOM     20  C   UNL     1      47.935  -5.073  72.468  1.00  0.00     0.006 C 
BRANCH  20  21
ATOM     21  C   UNL     1      46.814  -6.055  72.853  1.00  0.00     0.053 C 
BRANCH  21  22
ATOM     22  C   UNL     1      47.228  -7.489  72.706  1.00  0.00     0.041 C 
ATOM     23  O   UNL     1      47.817  -7.877  71.663  1.00  0.00    -0.550 OA
ATOM     24  O   UNL     1      47.015  -8.388  73.744  1.00  0.00    -0.550 OA
ENDBRANCH  21  22
ENDBRANCH  20  21
ENDBRANCH  19  20
ENDBRANCH  18  19
ENDBRANCH  17  18
ENDBRANCH  16  17
ENDBRANCH  15  16
ENDBRANCH  14  15
ENDBRANCH  13  14
ENDBRANCH   1  13
TORSDOF 20
ENDMDL
