MODEL 1
REMARK VINA RESULT:    -6.755      0.000      0.000
REMARK INTER + INTRA:          -8.241
REMARK INTER:                  -7.940
REMARK INTRA:                  -0.300
REMARK UNBOUND:                -0.300
REMARK SMILES O=c1cc(-c2ccc(O)c(O)c2)oc2cc(O)cc(O)c12
REMARK SMILES IDX 4 1 3 2 2 3 1 4 21 5 19 6 18 7 16 8 15 9 14 10 13 11 5 12
REMARK SMILES IDX 6 13 7 14 8 15 12 16 10 17 9 18 11 20 20 22 17 24
REMARK H PARENT 9 19 11 21 20 23 17 25
REMARK Flexibility Score: inf
ROOT
ATOM      1  C   UNL     1       9.122  -7.295  -9.290  1.00  0.00     0.138 A 
ATOM      2  C   UNL     1       8.059  -7.416 -10.197  1.00  0.00     0.100 A 
ATOM      3  C   UNL     1       8.298  -7.912 -11.479  1.00  0.00     0.197 A 
ATOM      4  O   UNL     1       7.337  -7.950 -12.289  1.00  0.00    -0.289 OA
ATOM      5  C   UNL     1       9.604  -8.318 -11.844  1.00  0.00     0.107 A 
ATOM      6  C   UNL     1       9.957  -8.876 -13.108  1.00  0.00     0.134 A 
ATOM      7  C   UNL     1      11.304  -9.133 -13.397  1.00  0.00     0.093 A 
ATOM      8  C   UNL     1      12.300  -8.908 -12.446  1.00  0.00     0.123 A 
ATOM      9  C   UNL     1      11.959  -8.414 -11.188  1.00  0.00     0.094 A 
ATOM     10  C   UNL     1      10.629  -8.116 -10.882  1.00  0.00     0.146 A 
ATOM     11  O   UNL     1      10.348  -7.632  -9.676  1.00  0.00    -0.456 OA
ENDROOT
BRANCH   1  12
ATOM     12  C   UNL     1       8.923  -6.775  -7.914  1.00  0.00     0.021 A 
ATOM     13  C   UNL     1       7.782  -7.103  -7.157  1.00  0.00     0.016 A 
ATOM     14  C   UNL     1       7.627  -6.607  -5.860  1.00  0.00     0.051 A 
ATOM     15  C   UNL     1       8.607  -5.783  -5.295  1.00  0.00     0.157 A 
ATOM     16  C   UNL     1       9.910  -5.957  -7.334  1.00  0.00     0.062 A 
ATOM     17  C   UNL     1       9.752  -5.460  -6.032  1.00  0.00     0.158 A 
BRANCH  15  18
ATOM     18  O   UNL     1       8.454  -5.287  -4.002  1.00  0.00    -0.504 OA
ATOM     19  H   UNL     1       8.233  -4.313  -3.830  1.00  0.00     0.293 HD
ENDBRANCH  15  18
BRANCH  17  20
ATOM     20  O   UNL     1      10.729  -4.643  -5.466  1.00  0.00    -0.504 OA
ATOM     21  H   UNL     1      11.635  -5.008  -5.196  1.00  0.00     0.293 HD
ENDBRANCH  17  20
ENDBRANCH   1  12
BRANCH   6  22
ATOM     22  O   UNL     1       9.031  -9.218 -14.098  1.00  0.00    -0.507 OA
ATOM     23  H   UNL     1       9.223  -9.230 -15.089  1.00  0.00     0.293 HD
ENDBRANCH   6  22
BRANCH   8  24
ATOM     24  O   UNL     1      13.636  -9.181 -12.736  1.00  0.00    -0.508 OA
ATOM     25  H   UNL     1      14.098  -8.771 -13.540  1.00  0.00     0.293 HD
ENDBRANCH   8  24
TORSDOF 5
ENDMDL
MODEL 2
REMARK VINA RESULT:    -6.412      2.554      6.674
REMARK INTER + INTRA:          -7.837
REMARK INTER:                  -7.519
REMARK INTRA:                  -0.318
REMARK UNBOUND:                -0.300
REMARK SMILES O=c1cc(-c2ccc(O)c(O)c2)oc2cc(O)cc(O)c12
REMARK SMILES IDX 4 1 3 2 2 3 1 4 21 5 19 6 18 7 16 8 15 9 14 10 13 11 5 12
REMARK SMILES IDX 6 13 7 14 8 15 12 16 10 17 9 18 11 20 20 22 17 24
REMARK H PARENT 9 19 11 21 20 23 17 25
REMARK Flexibility Score: inf
ROOT
ATOM      1  C   UNL     1      10.883  -7.160  -9.120  1.00  0.00     0.138 A 
ATOM      2  C   UNL     1      10.199  -8.385  -9.131  1.00  0.00     0.100 A 
ATOM      3  C   UNL     1       9.179  -8.614  -8.208  1.00  0.00     0.197 A 
ATOM      4  O   UNL     1       8.627  -9.743  -8.201  1.00  0.00    -0.289 OA
ATOM      5  C   UNL     1       8.820  -7.598  -7.289  1.00  0.00     0.107 A 
ATOM      6  C   UNL     1       7.769  -7.704  -6.331  1.00  0.00     0.134 A 
ATOM      7  C   UNL     1       7.582  -6.678  -5.395  1.00  0.00     0.093 A 
ATOM      8  C   UNL     1       8.368  -5.525  -5.424  1.00  0.00     0.123 A 
ATOM      9  C   UNL     1       9.362  -5.388  -6.391  1.00  0.00     0.094 A 
ATOM     10  C   UNL     1       9.596  -6.408  -7.316  1.00  0.00     0.146 A 
ATOM     11  O   UNL     1      10.563  -6.245  -8.212  1.00  0.00    -0.456 OA
ENDROOT
BRANCH   1  12
ATOM     12  C   UNL     1      11.976  -6.864 -10.081  1.00  0.00     0.021 A 
ATOM     13  C   UNL     1      12.337  -7.772 -11.094  1.00  0.00     0.016 A 
ATOM     14  C   UNL     1      13.363  -7.462 -11.990  1.00  0.00     0.051 A 
ATOM     15  C   UNL     1      14.040  -6.241 -11.896  1.00  0.00     0.157 A 
ATOM     16  C   UNL     1      12.652  -5.633 -10.001  1.00  0.00     0.062 A 
ATOM     17  C   UNL     1      13.681  -5.323 -10.901  1.00  0.00     0.158 A 
BRANCH  15  18
ATOM     18  O   UNL     1      15.063  -5.929 -12.788  1.00  0.00    -0.504 OA
ATOM     19  H   UNL     1      14.978  -5.165 -13.448  1.00  0.00     0.293 HD
ENDBRANCH  15  18
BRANCH  17  20
ATOM     20  O   UNL     1      14.354  -4.106 -10.812  1.00  0.00    -0.504 OA
ATOM     21  H   UNL     1      14.320  -3.425 -11.562  1.00  0.00     0.293 HD
ENDBRANCH  17  20
ENDBRANCH   1  12
BRANCH   6  22
ATOM     22  O   UNL     1       6.872  -8.775  -6.270  1.00  0.00    -0.507 OA
ATOM     23  H   UNL     1       6.805  -9.511  -6.957  1.00  0.00     0.293 HD
ENDBRANCH   6  22
BRANCH   8  24
ATOM     24  O   UNL     1       8.165  -4.502  -4.499  1.00  0.00    -0.508 OA
ATOM     25  H   UNL     1       7.497  -4.597  -3.743  1.00  0.00     0.293 HD
ENDBRANCH   8  24
TORSDOF 5
ENDMDL
MODEL 3
REMARK VINA RESULT:    -6.018      2.302      6.678
REMARK INTER + INTRA:          -7.374
REMARK INTER:                  -7.101
REMARK INTRA:                  -0.273
REMARK UNBOUND:                -0.300
REMARK SMILES O=c1cc(-c2ccc(O)c(O)c2)oc2cc(O)cc(O)c12
REMARK SMILES IDX 4 1 3 2 2 3 1 4 21 5 19 6 18 7 16 8 15 9 14 10 13 11 5 12
REMARK SMILES IDX 6 13 7 14 8 15 12 16 10 17 9 18 11 20 20 22 17 24
REMARK H PARENT 9 19 11 21 20 23 17 25
REMARK Flexibility Score: inf
ROOT
ATOM      1  C   UNL     1      10.522  -7.280 -10.236  1.00  0.00     0.138 A 
ATOM      2  C   UNL     1       9.806  -6.275 -10.903  1.00  0.00     0.100 A 
ATOM      3  C   UNL     1       8.787  -5.595 -10.236  1.00  0.00     0.197 A 
ATOM      4  O   UNL     1       8.122  -4.744 -10.879  1.00  0.00    -0.289 OA
ATOM      5  C   UNL     1       8.505  -5.902  -8.883  1.00  0.00     0.107 A 
ATOM      6  C   UNL     1       7.517  -5.245  -8.090  1.00  0.00     0.134 A 
ATOM      7  C   UNL     1       7.247  -5.713  -6.797  1.00  0.00     0.093 A 
ATOM      8  C   UNL     1       7.972  -6.773  -6.249  1.00  0.00     0.123 A 
ATOM      9  C   UNL     1       8.976  -7.385  -6.995  1.00  0.00     0.094 A 
ATOM     10  C   UNL     1       9.246  -6.965  -8.300  1.00  0.00     0.146 A 
ATOM     11  O   UNL     1      10.201  -7.585  -8.983  1.00  0.00    -0.456 OA
ENDROOT
BRANCH   1  12
ATOM     12  C   UNL     1      11.617  -8.034 -10.898  1.00  0.00     0.021 A 
ATOM     13  C   UNL     1      11.671  -9.441 -10.864  1.00  0.00     0.016 A 
ATOM     14  C   UNL     1      12.707 -10.125 -11.505  1.00  0.00     0.051 A 
ATOM     15  C   UNL     1      13.701  -9.420 -12.193  1.00  0.00     0.157 A 
ATOM     16  C   UNL     1      12.611  -7.334 -11.603  1.00  0.00     0.062 A 
ATOM     17  C   UNL     1      13.651  -8.021 -12.245  1.00  0.00     0.158 A 
BRANCH  15  18
ATOM     18  O   UNL     1      14.736 -10.099 -12.832  1.00  0.00    -0.504 OA
ATOM     19  H   UNL     1      15.422 -10.633 -12.310  1.00  0.00     0.293 HD
ENDBRANCH  15  18
BRANCH  17  20
ATOM     20  O   UNL     1      14.640  -7.322 -12.935  1.00  0.00    -0.504 OA
ATOM     21  H   UNL     1      14.520  -6.349 -13.192  1.00  0.00     0.293 HD
ENDBRANCH  17  20
ENDBRANCH   1  12
BRANCH   6  22
ATOM     22  O   UNL     1       6.796  -4.124  -8.511  1.00  0.00    -0.507 OA
ATOM     23  H   UNL     1       6.092  -3.652  -7.963  1.00  0.00     0.293 HD
ENDBRANCH   6  22
BRANCH   8  24
ATOM     24  O   UNL     1       7.707  -7.221  -4.956  1.00  0.00    -0.508 OA
ATOM     25  H   UNL     1       8.288  -7.921  -4.509  1.00  0.00     0.293 HD
ENDBRANCH   8  24
TORSDOF 5
ENDMDL
MODEL 4
REMARK VINA RESULT:    -5.939     10.803     13.956
REMARK INTER + INTRA:          -7.281
REMARK INTER:                  -7.020
REMARK INTRA:                  -0.261
REMARK UNBOUND:                -0.300
REMARK SMILES O=c1cc(-c2ccc(O)c(O)c2)oc2cc(O)cc(O)c12
REMARK SMILES IDX 4 1 3 2 2 3 1 4 21 5 19 6 18 7 16 8 15 9 14 10 13 11 5 12
REMARK SMILES IDX 6 13 7 14 8 15 12 16 10 17 9 18 11 20 20 22 17 24
REMARK H PARENT 9 19 11 21 20 23 17 25
REMARK Flexibility Score: inf
ROOT
ATOM      1  C   UNL     1      18.443  -1.151 -16.755  1.00  0.00     0.138 A 
ATOM      2  C   UNL     1      17.761  -0.322 -15.852  1.00  0.00     0.100 A 
ATOM      3  C   UNL     1      17.046  -0.890 -14.798  1.00  0.00     0.197 A 
ATOM      4  O   UNL     1      16.395  -0.125 -14.042  1.00  0.00    -0.289 OA
ATOM      5  C   UNL     1      17.040  -2.295 -14.628  1.00  0.00     0.107 A 
ATOM      6  C   UNL     1      16.380  -2.982 -13.567  1.00  0.00     0.134 A 
ATOM      7  C   UNL     1      16.345  -4.383 -13.567  1.00  0.00     0.093 A 
ATOM      8  C   UNL     1      16.999  -5.119 -14.557  1.00  0.00     0.123 A 
ATOM      9  C   UNL     1      17.692  -4.458 -15.569  1.00  0.00     0.094 A 
ATOM     10  C   UNL     1      17.716  -3.062 -15.615  1.00  0.00     0.146 A 
ATOM     11  O   UNL     1      18.376  -2.470 -16.604  1.00  0.00    -0.456 OA
ENDROOT
BRANCH   1  12
ATOM     12  C   UNL     1      19.220  -0.599 -17.893  1.00  0.00     0.021 A 
ATOM     13  C   UNL     1      18.816  -0.795 -19.228  1.00  0.00     0.016 A 
ATOM     14  C   UNL     1      19.561  -0.255 -20.280  1.00  0.00     0.051 A 
ATOM     15  C   UNL     1      20.716   0.492 -20.018  1.00  0.00     0.157 A 
ATOM     16  C   UNL     1      20.374   0.164 -17.639  1.00  0.00     0.062 A 
ATOM     17  C   UNL     1      21.121   0.704 -18.695  1.00  0.00     0.158 A 
BRANCH  15  18
ATOM     18  O   UNL     1      21.461   1.030 -21.065  1.00  0.00    -0.504 OA
ATOM     19  H   UNL     1      21.894   1.944 -20.994  1.00  0.00     0.293 HD
ENDBRANCH  15  18
BRANCH  17  20
ATOM     20  O   UNL     1      22.269   1.451 -18.438  1.00  0.00    -0.504 OA
ATOM     21  H   UNL     1      22.224   2.344 -17.960  1.00  0.00     0.293 HD
ENDBRANCH  17  20
ENDBRANCH   1  12
BRANCH   6  22
ATOM     22  O   UNL     1      15.770  -2.344 -12.483  1.00  0.00    -0.507 OA
ATOM     23  H   UNL     1      15.203  -1.512 -12.548  1.00  0.00     0.293 HD
ENDBRANCH   6  22
BRANCH   8  24
ATOM     24  O   UNL     1      16.972  -6.512 -14.542  1.00  0.00    -0.508 OA
ATOM     25  H   UNL     1      16.182  -7.032 -14.906  1.00  0.00     0.293 HD
ENDBRANCH   8  24
TORSDOF 5
ENDMDL
MODEL 5
REMARK VINA RESULT:    -5.902     13.282     14.564
REMARK INTER + INTRA:          -7.238
REMARK INTER:                  -6.965
REMARK INTRA:                  -0.273
REMARK UNBOUND:                -0.300
REMARK SMILES O=c1cc(-c2ccc(O)c(O)c2)oc2cc(O)cc(O)c12
REMARK SMILES IDX 4 1 3 2 2 3 1 4 21 5 19 6 18 7 16 8 15 9 14 10 13 11 5 12
REMARK SMILES IDX 6 13 7 14 8 15 12 16 10 17 9 18 11 20 20 22 17 24
REMARK H PARENT 9 19 11 21 20 23 17 25
REMARK Flexibility Score: inf
ROOT
ATOM      1  C   UNL     1       5.128   5.871 -10.022  1.00  0.00     0.138 A 
ATOM      2  C   UNL     1       5.145   7.264  -9.857  1.00  0.00     0.100 A 
ATOM      3  C   UNL     1       4.932   8.093 -10.959  1.00  0.00     0.197 A 
ATOM      4  O   UNL     1       5.015   9.336 -10.791  1.00  0.00    -0.289 OA
ATOM      5  C   UNL     1       4.671   7.523 -12.228  1.00  0.00     0.107 A 
ATOM      6  C   UNL     1       4.399   8.269 -13.413  1.00  0.00     0.134 A 
ATOM      7  C   UNL     1       4.270   7.599 -14.636  1.00  0.00     0.093 A 
ATOM      8  C   UNL     1       4.343   6.206 -14.706  1.00  0.00     0.123 A 
ATOM      9  C   UNL     1       4.553   5.465 -13.545  1.00  0.00     0.094 A 
ATOM     10  C   UNL     1       4.720   6.106 -12.315  1.00  0.00     0.146 A 
ATOM     11  O   UNL     1       4.934   5.363 -11.235  1.00  0.00    -0.456 OA
ENDROOT
BRANCH   1  12
ATOM     12  C   UNL     1       5.347   4.943  -8.884  1.00  0.00     0.021 A 
ATOM     13  C   UNL     1       4.420   4.835  -7.830  1.00  0.00     0.016 A 
ATOM     14  C   UNL     1       4.647   3.945  -6.776  1.00  0.00     0.051 A 
ATOM     15  C   UNL     1       5.795   3.146  -6.760  1.00  0.00     0.157 A 
ATOM     16  C   UNL     1       6.492   4.127  -8.867  1.00  0.00     0.062 A 
ATOM     17  C   UNL     1       6.718   3.235  -7.809  1.00  0.00     0.158 A 
BRANCH  15  18
ATOM     18  O   UNL     1       6.024   2.259  -5.711  1.00  0.00    -0.504 OA
ATOM     19  H   UNL     1       6.688   2.469  -4.973  1.00  0.00     0.293 HD
ENDBRANCH  15  18
BRANCH  17  20
ATOM     20  O   UNL     1       7.860   2.435  -7.793  1.00  0.00    -0.504 OA
ATOM     21  H   UNL     1       8.327   2.160  -8.649  1.00  0.00     0.293 HD
ENDBRANCH  17  20
ENDBRANCH   1  12
BRANCH   6  22
ATOM     22  O   UNL     1       4.223   9.656 -13.440  1.00  0.00    -0.507 OA
ATOM     23  H   UNL     1       3.830  10.203 -12.688  1.00  0.00     0.293 HD
ENDBRANCH   6  22
BRANCH   8  24
ATOM     24  O   UNL     1       4.198   5.547 -15.925  1.00  0.00    -0.508 OA
ATOM     25  H   UNL     1       4.988   5.116 -16.391  1.00  0.00     0.293 HD
ENDBRANCH   8  24
TORSDOF 5
ENDMDL
MODEL 6
REMARK VINA RESULT:    -5.826     10.416     13.474
REMARK INTER + INTRA:          -7.148
REMARK INTER:                  -6.866
REMARK INTRA:                  -0.282
REMARK UNBOUND:                -0.300
REMARK SMILES O=c1cc(-c2ccc(O)c(O)c2)oc2cc(O)cc(O)c12
REMARK SMILES IDX 4 1 3 2 2 3 1 4 21 5 19 6 18 7 16 8 15 9 14 10 13 11 5 12
REMARK SMILES IDX 6 13 7 14 8 15 12 16 10 17 9 18 11 20 20 22 17 24
REMARK H PARENT 9 19 11 21 20 23 17 25
REMARK Flexibility Score: inf
ROOT
ATOM      1  C   UNL     1      18.008  -0.734 -15.789  1.00  0.00     0.138 A 
ATOM      2  C   UNL     1      17.485   0.206 -14.889  1.00  0.00     0.100 A 
ATOM      3  C   UNL     1      16.664  -0.221 -13.845  1.00  0.00     0.197 A 
ATOM      4  O   UNL     1      16.161   0.651 -13.092  1.00  0.00    -0.289 OA
ATOM      5  C   UNL     1      16.392  -1.600 -13.683  1.00  0.00     0.107 A 
ATOM      6  C   UNL     1      15.602  -2.153 -12.631  1.00  0.00     0.134 A 
ATOM      7  C   UNL     1      15.304  -3.522 -12.640  1.00  0.00     0.093 A 
ATOM      8  C   UNL     1      15.817  -4.366 -13.627  1.00  0.00     0.123 A 
ATOM      9  C   UNL     1      16.634  -3.844 -14.628  1.00  0.00     0.094 A 
ATOM     10  C   UNL     1      16.921  -2.477 -14.667  1.00  0.00     0.146 A 
ATOM     11  O   UNL     1      17.692  -2.017 -15.646  1.00  0.00    -0.456 OA
ENDROOT
BRANCH   1  12
ATOM     12  C   UNL     1      18.888  -0.336 -16.917  1.00  0.00     0.021 A 
ATOM     13  C   UNL     1      20.098   0.352 -16.704  1.00  0.00     0.016 A 
ATOM     14  C   UNL     1      20.911   0.706 -17.784  1.00  0.00     0.051 A 
ATOM     15  C   UNL     1      20.535   0.374 -19.091  1.00  0.00     0.157 A 
ATOM     16  C   UNL     1      18.524  -0.677 -18.232  1.00  0.00     0.062 A 
ATOM     17  C   UNL     1      19.341  -0.321 -19.315  1.00  0.00     0.158 A 
BRANCH  15  18
ATOM     18  O   UNL     1      21.344   0.726 -20.169  1.00  0.00    -0.504 OA
ATOM     19  H   UNL     1      20.998   1.308 -20.924  1.00  0.00     0.293 HD
ENDBRANCH  15  18
BRANCH  17  20
ATOM     20  O   UNL     1      18.971  -0.654 -20.617  1.00  0.00    -0.504 OA
ATOM     21  H   UNL     1      18.688  -1.595 -20.864  1.00  0.00     0.293 HD
ENDBRANCH  17  20
ENDBRANCH   1  12
BRANCH   6  22
ATOM     22  O   UNL     1      15.111  -1.415 -11.551  1.00  0.00    -0.507 OA
ATOM     23  H   UNL     1      14.173  -1.050 -11.480  1.00  0.00     0.293 HD
ENDBRANCH   6  22
BRANCH   8  24
ATOM     24  O   UNL     1      15.528  -5.729 -13.619  1.00  0.00    -0.508 OA
ATOM     25  H   UNL     1      14.820  -6.117 -13.006  1.00  0.00     0.293 HD
ENDBRANCH   8  24
TORSDOF 5
ENDMDL
MODEL 7
REMARK VINA RESULT:    -5.785      7.302      8.775
REMARK INTER + INTRA:          -7.100
REMARK INTER:                  -6.817
REMARK INTRA:                  -0.284
REMARK UNBOUND:                -0.300
REMARK SMILES O=c1cc(-c2ccc(O)c(O)c2)oc2cc(O)cc(O)c12
REMARK SMILES IDX 4 1 3 2 2 3 1 4 21 5 19 6 18 7 16 8 15 9 14 10 13 11 5 12
REMARK SMILES IDX 6 13 7 14 8 15 12 16 10 17 9 18 11 20 20 22 17 24
REMARK H PARENT 9 19 11 21 20 23 17 25
REMARK Flexibility Score: inf
ROOT
ATOM      1  C   UNL     1      16.911  -3.881 -11.662  1.00  0.00     0.138 A 
ATOM      2  C   UNL     1      15.901  -4.832 -11.459  1.00  0.00     0.100 A 
ATOM      3  C   UNL     1      15.527  -5.676 -12.505  1.00  0.00     0.197 A 
ATOM      4  O   UNL     1      14.577  -6.476 -12.311  1.00  0.00    -0.289 OA
ATOM      5  C   UNL     1      16.192  -5.588 -13.751  1.00  0.00     0.107 A 
ATOM      6  C   UNL     1      15.923  -6.425 -14.875  1.00  0.00     0.134 A 
ATOM      7  C   UNL     1      16.563  -6.168 -16.095  1.00  0.00     0.093 A 
ATOM      8  C   UNL     1      17.505  -5.145 -16.213  1.00  0.00     0.123 A 
ATOM      9  C   UNL     1      17.815  -4.357 -15.106  1.00  0.00     0.094 A 
ATOM     10  C   UNL     1      17.168  -4.566 -13.885  1.00  0.00     0.146 A 
ATOM     11  O   UNL     1      17.481  -3.783 -12.858  1.00  0.00    -0.456 OA
ENDROOT
BRANCH   1  12
ATOM     12  C   UNL     1      17.349  -2.959 -10.584  1.00  0.00     0.021 A 
ATOM     13  C   UNL     1      17.762  -1.641 -10.860  1.00  0.00     0.016 A 
ATOM     14  C   UNL     1      18.159  -0.791  -9.824  1.00  0.00     0.051 A 
ATOM     15  C   UNL     1      18.144  -1.238  -8.498  1.00  0.00     0.157 A 
ATOM     16  C   UNL     1      17.325  -3.395  -9.247  1.00  0.00     0.062 A 
ATOM     17  C   UNL     1      17.724  -2.542  -8.209  1.00  0.00     0.158 A 
BRANCH  15  18
ATOM     18  O   UNL     1      18.540  -0.393  -7.463  1.00  0.00    -0.504 OA
ATOM     19  H   UNL     1      19.436   0.081  -7.479  1.00  0.00     0.293 HD
ENDBRANCH  15  18
BRANCH  17  20
ATOM     20  O   UNL     1      17.706  -2.983  -6.887  1.00  0.00    -0.504 OA
ATOM     21  H   UNL     1      18.373  -2.640  -6.204  1.00  0.00     0.293 HD
ENDBRANCH  17  20
ENDBRANCH   1  12
BRANCH   6  22
ATOM     22  O   UNL     1      15.064  -7.527 -14.842  1.00  0.00    -0.507 OA
ATOM     23  H   UNL     1      14.887  -8.096 -14.028  1.00  0.00     0.293 HD
ENDBRANCH   6  22
BRANCH   8  24
ATOM     24  O   UNL     1      18.148  -4.906 -17.426  1.00  0.00    -0.508 OA
ATOM     25  H   UNL     1      19.009  -4.374 -17.474  1.00  0.00     0.293 HD
ENDBRANCH   8  24
TORSDOF 5
ENDMDL
MODEL 8
REMARK VINA RESULT:    -5.651     11.444     13.386
REMARK INTER + INTRA:          -6.942
REMARK INTER:                  -6.678
REMARK INTRA:                  -0.264
REMARK UNBOUND:                -0.300
REMARK SMILES O=c1cc(-c2ccc(O)c(O)c2)oc2cc(O)cc(O)c12
REMARK SMILES IDX 4 1 3 2 2 3 1 4 21 5 19 6 18 7 16 8 15 9 14 10 13 11 5 12
REMARK SMILES IDX 6 13 7 14 8 15 12 16 10 17 9 18 11 20 20 22 17 24
REMARK H PARENT 9 19 11 21 20 23 17 25
REMARK Flexibility Score: inf
ROOT
ATOM      1  C   UNL     1      18.073  -0.235 -15.605  1.00  0.00     0.138 A 
ATOM      2  C   UNL     1      19.179   0.477 -15.120  1.00  0.00     0.100 A 
ATOM      3  C   UNL     1      20.225   0.800 -15.985  1.00  0.00     0.197 A 
ATOM      4  O   UNL     1      21.232   1.383 -15.507  1.00  0.00    -0.289 OA
ATOM      5  C   UNL     1      20.147   0.435 -17.350  1.00  0.00     0.107 A 
ATOM      6  C   UNL     1      21.134   0.747 -18.332  1.00  0.00     0.134 A 
ATOM      7  C   UNL     1      21.005   0.233 -19.629  1.00  0.00     0.093 A 
ATOM      8  C   UNL     1      19.894  -0.530 -19.993  1.00  0.00     0.123 A 
ATOM      9  C   UNL     1      18.897  -0.794 -19.056  1.00  0.00     0.094 A 
ATOM     10  C   UNL     1      19.014  -0.325 -17.746  1.00  0.00     0.146 A 
ATOM     11  O   UNL     1      18.049  -0.612 -16.879  1.00  0.00    -0.456 OA
ENDROOT
BRANCH   1  12
ATOM     12  C   UNL     1      16.932  -0.604 -14.729  1.00  0.00     0.021 A 
ATOM     13  C   UNL     1      15.837   0.261 -14.537  1.00  0.00     0.016 A 
ATOM     14  C   UNL     1      14.772  -0.116 -13.715  1.00  0.00     0.051 A 
ATOM     15  C   UNL     1      14.778  -1.362 -13.077  1.00  0.00     0.157 A 
ATOM     16  C   UNL     1      16.923  -1.859 -14.096  1.00  0.00     0.062 A 
ATOM     17  C   UNL     1      15.854  -2.237 -13.271  1.00  0.00     0.158 A 
BRANCH  15  18
ATOM     18  O   UNL     1      13.718  -1.741 -12.256  1.00  0.00    -0.504 OA
ATOM     19  H   UNL     1      13.260  -1.078 -11.640  1.00  0.00     0.293 HD
ENDBRANCH  15  18
BRANCH  17  20
ATOM     20  O   UNL     1      15.855  -3.479 -12.638  1.00  0.00    -0.504 OA
ATOM     21  H   UNL     1      16.276  -4.293 -13.070  1.00  0.00     0.293 HD
ENDBRANCH  17  20
ENDBRANCH   1  12
BRANCH   6  22
ATOM     22  O   UNL     1      22.239   1.571 -18.095  1.00  0.00    -0.507 OA
ATOM     23  H   UNL     1      23.188   1.353 -18.359  1.00  0.00     0.293 HD
ENDBRANCH   6  22
BRANCH   8  24
ATOM     24  O   UNL     1      19.765  -1.024 -21.290  1.00  0.00    -0.508 OA
ATOM     25  H   UNL     1      20.328  -1.800 -21.619  1.00  0.00     0.293 HD
ENDBRANCH   8  24
TORSDOF 5
ENDMDL
