MODEL 1
REMARK VINA RESULT:    -2.961      0.000      0.000
REMARK INTER + INTRA:          -6.395
REMARK INTER:                  -4.865
REMARK INTRA:                  -1.530
REMARK UNBOUND:                -1.530
REMARK SMILES C[C@@H]1O[C@@H](OC[C@H]2O[C@H](Oc3c(-c4ccc(O)c(O)c4)oc4cc(O)cc(O)c4c3=O)[C@H](O)[C@H](O)[C@@H]2O)[C@H](O)[C@H](O)[C@H]1O
REMARK SMILES IDX 7 1 36 2 34 3 32 4 9 5 8 6 6 7 5 8 4 9 1 10 2 11 42 12 3 13
REMARK SMILES IDX 40 14 38 15 43 16 41 18 39 20 37 22 35 24 10 26 11 27 12 28
REMARK SMILES IDX 30 29 21 30 29 31 31 32 22 33 27 34 23 35 26 36 24 37 13 38
REMARK SMILES IDX 20 39 14 40 18 41 15 42 16 43 19 44 17 46 28 48 25 50 33 52
REMARK H PARENT 43 17 41 19 39 21 37 23 35 25 19 45 17 47 28 49 25 51 33 53
REMARK Flexibility Score: inf
ROOT
ATOM      1  C   UNL     1      -9.608  27.995  15.311  1.00  0.00     0.180 C 
ATOM      2  C   UNL     1     -11.102  27.693  14.940  1.00  0.00     0.177 C 
ATOM      3  C   UNL     1     -11.644  26.887  16.145  1.00  0.00     0.180 C 
ATOM      4  C   UNL     1     -11.649  28.017  17.174  1.00  0.00     0.214 C 
ATOM      5  C   UNL     1     -10.225  28.290  17.685  1.00  0.00     0.339 C 
ATOM      6  O   UNL     1      -9.273  27.723  16.689  1.00  0.00    -0.332 OA
ENDROOT
BRANCH   1   7
ATOM      7  C   UNL     1      -9.090  29.361  14.725  1.00  0.00     0.198 C 
BRANCH   7   8
ATOM      8  O   UNL     1      -8.100  29.071  13.746  1.00  0.00    -0.347 OA
BRANCH   8   9
ATOM      9  C   UNL     1      -6.951  28.165  14.099  1.00  0.00     0.281 C 
ATOM     10  C   UNL     1      -3.620  29.602  13.668  1.00  0.00     0.041 C 
ATOM     11  C   UNL     1      -5.153  29.647  13.428  1.00  0.00     0.150 C 
ATOM     12  C   UNL     1      -5.479  29.337  11.906  1.00  0.00     0.174 C 
ATOM     13  O   UNL     1      -5.754  28.850  14.425  1.00  0.00    -0.344 OA
ATOM     14  C   UNL     1      -5.920  27.849  11.699  1.00  0.00     0.179 C 
ATOM     15  C   UNL     1      -7.005  27.286  12.793  1.00  0.00     0.202 C 
BRANCH  12  16
ATOM     16  O   UNL     1      -6.488  30.173  11.625  1.00  0.00    -0.388 OA
ATOM     17  H   UNL     1      -7.135  29.540  11.213  1.00  0.00     0.211 HD
ENDBRANCH  12  16
BRANCH  14  18
ATOM     18  O   UNL     1      -4.823  27.061  11.452  1.00  0.00    -0.387 OA
ATOM     19  H   UNL     1      -4.078  27.606  11.193  1.00  0.00     0.211 HD
ENDBRANCH  14  18
BRANCH  15  20
ATOM     20  O   UNL     1      -6.909  25.926  13.071  1.00  0.00    -0.385 OA
ATOM     21  H   UNL     1      -7.650  25.560  13.666  1.00  0.00     0.211 HD
ENDBRANCH  15  20
ENDBRANCH   8   9
ENDBRANCH   7   8
ENDBRANCH   1   7
BRANCH   2  22
ATOM     22  O   UNL     1     -11.484  27.150  13.707  1.00  0.00    -0.387 OA
ATOM     23  H   UNL     1     -11.256  27.593  12.894  1.00  0.00     0.211 HD
ENDBRANCH   2  22
BRANCH   3  24
ATOM     24  O   UNL     1     -10.818  25.730  16.488  1.00  0.00    -0.387 OA
ATOM     25  H   UNL     1     -11.209  24.848  16.360  1.00  0.00     0.211 HD
ENDBRANCH   3  24
BRANCH   5  26
ATOM     26  O   UNL     1     -10.099  27.966  19.080  1.00  0.00    -0.454 OA
BRANCH  26  27
ATOM     27  C   UNL     1      -9.493  28.646  20.246  1.00  0.00     0.214 A 
ATOM     28  C   UNL     1      -8.112  28.519  20.617  1.00  0.00     0.180 A 
ATOM     29  C   UNL     1     -10.249  29.036  21.333  1.00  0.00     0.239 A 
ATOM     30  O   UNL     1      -7.674  28.409  21.854  1.00  0.00    -0.452 OA
ATOM     31  C   UNL     1      -9.761  28.913  22.709  1.00  0.00     0.111 A 
ATOM     32  O   UNL     1     -11.463  29.267  21.129  1.00  0.00    -0.285 OA
ATOM     33  C   UNL     1      -8.429  28.495  22.881  1.00  0.00     0.146 A 
ATOM     34  C   UNL     1     -10.506  29.128  23.940  1.00  0.00     0.134 A 
ATOM     35  C   UNL     1      -7.960  28.094  24.126  1.00  0.00     0.094 A 
ATOM     36  C   UNL     1     -10.103  28.557  25.132  1.00  0.00     0.093 A 
ATOM     37  C   UNL     1      -8.751  28.154  25.251  1.00  0.00     0.123 A 
BRANCH  28  38
ATOM     38  C   UNL     1      -6.954  28.526  19.682  1.00  0.00     0.025 A 
ATOM     39  C   UNL     1      -5.780  27.900  20.124  1.00  0.00     0.062 A 
ATOM     40  C   UNL     1      -7.033  28.834  18.351  1.00  0.00     0.016 A 
ATOM     41  C   UNL     1      -4.550  28.110  19.423  1.00  0.00     0.158 A 
ATOM     42  C   UNL     1      -5.842  29.044  17.646  1.00  0.00     0.051 A 
ATOM     43  C   UNL     1      -4.605  28.866  18.224  1.00  0.00     0.157 A 
BRANCH  41  44
ATOM     44  O   UNL     1      -3.328  27.679  19.938  1.00  0.00    -0.504 OA
ATOM     45  H   UNL     1      -3.159  26.790  20.405  1.00  0.00     0.293 HD
ENDBRANCH  41  44
BRANCH  43  46
ATOM     46  O   UNL     1      -3.518  29.441  17.631  1.00  0.00    -0.504 OA
ATOM     47  H   UNL     1      -2.776  28.865  17.174  1.00  0.00     0.293 HD
ENDBRANCH  43  46
ENDBRANCH  28  38
BRANCH  34  48
ATOM     48  O   UNL     1     -11.848  29.638  23.865  1.00  0.00    -0.507 OA
ATOM     49  H   UNL     1     -12.463  28.940  23.228  1.00  0.00     0.293 HD
ENDBRANCH  34  48
BRANCH  37  50
ATOM     50  O   UNL     1      -8.277  27.703  26.473  1.00  0.00    -0.508 OA
ATOM     51  H   UNL     1      -7.284  27.679  26.688  1.00  0.00     0.293 HD
ENDBRANCH  37  50
ENDBRANCH  26  27
ENDBRANCH   5  26
BRANCH   4  52
ATOM     52  O   UNL     1     -12.604  27.928  18.118  1.00  0.00    -0.384 OA
ATOM     53  H   UNL     1     -12.706  26.924  18.379  1.00  0.00     0.211 HD
ENDBRANCH   4  52
TORSDOF 16
ENDMDL
MODEL 2
REMARK VINA RESULT:    -2.837      1.894      5.413
REMARK INTER + INTRA:          -6.192
REMARK INTER:                  -4.820
REMARK INTRA:                  -1.372
REMARK UNBOUND:                -1.530
REMARK SMILES C[C@@H]1O[C@@H](OC[C@H]2O[C@H](Oc3c(-c4ccc(O)c(O)c4)oc4cc(O)cc(O)c4c3=O)[C@H](O)[C@H](O)[C@@H]2O)[C@H](O)[C@H](O)[C@H]1O
REMARK SMILES IDX 7 1 36 2 34 3 32 4 9 5 8 6 6 7 5 8 4 9 1 10 2 11 42 12 3 13
REMARK SMILES IDX 40 14 38 15 43 16 41 18 39 20 37 22 35 24 10 26 11 27 12 28
REMARK SMILES IDX 30 29 21 30 29 31 31 32 22 33 27 34 23 35 26 36 24 37 13 38
REMARK SMILES IDX 20 39 14 40 18 41 15 42 16 43 19 44 17 46 28 48 25 50 33 52
REMARK H PARENT 43 17 41 19 39 21 37 23 35 25 19 45 17 47 28 49 25 51 33 53
REMARK Flexibility Score: inf
ROOT
ATOM      1  C   UNL     1      -6.845  29.009  15.317  1.00  0.00     0.180 C 
ATOM      2  C   UNL     1      -5.349  29.300  14.950  1.00  0.00     0.177 C 
ATOM      3  C   UNL     1      -4.804  30.104  16.155  1.00  0.00     0.180 C 
ATOM      4  C   UNL     1      -4.810  28.976  17.185  1.00  0.00     0.214 C 
ATOM      5  C   UNL     1      -6.236  28.713  17.693  1.00  0.00     0.339 C 
ATOM      6  O   UNL     1      -7.182  29.285  16.694  1.00  0.00    -0.332 OA
ENDROOT
BRANCH   1   7
ATOM      7  C   UNL     1      -7.371  27.645  14.732  1.00  0.00     0.198 C 
BRANCH   7   8
ATOM      8  O   UNL     1      -8.360  27.940  13.753  1.00  0.00    -0.347 OA
BRANCH   8   9
ATOM      9  C   UNL     1      -9.481  28.884  14.093  1.00  0.00     0.281 C 
ATOM     10  C   UNL     1     -12.848  27.490  13.833  1.00  0.00     0.041 C 
ATOM     11  C   UNL     1     -11.324  27.405  13.551  1.00  0.00     0.150 C 
ATOM     12  C   UNL     1     -11.039  27.632  12.006  1.00  0.00     0.174 C 
ATOM     13  O   UNL     1     -10.680  28.239  14.487  1.00  0.00    -0.344 OA
ATOM     14  C   UNL     1     -10.579  29.099  11.711  1.00  0.00     0.179 C 
ATOM     15  C   UNL     1      -9.452  29.696  12.742  1.00  0.00     0.202 C 
BRANCH  12  16
ATOM     16  O   UNL     1     -10.053  26.764  11.739  1.00  0.00    -0.388 OA
ATOM     17  H   UNL     1     -10.094  26.192  12.553  1.00  0.00     0.211 HD
ENDBRANCH  12  16
BRANCH  14  18
ATOM     18  O   UNL     1     -11.669  29.894  11.456  1.00  0.00    -0.387 OA
ATOM     19  H   UNL     1     -12.137  30.080  12.271  1.00  0.00     0.211 HD
ENDBRANCH  14  18
BRANCH  15  20
ATOM     20  O   UNL     1      -9.516  31.070  12.954  1.00  0.00    -0.385 OA
ATOM     21  H   UNL     1      -8.792  31.441  13.566  1.00  0.00     0.211 HD
ENDBRANCH  15  20
ENDBRANCH   8   9
ENDBRANCH   7   8
ENDBRANCH   1   7
BRANCH   2  22
ATOM     22  O   UNL     1      -4.960  29.839  13.717  1.00  0.00    -0.387 OA
ATOM     23  H   UNL     1      -5.204  29.406  12.903  1.00  0.00     0.211 HD
ENDBRANCH   2  22
BRANCH   3  24
ATOM     24  O   UNL     1      -5.623  31.267  16.494  1.00  0.00    -0.387 OA
ATOM     25  H   UNL     1      -6.283  31.556  15.839  1.00  0.00     0.211 HD
ENDBRANCH   3  24
BRANCH   5  26
ATOM     26  O   UNL     1      -6.363  29.039  19.088  1.00  0.00    -0.454 OA
BRANCH  26  27
ATOM     27  C   UNL     1      -6.984  28.369  20.251  1.00  0.00     0.214 A 
ATOM     28  C   UNL     1      -8.371  28.489  20.598  1.00  0.00     0.180 A 
ATOM     29  C   UNL     1      -6.242  27.998  21.355  1.00  0.00     0.239 A 
ATOM     30  O   UNL     1      -8.830  28.610  21.827  1.00  0.00    -0.452 OA
ATOM     31  C   UNL     1      -6.754  28.133  22.722  1.00  0.00     0.111 A 
ATOM     32  O   UNL     1      -5.023  27.774  21.174  1.00  0.00    -0.285 OA
ATOM     33  C   UNL     1      -8.092  28.542  22.866  1.00  0.00     0.146 A 
ATOM     34  C   UNL     1      -6.027  27.938  23.967  1.00  0.00     0.134 A 
ATOM     35  C   UNL     1      -8.584  28.955  24.099  1.00  0.00     0.094 A 
ATOM     36  C   UNL     1      -6.454  28.521  25.146  1.00  0.00     0.093 A 
ATOM     37  C   UNL     1      -7.811  28.914  25.238  1.00  0.00     0.123 A 
BRANCH  28  38
ATOM     38  C   UNL     1      -9.514  28.461  19.645  1.00  0.00     0.025 A 
ATOM     39  C   UNL     1     -10.727  29.002  20.095  1.00  0.00     0.062 A 
ATOM     40  C   UNL     1      -9.399  28.219  18.302  1.00  0.00     0.016 A 
ATOM     41  C   UNL     1     -11.933  28.758  19.365  1.00  0.00     0.158 A 
ATOM     42  C   UNL     1     -10.566  27.978  17.570  1.00  0.00     0.051 A 
ATOM     43  C   UNL     1     -11.820  28.061  18.134  1.00  0.00     0.157 A 
BRANCH  41  44
ATOM     44  O   UNL     1     -13.184  29.098  19.877  1.00  0.00    -0.504 OA
ATOM     45  H   UNL     1     -14.051  28.587  19.719  1.00  0.00     0.293 HD
ENDBRANCH  41  44
BRANCH  43  46
ATOM     46  O   UNL     1     -12.864  27.455  17.498  1.00  0.00    -0.504 OA
ATOM     47  H   UNL     1     -12.792  27.146  16.502  1.00  0.00     0.293 HD
ENDBRANCH  43  46
ENDBRANCH  28  38
BRANCH  34  48
ATOM     48  O   UNL     1      -4.680  27.438  23.920  1.00  0.00    -0.507 OA
ATOM     49  H   UNL     1      -4.138  27.944  23.070  1.00  0.00     0.293 HD
ENDBRANCH  34  48
BRANCH  37  50
ATOM     50  O   UNL     1      -8.308  29.376  26.446  1.00  0.00    -0.508 OA
ATOM     51  H   UNL     1      -8.412  28.765  27.252  1.00  0.00     0.293 HD
ENDBRANCH  37  50
ENDBRANCH  26  27
ENDBRANCH   5  26
BRANCH   4  52
ATOM     52  O   UNL     1      -3.856  29.059  18.131  1.00  0.00    -0.384 OA
ATOM     53  H   UNL     1      -3.171  28.291  17.967  1.00  0.00     0.211 HD
ENDBRANCH   4  52
TORSDOF 16
ENDMDL
MODEL 3
REMARK VINA RESULT:    -2.817      1.914      8.292
REMARK INTER + INTRA:          -6.159
REMARK INTER:                  -5.628
REMARK INTRA:                  -0.531
REMARK UNBOUND:                -1.530
REMARK SMILES C[C@@H]1O[C@@H](OC[C@H]2O[C@H](Oc3c(-c4ccc(O)c(O)c4)oc4cc(O)cc(O)c4c3=O)[C@H](O)[C@H](O)[C@@H]2O)[C@H](O)[C@H](O)[C@H]1O
REMARK SMILES IDX 7 1 36 2 34 3 32 4 9 5 8 6 6 7 5 8 4 9 1 10 2 11 42 12 3 13
REMARK SMILES IDX 40 14 38 15 43 16 41 18 39 20 37 22 35 24 10 26 11 27 12 28
REMARK SMILES IDX 30 29 21 30 29 31 31 32 22 33 27 34 23 35 26 36 24 37 13 38
REMARK SMILES IDX 20 39 14 40 18 41 15 42 16 43 19 44 17 46 28 48 25 50 33 52
REMARK H PARENT 43 17 41 19 39 21 37 23 35 25 19 45 17 47 28 49 25 51 33 53
REMARK Flexibility Score: inf
ROOT
ATOM      1  C   UNL     1      -6.607  27.920  20.134  1.00  0.00     0.180 C 
ATOM      2  C   UNL     1      -5.041  27.936  20.217  1.00  0.00     0.177 C 
ATOM      3  C   UNL     1      -4.574  27.789  18.749  1.00  0.00     0.180 C 
ATOM      4  C   UNL     1      -5.018  29.161  18.244  1.00  0.00     0.214 C 
ATOM      5  C   UNL     1      -6.537  29.187  18.014  1.00  0.00     0.339 C 
ATOM      6  O   UNL     1      -7.131  28.066  18.796  1.00  0.00    -0.332 OA
ENDROOT
BRANCH   1   7
ATOM      7  C   UNL     1      -7.294  28.792  21.250  1.00  0.00     0.198 C 
BRANCH   7   8
ATOM      8  O   UNL     1      -8.592  29.149  20.791  1.00  0.00    -0.347 OA
BRANCH   8   9
ATOM      9  C   UNL     1      -9.765  28.268  21.128  1.00  0.00     0.281 C 
ATOM     10  C   UNL     1     -12.445  28.196  18.647  1.00  0.00     0.041 C 
ATOM     11  C   UNL     1     -11.151  28.832  19.219  1.00  0.00     0.150 C 
ATOM     12  C   UNL     1     -11.477  30.236  19.883  1.00  0.00     0.174 C 
ATOM     13  O   UNL     1     -10.513  27.845  20.001  1.00  0.00    -0.344 OA
ATOM     14  C   UNL     1     -11.602  30.127  21.440  1.00  0.00     0.179 C 
ATOM     15  C   UNL     1     -10.430  29.243  22.172  1.00  0.00     0.202 C 
BRANCH  12  16
ATOM     16  O   UNL     1     -10.423  30.994  19.545  1.00  0.00    -0.388 OA
ATOM     17  H   UNL     1     -10.662  31.221  18.606  1.00  0.00     0.211 HD
ENDBRANCH  12  16
BRANCH  14  18
ATOM     18  O   UNL     1     -12.900  29.847  21.791  1.00  0.00    -0.387 OA
ATOM     19  H   UNL     1     -12.931  29.054  22.328  1.00  0.00     0.211 HD
ENDBRANCH  14  18
BRANCH  15  20
ATOM     20  O   UNL     1     -10.829  28.581  23.329  1.00  0.00    -0.385 OA
ATOM     21  H   UNL     1     -11.427  27.772  23.173  1.00  0.00     0.211 HD
ENDBRANCH  15  20
ENDBRANCH   8   9
ENDBRANCH   7   8
ENDBRANCH   1   7
BRANCH   2  22
ATOM     22  O   UNL     1      -4.319  27.125  21.102  1.00  0.00    -0.387 OA
ATOM     23  H   UNL     1      -3.471  26.772  20.849  1.00  0.00     0.211 HD
ENDBRANCH   2  22
BRANCH   3  24
ATOM     24  O   UNL     1      -5.172  26.644  18.062  1.00  0.00    -0.387 OA
ATOM     25  H   UNL     1      -4.780  26.379  17.211  1.00  0.00     0.211 HD
ENDBRANCH   3  24
BRANCH   5  26
ATOM     26  O   UNL     1      -6.853  29.352  16.621  1.00  0.00    -0.454 OA
BRANCH  26  27
ATOM     27  C   UNL     1      -7.623  28.560  15.638  1.00  0.00     0.214 A 
ATOM     28  C   UNL     1      -7.713  28.883  14.243  1.00  0.00     0.180 A 
ATOM     29  C   UNL     1      -8.693  27.773  16.019  1.00  0.00     0.239 A 
ATOM     30  O   UNL     1      -8.808  28.788  13.518  1.00  0.00    -0.452 OA
ATOM     31  C   UNL     1      -9.911  27.667  15.211  1.00  0.00     0.111 A 
ATOM     32  O   UNL     1      -8.695  27.346  17.195  1.00  0.00    -0.285 OA
ATOM     33  C   UNL     1      -9.905  28.304  13.957  1.00  0.00     0.146 A 
ATOM     34  C   UNL     1     -11.162  27.015  15.569  1.00  0.00     0.134 A 
ATOM     35  C   UNL     1     -11.083  28.490  13.244  1.00  0.00     0.094 A 
ATOM     36  C   UNL     1     -12.352  27.360  14.957  1.00  0.00     0.093 A 
ATOM     37  C   UNL     1     -12.288  28.000  13.696  1.00  0.00     0.123 A 
BRANCH  28  38
ATOM     38  C   UNL     1      -6.589  29.342  13.381  1.00  0.00     0.025 A 
ATOM     39  C   UNL     1      -5.294  29.202  13.900  1.00  0.00     0.062 A 
ATOM     40  C   UNL     1      -6.699  29.615  12.043  1.00  0.00     0.016 A 
ATOM     41  C   UNL     1      -4.196  29.872  13.273  1.00  0.00     0.158 A 
ATOM     42  C   UNL     1      -5.637  30.271  11.411  1.00  0.00     0.051 A 
ATOM     43  C   UNL     1      -4.461  30.568  12.065  1.00  0.00     0.157 A 
BRANCH  41  44
ATOM     44  O   UNL     1      -2.936  29.930  13.865  1.00  0.00    -0.504 OA
ATOM     45  H   UNL     1      -2.748  30.111  14.850  1.00  0.00     0.293 HD
ENDBRANCH  41  44
BRANCH  43  46
ATOM     46  O   UNL     1      -3.641  31.520  11.534  1.00  0.00    -0.504 OA
ATOM     47  H   UNL     1      -3.603  31.696  10.505  1.00  0.00     0.293 HD
ENDBRANCH  43  46
ENDBRANCH  28  38
BRANCH  34  48
ATOM     48  O   UNL     1     -11.233  26.266  16.794  1.00  0.00    -0.507 OA
ATOM     49  H   UNL     1     -12.267  26.385  17.229  1.00  0.00     0.293 HD
ENDBRANCH  34  48
BRANCH  37  50
ATOM     50  O   UNL     1     -13.458  28.239  12.991  1.00  0.00    -0.508 OA
ATOM     51  H   UNL     1     -13.551  29.029  12.357  1.00  0.00     0.293 HD
ENDBRANCH  37  50
ENDBRANCH  26  27
ENDBRANCH   5  26
BRANCH   4  52
ATOM     52  O   UNL     1      -4.265  29.678  17.255  1.00  0.00    -0.384 OA
ATOM     53  H   UNL     1      -3.356  29.980  17.667  1.00  0.00     0.211 HD
ENDBRANCH   4  52
TORSDOF 16
ENDMDL
MODEL 4
REMARK VINA RESULT:    -2.465      2.020      8.113
REMARK INTER + INTRA:          -5.581
REMARK INTER:                  -5.119
REMARK INTRA:                  -0.462
REMARK UNBOUND:                -1.530
REMARK SMILES C[C@@H]1O[C@@H](OC[C@H]2O[C@H](Oc3c(-c4ccc(O)c(O)c4)oc4cc(O)cc(O)c4c3=O)[C@H](O)[C@H](O)[C@@H]2O)[C@H](O)[C@H](O)[C@H]1O
REMARK SMILES IDX 7 1 36 2 34 3 32 4 9 5 8 6 6 7 5 8 4 9 1 10 2 11 42 12 3 13
REMARK SMILES IDX 40 14 38 15 43 16 41 18 39 20 37 22 35 24 10 26 11 27 12 28
REMARK SMILES IDX 30 29 21 30 29 31 31 32 22 33 27 34 23 35 26 36 24 37 13 38
REMARK SMILES IDX 20 39 14 40 18 41 15 42 16 43 19 44 17 46 28 48 25 50 33 52
REMARK H PARENT 43 17 41 19 39 21 37 23 35 25 19 45 17 47 28 49 25 51 33 53
REMARK Flexibility Score: inf
ROOT
ATOM      1  C   UNL     1      -9.781  29.029  20.169  1.00  0.00     0.180 C 
ATOM      2  C   UNL     1     -11.343  29.022  20.312  1.00  0.00     0.177 C 
ATOM      3  C   UNL     1     -11.864  29.211  18.866  1.00  0.00     0.180 C 
ATOM      4  C   UNL     1     -11.451  27.849  18.310  1.00  0.00     0.214 C 
ATOM      5  C   UNL     1      -9.942  27.816  18.022  1.00  0.00     0.339 C 
ATOM      6  O   UNL     1      -9.310  28.913  18.809  1.00  0.00    -0.332 OA
ENDROOT
BRANCH   1   7
ATOM      7  C   UNL     1      -9.060  28.123  21.236  1.00  0.00     0.198 C 
BRANCH   7   8
ATOM      8  O   UNL     1      -7.766  27.805  20.738  1.00  0.00    -0.347 OA
BRANCH   8   9
ATOM      9  C   UNL     1      -6.601  28.696  21.079  1.00  0.00     0.281 C 
ATOM     10  C   UNL     1      -3.924  28.808  18.596  1.00  0.00     0.041 C 
ATOM     11  C   UNL     1      -5.212  28.156  19.167  1.00  0.00     0.150 C 
ATOM     12  C   UNL     1      -4.871  26.752  19.823  1.00  0.00     0.174 C 
ATOM     13  O   UNL     1      -5.859  29.132  19.954  1.00  0.00    -0.344 OA
ATOM     14  C   UNL     1      -4.745  26.855  21.380  1.00  0.00     0.179 C 
ATOM     15  C   UNL     1      -5.926  27.722  22.118  1.00  0.00     0.202 C 
BRANCH  12  16
ATOM     16  O   UNL     1      -5.917  25.985  19.481  1.00  0.00    -0.388 OA
ATOM     17  H   UNL     1      -6.618  26.683  19.364  1.00  0.00     0.211 HD
ENDBRANCH  12  16
BRANCH  14  18
ATOM     18  O   UNL     1      -3.450  27.145  21.731  1.00  0.00    -0.387 OA
ATOM     19  H   UNL     1      -2.901  26.366  21.635  1.00  0.00     0.211 HD
ENDBRANCH  14  18
BRANCH  15  20
ATOM     20  O   UNL     1      -5.533  28.383  23.278  1.00  0.00    -0.385 OA
ATOM     21  H   UNL     1      -4.533  28.355  23.467  1.00  0.00     0.211 HD
ENDBRANCH  15  20
ENDBRANCH   8   9
ENDBRANCH   7   8
ENDBRANCH   1   7
BRANCH   2  22
ATOM     22  O   UNL     1     -12.024  29.816  21.243  1.00  0.00    -0.387 OA
ATOM     23  H   UNL     1     -12.899  29.574  21.534  1.00  0.00     0.211 HD
ENDBRANCH   2  22
BRANCH   3  24
ATOM     24  O   UNL     1     -11.283  30.368  18.186  1.00  0.00    -0.387 OA
ATOM     25  H   UNL     1     -10.952  31.094  18.744  1.00  0.00     0.211 HD
ENDBRANCH   3  24
BRANCH   5  26
ATOM     26  O   UNL     1      -9.681  27.685  16.614  1.00  0.00    -0.454 OA
BRANCH  26  27
ATOM     27  C   UNL     1      -8.893  28.465  15.635  1.00  0.00     0.214 A 
ATOM     28  C   UNL     1      -8.771  28.117  14.248  1.00  0.00     0.180 A 
ATOM     29  C   UNL     1      -7.838  29.265  16.025  1.00  0.00     0.239 A 
ATOM     30  O   UNL     1      -7.659  28.207  13.546  1.00  0.00    -0.452 OA
ATOM     31  C   UNL     1      -6.602  29.365  15.243  1.00  0.00     0.111 A 
ATOM     32  O   UNL     1      -7.865  29.713  17.194  1.00  0.00    -0.285 OA
ATOM     33  C   UNL     1      -6.576  28.706  14.001  1.00  0.00     0.146 A 
ATOM     34  C   UNL     1      -5.364  30.033  15.618  1.00  0.00     0.134 A 
ATOM     35  C   UNL     1      -5.381  28.516  13.318  1.00  0.00     0.094 A 
ATOM     36  C   UNL     1      -4.159  29.685  15.039  1.00  0.00     0.093 A 
ATOM     37  C   UNL     1      -4.190  29.022  13.788  1.00  0.00     0.123 A 
BRANCH  28  38
ATOM     38  C   UNL     1      -9.871  27.636  13.369  1.00  0.00     0.025 A 
ATOM     39  C   UNL     1     -11.178  27.767  13.861  1.00  0.00     0.062 A 
ATOM     40  C   UNL     1      -9.733  27.349  12.037  1.00  0.00     0.016 A 
ATOM     41  C   UNL     1     -12.255  27.077  13.221  1.00  0.00     0.158 A 
ATOM     42  C   UNL     1     -10.774  26.674  11.392  1.00  0.00     0.051 A 
ATOM     43  C   UNL     1     -11.959  26.371  12.026  1.00  0.00     0.157 A 
BRANCH  41  44
ATOM     44  O   UNL     1     -13.527  27.010  13.789  1.00  0.00    -0.504 OA
ATOM     45  H   UNL     1     -14.408  27.021  13.278  1.00  0.00     0.293 HD
ENDBRANCH  41  44
BRANCH  43  46
ATOM     46  O   UNL     1     -12.757  25.403  11.490  1.00  0.00    -0.504 OA
ATOM     47  H   UNL     1     -12.362  24.624  10.915  1.00  0.00     0.293 HD
ENDBRANCH  43  46
ENDBRANCH  28  38
BRANCH  34  48
ATOM     48  O   UNL     1      -5.325  30.803  16.830  1.00  0.00    -0.507 OA
ATOM     49  H   UNL     1      -4.517  30.386  17.496  1.00  0.00     0.293 HD
ENDBRANCH  34  48
BRANCH  37  50
ATOM     50  O   UNL     1      -3.003  28.779  13.114  1.00  0.00    -0.508 OA
ATOM     51  H   UNL     1      -2.922  28.903  12.108  1.00  0.00     0.293 HD
ENDBRANCH  37  50
ENDBRANCH  26  27
ENDBRANCH   5  26
BRANCH   4  52
ATOM     52  O   UNL     1     -12.245  27.362  17.338  1.00  0.00    -0.384 OA
ATOM     53  H   UNL     1     -11.798  26.499  16.960  1.00  0.00     0.211 HD
ENDBRANCH   4  52
TORSDOF 16
ENDMDL
MODEL 5
REMARK VINA RESULT:    -2.418      1.671      8.959
REMARK INTER + INTRA:          -5.504
REMARK INTER:                  -3.885
REMARK INTRA:                  -1.618
REMARK UNBOUND:                -1.530
REMARK SMILES C[C@@H]1O[C@@H](OC[C@H]2O[C@H](Oc3c(-c4ccc(O)c(O)c4)oc4cc(O)cc(O)c4c3=O)[C@H](O)[C@H](O)[C@@H]2O)[C@H](O)[C@H](O)[C@H]1O
REMARK SMILES IDX 7 1 36 2 34 3 32 4 9 5 8 6 6 7 5 8 4 9 1 10 2 11 42 12 3 13
REMARK SMILES IDX 40 14 38 15 43 16 41 18 39 20 37 22 35 24 10 26 11 27 12 28
REMARK SMILES IDX 30 29 21 30 29 31 31 32 22 33 27 34 23 35 26 36 24 37 13 38
REMARK SMILES IDX 20 39 14 40 18 41 15 42 16 43 19 44 17 46 28 48 25 50 33 52
REMARK H PARENT 43 17 41 19 39 21 37 23 35 25 19 45 17 47 28 49 25 51 33 53
REMARK Flexibility Score: inf
ROOT
ATOM      1  C   UNL     1      -9.817  28.967  20.831  1.00  0.00     0.180 C 
ATOM      2  C   UNL     1     -11.380  28.884  20.934  1.00  0.00     0.177 C 
ATOM      3  C   UNL     1     -11.888  29.511  19.613  1.00  0.00     0.180 C 
ATOM      4  C   UNL     1     -11.434  28.403  18.663  1.00  0.00     0.214 C 
ATOM      5  C   UNL     1      -9.921  28.493  18.408  1.00  0.00     0.339 C 
ATOM      6  O   UNL     1      -9.326  29.296  19.513  1.00  0.00    -0.332 OA
ENDROOT
BRANCH   1   7
ATOM      7  C   UNL     1      -9.086  27.784  21.571  1.00  0.00     0.198 C 
BRANCH   7   8
ATOM      8  O   UNL     1      -9.297  27.944  22.968  1.00  0.00    -0.347 OA
BRANCH   8   9
ATOM      9  C   UNL     1      -8.771  29.171  23.662  1.00  0.00     0.281 C 
ATOM     10  C   UNL     1      -5.433  28.852  25.111  1.00  0.00     0.041 C 
ATOM     11  C   UNL     1      -6.702  28.214  24.487  1.00  0.00     0.150 C 
ATOM     12  C   UNL     1      -7.521  27.425  25.595  1.00  0.00     0.174 C 
ATOM     13  O   UNL     1      -7.358  29.223  23.752  1.00  0.00    -0.344 OA
ATOM     14  C   UNL     1      -8.727  28.265  26.132  1.00  0.00     0.179 C 
ATOM     15  C   UNL     1      -9.622  29.014  24.979  1.00  0.00     0.202 C 
BRANCH  12  16
ATOM     16  O   UNL     1      -7.954  26.334  24.946  1.00  0.00    -0.388 OA
ATOM     17  H   UNL     1      -8.531  25.928  25.648  1.00  0.00     0.211 HD
ENDBRANCH  12  16
BRANCH  14  18
ATOM     18  O   UNL     1      -8.333  29.027  27.204  1.00  0.00    -0.387 OA
ATOM     19  H   UNL     1      -7.435  28.803  27.453  1.00  0.00     0.211 HD
ENDBRANCH  14  18
BRANCH  15  20
ATOM     20  O   UNL     1     -10.204  30.215  25.374  1.00  0.00    -0.385 OA
ATOM     21  H   UNL     1      -9.595  30.827  25.913  1.00  0.00     0.211 HD
ENDBRANCH  15  20
ENDBRANCH   8   9
ENDBRANCH   7   8
ENDBRANCH   1   7
BRANCH   2  22
ATOM     22  O   UNL     1     -12.091  29.329  22.055  1.00  0.00    -0.387 OA
ATOM     23  H   UNL     1     -12.279  28.734  22.775  1.00  0.00     0.211 HD
ENDBRANCH   2  22
BRANCH   3  24
ATOM     24  O   UNL     1     -11.327  30.835  19.345  1.00  0.00    -0.387 OA
ATOM     25  H   UNL     1     -10.399  30.876  19.053  1.00  0.00     0.211 HD
ENDBRANCH   3  24
BRANCH   5  26
ATOM     26  O   UNL     1      -9.640  28.819  17.037  1.00  0.00    -0.454 OA
BRANCH  26  27
ATOM     27  C   UNL     1      -8.635  28.360  16.053  1.00  0.00     0.214 A 
ATOM     28  C   UNL     1      -7.219  28.395  16.280  1.00  0.00     0.180 A 
ATOM     29  C   UNL     1      -8.905  28.333  14.699  1.00  0.00     0.239 A 
ATOM     30  O   UNL     1      -6.321  28.735  15.377  1.00  0.00    -0.452 OA
ATOM     31  C   UNL     1      -7.906  28.712  13.696  1.00  0.00     0.111 A 
ATOM     32  O   UNL     1     -10.104  28.215  14.360  1.00  0.00    -0.285 OA
ATOM     33  C   UNL     1      -6.607  28.987  14.158  1.00  0.00     0.146 A 
ATOM     34  C   UNL     1      -8.105  28.886  12.264  1.00  0.00     0.134 A 
ATOM     35  C   UNL     1      -5.672  29.607  13.338  1.00  0.00     0.094 A 
ATOM     36  C   UNL     1      -7.247  29.665  11.511  1.00  0.00     0.093 A 
ATOM     37  C   UNL     1      -5.950  29.912  12.024  1.00  0.00     0.123 A 
BRANCH  28  38
ATOM     38  C   UNL     1      -6.529  28.023  17.545  1.00  0.00     0.025 A 
ATOM     39  C   UNL     1      -5.390  28.767  17.887  1.00  0.00     0.062 A 
ATOM     40  C   UNL     1      -7.069  27.227  18.519  1.00  0.00     0.016 A 
ATOM     41  C   UNL     1      -4.513  28.298  18.916  1.00  0.00     0.158 A 
ATOM     42  C   UNL     1      -6.229  26.757  19.534  1.00  0.00     0.051 A 
ATOM     43  C   UNL     1      -4.909  27.138  19.632  1.00  0.00     0.157 A 
BRANCH  41  44
ATOM     44  O   UNL     1      -3.271  28.888  19.149  1.00  0.00    -0.504 OA
ATOM     45  H   UNL     1      -2.630  29.227  18.433  1.00  0.00     0.293 HD
ENDBRANCH  41  44
BRANCH  43  46
ATOM     46  O   UNL     1      -4.062  26.374  20.382  1.00  0.00    -0.504 OA
ATOM     47  H   UNL     1      -4.419  25.625  21.016  1.00  0.00     0.293 HD
ENDBRANCH  43  46
ENDBRANCH  28  38
BRANCH  34  48
ATOM     48  O   UNL     1      -9.377  28.546  11.689  1.00  0.00    -0.507 OA
ATOM     49  H   UNL     1      -9.349  28.785  10.587  1.00  0.00     0.293 HD
ENDBRANCH  34  48
BRANCH  37  50
ATOM     50  O   UNL     1      -5.019  30.573  11.239  1.00  0.00    -0.508 OA
ATOM     51  H   UNL     1      -5.240  30.893  10.300  1.00  0.00     0.293 HD
ENDBRANCH  37  50
ENDBRANCH  26  27
ENDBRANCH   5  26
BRANCH   4  52
ATOM     52  O   UNL     1     -12.204  28.234  17.572  1.00  0.00    -0.384 OA
ATOM     53  H   UNL     1     -11.818  28.832  16.810  1.00  0.00     0.211 HD
ENDBRANCH   4  52
TORSDOF 16
ENDMDL
MODEL 6
REMARK VINA RESULT:    -2.328      1.947      9.705
REMARK INTER + INTRA:          -5.355
REMARK INTER:                  -4.026
REMARK INTRA:                  -1.329
REMARK UNBOUND:                -1.530
REMARK SMILES C[C@@H]1O[C@@H](OC[C@H]2O[C@H](Oc3c(-c4ccc(O)c(O)c4)oc4cc(O)cc(O)c4c3=O)[C@H](O)[C@H](O)[C@@H]2O)[C@H](O)[C@H](O)[C@H]1O
REMARK SMILES IDX 7 1 36 2 34 3 32 4 9 5 8 6 6 7 5 8 4 9 1 10 2 11 42 12 3 13
REMARK SMILES IDX 40 14 38 15 43 16 41 18 39 20 37 22 35 24 10 26 11 27 12 28
REMARK SMILES IDX 30 29 21 30 29 31 31 32 22 33 27 34 23 35 26 36 24 37 13 38
REMARK SMILES IDX 20 39 14 40 18 41 15 42 16 43 19 44 17 46 28 48 25 50 33 52
REMARK H PARENT 43 17 41 19 39 21 37 23 35 25 19 45 17 47 28 49 25 51 33 53
REMARK Flexibility Score: inf
ROOT
ATOM      1  C   UNL     1      -6.682  28.053  20.629  1.00  0.00     0.180 C 
ATOM      2  C   UNL     1      -5.120  28.173  20.705  1.00  0.00     0.177 C 
ATOM      3  C   UNL     1      -4.623  27.594  19.358  1.00  0.00     0.180 C 
ATOM      4  C   UNL     1      -5.122  28.714  18.447  1.00  0.00     0.214 C 
ATOM      5  C   UNL     1      -6.637  28.592  18.219  1.00  0.00     0.339 C 
ATOM      6  O   UNL     1      -7.190  27.745  19.313  1.00  0.00    -0.332 OA
ENDROOT
BRANCH   1   7
ATOM      7  C   UNL     1      -7.427  29.198  21.414  1.00  0.00     0.198 C 
BRANCH   7   8
ATOM      8  O   UNL     1      -7.122  29.053  22.796  1.00  0.00    -0.347 OA
BRANCH   8   9
ATOM      9  C   UNL     1      -7.614  27.841  23.540  1.00  0.00     0.281 C 
ATOM     10  C   UNL     1     -10.888  28.187  25.123  1.00  0.00     0.041 C 
ATOM     11  C   UNL     1      -9.649  28.813  24.430  1.00  0.00     0.150 C 
ATOM     12  C   UNL     1      -8.786  29.631  25.483  1.00  0.00     0.174 C 
ATOM     13  O   UNL     1      -9.022  27.788  23.692  1.00  0.00    -0.344 OA
ATOM     14  C   UNL     1      -7.555  28.807  25.988  1.00  0.00     0.179 C 
ATOM     15  C   UNL     1      -6.708  28.032  24.816  1.00  0.00     0.202 C 
BRANCH  12  16
ATOM     16  O   UNL     1      -8.385  30.707  24.790  1.00  0.00    -0.388 OA
ATOM     17  H   UNL     1      -7.887  30.266  24.050  1.00  0.00     0.211 HD
ENDBRANCH  12  16
BRANCH  14  18
ATOM     18  O   UNL     1      -7.900  28.070  27.094  1.00  0.00    -0.387 OA
ATOM     19  H   UNL     1      -8.713  28.408  27.473  1.00  0.00     0.211 HD
ENDBRANCH  14  18
BRANCH  15  20
ATOM     20  O   UNL     1      -6.105  26.843  25.214  1.00  0.00    -0.385 OA
ATOM     21  H   UNL     1      -5.711  26.858  26.152  1.00  0.00     0.211 HD
ENDBRANCH  15  20
ENDBRANCH   8   9
ENDBRANCH   7   8
ENDBRANCH   1   7
BRANCH   2  22
ATOM     22  O   UNL     1      -4.375  27.718  21.800  1.00  0.00    -0.387 OA
ATOM     23  H   UNL     1      -4.008  28.337  22.424  1.00  0.00     0.211 HD
ENDBRANCH   2  22
BRANCH   3  24
ATOM     24  O   UNL     1      -5.155  26.264  19.066  1.00  0.00    -0.387 OA
ATOM     25  H   UNL     1      -4.587  25.500  19.271  1.00  0.00     0.211 HD
ENDBRANCH   3  24
BRANCH   5  26
ATOM     26  O   UNL     1      -6.937  28.294  16.845  1.00  0.00    -0.454 OA
BRANCH  26  27
ATOM     27  C   UNL     1      -8.024  28.682  15.919  1.00  0.00     0.214 A 
ATOM     28  C   UNL     1      -9.420  28.587  16.238  1.00  0.00     0.180 A 
ATOM     29  C   UNL     1      -7.843  28.689  14.550  1.00  0.00     0.239 A 
ATOM     30  O   UNL     1     -10.356  28.183  15.403  1.00  0.00    -0.452 OA
ATOM     31  C   UNL     1      -8.884  28.241  13.622  1.00  0.00     0.111 A 
ATOM     32  O   UNL     1      -6.675  28.854  14.131  1.00  0.00    -0.285 OA
ATOM     33  C   UNL     1     -10.137  27.916  14.173  1.00  0.00     0.146 A 
ATOM     34  C   UNL     1      -8.770  28.041  12.184  1.00  0.00     0.134 A 
ATOM     35  C   UNL     1     -11.091  27.234  13.428  1.00  0.00     0.094 A 
ATOM     36  C   UNL     1      -9.635  27.206  11.505  1.00  0.00     0.093 A 
ATOM     37  C   UNL     1     -10.883  26.911  12.106  1.00  0.00     0.123 A 
BRANCH  28  38
ATOM     38  C   UNL     1     -10.045  28.955  17.537  1.00  0.00     0.025 A 
ATOM     39  C   UNL     1     -11.186  28.235  17.919  1.00  0.00     0.062 A 
ATOM     40  C   UNL     1      -9.443  29.723  18.498  1.00  0.00     0.016 A 
ATOM     41  C   UNL     1     -12.005  28.709  18.991  1.00  0.00     0.158 A 
ATOM     42  C   UNL     1     -10.226  30.198  19.555  1.00  0.00     0.051 A 
ATOM     43  C   UNL     1     -11.550  29.847  19.706  1.00  0.00     0.157 A 
BRANCH  41  44
ATOM     44  O   UNL     1     -13.250  28.145  19.270  1.00  0.00    -0.504 OA
ATOM     45  H   UNL     1     -13.590  27.251  18.921  1.00  0.00     0.293 HD
ENDBRANCH  41  44
BRANCH  43  46
ATOM     46  O   UNL     1     -12.344  30.620  20.502  1.00  0.00    -0.504 OA
ATOM     47  H   UNL     1     -12.842  31.459  20.128  1.00  0.00     0.293 HD
ENDBRANCH  43  46
ENDBRANCH  28  38
BRANCH  34  48
ATOM     48  O   UNL     1      -7.555  28.427  11.521  1.00  0.00    -0.507 OA
ATOM     49  H   UNL     1      -7.468  27.843  10.560  1.00  0.00     0.293 HD
ENDBRANCH  34  48
BRANCH  37  50
ATOM     50  O   UNL     1     -11.830  26.189  11.397  1.00  0.00    -0.508 OA
ATOM     51  H   UNL     1     -12.189  25.299  11.733  1.00  0.00     0.293 HD
ENDBRANCH  37  50
ENDBRANCH  26  27
ENDBRANCH   5  26
BRANCH   4  52
ATOM     52  O   UNL     1      -4.379  28.931  17.345  1.00  0.00    -0.384 OA
ATOM     53  H   UNL     1      -4.530  29.918  17.045  1.00  0.00     0.211 HD
ENDBRANCH   4  52
TORSDOF 16
ENDMDL
MODEL 7
REMARK VINA RESULT:    -1.124      2.134      5.662
REMARK INTER + INTRA:          -3.378
REMARK INTER:                  -2.883
REMARK INTRA:                  -0.494
REMARK UNBOUND:                -1.530
REMARK SMILES C[C@@H]1O[C@@H](OC[C@H]2O[C@H](Oc3c(-c4ccc(O)c(O)c4)oc4cc(O)cc(O)c4c3=O)[C@H](O)[C@H](O)[C@@H]2O)[C@H](O)[C@H](O)[C@H]1O
REMARK SMILES IDX 7 1 36 2 34 3 32 4 9 5 8 6 6 7 5 8 4 9 1 10 2 11 42 12 3 13
REMARK SMILES IDX 40 14 38 15 43 16 41 18 39 20 37 22 35 24 10 26 11 27 12 28
REMARK SMILES IDX 30 29 21 30 29 31 31 32 22 33 27 34 23 35 26 36 24 37 13 38
REMARK SMILES IDX 20 39 14 40 18 41 15 42 16 43 19 44 17 46 28 48 25 50 33 52
REMARK H PARENT 43 17 41 19 39 21 37 23 35 25 19 45 17 47 28 49 25 51 33 53
REMARK Flexibility Score: inf
ROOT
ATOM      1  C   UNL     1      -7.507  29.798  13.610  1.00  0.00     0.180 C 
ATOM      2  C   UNL     1      -6.804  28.442  13.256  1.00  0.00     0.177 C 
ATOM      3  C   UNL     1      -5.874  28.162  14.461  1.00  0.00     0.180 C 
ATOM      4  C   UNL     1      -6.954  27.859  15.499  1.00  0.00     0.214 C 
ATOM      5  C   UNL     1      -7.610  29.158  15.994  1.00  0.00     0.339 C 
ATOM      6  O   UNL     1      -7.334  30.216  14.982  1.00  0.00    -0.332 OA
ENDROOT
BRANCH   1   7
ATOM      7  C   UNL     1      -8.966  29.908  13.028  1.00  0.00     0.198 C 
BRANCH   7   8
ATOM      8  O   UNL     1      -9.195  28.772  12.202  1.00  0.00    -0.347 OA
BRANCH   8   9
ATOM      9  C   UNL     1      -9.523  27.448  12.836  1.00  0.00     0.281 C 
ATOM     10  C   UNL     1     -11.689  25.255  10.875  1.00  0.00     0.041 C 
ATOM     11  C   UNL     1     -11.059  26.649  11.139  1.00  0.00     0.150 C 
ATOM     12  C   UNL     1     -12.162  27.656  11.677  1.00  0.00     0.174 C 
ATOM     13  O   UNL     1      -9.897  26.441  11.912  1.00  0.00    -0.344 OA
ATOM     14  C   UNL     1     -12.099  27.806  13.234  1.00  0.00     0.179 C 
ATOM     15  C   UNL     1     -10.593  27.994  13.856  1.00  0.00     0.202 C 
BRANCH  12  16
ATOM     16  O   UNL     1     -11.848  28.813  11.077  1.00  0.00    -0.388 OA
ATOM     17  H   UNL     1     -11.623  29.370  11.870  1.00  0.00     0.211 HD
ENDBRANCH  12  16
BRANCH  14  18
ATOM     18  O   UNL     1     -12.903  26.867  13.833  1.00  0.00    -0.387 OA
ATOM     19  H   UNL     1     -12.467  26.014  13.834  1.00  0.00     0.211 HD
ENDBRANCH  14  18
BRANCH  15  20
ATOM     20  O   UNL     1     -10.414  27.475  15.134  1.00  0.00    -0.385 OA
ATOM     21  H   UNL     1     -10.831  26.558  15.284  1.00  0.00     0.211 HD
ENDBRANCH  15  20
ENDBRANCH   8   9
ENDBRANCH   7   8
ENDBRANCH   1   7
BRANCH   2  22
ATOM     22  O   UNL     1      -6.181  28.209  12.023  1.00  0.00    -0.387 OA
ATOM     23  H   UNL     1      -6.194  27.339  11.634  1.00  0.00     0.211 HD
ENDBRANCH   2  22
BRANCH   3  24
ATOM     24  O   UNL     1      -4.991  29.283  14.785  1.00  0.00    -0.387 OA
ATOM     25  H   UNL     1      -5.407  30.101  15.109  1.00  0.00     0.211 HD
ENDBRANCH   3  24
BRANCH   5  26
ATOM     26  O   UNL     1      -7.329  29.388  17.385  1.00  0.00    -0.454 OA
BRANCH  26  27
ATOM     27  C   UNL     1      -7.390  28.550  18.602  1.00  0.00     0.214 A 
ATOM     28  C   UNL     1      -8.410  28.666  19.604  1.00  0.00     0.180 A 
ATOM     29  C   UNL     1      -6.261  27.956  19.132  1.00  0.00     0.239 A 
ATOM     30  O   UNL     1      -8.201  28.588  20.903  1.00  0.00    -0.452 OA
ATOM     31  C   UNL     1      -6.029  27.869  20.576  1.00  0.00     0.111 A 
ATOM     32  O   UNL     1      -5.320  27.716  18.342  1.00  0.00    -0.285 OA
ATOM     33  C   UNL     1      -7.068  28.304  21.419  1.00  0.00     0.146 A 
ATOM     34  C   UNL     1      -4.822  27.425  21.259  1.00  0.00     0.134 A 
ATOM     35  C   UNL     1      -6.849  28.513  22.775  1.00  0.00     0.094 A 
ATOM     36  C   UNL     1      -4.552  27.808  22.559  1.00  0.00     0.093 A 
ATOM     37  C   UNL     1      -5.635  28.237  23.364  1.00  0.00     0.123 A 
BRANCH  28  38
ATOM     38  C   UNL     1      -9.864  28.858  19.350  1.00  0.00     0.025 A 
ATOM     39  C   UNL     1     -10.462  29.992  19.918  1.00  0.00     0.062 A 
ATOM     40  C   UNL     1     -10.580  28.189  18.394  1.00  0.00     0.016 A 
ATOM     41  C   UNL     1     -11.888  30.099  19.968  1.00  0.00     0.158 A 
ATOM     42  C   UNL     1     -11.976  28.279  18.425  1.00  0.00     0.051 A 
ATOM     43  C   UNL     1     -12.641  29.083  19.324  1.00  0.00     0.157 A 
BRANCH  41  44
ATOM     44  O   UNL     1     -12.525  31.101  20.700  1.00  0.00    -0.504 OA
ATOM     45  H   UNL     1     -12.130  31.599  21.496  1.00  0.00     0.293 HD
ENDBRANCH  41  44
BRANCH  43  46
ATOM     46  O   UNL     1     -13.963  28.843  19.561  1.00  0.00    -0.504 OA
ATOM     47  H   UNL     1     -14.611  29.605  19.862  1.00  0.00     0.293 HD
ENDBRANCH  43  46
ENDBRANCH  28  38
BRANCH  34  48
ATOM     48  O   UNL     1      -3.741  26.884  20.483  1.00  0.00    -0.507 OA
ATOM     49  H   UNL     1      -3.170  26.151  21.123  1.00  0.00     0.293 HD
ENDBRANCH  34  48
BRANCH  37  50
ATOM     50  O   UNL     1      -5.425  28.499  24.708  1.00  0.00    -0.508 OA
ATOM     51  H   UNL     1      -6.190  28.737  25.334  1.00  0.00     0.293 HD
ENDBRANCH  37  50
ENDBRANCH  26  27
ENDBRANCH   5  26
BRANCH   4  52
ATOM     52  O   UNL     1      -6.599  26.979  16.454  1.00  0.00    -0.384 OA
ATOM     53  H   UNL     1      -7.174  26.118  16.328  1.00  0.00     0.211 HD
ENDBRANCH   4  52
TORSDOF 16
ENDMDL
