MODEL 1
REMARK VINA RESULT:    -7.617      0.000      0.000
REMARK INTER + INTRA:          -9.199
REMARK INTER:                  -9.176
REMARK INTRA:                  -0.023
REMARK UNBOUND:                -0.023
REMARK SMILES O=c1c(O)c(-c2ccc(O)c(O)c2)oc2cc(O)cc(O)c12
REMARK SMILES IDX 5 1 3 2 2 3 1 4 22 5 20 6 19 7 17 8 16 9 15 10 14 11 6 12
REMARK SMILES IDX 7 13 8 14 9 15 13 16 11 17 10 18 12 20 4 22 21 24 18 26
REMARK H PARENT 10 19 12 21 4 23 21 25 18 27
REMARK Flexibility Score: inf
ROOT
ATOM      1  C   UNL     1     104.582  91.978 104.808  1.00  0.00     0.180 A 
ATOM      2  C   UNL     1     103.395  91.348 104.396  1.00  0.00     0.208 A 
ATOM      3  C   UNL     1     102.217  91.570 105.128  1.00  0.00     0.238 A 
ATOM      4  O   UNL     1     101.169  90.961 104.786  1.00  0.00    -0.285 OA
ATOM      5  C   UNL     1     102.237  92.431 106.251  1.00  0.00     0.111 A 
ATOM      6  C   UNL     1     101.095  92.759 107.041  1.00  0.00     0.134 A 
ATOM      7  C   UNL     1     101.257  93.517 108.207  1.00  0.00     0.093 A 
ATOM      8  C   UNL     1     102.509  94.014 108.576  1.00  0.00     0.123 A 
ATOM      9  C   UNL     1     103.620  93.748 107.779  1.00  0.00     0.094 A 
ATOM     10  C   UNL     1     103.497  92.965 106.629  1.00  0.00     0.146 A 
ATOM     11  O   UNL     1     104.582  92.727 105.904  1.00  0.00    -0.452 OA
ENDROOT
BRANCH   1  12
ATOM     12  C   UNL     1     105.857  91.813 104.073  1.00  0.00     0.025 A 
ATOM     13  C   UNL     1     107.030  91.515 104.783  1.00  0.00     0.016 A 
ATOM     14  C   UNL     1     108.248  91.375 104.113  1.00  0.00     0.051 A 
ATOM     15  C   UNL     1     108.316  91.547 102.728  1.00  0.00     0.157 A 
ATOM     16  C   UNL     1     105.931  92.006 102.682  1.00  0.00     0.062 A 
ATOM     17  C   UNL     1     107.153  91.868 102.007  1.00  0.00     0.158 A 
BRANCH  15  18
ATOM     18  O   UNL     1     109.546  91.399 102.085  1.00  0.00    -0.504 OA
ATOM     19  H   UNL     1     109.951  90.489 101.902  1.00  0.00     0.293 HD
ENDBRANCH  15  18
BRANCH  17  20
ATOM     20  O   UNL     1     107.217  92.055 100.627  1.00  0.00    -0.504 OA
ATOM     21  H   UNL     1     107.952  91.638 100.068  1.00  0.00     0.293 HD
ENDBRANCH  17  20
ENDBRANCH   1  12
BRANCH   2  22
ATOM     22  O   UNL     1     103.402  90.485 103.296  1.00  0.00    -0.502 OA
ATOM     23  H   UNL     1     103.260  89.487 103.387  1.00  0.00     0.293 HD
ENDBRANCH   2  22
BRANCH   6  24
ATOM     24  O   UNL     1      99.786  92.391 106.712  1.00  0.00    -0.507 OA
ATOM     25  H   UNL     1      98.960  92.723 107.187  1.00  0.00     0.293 HD
ENDBRANCH   6  24
BRANCH   8  26
ATOM     26  O   UNL     1     102.658  94.780 109.730  1.00  0.00    -0.508 OA
ATOM     27  H   UNL     1     103.545  94.838 110.217  1.00  0.00     0.293 HD
ENDBRANCH   8  26
TORSDOF 6
ENDMDL
MODEL 2
REMARK VINA RESULT:    -7.607      2.822      4.533
REMARK INTER + INTRA:          -9.186
REMARK INTER:                  -9.013
REMARK INTRA:                  -0.173
REMARK UNBOUND:                -0.023
REMARK SMILES O=c1c(O)c(-c2ccc(O)c(O)c2)oc2cc(O)cc(O)c12
REMARK SMILES IDX 5 1 3 2 2 3 1 4 22 5 20 6 19 7 17 8 16 9 15 10 14 11 6 12
REMARK SMILES IDX 7 13 8 14 9 15 13 16 11 17 10 18 12 20 4 22 21 24 18 26
REMARK H PARENT 10 19 12 21 4 23 21 25 18 27
REMARK Flexibility Score: inf
ROOT
ATOM      1  C   UNL     1     105.008  92.103 104.247  1.00  0.00     0.180 A 
ATOM      2  C   UNL     1     103.877  92.092 105.083  1.00  0.00     0.208 A 
ATOM      3  C   UNL     1     102.660  92.586 104.587  1.00  0.00     0.238 A 
ATOM      4  O   UNL     1     101.665  92.623 105.358  1.00  0.00    -0.285 OA
ATOM      5  C   UNL     1     102.584  93.070 103.260  1.00  0.00     0.111 A 
ATOM      6  C   UNL     1     101.393  93.557 102.641  1.00  0.00     0.134 A 
ATOM      7  C   UNL     1     101.463  94.132 101.367  1.00  0.00     0.093 A 
ATOM      8  C   UNL     1     102.667  94.179 100.662  1.00  0.00     0.123 A 
ATOM      9  C   UNL     1     103.823  93.653 101.234  1.00  0.00     0.094 A 
ATOM     10  C   UNL     1     103.793  93.105 102.517  1.00  0.00     0.146 A 
ATOM     11  O   UNL     1     104.920  92.624 103.029  1.00  0.00    -0.452 OA
ENDROOT
BRANCH   1  12
ATOM     12  C   UNL     1     106.319  91.576 104.688  1.00  0.00     0.025 A 
ATOM     13  C   UNL     1     106.825  90.404 104.106  1.00  0.00     0.016 A 
ATOM     14  C   UNL     1     108.051  89.878 104.522  1.00  0.00     0.051 A 
ATOM     15  C   UNL     1     108.782  90.504 105.535  1.00  0.00     0.157 A 
ATOM     16  C   UNL     1     107.046  92.194 105.722  1.00  0.00     0.062 A 
ATOM     17  C   UNL     1     108.277  91.666 106.143  1.00  0.00     0.158 A 
BRANCH  15  18
ATOM     18  O   UNL     1     110.003  89.957 105.928  1.00  0.00    -0.504 OA
ATOM     19  H   UNL     1     110.160  88.957 105.957  1.00  0.00     0.293 HD
ENDBRANCH  15  18
BRANCH  17  20
ATOM     20  O   UNL     1     108.994  92.288 107.163  1.00  0.00    -0.504 OA
ATOM     21  H   UNL     1     109.462  93.175 107.019  1.00  0.00     0.293 HD
ENDBRANCH  17  20
ENDBRANCH   1  12
BRANCH   2  22
ATOM     22  O   UNL     1     103.980  91.629 106.397  1.00  0.00    -0.502 OA
ATOM     23  H   UNL     1     103.458  92.041 107.161  1.00  0.00     0.293 HD
ENDBRANCH   2  22
BRANCH   6  24
ATOM     24  O   UNL     1     100.123  93.474 103.220  1.00  0.00    -0.507 OA
ATOM     25  H   UNL     1      99.932  93.085 104.131  1.00  0.00     0.293 HD
ENDBRANCH   6  24
BRANCH   8  26
ATOM     26  O   UNL     1     102.724  94.740  99.388  1.00  0.00    -0.508 OA
ATOM     27  H   UNL     1     103.110  94.230  98.601  1.00  0.00     0.293 HD
ENDBRANCH   8  26
TORSDOF 6
ENDMDL
MODEL 3
REMARK VINA RESULT:    -7.464      1.493      6.780
REMARK INTER + INTRA:          -9.014
REMARK INTER:                  -8.827
REMARK INTRA:                  -0.188
REMARK UNBOUND:                -0.023
REMARK SMILES O=c1c(O)c(-c2ccc(O)c(O)c2)oc2cc(O)cc(O)c12
REMARK SMILES IDX 5 1 3 2 2 3 1 4 22 5 20 6 19 7 17 8 16 9 15 10 14 11 6 12
REMARK SMILES IDX 7 13 8 14 9 15 13 16 11 17 10 18 12 20 4 22 21 24 18 26
REMARK H PARENT 10 19 12 21 4 23 21 25 18 27
REMARK Flexibility Score: inf
ROOT
ATOM      1  C   UNL     1     104.043  92.551 105.370  1.00  0.00     0.180 A 
ATOM      2  C   UNL     1     103.895  92.777 103.990  1.00  0.00     0.208 A 
ATOM      3  C   UNL     1     104.975  92.502 103.136  1.00  0.00     0.238 A 
ATOM      4  O   UNL     1     104.855  92.756 101.909  1.00  0.00    -0.285 OA
ATOM      5  C   UNL     1     106.182  91.989 103.668  1.00  0.00     0.111 A 
ATOM      6  C   UNL     1     107.325  91.636 102.891  1.00  0.00     0.134 A 
ATOM      7  C   UNL     1     108.510  91.262 103.536  1.00  0.00     0.093 A 
ATOM      8  C   UNL     1     108.573  91.164 104.928  1.00  0.00     0.123 A 
ATOM      9  C   UNL     1     107.444  91.449 105.692  1.00  0.00     0.094 A 
ATOM     10  C   UNL     1     106.259  91.860 105.080  1.00  0.00     0.146 A 
ATOM     11  O   UNL     1     105.210  92.132 105.846  1.00  0.00    -0.452 OA
ENDROOT
BRANCH   1  12
ATOM     12  C   UNL     1     102.943  92.794 106.331  1.00  0.00     0.025 A 
ATOM     13  C   UNL     1     103.109  93.749 107.346  1.00  0.00     0.016 A 
ATOM     14  C   UNL     1     102.091  93.979 108.275  1.00  0.00     0.051 A 
ATOM     15  C   UNL     1     100.901  93.250 108.215  1.00  0.00     0.157 A 
ATOM     16  C   UNL     1     101.752  92.046 106.284  1.00  0.00     0.062 A 
ATOM     17  C   UNL     1     100.730  92.275 107.218  1.00  0.00     0.158 A 
BRANCH  15  18
ATOM     18  O   UNL     1      99.902  93.503 109.155  1.00  0.00    -0.504 OA
ATOM     19  H   UNL     1      98.933  93.258 108.991  1.00  0.00     0.293 HD
ENDBRANCH  15  18
BRANCH  17  20
ATOM     20  O   UNL     1      99.550  91.534 107.161  1.00  0.00    -0.504 OA
ATOM     21  H   UNL     1      98.731  91.876 106.672  1.00  0.00     0.293 HD
ENDBRANCH  17  20
ENDBRANCH   1  12
BRANCH   2  22
ATOM     22  O   UNL     1     102.702  93.304 103.488  1.00  0.00    -0.502 OA
ATOM     23  H   UNL     1     102.623  94.261 103.165  1.00  0.00     0.293 HD
ENDBRANCH   2  22
BRANCH   6  24
ATOM     24  O   UNL     1     107.341  91.610 101.493  1.00  0.00    -0.507 OA
ATOM     25  H   UNL     1     108.169  91.482 100.930  1.00  0.00     0.293 HD
ENDBRANCH   6  24
BRANCH   8  26
ATOM     26  O   UNL     1     109.752  90.776 105.561  1.00  0.00    -0.508 OA
ATOM     27  H   UNL     1     110.018  91.153 106.463  1.00  0.00     0.293 HD
ENDBRANCH   8  26
TORSDOF 6
ENDMDL
MODEL 4
REMARK VINA RESULT:    -7.355      3.176      7.398
REMARK INTER + INTRA:          -8.884
REMARK INTER:                  -8.652
REMARK INTRA:                  -0.232
REMARK UNBOUND:                -0.023
REMARK SMILES O=c1c(O)c(-c2ccc(O)c(O)c2)oc2cc(O)cc(O)c12
REMARK SMILES IDX 5 1 3 2 2 3 1 4 22 5 20 6 19 7 17 8 16 9 15 10 14 11 6 12
REMARK SMILES IDX 7 13 8 14 9 15 13 16 11 17 10 18 12 20 4 22 21 24 18 26
REMARK H PARENT 10 19 12 21 4 23 21 25 18 27
REMARK Flexibility Score: inf
ROOT
ATOM      1  C   UNL     1     102.406  92.977 103.720  1.00  0.00     0.180 A 
ATOM      2  C   UNL     1     103.773  92.734 103.494  1.00  0.00     0.208 A 
ATOM      3  C   UNL     1     104.252  92.719 102.175  1.00  0.00     0.238 A 
ATOM      4  O   UNL     1     105.466  92.448 101.976  1.00  0.00    -0.285 OA
ATOM      5  C   UNL     1     103.365  92.963 101.100  1.00  0.00     0.111 A 
ATOM      6  C   UNL     1     103.750  93.011  99.726  1.00  0.00     0.134 A 
ATOM      7  C   UNL     1     102.765  93.129  98.737  1.00  0.00     0.093 A 
ATOM      8  C   UNL     1     101.417  93.267  99.075  1.00  0.00     0.123 A 
ATOM      9  C   UNL     1     101.039  93.281 100.415  1.00  0.00     0.094 A 
ATOM     10  C   UNL     1     101.993  93.129 101.423  1.00  0.00     0.146 A 
ATOM     11  O   UNL     1     101.588  93.136 102.687  1.00  0.00    -0.452 OA
ENDROOT
BRANCH   1  12
ATOM     12  C   UNL     1     101.831  93.033 105.083  1.00  0.00     0.025 A 
ATOM     13  C   UNL     1     102.136  94.119 105.918  1.00  0.00     0.016 A 
ATOM     14  C   UNL     1     101.620  94.182 107.215  1.00  0.00     0.051 A 
ATOM     15  C   UNL     1     100.806  93.157 107.703  1.00  0.00     0.157 A 
ATOM     16  C   UNL     1     101.028  91.991 105.582  1.00  0.00     0.062 A 
ATOM     17  C   UNL     1     100.511  92.052 106.886  1.00  0.00     0.158 A 
BRANCH  15  18
ATOM     18  O   UNL     1     100.304  93.248 109.001  1.00  0.00    -0.504 OA
ATOM     19  H   UNL     1      99.327  93.442 109.188  1.00  0.00     0.293 HD
ENDBRANCH  15  18
BRANCH  17  20
ATOM     20  O   UNL     1      99.711  91.018 107.371  1.00  0.00    -0.504 OA
ATOM     21  H   UNL     1     100.003  90.050 107.314  1.00  0.00     0.293 HD
ENDBRANCH  17  20
ENDBRANCH   1  12
BRANCH   2  22
ATOM     22  O   UNL     1     104.627  92.475 104.569  1.00  0.00    -0.502 OA
ATOM     23  H   UNL     1     104.528  91.657 105.158  1.00  0.00     0.293 HD
ENDBRANCH   2  22
BRANCH   6  24
ATOM     24  O   UNL     1     105.076  92.974  99.285  1.00  0.00    -0.507 OA
ATOM     25  H   UNL     1     105.844  92.581  99.808  1.00  0.00     0.293 HD
ENDBRANCH   6  24
BRANCH   8  26
ATOM     26  O   UNL     1     100.447  93.400  98.085  1.00  0.00    -0.508 OA
ATOM     27  H   UNL     1     100.134  94.311  97.768  1.00  0.00     0.293 HD
ENDBRANCH   8  26
TORSDOF 6
ENDMDL
MODEL 5
REMARK VINA RESULT:    -7.338      3.612      6.852
REMARK INTER + INTRA:          -8.862
REMARK INTER:                  -8.936
REMARK INTRA:                   0.074
REMARK UNBOUND:                -0.023
REMARK SMILES O=c1c(O)c(-c2ccc(O)c(O)c2)oc2cc(O)cc(O)c12
REMARK SMILES IDX 5 1 3 2 2 3 1 4 22 5 20 6 19 7 17 8 16 9 15 10 14 11 6 12
REMARK SMILES IDX 7 13 8 14 9 15 13 16 11 17 10 18 12 20 4 22 21 24 18 26
REMARK H PARENT 10 19 12 21 4 23 21 25 18 27
REMARK Flexibility Score: inf
ROOT
ATOM      1  C   UNL     1     101.721  92.711 104.191  1.00  0.00     0.180 A 
ATOM      2  C   UNL     1     101.020  91.531 103.887  1.00  0.00     0.208 A 
ATOM      3  C   UNL     1     100.852  91.167 102.541  1.00  0.00     0.238 A 
ATOM      4  O   UNL     1     100.178  90.138 102.273  1.00  0.00    -0.285 OA
ATOM      5  C   UNL     1     101.401  91.977 101.519  1.00  0.00     0.111 A 
ATOM      6  C   UNL     1     101.327  91.683 100.124  1.00  0.00     0.134 A 
ATOM      7  C   UNL     1     101.791  92.622  99.194  1.00  0.00     0.093 A 
ATOM      8  C   UNL     1     102.387  93.814  99.611  1.00  0.00     0.123 A 
ATOM      9  C   UNL     1     102.517  94.083 100.971  1.00  0.00     0.094 A 
ATOM     10  C   UNL     1     102.032  93.183 101.922  1.00  0.00     0.146 A 
ATOM     11  O   UNL     1     102.167  93.483 103.208  1.00  0.00    -0.452 OA
ENDROOT
BRANCH   1  12
ATOM     12  C   UNL     1     101.960  93.148 105.586  1.00  0.00     0.025 A 
ATOM     13  C   UNL     1     103.254  93.522 105.981  1.00  0.00     0.016 A 
ATOM     14  C   UNL     1     103.506  93.918 107.297  1.00  0.00     0.051 A 
ATOM     15  C   UNL     1     102.476  93.931 108.241  1.00  0.00     0.157 A 
ATOM     16  C   UNL     1     100.929  93.141 106.542  1.00  0.00     0.062 A 
ATOM     17  C   UNL     1     101.180  93.536 107.865  1.00  0.00     0.158 A 
BRANCH  15  18
ATOM     18  O   UNL     1     102.757  94.332 109.547  1.00  0.00    -0.504 OA
ATOM     19  H   UNL     1     102.520  95.256 109.888  1.00  0.00     0.293 HD
ENDBRANCH  15  18
BRANCH  17  20
ATOM     20  O   UNL     1     100.151  93.532 108.805  1.00  0.00    -0.504 OA
ATOM     21  H   UNL     1     100.115  92.847 109.550  1.00  0.00     0.293 HD
ENDBRANCH  17  20
ENDBRANCH   1  12
BRANCH   2  22
ATOM     22  O   UNL     1     100.468  90.757 104.911  1.00  0.00    -0.502 OA
ATOM     23  H   UNL     1     100.844  90.752 105.852  1.00  0.00     0.293 HD
ENDBRANCH   2  22
BRANCH   6  24
ATOM     24  O   UNL     1     100.835  90.481  99.604  1.00  0.00    -0.507 OA
ATOM     25  H   UNL     1      99.927  90.369  99.179  1.00  0.00     0.293 HD
ENDBRANCH   6  24
BRANCH   8  26
ATOM     26  O   UNL     1     102.860  94.736  98.679  1.00  0.00    -0.508 OA
ATOM     27  H   UNL     1     103.629  94.513  98.058  1.00  0.00     0.293 HD
ENDBRANCH   8  26
TORSDOF 6
ENDMDL
MODEL 6
REMARK VINA RESULT:    -7.224      1.875      7.450
REMARK INTER + INTRA:          -8.726
REMARK INTER:                  -8.419
REMARK INTRA:                  -0.307
REMARK UNBOUND:                -0.023
REMARK SMILES O=c1c(O)c(-c2ccc(O)c(O)c2)oc2cc(O)cc(O)c12
REMARK SMILES IDX 5 1 3 2 2 3 1 4 22 5 20 6 19 7 17 8 16 9 15 10 14 11 6 12
REMARK SMILES IDX 7 13 8 14 9 15 13 16 11 17 10 18 12 20 4 22 21 24 18 26
REMARK H PARENT 10 19 12 21 4 23 21 25 18 27
REMARK Flexibility Score: inf
ROOT
ATOM      1  C   UNL     1     104.797  92.073 103.817  1.00  0.00     0.180 A 
ATOM      2  C   UNL     1     106.007  91.888 104.508  1.00  0.00     0.208 A 
ATOM      3  C   UNL     1     107.194  91.738 103.774  1.00  0.00     0.238 A 
ATOM      4  O   UNL     1     108.267  91.520 104.396  1.00  0.00    -0.285 OA
ATOM      5  C   UNL     1     107.160  91.792 102.360  1.00  0.00     0.111 A 
ATOM      6  C   UNL     1     108.308  91.693 101.517  1.00  0.00     0.134 A 
ATOM      7  C   UNL     1     108.140  91.628 100.128  1.00  0.00     0.093 A 
ATOM      8  C   UNL     1     106.873  91.724  99.550  1.00  0.00     0.123 A 
ATOM      9  C   UNL     1     105.752  91.880 100.362  1.00  0.00     0.094 A 
ATOM     10  C   UNL     1     105.883  91.913 101.752  1.00  0.00     0.146 A 
ATOM     11  O   UNL     1     104.789  92.052 102.490  1.00  0.00    -0.452 OA
ENDROOT
BRANCH   1  12
ATOM     12  C   UNL     1     103.509  92.262 104.521  1.00  0.00     0.025 A 
ATOM     13  C   UNL     1     103.044  93.562 104.775  1.00  0.00     0.016 A 
ATOM     14  C   UNL     1     101.841  93.764 105.457  1.00  0.00     0.051 A 
ATOM     15  C   UNL     1     101.092  92.674 105.908  1.00  0.00     0.157 A 
ATOM     16  C   UNL     1     102.764  91.166 104.994  1.00  0.00     0.062 A 
ATOM     17  C   UNL     1     101.557  91.367 105.680  1.00  0.00     0.158 A 
BRANCH  15  18
ATOM     18  O   UNL     1      99.894  92.906 106.583  1.00  0.00    -0.504 OA
ATOM     19  H   UNL     1      99.868  93.135 107.569  1.00  0.00     0.293 HD
ENDBRANCH  15  18
BRANCH  17  20
ATOM     20  O   UNL     1     100.822  90.275 106.140  1.00  0.00    -0.504 OA
ATOM     21  H   UNL     1      99.813  90.239 106.053  1.00  0.00     0.293 HD
ENDBRANCH  17  20
ENDBRANCH   1  12
BRANCH   2  22
ATOM     22  O   UNL     1     106.016  91.817 105.904  1.00  0.00    -0.502 OA
ATOM     23  H   UNL     1     106.838  91.547 106.430  1.00  0.00     0.293 HD
ENDBRANCH   2  22
BRANCH   6  24
ATOM     24  O   UNL     1     109.624  91.683 101.988  1.00  0.00    -0.507 OA
ATOM     25  H   UNL     1     110.409  92.098 101.508  1.00  0.00     0.293 HD
ENDBRANCH   6  24
BRANCH   8  26
ATOM     26  O   UNL     1     106.717  91.674  98.166  1.00  0.00    -0.508 OA
ATOM     27  H   UNL     1     107.398  92.089  97.541  1.00  0.00     0.293 HD
ENDBRANCH   8  26
TORSDOF 6
ENDMDL
MODEL 7
REMARK VINA RESULT:    -7.154      1.521      6.914
REMARK INTER + INTRA:          -8.642
REMARK INTER:                  -8.450
REMARK INTRA:                  -0.191
REMARK UNBOUND:                -0.023
REMARK SMILES O=c1c(O)c(-c2ccc(O)c(O)c2)oc2cc(O)cc(O)c12
REMARK SMILES IDX 5 1 3 2 2 3 1 4 22 5 20 6 19 7 17 8 16 9 15 10 14 11 6 12
REMARK SMILES IDX 7 13 8 14 9 15 13 16 11 17 10 18 12 20 4 22 21 24 18 26
REMARK H PARENT 10 19 12 21 4 23 21 25 18 27
REMARK Flexibility Score: inf
ROOT
ATOM      1  C   UNL     1     103.909  92.700 105.278  1.00  0.00     0.180 A 
ATOM      2  C   UNL     1     103.750  93.219 103.982  1.00  0.00     0.208 A 
ATOM      3  C   UNL     1     104.733  92.951 103.016  1.00  0.00     0.238 A 
ATOM      4  O   UNL     1     104.612  93.462 101.872  1.00  0.00    -0.285 OA
ATOM      5  C   UNL     1     105.853  92.154 103.353  1.00  0.00     0.111 A 
ATOM      6  C   UNL     1     106.889  91.785 102.442  1.00  0.00     0.134 A 
ATOM      7  C   UNL     1     108.015  91.103 102.918  1.00  0.00     0.093 A 
ATOM      8  C   UNL     1     108.114  90.720 104.258  1.00  0.00     0.123 A 
ATOM      9  C   UNL     1     107.080  91.024 105.141  1.00  0.00     0.094 A 
ATOM     10  C   UNL     1     105.960  91.734 104.704  1.00  0.00     0.146 A 
ATOM     11  O   UNL     1     105.004  92.012 105.581  1.00  0.00    -0.452 OA
ENDROOT
BRANCH   1  12
ATOM     12  C   UNL     1     102.904  92.919 106.344  1.00  0.00     0.025 A 
ATOM     13  C   UNL     1     101.630  92.345 106.220  1.00  0.00     0.016 A 
ATOM     14  C   UNL     1     100.660  92.556 107.204  1.00  0.00     0.051 A 
ATOM     15  C   UNL     1     100.941  93.354 108.315  1.00  0.00     0.157 A 
ATOM     16  C   UNL     1     103.180  93.740 107.453  1.00  0.00     0.062 A 
ATOM     17  C   UNL     1     102.206  93.954 108.440  1.00  0.00     0.158 A 
BRANCH  15  18
ATOM     18  O   UNL     1      99.954  93.544 109.282  1.00  0.00    -0.504 OA
ATOM     19  H   UNL     1      99.521  94.447 109.438  1.00  0.00     0.293 HD
ENDBRANCH  15  18
BRANCH  17  20
ATOM     20  O   UNL     1     102.489  94.763 109.539  1.00  0.00    -0.504 OA
ATOM     21  H   UNL     1     102.046  95.666 109.662  1.00  0.00     0.293 HD
ENDBRANCH  17  20
ENDBRANCH   1  12
BRANCH   2  22
ATOM     22  O   UNL     1     102.647  94.021 103.676  1.00  0.00    -0.502 OA
ATOM     23  H   UNL     1     102.231  94.046 102.752  1.00  0.00     0.293 HD
ENDBRANCH   2  22
BRANCH   6  24
ATOM     24  O   UNL     1     106.847  92.038 101.068  1.00  0.00    -0.507 OA
ATOM     25  H   UNL     1     107.526  92.589 100.565  1.00  0.00     0.293 HD
ENDBRANCH   6  24
BRANCH   8  26
ATOM     26  O   UNL     1     109.231  90.028 104.719  1.00  0.00    -0.508 OA
ATOM     27  H   UNL     1     109.281  89.672 105.667  1.00  0.00     0.293 HD
ENDBRANCH   8  26
TORSDOF 6
ENDMDL
MODEL 8
REMARK VINA RESULT:    -7.061      2.865      3.632
REMARK INTER + INTRA:          -8.530
REMARK INTER:                  -8.245
REMARK INTRA:                  -0.285
REMARK UNBOUND:                -0.023
REMARK SMILES O=c1c(O)c(-c2ccc(O)c(O)c2)oc2cc(O)cc(O)c12
REMARK SMILES IDX 5 1 3 2 2 3 1 4 22 5 20 6 19 7 17 8 16 9 15 10 14 11 6 12
REMARK SMILES IDX 7 13 8 14 9 15 13 16 11 17 10 18 12 20 4 22 21 24 18 26
REMARK H PARENT 10 19 12 21 4 23 21 25 18 27
REMARK Flexibility Score: inf
ROOT
ATOM      1  C   UNL     1     102.204  92.758 103.030  1.00  0.00     0.180 A 
ATOM      2  C   UNL     1     101.400  91.620 103.224  1.00  0.00     0.208 A 
ATOM      3  C   UNL     1     100.903  91.349 104.508  1.00  0.00     0.238 A 
ATOM      4  O   UNL     1     100.229  90.300 104.686  1.00  0.00    -0.285 OA
ATOM      5  C   UNL     1     101.201  92.225 105.579  1.00  0.00     0.111 A 
ATOM      6  C   UNL     1     100.717  92.069 106.913  1.00  0.00     0.134 A 
ATOM      7  C   UNL     1     101.182  92.924 107.920  1.00  0.00     0.093 A 
ATOM      8  C   UNL     1     102.063  93.968 107.629  1.00  0.00     0.123 A 
ATOM      9  C   UNL     1     102.494  94.165 106.320  1.00  0.00     0.094 A 
ATOM     10  C   UNL     1     102.076  93.308 105.300  1.00  0.00     0.146 A 
ATOM     11  O   UNL     1     102.519  93.524 104.067  1.00  0.00    -0.452 OA
ENDROOT
BRANCH   1  12
ATOM     12  C   UNL     1     102.744  93.124 101.701  1.00  0.00     0.025 A 
ATOM     13  C   UNL     1     102.094  94.106 100.937  1.00  0.00     0.016 A 
ATOM     14  C   UNL     1     102.575  94.452  99.672  1.00  0.00     0.051 A 
ATOM     15  C   UNL     1     103.700  93.814  99.144  1.00  0.00     0.157 A 
ATOM     16  C   UNL     1     103.864  92.468 101.160  1.00  0.00     0.062 A 
ATOM     17  C   UNL     1     104.347  92.812  99.888  1.00  0.00     0.158 A 
BRANCH  15  18
ATOM     18  O   UNL     1     104.158  94.182  97.879  1.00  0.00    -0.504 OA
ATOM     19  H   UNL     1     103.695  93.880  97.030  1.00  0.00     0.293 HD
ENDBRANCH  15  18
BRANCH  17  20
ATOM     20  O   UNL     1     105.462  92.161  99.362  1.00  0.00    -0.504 OA
ATOM     21  H   UNL     1     105.759  92.307  98.404  1.00  0.00     0.293 HD
ENDBRANCH  17  20
ENDBRANCH   1  12
BRANCH   2  22
ATOM     22  O   UNL     1     101.136  90.757 102.157  1.00  0.00    -0.502 OA
ATOM     23  H   UNL     1     101.095  89.751 102.269  1.00  0.00     0.293 HD
ENDBRANCH   2  22
BRANCH   6  24
ATOM     24  O   UNL     1      99.767  91.117 107.292  1.00  0.00    -0.507 OA
ATOM     25  H   UNL     1      98.987  91.297 107.906  1.00  0.00     0.293 HD
ENDBRANCH   6  24
BRANCH   8  26
ATOM     26  O   UNL     1     102.508  94.823 108.635  1.00  0.00    -0.508 OA
ATOM     27  H   UNL     1     103.211  94.532 109.305  1.00  0.00     0.293 HD
ENDBRANCH   8  26
TORSDOF 6
ENDMDL
MODEL 9
REMARK VINA RESULT:    -7.026      2.411      7.074
REMARK INTER + INTRA:          -8.487
REMARK INTER:                  -8.213
REMARK INTRA:                  -0.274
REMARK UNBOUND:                -0.023
REMARK SMILES O=c1c(O)c(-c2ccc(O)c(O)c2)oc2cc(O)cc(O)c12
REMARK SMILES IDX 5 1 3 2 2 3 1 4 22 5 20 6 19 7 17 8 16 9 15 10 14 11 6 12
REMARK SMILES IDX 7 13 8 14 9 15 13 16 11 17 10 18 12 20 4 22 21 24 18 26
REMARK H PARENT 10 19 12 21 4 23 21 25 18 27
REMARK Flexibility Score: inf
ROOT
ATOM      1  C   UNL     1     103.150  92.795 104.668  1.00  0.00     0.180 A 
ATOM      2  C   UNL     1     104.335  92.045 104.568  1.00  0.00     0.208 A 
ATOM      3  C   UNL     1     104.979  91.952 103.323  1.00  0.00     0.238 A 
ATOM      4  O   UNL     1     106.010  91.235 103.228  1.00  0.00    -0.285 OA
ATOM      5  C   UNL     1     104.440  92.622 102.200  1.00  0.00     0.111 A 
ATOM      6  C   UNL     1     105.030  92.630 100.900  1.00  0.00     0.134 A 
ATOM      7  C   UNL     1     104.341  93.217  99.832  1.00  0.00     0.093 A 
ATOM      8  C   UNL     1     103.114  93.854 100.029  1.00  0.00     0.123 A 
ATOM      9  C   UNL     1     102.558  93.903 101.306  1.00  0.00     0.094 A 
ATOM     10  C   UNL     1     103.204  93.296 102.384  1.00  0.00     0.146 A 
ATOM     11  O   UNL     1     102.634  93.357 103.581  1.00  0.00    -0.452 OA
ENDROOT
BRANCH   1  12
ATOM     12  C   UNL     1     102.428  92.960 105.950  1.00  0.00     0.025 A 
ATOM     13  C   UNL     1     101.200  92.309 106.141  1.00  0.00     0.016 A 
ATOM     14  C   UNL     1     100.492  92.467 107.335  1.00  0.00     0.051 A 
ATOM     15  C   UNL     1     100.991  93.289 108.349  1.00  0.00     0.157 A 
ATOM     16  C   UNL     1     102.919  93.804 106.963  1.00  0.00     0.062 A 
ATOM     17  C   UNL     1     102.209  93.966 108.162  1.00  0.00     0.158 A 
BRANCH  15  18
ATOM     18  O   UNL     1     100.263  93.427 109.531  1.00  0.00    -0.504 OA
ATOM     19  H   UNL     1      99.954  94.329 109.871  1.00  0.00     0.293 HD
ENDBRANCH  15  18
BRANCH  17  20
ATOM     20  O   UNL     1     102.705  94.799 109.164  1.00  0.00    -0.504 OA
ATOM     21  H   UNL     1     102.166  95.578 109.522  1.00  0.00     0.293 HD
ENDBRANCH  17  20
ENDBRANCH   1  12
BRANCH   2  22
ATOM     22  O   UNL     1     104.839  91.374 105.686  1.00  0.00    -0.502 OA
ATOM     23  H   UNL     1     104.627  91.661 106.633  1.00  0.00     0.293 HD
ENDBRANCH   2  22
BRANCH   6  24
ATOM     24  O   UNL     1     106.293  92.102 100.613  1.00  0.00    -0.507 OA
ATOM     25  H   UNL     1     106.833  91.529 101.245  1.00  0.00     0.293 HD
ENDBRANCH   6  24
BRANCH   8  26
ATOM     26  O   UNL     1     102.443  94.450  98.964  1.00  0.00    -0.508 OA
ATOM     27  H   UNL     1     101.466  94.254  98.776  1.00  0.00     0.293 HD
ENDBRANCH   8  26
TORSDOF 6
ENDMDL
