MODEL 1
REMARK VINA RESULT:    -6.646      0.000      0.000
REMARK INTER + INTRA:          -7.484
REMARK INTER:                  -7.229
REMARK INTRA:                  -0.255
REMARK UNBOUND:                -0.255
REMARK SMILES C[C@@H]1[C@H]2C3=CC[C@H]4[C@@]5(C)CC[C@@H](O)C(C)(C)[C@H]5CC[C@@]4(C)[C@@]3(C)CC[C@@]2(C(=O)[O-])CC[C@@H]1C
REMARK SMILES IDX 26 1 30 2 25 3 3 4 31 5 24 6 4 7 2 8 32 9 22 10 5 11 1 12
REMARK SMILES IDX 33 13 23 14 20 15 6 16 7 17 19 18 21 19 8 20 18 21 17 22
REMARK SMILES IDX 10 23 9 24 14 25 11 26 12 27 15 28 16 29 27 30 28 31 29 32
REMARK SMILES IDX 13 33
REMARK H PARENT 13 34
REMARK Flexibility Score: inf
ROOT
ATOM      1  C   UNL     1      12.114  54.413  34.585  1.00  0.00     0.017 C 
ATOM      2  C   UNL     1      11.706  53.646  35.892  1.00  0.00     0.014 C 
ATOM      3  C   UNL     1      10.946  54.189  33.586  1.00  0.00     0.014 C 
ATOM      4  C   UNL     1      13.544  53.932  34.032  1.00  0.00     0.030 C 
ATOM      5  C   UNL     1      12.749  53.675  37.012  1.00  0.00     0.004 C 
ATOM      6  C   UNL     1      11.104  52.933  32.739  1.00  0.00     0.013 C 
ATOM      7  C   UNL     1      13.567  53.350  32.587  1.00  0.00    -0.063 C 
ATOM      8  C   UNL     1      14.266  52.963  35.052  1.00  0.00    -0.003 C 
ATOM      9  C   UNL     1      14.204  53.497  36.515  1.00  0.00    -0.011 C 
ATOM     10  C   UNL     1      12.319  53.032  31.774  1.00  0.00    -0.006 C 
ATOM     11  C   UNL     1      14.733  53.323  31.917  1.00  0.00    -0.027 C 
ATOM     12  C   UNL     1      15.729  52.608  34.709  1.00  0.00     0.008 C 
ATOM     13  C   UNL     1      15.028  54.784  36.746  1.00  0.00     0.008 C 
ATOM     14  C   UNL     1      12.071  54.259  30.827  1.00  0.00     0.017 C 
ATOM     15  C   UNL     1      12.529  51.670  30.934  1.00  0.00    -0.020 C 
ATOM     16  C   UNL     1      15.044  52.237  30.929  1.00  0.00     0.032 C 
ATOM     17  C   UNL     1      13.848  51.760  30.052  1.00  0.00     0.006 C 
ATOM     18  C   UNL     1      12.677  50.456  31.913  1.00  0.00     0.008 C 
ATOM     19  C   UNL     1      11.257  51.437  30.053  1.00  0.00     0.012 C 
ATOM     20  C   UNL     1      14.154  50.444  29.167  1.00  0.00    -0.025 C 
ATOM     21  C   UNL     1      13.561  49.284  31.438  1.00  0.00     0.005 C 
ATOM     22  C   UNL     1      13.670  49.104  29.897  1.00  0.00     0.003 C 
ATOM     23  C   UNL     1      15.677  50.331  28.764  1.00  0.00     0.010 C 
ATOM     24  C   UNL     1      13.388  50.628  27.800  1.00  0.00     0.012 C 
ATOM     25  C   UNL     1      14.501  47.801  29.516  1.00  0.00    -0.006 C 
ATOM     26  C   UNL     1      16.532  49.454  29.680  1.00  0.00     0.033 C 
ATOM     27  C   UNL     1      16.045  47.991  29.775  1.00  0.00     0.120 C 
ATOM     28  C   UNL     1      14.273  47.431  28.023  1.00  0.00     0.014 C 
ATOM     29  C   UNL     1      13.979  46.549  30.295  1.00  0.00     0.014 C 
ENDROOT
BRANCH   1  30
ATOM     30  C   UNL     1      12.179  55.920  34.850  1.00  0.00     0.048 C 
ATOM     31  O   UNL     1      11.325  56.507  35.562  1.00  0.00    -0.550 OA
ATOM     32  O   UNL     1      13.267  56.652  34.375  1.00  0.00    -0.550 OA
ENDBRANCH   1  30
BRANCH  27  33
ATOM     33  O   UNL     1      16.408  47.488  31.035  1.00  0.00    -0.393 OA
ATOM     34  H   UNL     1      16.775  48.250  31.559  1.00  0.00     0.210 HD
ENDBRANCH  27  33
TORSDOF 2
ENDMDL
MODEL 2
REMARK VINA RESULT:    -6.477      1.004      1.123
REMARK INTER + INTRA:          -7.300
REMARK INTER:                  -7.044
REMARK INTRA:                  -0.256
REMARK UNBOUND:                -0.255
REMARK SMILES C[C@@H]1[C@H]2C3=CC[C@H]4[C@@]5(C)CC[C@@H](O)C(C)(C)[C@H]5CC[C@@]4(C)[C@@]3(C)CC[C@@]2(C(=O)[O-])CC[C@@H]1C
REMARK SMILES IDX 26 1 30 2 25 3 3 4 31 5 24 6 4 7 2 8 32 9 22 10 5 11 1 12
REMARK SMILES IDX 33 13 23 14 20 15 6 16 7 17 19 18 21 19 8 20 18 21 17 22
REMARK SMILES IDX 10 23 9 24 14 25 11 26 12 27 15 28 16 29 27 30 28 31 29 32
REMARK SMILES IDX 13 33
REMARK H PARENT 13 34
REMARK Flexibility Score: inf
ROOT
ATOM      1  C   UNL     1      12.193  54.171  34.009  1.00  0.00     0.017 C 
ATOM      2  C   UNL     1      11.578  53.673  35.365  1.00  0.00     0.014 C 
ATOM      3  C   UNL     1      11.151  53.806  32.917  1.00  0.00     0.014 C 
ATOM      4  C   UNL     1      13.651  53.547  33.751  1.00  0.00     0.030 C 
ATOM      5  C   UNL     1      12.469  53.873  36.593  1.00  0.00     0.004 C 
ATOM      6  C   UNL     1      11.342  52.410  32.338  1.00  0.00     0.013 C 
ATOM      7  C   UNL     1      13.825  52.707  32.450  1.00  0.00    -0.063 C 
ATOM      8  C   UNL     1      14.180  52.759  35.017  1.00  0.00    -0.003 C 
ATOM      9  C   UNL     1      13.963  53.556  36.338  1.00  0.00    -0.011 C 
ATOM     10  C   UNL     1      12.674  52.287  31.545  1.00  0.00    -0.006 C 
ATOM     11  C   UNL     1      15.063  52.517  31.961  1.00  0.00    -0.027 C 
ATOM     12  C   UNL     1      15.651  52.297  34.945  1.00  0.00     0.008 C 
ATOM     13  C   UNL     1      14.825  54.835  36.445  1.00  0.00     0.008 C 
ATOM     14  C   UNL     1      12.621  53.326  30.369  1.00  0.00     0.017 C 
ATOM     15  C   UNL     1      12.909  50.787  30.999  1.00  0.00    -0.020 C 
ATOM     16  C   UNL     1      15.433  51.257  31.235  1.00  0.00     0.032 C 
ATOM     17  C   UNL     1      14.333  50.667  30.303  1.00  0.00     0.006 C 
ATOM     18  C   UNL     1      12.860  49.771  32.190  1.00  0.00     0.008 C 
ATOM     19  C   UNL     1      11.749  50.439  30.009  1.00  0.00     0.012 C 
ATOM     20  C   UNL     1      14.672  49.201  29.717  1.00  0.00    -0.025 C 
ATOM     21  C   UNL     1      13.728  48.501  32.056  1.00  0.00     0.005 C 
ATOM     22  C   UNL     1      14.022  48.036  30.602  1.00  0.00     0.003 C 
ATOM     23  C   UNL     1      16.224  48.963  29.552  1.00  0.00     0.010 C 
ATOM     24  C   UNL     1      14.099  49.155  28.248  1.00  0.00     0.012 C 
ATOM     25  C   UNL     1      14.816  46.658  30.577  1.00  0.00    -0.006 C 
ATOM     26  C   UNL     1      16.903  48.242  30.717  1.00  0.00     0.033 C 
ATOM     27  C   UNL     1      16.323  46.839  31.006  1.00  0.00     0.120 C 
ATOM     28  C   UNL     1      14.759  46.026  29.157  1.00  0.00     0.014 C 
ATOM     29  C   UNL     1      14.126  45.589  31.489  1.00  0.00     0.014 C 
ENDROOT
BRANCH   1  30
ATOM     30  C   UNL     1      12.312  55.698  34.007  1.00  0.00     0.048 C 
ATOM     31  O   UNL     1      11.414  56.435  34.489  1.00  0.00    -0.550 OA
ATOM     32  O   UNL     1      13.488  56.291  33.551  1.00  0.00    -0.550 OA
ENDBRANCH   1  30
BRANCH  27  33
ATOM     33  O   UNL     1      16.492  46.566  32.372  1.00  0.00    -0.393 OA
ATOM     34  H   UNL     1      15.789  45.911  32.629  1.00  0.00     0.210 HD
ENDBRANCH  27  33
TORSDOF 2
ENDMDL
MODEL 3
REMARK VINA RESULT:    -6.047      1.677      7.593
REMARK INTER + INTRA:          -6.832
REMARK INTER:                  -6.562
REMARK INTRA:                  -0.270
REMARK UNBOUND:                -0.255
REMARK SMILES C[C@@H]1[C@H]2C3=CC[C@H]4[C@@]5(C)CC[C@@H](O)C(C)(C)[C@H]5CC[C@@]4(C)[C@@]3(C)CC[C@@]2(C(=O)[O-])CC[C@@H]1C
REMARK SMILES IDX 26 1 30 2 25 3 3 4 31 5 24 6 4 7 2 8 32 9 22 10 5 11 1 12
REMARK SMILES IDX 33 13 23 14 20 15 6 16 7 17 19 18 21 19 8 20 18 21 17 22
REMARK SMILES IDX 10 23 9 24 14 25 11 26 12 27 15 28 16 29 27 30 28 31 29 32
REMARK SMILES IDX 13 33
REMARK H PARENT 13 34
REMARK Flexibility Score: inf
ROOT
ATOM      1  C   UNL     1      15.827  47.811  29.813  1.00  0.00     0.017 C 
ATOM      2  C   UNL     1      17.067  47.343  30.655  1.00  0.00     0.014 C 
ATOM      3  C   UNL     1      16.323  49.017  28.970  1.00  0.00     0.014 C 
ATOM      4  C   UNL     1      14.565  48.148  30.749  1.00  0.00     0.030 C 
ATOM      5  C   UNL     1      16.796  46.188  31.621  1.00  0.00     0.004 C 
ATOM      6  C   UNL     1      16.179  50.356  29.681  1.00  0.00     0.013 C 
ATOM      7  C   UNL     1      14.003  49.598  30.658  1.00  0.00    -0.063 C 
ATOM      8  C   UNL     1      14.826  47.727  32.252  1.00  0.00    -0.003 C 
ATOM      9  C   UNL     1      15.443  46.300  32.364  1.00  0.00    -0.011 C 
ATOM     10  C   UNL     1      14.689  50.734  29.910  1.00  0.00    -0.006 C 
ATOM     11  C   UNL     1      12.743  49.833  31.066  1.00  0.00    -0.027 C 
ATOM     12  C   UNL     1      13.602  47.820  33.189  1.00  0.00     0.008 C 
ATOM     13  C   UNL     1      14.482  45.168  31.937  1.00  0.00     0.008 C 
ATOM     14  C   UNL     1      14.003  50.827  28.501  1.00  0.00     0.017 C 
ATOM     15  C   UNL     1      14.541  52.115  30.731  1.00  0.00    -0.020 C 
ATOM     16  C   UNL     1      12.349  51.144  31.680  1.00  0.00     0.032 C 
ATOM     17  C   UNL     1      13.013  52.408  31.056  1.00  0.00     0.006 C 
ATOM     18  C   UNL     1      15.319  52.016  32.088  1.00  0.00     0.008 C 
ATOM     19  C   UNL     1      15.183  53.261  29.882  1.00  0.00     0.012 C 
ATOM     20  C   UNL     1      12.751  53.773  31.878  1.00  0.00    -0.025 C 
ATOM     21  C   UNL     1      14.757  52.831  33.272  1.00  0.00     0.005 C 
ATOM     22  C   UNL     1      13.946  54.103  32.891  1.00  0.00     0.003 C 
ATOM     23  C   UNL     1      11.370  53.758  32.645  1.00  0.00     0.010 C 
ATOM     24  C   UNL     1      12.606  54.925  30.811  1.00  0.00     0.012 C 
ATOM     25  C   UNL     1      13.519  54.933  34.179  1.00  0.00    -0.006 C 
ATOM     26  C   UNL     1      11.442  53.331  34.112  1.00  0.00     0.033 C 
ATOM     27  C   UNL     1      12.358  54.224  34.978  1.00  0.00     0.120 C 
ATOM     28  C   UNL     1      13.063  56.364  33.773  1.00  0.00     0.014 C 
ATOM     29  C   UNL     1      14.741  55.184  35.123  1.00  0.00     0.014 C 
ENDROOT
BRANCH   1  30
ATOM     30  C   UNL     1      15.416  46.721  28.819  1.00  0.00     0.048 C 
ATOM     31  O   UNL     1      14.210  46.428  28.615  1.00  0.00    -0.550 OA
ATOM     32  O   UNL     1      16.393  46.102  28.040  1.00  0.00    -0.550 OA
ENDBRANCH   1  30
BRANCH  27  33
ATOM     33  O   UNL     1      12.874  53.442  36.023  1.00  0.00    -0.393 OA
ATOM     34  H   UNL     1      12.123  53.262  36.651  1.00  0.00     0.210 HD
ENDBRANCH  27  33
TORSDOF 2
ENDMDL
MODEL 4
REMARK VINA RESULT:    -5.894      1.982      3.175
REMARK INTER + INTRA:          -6.666
REMARK INTER:                  -6.411
REMARK INTRA:                  -0.255
REMARK UNBOUND:                -0.255
REMARK SMILES C[C@@H]1[C@H]2C3=CC[C@H]4[C@@]5(C)CC[C@@H](O)C(C)(C)[C@H]5CC[C@@]4(C)[C@@]3(C)CC[C@@]2(C(=O)[O-])CC[C@@H]1C
REMARK SMILES IDX 26 1 30 2 25 3 3 4 31 5 24 6 4 7 2 8 32 9 22 10 5 11 1 12
REMARK SMILES IDX 33 13 23 14 20 15 6 16 7 17 19 18 21 19 8 20 18 21 17 22
REMARK SMILES IDX 10 23 9 24 14 25 11 26 12 27 15 28 16 29 27 30 28 31 29 32
REMARK SMILES IDX 13 33
REMARK H PARENT 13 34
REMARK Flexibility Score: inf
ROOT
ATOM      1  C   UNL     1      12.974  54.178  31.810  1.00  0.00     0.017 C 
ATOM      2  C   UNL     1      11.779  54.458  32.789  1.00  0.00     0.014 C 
ATOM      3  C   UNL     1      12.327  53.643  30.503  1.00  0.00     0.014 C 
ATOM      4  C   UNL     1      14.053  53.178  32.457  1.00  0.00     0.030 C 
ATOM      5  C   UNL     1      12.185  54.942  34.184  1.00  0.00     0.004 C 
ATOM      6  C   UNL     1      12.137  52.132  30.493  1.00  0.00     0.013 C 
ATOM      7  C   UNL     1      14.322  51.853  31.682  1.00  0.00    -0.063 C 
ATOM      8  C   UNL     1      13.745  52.898  33.983  1.00  0.00    -0.003 C 
ATOM      9  C   UNL     1      13.415  54.205  34.766  1.00  0.00    -0.011 C 
ATOM     10  C   UNL     1      13.496  51.376  30.495  1.00  0.00    -0.006 C 
ATOM     11  C   UNL     1      15.468  51.188  31.913  1.00  0.00    -0.027 C 
ATOM     12  C   UNL     1      14.835  52.115  34.748  1.00  0.00     0.008 C 
ATOM     13  C   UNL     1      14.617  55.166  34.912  1.00  0.00     0.008 C 
ATOM     14  C   UNL     1      14.275  51.801  29.201  1.00  0.00     0.017 C 
ATOM     15  C   UNL     1      13.291  49.777  30.562  1.00  0.00    -0.020 C 
ATOM     16  C   UNL     1      15.536  49.692  31.828  1.00  0.00     0.032 C 
ATOM     17  C   UNL     1      14.695  49.042  30.689  1.00  0.00     0.006 C 
ATOM     18  C   UNL     1      12.428  49.401  31.815  1.00  0.00     0.008 C 
ATOM     19  C   UNL     1      12.515  49.328  29.281  1.00  0.00     0.012 C 
ATOM     20  C   UNL     1      14.604  47.431  30.763  1.00  0.00    -0.025 C 
ATOM     21  C   UNL     1      12.707  48.029  32.464  1.00  0.00     0.005 C 
ATOM     22  C   UNL     1      13.280  46.938  31.515  1.00  0.00     0.003 C 
ATOM     23  C   UNL     1      15.885  46.787  31.426  1.00  0.00     0.010 C 
ATOM     24  C   UNL     1      14.614  46.906  29.275  1.00  0.00     0.012 C 
ATOM     25  C   UNL     1      13.415  45.534  32.251  1.00  0.00    -0.006 C 
ATOM     26  C   UNL     1      15.765  46.487  32.921  1.00  0.00     0.033 C 
ATOM     27  C   UNL     1      14.615  45.517  33.274  1.00  0.00     0.120 C 
ATOM     28  C   UNL     1      13.613  44.395  31.209  1.00  0.00     0.014 C 
ATOM     29  C   UNL     1      12.086  45.146  32.980  1.00  0.00     0.014 C 
ENDROOT
BRANCH   1  30
ATOM     30  C   UNL     1      13.682  55.485  31.444  1.00  0.00     0.048 C 
ATOM     31  O   UNL     1      13.045  56.545  31.217  1.00  0.00    -0.550 OA
ATOM     32  O   UNL     1      15.075  55.536  31.460  1.00  0.00    -0.550 OA
ENDBRANCH   1  30
BRANCH  27  33
ATOM     33  O   UNL     1      14.172  45.815  34.572  1.00  0.00    -0.393 OA
ATOM     34  H   UNL     1      13.343  46.357  34.480  1.00  0.00     0.210 HD
ENDBRANCH  27  33
TORSDOF 2
ENDMDL
MODEL 5
REMARK VINA RESULT:    -5.835      4.671      8.086
REMARK INTER + INTRA:          -6.602
REMARK INTER:                  -6.332
REMARK INTRA:                  -0.270
REMARK UNBOUND:                -0.255
REMARK SMILES C[C@@H]1[C@H]2C3=CC[C@H]4[C@@]5(C)CC[C@@H](O)C(C)(C)[C@H]5CC[C@@]4(C)[C@@]3(C)CC[C@@]2(C(=O)[O-])CC[C@@H]1C
REMARK SMILES IDX 26 1 30 2 25 3 3 4 31 5 24 6 4 7 2 8 32 9 22 10 5 11 1 12
REMARK SMILES IDX 33 13 23 14 20 15 6 16 7 17 19 18 21 19 8 20 18 21 17 22
REMARK SMILES IDX 10 23 9 24 14 25 11 26 12 27 15 28 16 29 27 30 28 31 29 32
REMARK SMILES IDX 13 33
REMARK H PARENT 13 34
REMARK Flexibility Score: inf
ROOT
ATOM      1  C   UNL     1      15.660  49.421  29.258  1.00  0.00     0.017 C 
ATOM      2  C   UNL     1      16.902  49.015  28.388  1.00  0.00     0.014 C 
ATOM      3  C   UNL     1      16.182  49.511  30.718  1.00  0.00     0.014 C 
ATOM      4  C   UNL     1      14.437  48.396  29.067  1.00  0.00     0.030 C 
ATOM      5  C   UNL     1      16.610  48.805  26.900  1.00  0.00     0.004 C 
ATOM      6  C   UNL     1      16.111  48.190  31.471  1.00  0.00     0.013 C 
ATOM      7  C   UNL     1      13.932  47.674  30.352  1.00  0.00    -0.063 C 
ATOM      8  C   UNL     1      14.720  47.364  27.902  1.00  0.00    -0.003 C 
ATOM      9  C   UNL     1      15.282  48.058  26.625  1.00  0.00    -0.011 C 
ATOM     10  C   UNL     1      14.643  47.729  31.698  1.00  0.00    -0.006 C 
ATOM     11  C   UNL     1      12.694  47.150  30.357  1.00  0.00    -0.027 C 
ATOM     12  C   UNL     1      13.526  46.469  27.504  1.00  0.00     0.008 C 
ATOM     13  C   UNL     1      14.265  48.982  25.917  1.00  0.00     0.008 C 
ATOM     14  C   UNL     1      13.925  48.839  32.544  1.00  0.00     0.017 C 
ATOM     15  C   UNL     1      14.573  46.291  32.428  1.00  0.00    -0.020 C 
ATOM     16  C   UNL     1      12.369  45.913  31.143  1.00  0.00     0.032 C 
ATOM     17  C   UNL     1      13.066  45.794  32.531  1.00  0.00     0.006 C 
ATOM     18  C   UNL     1      15.381  45.233  31.602  1.00  0.00     0.008 C 
ATOM     19  C   UNL     1      15.238  46.424  33.837  1.00  0.00     0.012 C 
ATOM     20  C   UNL     1      12.882  44.360  33.249  1.00  0.00    -0.025 C 
ATOM     21  C   UNL     1      14.883  43.773  31.668  1.00  0.00     0.005 C 
ATOM     22  C   UNL     1      14.115  43.381  32.962  1.00  0.00     0.003 C 
ATOM     23  C   UNL     1      11.522  43.660  32.854  1.00  0.00     0.010 C 
ATOM     24  C   UNL     1      12.755  44.639  34.796  1.00  0.00     0.012 C 
ATOM     25  C   UNL     1      13.755  41.831  32.982  1.00  0.00    -0.006 C 
ATOM     26  C   UNL     1      11.615  42.653  31.706  1.00  0.00     0.033 C 
ATOM     27  C   UNL     1      12.588  41.484  31.979  1.00  0.00     0.120 C 
ATOM     28  C   UNL     1      13.347  41.389  34.417  1.00  0.00     0.014 C 
ATOM     29  C   UNL     1      15.010  40.953  32.664  1.00  0.00     0.014 C 
ENDROOT
BRANCH   1  30
ATOM     30  C   UNL     1      15.179  50.825  28.879  1.00  0.00     0.048 C 
ATOM     31  O   UNL     1      13.958  51.105  28.779  1.00  0.00    -0.550 OA
ATOM     32  O   UNL     1      16.112  51.852  28.736  1.00  0.00    -0.550 OA
ENDBRANCH   1  30
BRANCH  27  33
ATOM     33  O   UNL     1      13.099  41.042  30.749  1.00  0.00    -0.393 OA
ATOM     34  H   UNL     1      13.860  40.434  30.950  1.00  0.00     0.210 HD
ENDBRANCH  27  33
TORSDOF 2
ENDMDL
MODEL 6
REMARK VINA RESULT:    -5.792      4.176      8.706
REMARK INTER + INTRA:          -6.555
REMARK INTER:                  -6.286
REMARK INTRA:                  -0.269
REMARK UNBOUND:                -0.255
REMARK SMILES C[C@@H]1[C@H]2C3=CC[C@H]4[C@@]5(C)CC[C@@H](O)C(C)(C)[C@H]5CC[C@@]4(C)[C@@]3(C)CC[C@@]2(C(=O)[O-])CC[C@@H]1C
REMARK SMILES IDX 26 1 30 2 25 3 3 4 31 5 24 6 4 7 2 8 32 9 22 10 5 11 1 12
REMARK SMILES IDX 33 13 23 14 20 15 6 16 7 17 19 18 21 19 8 20 18 21 17 22
REMARK SMILES IDX 10 23 9 24 14 25 11 26 12 27 15 28 16 29 27 30 28 31 29 32
REMARK SMILES IDX 13 33
REMARK H PARENT 13 34
REMARK Flexibility Score: inf
ROOT
ATOM      1  C   UNL     1      12.846  42.862  32.695  1.00  0.00     0.017 C 
ATOM      2  C   UNL     1      12.225  42.062  31.495  1.00  0.00     0.014 C 
ATOM      3  C   UNL     1      11.722  43.811  33.192  1.00  0.00     0.014 C 
ATOM      4  C   UNL     1      14.197  43.621  32.269  1.00  0.00     0.030 C 
ATOM      5  C   UNL     1      13.183  41.094  30.796  1.00  0.00     0.004 C 
ATOM      6  C   UNL     1      11.702  45.156  32.478  1.00  0.00     0.013 C 
ATOM      7  C   UNL     1      14.205  45.170  32.442  1.00  0.00    -0.063 C 
ATOM      8  C   UNL     1      14.666  43.205  30.816  1.00  0.00    -0.003 C 
ATOM      9  C   UNL     1      14.610  41.662  30.601  1.00  0.00    -0.011 C 
ATOM     10  C   UNL     1      12.973  45.997  32.787  1.00  0.00    -0.006 C 
ATOM     11  C   UNL     1      15.386  45.808  32.513  1.00  0.00    -0.027 C 
ATOM     12  C   UNL     1      16.059  43.721  30.395  1.00  0.00     0.008 C 
ATOM     13  C   UNL     1      15.638  40.875  31.446  1.00  0.00     0.008 C 
ATOM     14  C   UNL     1      13.012  46.242  34.337  1.00  0.00     0.017 C 
ATOM     15  C   UNL     1      12.985  47.387  31.969  1.00  0.00    -0.020 C 
ATOM     16  C   UNL     1      15.557  47.202  31.983  1.00  0.00     0.032 C 
ATOM     17  C   UNL     1      14.352  48.163  32.211  1.00  0.00     0.006 C 
ATOM     18  C   UNL     1      12.848  47.105  30.433  1.00  0.00     0.008 C 
ATOM     19  C   UNL     1      11.750  48.234  32.422  1.00  0.00     0.012 C 
ATOM     20  C   UNL     1      14.468  49.574  31.435  1.00  0.00    -0.025 C 
ATOM     21  C   UNL     1      13.534  48.106  29.479  1.00  0.00     0.005 C 
ATOM     22  C   UNL     1      13.705  49.551  30.028  1.00  0.00     0.003 C 
ATOM     23  C   UNL     1      15.968  50.030  31.238  1.00  0.00     0.010 C 
ATOM     24  C   UNL     1      13.836  50.666  32.381  1.00  0.00     0.012 C 
ATOM     25  C   UNL     1      14.308  50.529  28.926  1.00  0.00    -0.006 C 
ATOM     26  C   UNL     1      16.590  49.665  29.889  1.00  0.00     0.033 C 
ATOM     27  C   UNL     1      15.841  50.259  28.676  1.00  0.00     0.120 C 
ATOM     28  C   UNL     1      14.111  52.012  29.353  1.00  0.00     0.014 C 
ATOM     29  C   UNL     1      13.519  50.420  27.580  1.00  0.00     0.014 C 
ENDROOT
BRANCH   1  30
ATOM     30  C   UNL     1      13.166  41.918  33.857  1.00  0.00     0.048 C 
ATOM     31  O   UNL     1      14.248  41.991  34.494  1.00  0.00    -0.550 OA
ATOM     32  O   UNL     1      12.197  41.014  34.291  1.00  0.00    -0.550 OA
ENDBRANCH   1  30
BRANCH  27  33
ATOM     33  O   UNL     1      16.027  49.399  27.582  1.00  0.00    -0.393 OA
ATOM     34  H   UNL     1      15.477  49.756  26.833  1.00  0.00     0.210 HD
ENDBRANCH  27  33
TORSDOF 2
ENDMDL
MODEL 7
REMARK VINA RESULT:    -5.782      3.003      7.469
REMARK INTER + INTRA:          -6.543
REMARK INTER:                  -6.325
REMARK INTRA:                  -0.218
REMARK UNBOUND:                -0.255
REMARK SMILES C[C@@H]1[C@H]2C3=CC[C@H]4[C@@]5(C)CC[C@@H](O)C(C)(C)[C@H]5CC[C@@]4(C)[C@@]3(C)CC[C@@]2(C(=O)[O-])CC[C@@H]1C
REMARK SMILES IDX 26 1 30 2 25 3 3 4 31 5 24 6 4 7 2 8 32 9 22 10 5 11 1 12
REMARK SMILES IDX 33 13 23 14 20 15 6 16 7 17 19 18 21 19 8 20 18 21 17 22
REMARK SMILES IDX 10 23 9 24 14 25 11 26 12 27 15 28 16 29 27 30 28 31 29 32
REMARK SMILES IDX 13 33
REMARK H PARENT 13 34
REMARK Flexibility Score: inf
ROOT
ATOM      1  C   UNL     1      14.258  45.347  32.899  1.00  0.00     0.017 C 
ATOM      2  C   UNL     1      14.400  45.526  34.453  1.00  0.00     0.014 C 
ATOM      3  C   UNL     1      15.654  45.687  32.309  1.00  0.00     0.014 C 
ATOM      4  C   UNL     1      13.064  46.242  32.303  1.00  0.00     0.030 C 
ATOM      5  C   UNL     1      13.114  45.300  35.251  1.00  0.00     0.004 C 
ATOM      6  C   UNL     1      15.834  47.165  31.989  1.00  0.00     0.013 C 
ATOM      7  C   UNL     1      13.458  47.284  31.212  1.00  0.00    -0.063 C 
ATOM      8  C   UNL     1      12.209  46.912  33.453  1.00  0.00    -0.003 C 
ATOM      9  C   UNL     1      11.853  45.902  34.585  1.00  0.00    -0.011 C 
ATOM     10  C   UNL     1      14.894  47.630  30.842  1.00  0.00    -0.006 C 
ATOM     11  C   UNL     1      12.503  47.753  30.390  1.00  0.00    -0.027 C 
ATOM     12  C   UNL     1      10.919  47.625  32.991  1.00  0.00     0.008 C 
ATOM     13  C   UNL     1      10.876  44.788  34.144  1.00  0.00     0.008 C 
ATOM     14  C   UNL     1      15.249  46.784  29.568  1.00  0.00     0.017 C 
ATOM     15  C   UNL     1      15.033  49.212  30.558  1.00  0.00    -0.020 C 
ATOM     16  C   UNL     1      12.555  49.152  29.848  1.00  0.00     0.032 C 
ATOM     17  C   UNL     1      13.972  49.677  29.469  1.00  0.00     0.006 C 
ATOM     18  C   UNL     1      14.765  50.017  31.875  1.00  0.00     0.008 C 
ATOM     19  C   UNL     1      16.500  49.501  30.098  1.00  0.00     0.012 C 
ATOM     20  C   UNL     1      14.025  51.250  29.108  1.00  0.00    -0.025 C 
ATOM     21  C   UNL     1      14.144  51.422  31.718  1.00  0.00     0.005 C 
ATOM     22  C   UNL     1      14.440  52.142  30.371  1.00  0.00     0.003 C 
ATOM     23  C   UNL     1      12.669  51.771  28.490  1.00  0.00     0.010 C 
ATOM     24  C   UNL     1      15.085  51.415  27.952  1.00  0.00     0.012 C 
ATOM     25  C   UNL     1      13.861  53.624  30.360  1.00  0.00    -0.006 C 
ATOM     26  C   UNL     1      11.702  52.417  29.484  1.00  0.00     0.033 C 
ATOM     27  C   UNL     1      12.290  53.641  30.221  1.00  0.00     0.120 C 
ATOM     28  C   UNL     1      14.488  54.440  29.194  1.00  0.00     0.014 C 
ATOM     29  C   UNL     1      14.292  54.411  31.641  1.00  0.00     0.014 C 
ENDROOT
BRANCH   1  30
ATOM     30  C   UNL     1      13.983  43.880  32.554  1.00  0.00     0.048 C 
ATOM     31  O   UNL     1      14.431  42.937  33.255  1.00  0.00    -0.550 OA
ATOM     32  O   UNL     1      13.130  43.576  31.494  1.00  0.00    -0.550 OA
ENDBRANCH   1  30
BRANCH  27  33
ATOM     33  O   UNL     1      11.676  53.732  31.480  1.00  0.00    -0.393 OA
ATOM     34  H   UNL     1      12.202  53.164  32.104  1.00  0.00     0.210 HD
ENDBRANCH  27  33
TORSDOF 2
ENDMDL
MODEL 8
REMARK VINA RESULT:    -5.306      3.341      7.892
REMARK INTER + INTRA:          -6.026
REMARK INTER:                  -5.757
REMARK INTRA:                  -0.270
REMARK UNBOUND:                -0.255
REMARK SMILES C[C@@H]1[C@H]2C3=CC[C@H]4[C@@]5(C)CC[C@@H](O)C(C)(C)[C@H]5CC[C@@]4(C)[C@@]3(C)CC[C@@]2(C(=O)[O-])CC[C@@H]1C
REMARK SMILES IDX 26 1 30 2 25 3 3 4 31 5 24 6 4 7 2 8 32 9 22 10 5 11 1 12
REMARK SMILES IDX 33 13 23 14 20 15 6 16 7 17 19 18 21 19 8 20 18 21 17 22
REMARK SMILES IDX 10 23 9 24 14 25 11 26 12 27 15 28 16 29 27 30 28 31 29 32
REMARK SMILES IDX 13 33
REMARK H PARENT 13 34
REMARK Flexibility Score: inf
ROOT
ATOM      1  C   UNL     1      15.231  50.635  29.021  1.00  0.00     0.017 C 
ATOM      2  C   UNL     1      16.480  49.958  29.691  1.00  0.00     0.014 C 
ATOM      3  C   UNL     1      15.793  51.481  27.846  1.00  0.00     0.014 C 
ATOM      4  C   UNL     1      14.373  51.484  30.081  1.00  0.00     0.030 C 
ATOM      5  C   UNL     1      16.172  49.112  30.928  1.00  0.00     0.004 C 
ATOM      6  C   UNL     1      16.179  52.898  28.248  1.00  0.00     0.013 C 
ATOM      7  C   UNL     1      14.197  53.001  29.773  1.00  0.00    -0.063 C 
ATOM      8  C   UNL     1      14.884  51.254  31.560  1.00  0.00    -0.003 C 
ATOM      9  C   UNL     1      15.122  49.746  31.873  1.00  0.00    -0.011 C 
ATOM     10  C   UNL     1      14.941  53.740  28.669  1.00  0.00    -0.006 C 
ATOM     11  C   UNL     1      13.182  53.667  30.351  1.00  0.00    -0.027 C 
ATOM     12  C   UNL     1      13.999  51.863  32.670  1.00  0.00     0.008 C 
ATOM     13  C   UNL     1      13.828  48.902  31.907  1.00  0.00     0.008 C 
ATOM     14  C   UNL     1      13.973  53.805  27.435  1.00  0.00     0.017 C 
ATOM     15  C   UNL     1      15.363  55.216  29.167  1.00  0.00    -0.020 C 
ATOM     16  C   UNL     1      13.303  55.118  30.716  1.00  0.00     0.032 C 
ATOM     17  C   UNL     1      14.091  56.004  29.706  1.00  0.00     0.006 C 
ATOM     18  C   UNL     1      16.402  55.109  30.335  1.00  0.00     0.008 C 
ATOM     19  C   UNL     1      16.044  55.961  27.973  1.00  0.00     0.012 C 
ATOM     20  C   UNL     1      14.401  57.499  30.231  1.00  0.00    -0.025 C 
ATOM     21  C   UNL     1      16.381  56.237  31.389  1.00  0.00     0.005 C 
ATOM     22  C   UNL     1      15.855  57.614  30.892  1.00  0.00     0.003 C 
ATOM     23  C   UNL     1      13.300  58.025  31.232  1.00  0.00     0.010 C 
ATOM     24  C   UNL     1      14.295  58.452  28.979  1.00  0.00     0.012 C 
ATOM     25  C   UNL     1      15.990  58.732  32.016  1.00  0.00    -0.006 C 
ATOM     26  C   UNL     1      13.623  57.841  32.716  1.00  0.00     0.033 C 
ATOM     27  C   UNL     1      14.924  58.546  33.163  1.00  0.00     0.120 C 
ATOM     28  C   UNL     1      15.829  60.148  31.391  1.00  0.00     0.014 C 
ATOM     29  C   UNL     1      17.431  58.753  32.624  1.00  0.00     0.014 C 
ENDROOT
BRANCH   1  30
ATOM     30  C   UNL     1      14.320  49.573  28.398  1.00  0.00     0.048 C 
ATOM     31  O   UNL     1      13.068  49.629  28.501  1.00  0.00    -0.550 OA
ATOM     32  O   UNL     1      14.880  48.570  27.608  1.00  0.00    -0.550 OA
ENDBRANCH   1  30
BRANCH  27  33
ATOM     33  O   UNL     1      15.466  57.826  34.239  1.00  0.00    -0.393 OA
ATOM     34  H   UNL     1      15.158  58.271  35.074  1.00  0.00     0.210 HD
ENDBRANCH  27  33
TORSDOF 2
ENDMDL
MODEL 9
REMARK VINA RESULT:    -5.298      2.046      2.822
REMARK INTER + INTRA:          -6.017
REMARK INTER:                  -5.747
REMARK INTRA:                  -0.270
REMARK UNBOUND:                -0.255
REMARK SMILES C[C@@H]1[C@H]2C3=CC[C@H]4[C@@]5(C)CC[C@@H](O)C(C)(C)[C@H]5CC[C@@]4(C)[C@@]3(C)CC[C@@]2(C(=O)[O-])CC[C@@H]1C
REMARK SMILES IDX 26 1 30 2 25 3 3 4 31 5 24 6 4 7 2 8 32 9 22 10 5 11 1 12
REMARK SMILES IDX 33 13 23 14 20 15 6 16 7 17 19 18 21 19 8 20 18 21 17 22
REMARK SMILES IDX 10 23 9 24 14 25 11 26 12 27 15 28 16 29 27 30 28 31 29 32
REMARK SMILES IDX 13 33
REMARK H PARENT 13 34
REMARK Flexibility Score: inf
ROOT
ATOM      1  C   UNL     1      13.189  55.716  33.167  1.00  0.00     0.017 C 
ATOM      2  C   UNL     1      14.203  55.835  34.360  1.00  0.00     0.014 C 
ATOM      3  C   UNL     1      12.191  54.598  33.573  1.00  0.00     0.014 C 
ATOM      4  C   UNL     1      13.940  55.443  31.772  1.00  0.00     0.030 C 
ATOM      5  C   UNL     1      15.331  56.848  34.154  1.00  0.00     0.004 C 
ATOM      6  C   UNL     1      12.640  53.204  33.157  1.00  0.00     0.013 C 
ATOM      7  C   UNL     1      13.547  54.137  31.019  1.00  0.00    -0.063 C 
ATOM      8  C   UNL     1      15.510  55.568  31.922  1.00  0.00    -0.003 C 
ATOM      9  C   UNL     1      15.925  56.838  32.724  1.00  0.00    -0.011 C 
ATOM     10  C   UNL     1      12.671  53.041  31.611  1.00  0.00    -0.006 C 
ATOM     11  C   UNL     1      13.797  54.048  29.700  1.00  0.00    -0.027 C 
ATOM     12  C   UNL     1      16.308  55.525  30.601  1.00  0.00     0.008 C 
ATOM     13  C   UNL     1      15.623  58.166  31.992  1.00  0.00     0.008 C 
ATOM     14  C   UNL     1      11.214  53.289  31.080  1.00  0.00     0.017 C 
ATOM     15  C   UNL     1      13.220  51.588  31.173  1.00  0.00    -0.020 C 
ATOM     16  C   UNL     1      14.135  52.737  29.053  1.00  0.00     0.032 C 
ATOM     17  C   UNL     1      13.356  51.499  29.591  1.00  0.00     0.006 C 
ATOM     18  C   UNL     1      14.634  51.339  31.800  1.00  0.00     0.008 C 
ATOM     19  C   UNL     1      12.239  50.505  31.731  1.00  0.00     0.012 C 
ATOM     20  C   UNL     1      13.899  50.081  29.043  1.00  0.00    -0.025 C 
ATOM     21  C   UNL     1      15.603  50.446  30.996  1.00  0.00     0.005 C 
ATOM     22  C   UNL     1      14.936  49.402  30.057  1.00  0.00     0.003 C 
ATOM     23  C   UNL     1      14.536  50.196  27.603  1.00  0.00     0.010 C 
ATOM     24  C   UNL     1      12.637  49.154  28.852  1.00  0.00     0.012 C 
ATOM     25  C   UNL     1      16.016  48.456  29.371  1.00  0.00    -0.006 C 
ATOM     26  C   UNL     1      16.056  50.364  27.571  1.00  0.00     0.033 C 
ATOM     27  C   UNL     1      16.825  49.205  28.245  1.00  0.00     0.120 C 
ATOM     28  C   UNL     1      15.326  47.202  28.760  1.00  0.00     0.014 C 
ATOM     29  C   UNL     1      17.001  47.860  30.431  1.00  0.00     0.014 C 
ENDROOT
BRANCH   1  30
ATOM     30  C   UNL     1      12.371  57.004  33.032  1.00  0.00     0.048 C 
ATOM     31  O   UNL     1      12.119  57.518  31.912  1.00  0.00    -0.550 OA
ATOM     32  O   UNL     1      11.802  57.575  34.170  1.00  0.00    -0.550 OA
ENDBRANCH   1  30
BRANCH  27  33
ATOM     33  O   UNL     1      18.032  49.715  28.749  1.00  0.00    -0.393 OA
ATOM     34  H   UNL     1      17.844  50.067  29.660  1.00  0.00     0.210 HD
ENDBRANCH  27  33
TORSDOF 2
ENDMDL
