MODEL 1
REMARK VINA RESULT:    -3.832      0.000      0.000
REMARK INTER + INTRA:         -11.955
REMARK INTER:                  -8.313
REMARK INTRA:                  -3.642
REMARK UNBOUND:                -3.642
REMARK SMILES CCCCCCCCCCCCCCCCCCCCCC(=O)[O-]
REMARK SMILES IDX 12 1 11 2 10 3 9 4 8 5 7 6 6 7 5 8 4 9 3 10 2 11 1 12 13 13
REMARK SMILES IDX 14 14 15 15 16 16 17 17 18 18 19 19 20 20 21 21 22 22 23 23
REMARK SMILES IDX 24 24
REMARK H PARENT
REMARK Flexibility Score: inf
ROOT
ATOM      1  C   UNL     1     139.625 130.259 114.718  1.00  0.00     0.000 C 
ENDROOT
BRANCH   1   2
ATOM      2  C   UNL     1     138.548 129.725 113.756  1.00  0.00     0.000 C 
BRANCH   2   3
ATOM      3  C   UNL     1     138.783 128.295 113.234  1.00  0.00     0.000 C 
BRANCH   3   4
ATOM      4  C   UNL     1     138.731 127.233 114.347  1.00  0.00    -0.000 C 
BRANCH   4   5
ATOM      5  C   UNL     1     137.441 127.316 115.182  1.00  0.00    -0.000 C 
BRANCH   5   6
ATOM      6  C   UNL     1     137.715 127.299 116.694  1.00  0.00    -0.000 C 
BRANCH   6   7
ATOM      7  C   UNL     1     139.214 127.145 116.978  1.00  0.00    -0.000 C 
BRANCH   7   8
ATOM      8  C   UNL     1     139.519 127.391 118.461  1.00  0.00    -0.000 C 
BRANCH   8   9
ATOM      9  C   UNL     1     140.325 128.681 118.654  1.00  0.00    -0.000 C 
BRANCH   9  10
ATOM     10  C   UNL     1     141.684 128.388 119.304  1.00  0.00    -0.000 C 
BRANCH  10  11
ATOM     11  C   UNL     1     142.602 129.619 119.334  1.00  0.00    -0.003 C 
ATOM     12  C   UNL     1     144.069 129.267 119.095  1.00  0.00     0.004 C 
ENDBRANCH  10  11
ENDBRANCH   9  10
ENDBRANCH   8   9
ENDBRANCH   7   8
ENDBRANCH   6   7
ENDBRANCH   5   6
ENDBRANCH   4   5
ENDBRANCH   3   4
ENDBRANCH   2   3
ENDBRANCH   1   2
BRANCH   1  13
ATOM     13  C   UNL     1     141.054 129.882 114.289  1.00  0.00     0.000 C 
BRANCH  13  14
ATOM     14  C   UNL     1     141.862 129.244 115.430  1.00  0.00     0.000 C 
BRANCH  14  15
ATOM     15  C   UNL     1     142.356 127.826 115.091  1.00  0.00     0.000 C 
BRANCH  15  16
ATOM     16  C   UNL     1     143.244 127.225 116.195  1.00  0.00     0.000 C 
BRANCH  16  17
ATOM     17  C   UNL     1     144.754 127.226 115.893  1.00  0.00     0.000 C 
BRANCH  17  18
ATOM     18  C   UNL     1     145.074 127.633 114.445  1.00  0.00     0.000 C 
BRANCH  18  19
ATOM     19  C   UNL     1     145.603 129.073 114.341  1.00  0.00     0.000 C 
BRANCH  19  20
ATOM     20  C   UNL     1     145.734 129.759 115.711  1.00  0.00     0.006 C 
BRANCH  20  21
ATOM     21  C   UNL     1     145.030 131.122 115.745  1.00  0.00     0.053 C 
BRANCH  21  22
ATOM     22  C   UNL     1     145.750 132.094 116.629  1.00  0.00     0.041 C 
ATOM     23  O   UNL     1     146.762 132.710 116.205  1.00  0.00    -0.550 OA
ATOM     24  O   UNL     1     145.280 132.343 117.913  1.00  0.00    -0.550 OA
ENDBRANCH  21  22
ENDBRANCH  20  21
ENDBRANCH  19  20
ENDBRANCH  18  19
ENDBRANCH  17  18
ENDBRANCH  16  17
ENDBRANCH  15  16
ENDBRANCH  14  15
ENDBRANCH  13  14
ENDBRANCH   1  13
TORSDOF 20
ENDMDL
MODEL 2
REMARK VINA RESULT:    -3.808      2.245      4.414
REMARK INTER + INTRA:         -11.901
REMARK INTER:                  -8.618
REMARK INTRA:                  -3.283
REMARK UNBOUND:                -3.642
REMARK SMILES CCCCCCCCCCCCCCCCCCCCCC(=O)[O-]
REMARK SMILES IDX 12 1 11 2 10 3 9 4 8 5 7 6 6 7 5 8 4 9 3 10 2 11 1 12 13 13
REMARK SMILES IDX 14 14 15 15 16 16 17 17 18 18 19 19 20 20 21 21 22 22 23 23
REMARK SMILES IDX 24 24
REMARK H PARENT
REMARK Flexibility Score: inf
ROOT
ATOM      1  C   UNL     1     141.720 129.656 116.519  1.00  0.00     0.000 C 
ENDROOT
BRANCH   1   2
ATOM      2  C   UNL     1     141.343 130.669 115.422  1.00  0.00     0.000 C 
BRANCH   2   3
ATOM      3  C   UNL     1     141.260 130.092 113.996  1.00  0.00     0.000 C 
BRANCH   3   4
ATOM      4  C   UNL     1     139.911 130.376 113.312  1.00  0.00    -0.000 C 
BRANCH   4   5
ATOM      5  C   UNL     1     138.755 129.568 113.925  1.00  0.00    -0.000 C 
BRANCH   5   6
ATOM      6  C   UNL     1     138.899 128.056 113.685  1.00  0.00    -0.000 C 
BRANCH   6   7
ATOM      7  C   UNL     1     137.832 127.274 114.459  1.00  0.00    -0.000 C 
BRANCH   7   8
ATOM      8  C   UNL     1     138.150 127.249 115.959  1.00  0.00    -0.000 C 
BRANCH   8   9
ATOM      9  C   UNL     1     136.865 127.246 116.796  1.00  0.00    -0.000 C 
BRANCH   9  10
ATOM     10  C   UNL     1     135.624 127.325 115.897  1.00  0.00    -0.000 C 
BRANCH  10  11
ATOM     11  C   UNL     1     134.752 128.552 116.200  1.00  0.00    -0.003 C 
ATOM     12  C   UNL     1     135.492 129.871 115.980  1.00  0.00     0.004 C 
ENDBRANCH  10  11
ENDBRANCH   9  10
ENDBRANCH   8   9
ENDBRANCH   7   8
ENDBRANCH   6   7
ENDBRANCH   5   6
ENDBRANCH   4   5
ENDBRANCH   3   4
ENDBRANCH   2   3
ENDBRANCH   1   2
BRANCH   1  13
ATOM     13  C   UNL     1     141.590 128.194 116.058  1.00  0.00     0.000 C 
BRANCH  13  14
ATOM     14  C   UNL     1     142.919 127.429 116.146  1.00  0.00     0.000 C 
BRANCH  14  15
ATOM     15  C   UNL     1     143.628 127.304 114.786  1.00  0.00     0.000 C 
BRANCH  15  16
ATOM     16  C   UNL     1     145.017 127.967 114.775  1.00  0.00     0.000 C 
BRANCH  16  17
ATOM     17  C   UNL     1     145.022 129.467 114.429  1.00  0.00     0.000 C 
BRANCH  17  18
ATOM     18  C   UNL     1     145.217 130.366 115.662  1.00  0.00     0.000 C 
BRANCH  18  19
ATOM     19  C   UNL     1     146.023 129.674 116.773  1.00  0.00     0.000 C 
BRANCH  19  20
ATOM     20  C   UNL     1     145.265 129.615 118.110  1.00  0.00     0.006 C 
BRANCH  20  21
ATOM     21  C   UNL     1     145.296 128.212 118.731  1.00  0.00     0.053 C 
BRANCH  21  22
ATOM     22  C   UNL     1     145.550 128.265 120.206  1.00  0.00     0.041 C 
ATOM     23  O   UNL     1     144.598 128.448 121.009  1.00  0.00    -0.550 OA
ATOM     24  O   UNL     1     146.837 128.078 120.696  1.00  0.00    -0.550 OA
ENDBRANCH  21  22
ENDBRANCH  20  21
ENDBRANCH  19  20
ENDBRANCH  18  19
ENDBRANCH  17  18
ENDBRANCH  16  17
ENDBRANCH  15  16
ENDBRANCH  14  15
ENDBRANCH  13  14
ENDBRANCH   1  13
TORSDOF 20
ENDMDL
MODEL 3
REMARK VINA RESULT:    -3.694      2.122      3.882
REMARK INTER + INTRA:         -11.655
REMARK INTER:                  -8.313
REMARK INTRA:                  -3.341
REMARK UNBOUND:                -3.642
REMARK SMILES CCCCCCCCCCCCCCCCCCCCCC(=O)[O-]
REMARK SMILES IDX 12 1 11 2 10 3 9 4 8 5 7 6 6 7 5 8 4 9 3 10 2 11 1 12 13 13
REMARK SMILES IDX 14 14 15 15 16 16 17 17 18 18 19 19 20 20 21 21 22 22 23 23
REMARK SMILES IDX 24 24
REMARK H PARENT
REMARK Flexibility Score: inf
ROOT
ATOM      1  C   UNL     1     140.308 127.953 117.850  1.00  0.00     0.000 C 
ENDROOT
BRANCH   1   2
ATOM      2  C   UNL     1     139.558 126.943 116.962  1.00  0.00     0.000 C 
BRANCH   2   3
ATOM      3  C   UNL     1     138.087 127.291 116.668  1.00  0.00     0.000 C 
BRANCH   3   4
ATOM      4  C   UNL     1     137.780 127.380 115.162  1.00  0.00    -0.000 C 
BRANCH   4   5
ATOM      5  C   UNL     1     139.019 127.746 114.328  1.00  0.00    -0.000 C 
BRANCH   5   6
ATOM      6  C   UNL     1     138.683 128.673 113.148  1.00  0.00    -0.000 C 
BRANCH   6   7
ATOM      7  C   UNL     1     139.280 130.069 113.360  1.00  0.00    -0.000 C 
BRANCH   7   8
ATOM      8  C   UNL     1     140.648 129.983 114.050  1.00  0.00    -0.000 C 
BRANCH   8   9
ATOM      9  C   UNL     1     140.828 131.117 115.066  1.00  0.00    -0.000 C 
BRANCH   9  10
ATOM     10  C   UNL     1     142.311 131.321 115.403  1.00  0.00    -0.000 C 
BRANCH  10  11
ATOM     11  C   UNL     1     142.566 132.623 116.178  1.00  0.00    -0.003 C 
ATOM     12  C   UNL     1     144.019 132.764 116.631  1.00  0.00     0.004 C 
ENDBRANCH  10  11
ENDBRANCH   9  10
ENDBRANCH   8   9
ENDBRANCH   7   8
ENDBRANCH   6   7
ENDBRANCH   5   6
ENDBRANCH   4   5
ENDBRANCH   3   4
ENDBRANCH   2   3
ENDBRANCH   1   2
BRANCH   1  13
ATOM     13  C   UNL     1     141.666 128.376 117.265  1.00  0.00     0.000 C 
BRANCH  13  14
ATOM     14  C   UNL     1     142.435 127.196 116.651  1.00  0.00     0.000 C 
BRANCH  14  15
ATOM     15  C   UNL     1     142.667 127.355 115.138  1.00  0.00     0.000 C 
BRANCH  15  16
ATOM     16  C   UNL     1     143.946 128.145 114.810  1.00  0.00     0.000 C 
BRANCH  16  17
ATOM     17  C   UNL     1     145.263 127.390 115.067  1.00  0.00     0.000 C 
BRANCH  17  18
ATOM     18  C   UNL     1     146.021 127.909 116.301  1.00  0.00     0.000 C 
BRANCH  18  19
ATOM     19  C   UNL     1     145.600 129.334 116.694  1.00  0.00     0.000 C 
BRANCH  19  20
ATOM     20  C   UNL     1     145.428 129.506 118.212  1.00  0.00     0.006 C 
BRANCH  20  21
ATOM     21  C   UNL     1     145.142 128.173 118.917  1.00  0.00     0.053 C 
BRANCH  21  22
ATOM     22  C   UNL     1     145.515 128.222 120.367  1.00  0.00     0.041 C 
ATOM     23  O   UNL     1     144.638 128.453 121.240  1.00  0.00    -0.550 OA
ATOM     24  O   UNL     1     146.826 127.979 120.755  1.00  0.00    -0.550 OA
ENDBRANCH  21  22
ENDBRANCH  20  21
ENDBRANCH  19  20
ENDBRANCH  18  19
ENDBRANCH  17  18
ENDBRANCH  16  17
ENDBRANCH  15  16
ENDBRANCH  14  15
ENDBRANCH  13  14
ENDBRANCH   1  13
TORSDOF 20
ENDMDL
MODEL 4
REMARK VINA RESULT:    -3.656      2.494      6.866
REMARK INTER + INTRA:         -11.572
REMARK INTER:                  -8.804
REMARK INTRA:                  -2.768
REMARK UNBOUND:                -3.642
REMARK SMILES CCCCCCCCCCCCCCCCCCCCCC(=O)[O-]
REMARK SMILES IDX 12 1 11 2 10 3 9 4 8 5 7 6 6 7 5 8 4 9 3 10 2 11 1 12 13 13
REMARK SMILES IDX 14 14 15 15 16 16 17 17 18 18 19 19 20 20 21 21 22 22 23 23
REMARK SMILES IDX 24 24
REMARK H PARENT
REMARK Flexibility Score: inf
ROOT
ATOM      1  C   UNL     1     142.126 128.617 115.526  1.00  0.00     0.000 C 
ENDROOT
BRANCH   1   2
ATOM      2  C   UNL     1     142.882 127.415 114.931  1.00  0.00     0.000 C 
BRANCH   2   3
ATOM      3  C   UNL     1     144.360 127.296 115.349  1.00  0.00     0.000 C 
BRANCH   3   4
ATOM      4  C   UNL     1     145.326 127.900 114.315  1.00  0.00    -0.000 C 
BRANCH   4   5
ATOM      5  C   UNL     1     145.659 129.373 114.607  1.00  0.00    -0.000 C 
BRANCH   5   6
ATOM      6  C   UNL     1     146.064 129.607 116.072  1.00  0.00    -0.000 C 
BRANCH   6   7
ATOM      7  C   UNL     1     145.185 130.684 116.718  1.00  0.00    -0.000 C 
BRANCH   7   8
ATOM      8  C   UNL     1     145.048 131.905 115.800  1.00  0.00    -0.000 C 
BRANCH   8   9
ATOM      9  C   UNL     1     146.319 132.763 115.826  1.00  0.00    -0.000 C 
BRANCH   9  10
ATOM     10  C   UNL     1     145.973 134.258 115.783  1.00  0.00    -0.000 C 
BRANCH  10  11
ATOM     11  C   UNL     1     146.433 134.932 114.481  1.00  0.00    -0.003 C 
ATOM     12  C   UNL     1     145.353 135.820 113.863  1.00  0.00     0.004 C 
ENDBRANCH  10  11
ENDBRANCH   9  10
ENDBRANCH   8   9
ENDBRANCH   7   8
ENDBRANCH   6   7
ENDBRANCH   5   6
ENDBRANCH   4   5
ENDBRANCH   3   4
ENDBRANCH   2   3
ENDBRANCH   1   2
BRANCH   1  13
ATOM     13  C   UNL     1     141.993 129.791 114.541  1.00  0.00     0.000 C 
BRANCH  13  14
ATOM     14  C   UNL     1     140.683 130.573 114.730  1.00  0.00     0.000 C 
BRANCH  14  15
ATOM     15  C   UNL     1     139.778 130.532 113.486  1.00  0.00     0.000 C 
BRANCH  15  16
ATOM     16  C   UNL     1     138.548 129.626 113.672  1.00  0.00     0.000 C 
BRANCH  16  17
ATOM     17  C   UNL     1     138.715 128.185 113.158  1.00  0.00     0.000 C 
BRANCH  17  18
ATOM     18  C   UNL     1     138.881 127.159 114.292  1.00  0.00     0.000 C 
BRANCH  18  19
ATOM     19  C   UNL     1     137.835 127.337 115.405  1.00  0.00     0.000 C 
BRANCH  19  20
ATOM     20  C   UNL     1     138.434 127.187 116.814  1.00  0.00     0.006 C 
BRANCH  20  21
ATOM     21  C   UNL     1     138.926 128.526 117.379  1.00  0.00     0.053 C 
BRANCH  21  22
ATOM     22  C   UNL     1     139.583 128.354 118.714  1.00  0.00     0.041 C 
ATOM     23  O   UNL     1     138.895 128.068 119.729  1.00  0.00    -0.550 OA
ATOM     24  O   UNL     1     140.962 128.478 118.830  1.00  0.00    -0.550 OA
ENDBRANCH  21  22
ENDBRANCH  20  21
ENDBRANCH  19  20
ENDBRANCH  18  19
ENDBRANCH  17  18
ENDBRANCH  16  17
ENDBRANCH  15  16
ENDBRANCH  14  15
ENDBRANCH  13  14
ENDBRANCH   1  13
TORSDOF 20
ENDMDL
MODEL 5
REMARK VINA RESULT:    -3.639      2.183      5.812
REMARK INTER + INTRA:         -11.536
REMARK INTER:                  -7.795
REMARK INTRA:                  -3.741
REMARK UNBOUND:                -3.642
REMARK SMILES CCCCCCCCCCCCCCCCCCCCCC(=O)[O-]
REMARK SMILES IDX 12 1 11 2 10 3 9 4 8 5 7 6 6 7 5 8 4 9 3 10 2 11 1 12 13 13
REMARK SMILES IDX 14 14 15 15 16 16 17 17 18 18 19 19 20 20 21 21 22 22 23 23
REMARK SMILES IDX 24 24
REMARK H PARENT
REMARK Flexibility Score: inf
ROOT
ATOM      1  C   UNL     1     140.720 130.462 114.646  1.00  0.00     0.000 C 
ENDROOT
BRANCH   1   2
ATOM      2  C   UNL     1     142.033 129.658 114.676  1.00  0.00     0.000 C 
BRANCH   2   3
ATOM      3  C   UNL     1     141.992 128.363 115.509  1.00  0.00     0.000 C 
BRANCH   3   4
ATOM      4  C   UNL     1     142.935 127.273 114.970  1.00  0.00    -0.000 C 
BRANCH   4   5
ATOM      5  C   UNL     1     144.328 127.323 115.620  1.00  0.00    -0.000 C 
BRANCH   5   6
ATOM      6  C   UNL     1     145.442 127.626 114.605  1.00  0.00    -0.000 C 
BRANCH   6   7
ATOM      7  C   UNL     1     145.497 129.124 114.283  1.00  0.00    -0.000 C 
BRANCH   7   8
ATOM      8  C   UNL     1     146.064 129.920 115.464  1.00  0.00    -0.000 C 
BRANCH   8   9
ATOM      9  C   UNL     1     145.162 131.109 115.815  1.00  0.00    -0.000 C 
BRANCH   9  10
ATOM     10  C   UNL     1     145.005 131.248 117.336  1.00  0.00    -0.000 C 
BRANCH  10  11
ATOM     11  C   UNL     1     143.998 130.247 117.920  1.00  0.00    -0.003 C 
ATOM     12  C   UNL     1     144.651 129.231 118.857  1.00  0.00     0.004 C 
ENDBRANCH  10  11
ENDBRANCH   9  10
ENDBRANCH   8   9
ENDBRANCH   7   8
ENDBRANCH   6   7
ENDBRANCH   5   6
ENDBRANCH   4   5
ENDBRANCH   3   4
ENDBRANCH   2   3
ENDBRANCH   1   2
BRANCH   1  13
ATOM     13  C   UNL     1     139.962 130.325 113.314  1.00  0.00     0.000 C 
BRANCH  13  14
ATOM     14  C   UNL     1     138.630 129.573 113.469  1.00  0.00     0.000 C 
BRANCH  14  15
ATOM     15  C   UNL     1     138.773 128.056 113.255  1.00  0.00     0.000 C 
BRANCH  15  16
ATOM     16  C   UNL     1     138.586 127.250 114.553  1.00  0.00     0.000 C 
BRANCH  16  17
ATOM     17  C   UNL     1     137.443 127.735 115.464  1.00  0.00     0.000 C 
BRANCH  17  18
ATOM     18  C   UNL     1     137.607 127.282 116.924  1.00  0.00     0.000 C 
BRANCH  18  19
ATOM     19  C   UNL     1     138.928 127.763 117.545  1.00  0.00     0.000 C 
BRANCH  19  20
ATOM     20  C   UNL     1     138.982 129.290 117.719  1.00  0.00     0.006 C 
BRANCH  20  21
ATOM     21  C   UNL     1     140.277 129.749 118.404  1.00  0.00     0.053 C 
BRANCH  21  22
ATOM     22  C   UNL     1     140.355 129.265 119.820  1.00  0.00     0.041 C 
ATOM     23  O   UNL     1     139.399 129.467 120.613  1.00  0.00    -0.550 OA
ATOM     24  O   UNL     1     141.472 128.561 120.252  1.00  0.00    -0.550 OA
ENDBRANCH  21  22
ENDBRANCH  20  21
ENDBRANCH  19  20
ENDBRANCH  18  19
ENDBRANCH  17  18
ENDBRANCH  16  17
ENDBRANCH  15  16
ENDBRANCH  14  15
ENDBRANCH  13  14
ENDBRANCH   1  13
TORSDOF 20
ENDMDL
MODEL 6
REMARK VINA RESULT:    -3.577     10.044     13.041
REMARK INTER + INTRA:         -11.400
REMARK INTER:                  -7.803
REMARK INTRA:                  -3.597
REMARK UNBOUND:                -3.642
REMARK SMILES CCCCCCCCCCCCCCCCCCCCCC(=O)[O-]
REMARK SMILES IDX 12 1 11 2 10 3 9 4 8 5 7 6 6 7 5 8 4 9 3 10 2 11 1 12 13 13
REMARK SMILES IDX 14 14 15 15 16 16 17 17 18 18 19 19 20 20 21 21 22 22 23 23
REMARK SMILES IDX 24 24
REMARK H PARENT
REMARK Flexibility Score: inf
ROOT
ATOM      1  C   UNL     1     133.042 127.245 118.552  1.00  0.00     0.000 C 
ENDROOT
BRANCH   1   2
ATOM      2  C   UNL     1     131.748 127.070 119.368  1.00  0.00     0.000 C 
BRANCH   2   3
ATOM      3  C   UNL     1     130.454 126.984 118.538  1.00  0.00     0.000 C 
BRANCH   3   4
ATOM      4  C   UNL     1     129.412 128.044 118.939  1.00  0.00    -0.000 C 
BRANCH   4   5
ATOM      5  C   UNL     1     130.031 129.213 119.724  1.00  0.00    -0.000 C 
BRANCH   5   6
ATOM      6  C   UNL     1     128.997 130.288 120.094  1.00  0.00    -0.000 C 
BRANCH   6   7
ATOM      7  C   UNL     1     127.648 129.652 120.449  1.00  0.00    -0.000 C 
BRANCH   7   8
ATOM      8  C   UNL     1     127.445 129.608 121.969  1.00  0.00    -0.000 C 
BRANCH   8   9
ATOM      9  C   UNL     1     128.519 130.426 122.695  1.00  0.00    -0.000 C 
BRANCH   9  10
ATOM     10  C   UNL     1     129.181 129.598 123.806  1.00  0.00    -0.000 C 
BRANCH  10  11
ATOM     11  C   UNL     1     130.625 129.199 123.464  1.00  0.00    -0.003 C 
ATOM     12  C   UNL     1     130.739 127.753 122.985  1.00  0.00     0.004 C 
ENDBRANCH  10  11
ENDBRANCH   9  10
ENDBRANCH   8   9
ENDBRANCH   7   8
ENDBRANCH   6   7
ENDBRANCH   5   6
ENDBRANCH   4   5
ENDBRANCH   3   4
ENDBRANCH   2   3
ENDBRANCH   1   2
BRANCH   1  13
ATOM     13  C   UNL     1     132.973 128.419 117.560  1.00  0.00     0.000 C 
BRANCH  13  14
ATOM     14  C   UNL     1     133.654 128.098 116.220  1.00  0.00     0.000 C 
BRANCH  14  15
ATOM     15  C   UNL     1     132.883 127.055 115.392  1.00  0.00     0.000 C 
BRANCH  15  16
ATOM     16  C   UNL     1     131.799 127.684 114.500  1.00  0.00     0.000 C 
BRANCH  16  17
ATOM     17  C   UNL     1     130.359 127.233 114.805  1.00  0.00     0.000 C 
BRANCH  17  18
ATOM     18  C   UNL     1     129.459 128.384 115.286  1.00  0.00     0.000 C 
BRANCH  18  19
ATOM     19  C   UNL     1     130.107 129.763 115.081  1.00  0.00     0.000 C 
BRANCH  19  20
ATOM     20  C   UNL     1     130.205 130.574 116.384  1.00  0.00     0.006 C 
BRANCH  20  21
ATOM     21  C   UNL     1     129.693 132.011 116.211  1.00  0.00     0.053 C 
BRANCH  21  22
ATOM     22  C   UNL     1     128.216 132.103 116.443  1.00  0.00     0.041 C 
ATOM     23  O   UNL     1     127.595 133.162 116.167  1.00  0.00    -0.550 OA
ATOM     24  O   UNL     1     127.520 131.004 116.932  1.00  0.00    -0.550 OA
ENDBRANCH  21  22
ENDBRANCH  20  21
ENDBRANCH  19  20
ENDBRANCH  18  19
ENDBRANCH  17  18
ENDBRANCH  16  17
ENDBRANCH  15  16
ENDBRANCH  14  15
ENDBRANCH  13  14
ENDBRANCH   1  13
TORSDOF 20
ENDMDL
MODEL 7
REMARK VINA RESULT:    -3.545      3.594      7.093
REMARK INTER + INTRA:         -11.332
REMARK INTER:                  -8.104
REMARK INTRA:                  -3.228
REMARK UNBOUND:                -3.642
REMARK SMILES CCCCCCCCCCCCCCCCCCCCCC(=O)[O-]
REMARK SMILES IDX 12 1 11 2 10 3 9 4 8 5 7 6 6 7 5 8 4 9 3 10 2 11 1 12 13 13
REMARK SMILES IDX 14 14 15 15 16 16 17 17 18 18 19 19 20 20 21 21 22 22 23 23
REMARK SMILES IDX 24 24
REMARK H PARENT
REMARK Flexibility Score: inf
ROOT
ATOM      1  C   UNL     1     142.034 128.463 115.651  1.00  0.00     0.000 C 
ENDROOT
BRANCH   1   2
ATOM      2  C   UNL     1     142.861 127.276 115.124  1.00  0.00     0.000 C 
BRANCH   2   3
ATOM      3  C   UNL     1     144.356 127.299 115.497  1.00  0.00     0.000 C 
BRANCH   3   4
ATOM      4  C   UNL     1     145.263 127.685 114.316  1.00  0.00    -0.000 C 
BRANCH   4   5
ATOM      5  C   UNL     1     145.563 129.193 114.269  1.00  0.00    -0.000 C 
BRANCH   5   6
ATOM      6  C   UNL     1     145.977 129.755 115.639  1.00  0.00    -0.000 C 
BRANCH   6   7
ATOM      7  C   UNL     1     145.088 130.939 116.036  1.00  0.00    -0.000 C 
BRANCH   7   8
ATOM      8  C   UNL     1     144.390 130.677 117.376  1.00  0.00    -0.000 C 
BRANCH   8   9
ATOM      9  C   UNL     1     145.281 129.852 118.312  1.00  0.00    -0.000 C 
BRANCH   9  10
ATOM     10  C   UNL     1     144.526 128.627 118.848  1.00  0.00    -0.000 C 
BRANCH  10  11
ATOM     11  C   UNL     1     143.088 128.959 119.274  1.00  0.00    -0.003 C 
ATOM     12  C   UNL     1     143.009 129.524 120.692  1.00  0.00     0.004 C 
ENDBRANCH  10  11
ENDBRANCH   9  10
ENDBRANCH   8   9
ENDBRANCH   7   8
ENDBRANCH   6   7
ENDBRANCH   5   6
ENDBRANCH   4   5
ENDBRANCH   3   4
ENDBRANCH   2   3
ENDBRANCH   1   2
BRANCH   1  13
ATOM     13  C   UNL     1     141.940 129.623 114.645  1.00  0.00     0.000 C 
BRANCH  13  14
ATOM     14  C   UNL     1     140.700 130.502 114.875  1.00  0.00     0.000 C 
BRANCH  14  15
ATOM     15  C   UNL     1     139.804 130.607 113.628  1.00  0.00     0.000 C 
BRANCH  15  16
ATOM     16  C   UNL     1     138.555 129.710 113.713  1.00  0.00     0.000 C 
BRANCH  16  17
ATOM     17  C   UNL     1     138.715 128.309 113.095  1.00  0.00     0.000 C 
BRANCH  17  18
ATOM     18  C   UNL     1     138.780 127.192 114.150  1.00  0.00     0.000 C 
BRANCH  18  19
ATOM     19  C   UNL     1     138.230 127.639 115.515  1.00  0.00     0.000 C 
BRANCH  19  20
ATOM     20  C   UNL     1     136.774 127.202 115.742  1.00  0.00     0.006 C 
BRANCH  20  21
ATOM     21  C   UNL     1     135.829 128.400 115.906  1.00  0.00     0.053 C 
BRANCH  21  22
ATOM     22  C   UNL     1     134.903 128.220 117.070  1.00  0.00     0.041 C 
ATOM     23  O   UNL     1     135.362 127.941 118.208  1.00  0.00    -0.550 OA
ATOM     24  O   UNL     1     133.536 128.393 116.902  1.00  0.00    -0.550 OA
ENDBRANCH  21  22
ENDBRANCH  20  21
ENDBRANCH  19  20
ENDBRANCH  18  19
ENDBRANCH  17  18
ENDBRANCH  16  17
ENDBRANCH  15  16
ENDBRANCH  14  15
ENDBRANCH  13  14
ENDBRANCH   1  13
TORSDOF 20
ENDMDL
MODEL 8
REMARK VINA RESULT:    -3.540      2.307      5.075
REMARK INTER + INTRA:         -11.320
REMARK INTER:                  -7.608
REMARK INTRA:                  -3.712
REMARK UNBOUND:                -3.642
REMARK SMILES CCCCCCCCCCCCCCCCCCCCCC(=O)[O-]
REMARK SMILES IDX 12 1 11 2 10 3 9 4 8 5 7 6 6 7 5 8 4 9 3 10 2 11 1 12 13 13
REMARK SMILES IDX 14 14 15 15 16 16 17 17 18 18 19 19 20 20 21 21 22 22 23 23
REMARK SMILES IDX 24 24
REMARK H PARENT
REMARK Flexibility Score: inf
ROOT
ATOM      1  C   UNL     1     144.797 131.031 117.172  1.00  0.00     0.000 C 
ENDROOT
BRANCH   1   2
ATOM      2  C   UNL     1     143.278 131.162 116.956  1.00  0.00     0.000 C 
BRANCH   2   3
ATOM      3  C   UNL     1     142.842 131.443 115.505  1.00  0.00     0.000 C 
BRANCH   3   4
ATOM      4  C   UNL     1     141.684 130.542 115.042  1.00  0.00    -0.000 C 
BRANCH   4   5
ATOM      5  C   UNL     1     141.675 129.178 115.752  1.00  0.00    -0.000 C 
BRANCH   5   6
ATOM      6  C   UNL     1     141.599 128.000 114.768  1.00  0.00    -0.000 C 
BRANCH   6   7
ATOM      7  C   UNL     1     140.719 126.875 115.326  1.00  0.00    -0.000 C 
BRANCH   7   8
ATOM      8  C   UNL     1     139.938 127.349 116.558  1.00  0.00    -0.000 C 
BRANCH   8   9
ATOM      9  C   UNL     1     138.426 127.220 116.337  1.00  0.00    -0.000 C 
BRANCH   9  10
ATOM     10  C   UNL     1     138.045 127.617 114.904  1.00  0.00    -0.000 C 
BRANCH  10  11
ATOM     11  C   UNL     1     137.757 129.119 114.764  1.00  0.00    -0.003 C 
ATOM     12  C   UNL     1     136.990 129.686 115.959  1.00  0.00     0.004 C 
ENDBRANCH  10  11
ENDBRANCH   9  10
ENDBRANCH   8   9
ENDBRANCH   7   8
ENDBRANCH   6   7
ENDBRANCH   5   6
ENDBRANCH   4   5
ENDBRANCH   3   4
ENDBRANCH   2   3
ENDBRANCH   1   2
BRANCH   1  13
ATOM     13  C   UNL     1     145.598 131.088 115.861  1.00  0.00     0.000 C 
BRANCH  13  14
ATOM     14  C   UNL     1     146.274 129.750 115.525  1.00  0.00     0.000 C 
BRANCH  14  15
ATOM     15  C   UNL     1     145.402 128.846 114.637  1.00  0.00     0.000 C 
BRANCH  15  16
ATOM     16  C   UNL     1     145.003 127.532 115.332  1.00  0.00     0.000 C 
BRANCH  16  17
ATOM     17  C   UNL     1     146.005 127.019 116.383  1.00  0.00     0.000 C 
BRANCH  17  18
ATOM     18  C   UNL     1     145.386 126.882 117.784  1.00  0.00     0.000 C 
BRANCH  18  19
ATOM     19  C   UNL     1     143.849 126.889 117.753  1.00  0.00     0.000 C 
BRANCH  19  20
ATOM     20  C   UNL     1     143.239 127.932 118.703  1.00  0.00     0.006 C 
BRANCH  20  21
ATOM     21  C   UNL     1     142.380 127.285 119.798  1.00  0.00     0.053 C 
BRANCH  21  22
ATOM     22  C   UNL     1     142.501 128.016 121.100  1.00  0.00     0.041 C 
ATOM     23  O   UNL     1     143.625 128.414 121.503  1.00  0.00    -0.550 OA
ATOM     24  O   UNL     1     141.365 128.288 121.852  1.00  0.00    -0.550 OA
ENDBRANCH  21  22
ENDBRANCH  20  21
ENDBRANCH  19  20
ENDBRANCH  18  19
ENDBRANCH  17  18
ENDBRANCH  16  17
ENDBRANCH  15  16
ENDBRANCH  14  15
ENDBRANCH  13  14
ENDBRANCH   1  13
TORSDOF 20
ENDMDL
MODEL 9
REMARK VINA RESULT:    -3.510      1.541      3.274
REMARK INTER + INTRA:         -11.255
REMARK INTER:                  -7.706
REMARK INTRA:                  -3.549
REMARK UNBOUND:                -3.642
REMARK SMILES CCCCCCCCCCCCCCCCCCCCCC(=O)[O-]
REMARK SMILES IDX 12 1 11 2 10 3 9 4 8 5 7 6 6 7 5 8 4 9 3 10 2 11 1 12 13 13
REMARK SMILES IDX 14 14 15 15 16 16 17 17 18 18 19 19 20 20 21 21 22 22 23 23
REMARK SMILES IDX 24 24
REMARK H PARENT
REMARK Flexibility Score: inf
ROOT
ATOM      1  C   UNL     1     141.583 128.804 116.771  1.00  0.00     0.000 C 
ENDROOT
BRANCH   1   2
ATOM      2  C   UNL     1     141.424 130.044 115.872  1.00  0.00     0.000 C 
BRANCH   2   3
ATOM      3  C   UNL     1     141.602 129.789 114.363  1.00  0.00     0.000 C 
BRANCH   3   4
ATOM      4  C   UNL     1     140.437 130.338 113.520  1.00  0.00    -0.000 C 
BRANCH   4   5
ATOM      5  C   UNL     1     139.078 129.752 113.939  1.00  0.00    -0.000 C 
BRANCH   5   6
ATOM      6  C   UNL     1     138.863 128.324 113.412  1.00  0.00    -0.000 C 
BRANCH   6   7
ATOM      7  C   UNL     1     138.908 127.305 114.556  1.00  0.00    -0.000 C 
BRANCH   7   8
ATOM      8  C   UNL     1     137.588 127.298 115.338  1.00  0.00    -0.000 C 
BRANCH   8   9
ATOM      9  C   UNL     1     137.840 127.318 116.850  1.00  0.00    -0.000 C 
BRANCH   9  10
ATOM     10  C   UNL     1     137.878 128.758 117.381  1.00  0.00    -0.000 C 
BRANCH  10  11
ATOM     11  C   UNL     1     138.572 128.865 118.747  1.00  0.00    -0.003 C 
ATOM     12  C   UNL     1     139.242 127.558 119.172  1.00  0.00     0.004 C 
ENDBRANCH  10  11
ENDBRANCH   9  10
ENDBRANCH   8   9
ENDBRANCH   7   8
ENDBRANCH   6   7
ENDBRANCH   5   6
ENDBRANCH   4   5
ENDBRANCH   3   4
ENDBRANCH   2   3
ENDBRANCH   1   2
BRANCH   1  13
ATOM     13  C   UNL     1     142.401 127.682 116.108  1.00  0.00     0.000 C 
BRANCH  13  14
ATOM     14  C   UNL     1     143.625 127.274 116.942  1.00  0.00     0.000 C 
BRANCH  14  15
ATOM     15  C   UNL     1     144.929 127.266 116.125  1.00  0.00     0.000 C 
BRANCH  15  16
ATOM     16  C   UNL     1     144.723 127.723 114.670  1.00  0.00     0.000 C 
BRANCH  16  17
ATOM     17  C   UNL     1     145.256 129.131 114.347  1.00  0.00     0.000 C 
BRANCH  17  18
ATOM     18  C   UNL     1     145.980 129.786 115.536  1.00  0.00     0.000 C 
BRANCH  18  19
ATOM     19  C   UNL     1     145.565 131.251 115.743  1.00  0.00     0.000 C 
BRANCH  19  20
ATOM     20  C   UNL     1     144.531 131.424 116.868  1.00  0.00     0.006 C 
BRANCH  20  21
ATOM     21  C   UNL     1     144.289 132.901 117.210  1.00  0.00     0.053 C 
BRANCH  21  22
ATOM     22  C   UNL     1     143.740 133.657 116.039  1.00  0.00     0.041 C 
ATOM     23  O   UNL     1     144.417 134.570 115.498  1.00  0.00    -0.550 OA
ATOM     24  O   UNL     1     142.492 133.328 115.524  1.00  0.00    -0.550 OA
ENDBRANCH  21  22
ENDBRANCH  20  21
ENDBRANCH  19  20
ENDBRANCH  18  19
ENDBRANCH  17  18
ENDBRANCH  16  17
ENDBRANCH  15  16
ENDBRANCH  14  15
ENDBRANCH  13  14
ENDBRANCH   1  13
TORSDOF 20
ENDMDL
