MODEL 1
REMARK VINA RESULT:    -4.126      0.000      0.000
REMARK INTER + INTRA:          -3.666
REMARK INTER:                  -4.488
REMARK INTRA:                   0.821
REMARK UNBOUND:                 0.821
REMARK SMILES C[C@@H]1[C@H](C)CC[C@]2(C(=O)[O-])CC[C@@]3(C)C(=CC[C@@H]4[C@]5(C)CC[C@H](O)C(C)(C)[C@@H]5CC[C@]43C)[C@@H]12
REMARK SMILES IDX 7 1 6 2 11 3 33 4 5 5 12 6 15 7 2 8 3 9 13 10 16 11 1 12
REMARK SMILES IDX 4 13 14 14 31 15 17 16 18 17 30 18 32 19 19 20 29 21 28 22
REMARK SMILES IDX 21 23 20 24 25 25 22 26 23 27 26 28 27 29 8 30 9 31 10 32
REMARK SMILES IDX 24 33
REMARK H PARENT 24 34
REMARK Flexibility Score: inf
ROOT
ATOM      1  C   UNL     1       5.929  -9.278   7.016  1.00  0.00     0.017 C 
ATOM      2  C   UNL     1       4.796 -10.079   7.718  1.00  0.00     0.014 C 
ATOM      3  C   UNL     1       7.306  -9.537   7.740  1.00  0.00     0.014 C 
ATOM      4  C   UNL     1       5.632  -7.740   7.074  1.00  0.00     0.030 C 
ATOM      5  C   UNL     1       3.396  -9.631   7.223  1.00  0.00     0.004 C 
ATOM      6  C   UNL     1       8.167  -8.253   8.034  1.00  0.00     0.013 C 
ATOM      7  C   UNL     1       6.773  -7.009   6.337  1.00  0.00    -0.063 C 
ATOM      8  C   UNL     1       4.159  -7.255   6.832  1.00  0.00    -0.003 C 
ATOM      9  C   UNL     1       3.127  -8.163   7.582  1.00  0.00    -0.011 C 
ATOM     10  C   UNL     1       8.203  -7.265   6.805  1.00  0.00    -0.006 C 
ATOM     11  C   UNL     1       6.600  -6.232   5.238  1.00  0.00    -0.027 C 
ATOM     12  C   UNL     1       3.966  -5.778   7.298  1.00  0.00     0.008 C 
ATOM     13  C   UNL     1       3.099  -7.984   9.125  1.00  0.00     0.008 C 
ATOM     14  C   UNL     1       8.934  -8.054   5.649  1.00  0.00     0.017 C 
ATOM     15  C   UNL     1       8.887  -5.836   7.133  1.00  0.00    -0.020 C 
ATOM     16  C   UNL     1       7.734  -5.311   4.800  1.00  0.00     0.032 C 
ATOM     17  C   UNL     1       8.362  -4.720   6.113  1.00  0.00     0.006 C 
ATOM     18  C   UNL     1       8.511  -5.216   8.510  1.00  0.00     0.008 C 
ATOM     19  C   UNL     1      10.444  -6.064   7.200  1.00  0.00     0.012 C 
ATOM     20  C   UNL     1       9.101  -3.343   6.077  1.00  0.00    -0.025 C 
ATOM     21  C   UNL     1       9.204  -3.836   8.739  1.00  0.00     0.005 C 
ATOM     22  C   UNL     1       9.109  -2.758   7.573  1.00  0.00     0.003 C 
ATOM     23  C   UNL     1      10.514  -3.437   5.404  1.00  0.00     0.010 C 
ATOM     24  C   UNL     1       8.227  -2.382   5.193  1.00  0.00     0.012 C 
ATOM     25  C   UNL     1      10.042  -1.459   7.797  1.00  0.00    -0.006 C 
ATOM     26  C   UNL     1      11.584  -2.524   6.028  1.00  0.00     0.033 C 
ATOM     27  C   UNL     1      11.019  -1.216   6.572  1.00  0.00     0.120 C 
ATOM     28  C   UNL     1       9.137  -0.193   7.964  1.00  0.00     0.014 C 
ATOM     29  C   UNL     1      10.876  -1.503   9.125  1.00  0.00     0.014 C 
ENDROOT
BRANCH   1  30
ATOM     30  C   UNL     1       5.991  -9.780   5.576  1.00  0.00     0.048 C 
ATOM     31  O   UNL     1       4.941 -10.012   4.918  1.00  0.00    -0.550 OA
ATOM     32  O   UNL     1       7.194 -10.110   4.980  1.00  0.00    -0.550 OA
ENDBRANCH   1  30
BRANCH  27  33
ATOM     33  O   UNL     1      12.091  -0.360   6.893  1.00  0.00    -0.393 OA
ATOM     34  H   UNL     1      12.075   0.382   6.220  1.00  0.00     0.210 HD
ENDBRANCH  27  33
TORSDOF 2
ENDMDL
MODEL 2
REMARK VINA RESULT:    -1.479      1.779      3.896
REMARK INTER + INTRA:          -0.788
REMARK INTER:                  -0.924
REMARK INTRA:                   0.136
REMARK UNBOUND:                 0.821
REMARK SMILES C[C@@H]1[C@H](C)CC[C@]2(C(=O)[O-])CC[C@@]3(C)C(=CC[C@@H]4[C@]5(C)CC[C@H](O)C(C)(C)[C@@H]5CC[C@]43C)[C@@H]12
REMARK SMILES IDX 7 1 6 2 11 3 33 4 5 5 12 6 15 7 2 8 3 9 13 10 16 11 1 12
REMARK SMILES IDX 4 13 14 14 31 15 17 16 18 17 30 18 32 19 19 20 29 21 28 22
REMARK SMILES IDX 21 23 20 24 25 25 22 26 23 27 26 28 27 29 8 30 9 31 10 32
REMARK SMILES IDX 24 33
REMARK H PARENT 24 34
REMARK Flexibility Score: inf
ROOT
ATOM      1  C   UNL     1       5.797  -7.695   5.895  1.00  0.00     0.017 C 
ATOM      2  C   UNL     1       5.135  -8.776   4.996  1.00  0.00     0.014 C 
ATOM      3  C   UNL     1       5.194  -6.274   5.572  1.00  0.00     0.014 C 
ATOM      4  C   UNL     1       7.342  -7.637   5.637  1.00  0.00     0.030 C 
ATOM      5  C   UNL     1       5.895 -10.125   5.077  1.00  0.00     0.004 C 
ATOM      6  C   UNL     1       6.246  -5.116   5.403  1.00  0.00     0.013 C 
ATOM      7  C   UNL     1       7.941  -6.571   6.578  1.00  0.00    -0.063 C 
ATOM      8  C   UNL     1       8.119  -8.989   5.452  1.00  0.00    -0.003 C 
ATOM      9  C   UNL     1       7.327  -9.984   4.541  1.00  0.00    -0.011 C 
ATOM     10  C   UNL     1       7.365  -5.160   6.514  1.00  0.00    -0.006 C 
ATOM     11  C   UNL     1       8.875  -6.828   7.528  1.00  0.00    -0.027 C 
ATOM     12  C   UNL     1       9.531  -8.749   4.832  1.00  0.00     0.008 C 
ATOM     13  C   UNL     1       7.302  -9.612   3.033  1.00  0.00     0.008 C 
ATOM     14  C   UNL     1       6.614  -4.904   7.881  1.00  0.00     0.017 C 
ATOM     15  C   UNL     1       8.586  -4.131   6.256  1.00  0.00    -0.020 C 
ATOM     16  C   UNL     1       9.620  -5.659   8.164  1.00  0.00     0.032 C 
ATOM     17  C   UNL     1       9.905  -4.631   7.012  1.00  0.00     0.006 C 
ATOM     18  C   UNL     1       9.077  -4.034   4.782  1.00  0.00     0.008 C 
ATOM     19  C   UNL     1       8.067  -2.686   6.609  1.00  0.00     0.012 C 
ATOM     20  C   UNL     1      11.114  -3.646   7.122  1.00  0.00    -0.025 C 
ATOM     21  C   UNL     1      10.262  -3.030   4.625  1.00  0.00     0.005 C 
ATOM     22  C   UNL     1      11.484  -3.164   5.635  1.00  0.00     0.003 C 
ATOM     23  C   UNL     1      10.850  -2.483   8.139  1.00  0.00     0.010 C 
ATOM     24  C   UNL     1      12.329  -4.478   7.671  1.00  0.00     0.012 C 
ATOM     25  C   UNL     1      12.546  -1.951   5.551  1.00  0.00    -0.006 C 
ATOM     26  C   UNL     1      11.458  -1.128   7.737  1.00  0.00     0.033 C 
ATOM     27  C   UNL     1      12.764  -1.259   6.961  1.00  0.00     0.120 C 
ATOM     28  C   UNL     1      13.924  -2.502   5.054  1.00  0.00     0.014 C 
ATOM     29  C   UNL     1      12.173  -0.858   4.489  1.00  0.00     0.014 C 
ENDROOT
BRANCH   1  30
ATOM     30  C   UNL     1       5.488  -8.080   7.340  1.00  0.00     0.048 C 
ATOM     31  O   UNL     1       4.528  -7.555   7.966  1.00  0.00    -0.550 OA
ATOM     32  O   UNL     1       6.317  -8.926   8.051  1.00  0.00    -0.550 OA
ENDBRANCH   1  30
BRANCH  27  33
ATOM     33  O   UNL     1      13.358   0.015   6.855  1.00  0.00    -0.393 OA
ATOM     34  H   UNL     1      14.324  -0.100   7.090  1.00  0.00     0.210 HD
ENDBRANCH  27  33
TORSDOF 2
ENDMDL
