MODEL 1
REMARK VINA RESULT:    -7.604      0.000      0.000
REMARK INTER + INTRA:         -12.333
REMARK INTER:                 -11.160
REMARK INTRA:                  -1.173
REMARK UNBOUND:                -1.173
REMARK SMILES O=c1c(O[C@@H]2O[C@@H](CO)[C@H](O)[C@@H](O)[C@@H]2O)c(-c2ccc(O)c(O)c2)oc2cc(O)cc(O)c12
REMARK SMILES IDX 4 1 3 2 16 3 25 4 2 5 26 6 1 7 33 8 27 9 31 10 28 11 30 12
REMARK SMILES IDX 17 13 18 14 19 15 20 16 24 17 22 18 21 19 23 21 32 23 29 25
REMARK SMILES IDX 5 27 14 28 6 29 12 30 7 31 10 32 15 33 13 35 8 37 9 38 11 40
REMARK H PARENT 21 20 23 22 32 24 29 26 15 34 13 36 9 39 11 41
REMARK Flexibility Score: inf
ROOT
ATOM      1  O   UNL     1      26.373 -11.789  28.888  1.00  0.00    -0.454 OA
ENDROOT
BRANCH   1   2
ATOM      2  C   UNL     1      25.142 -11.197  28.553  1.00  0.00     0.214 A 
ATOM      3  C   UNL     1      24.457 -11.628  27.400  1.00  0.00     0.180 A 
ATOM      4  O   UNL     1      23.289 -11.078  27.074  1.00  0.00    -0.452 OA
ATOM      5  C   UNL     1      24.555 -10.188  29.346  1.00  0.00     0.239 A 
ATOM      6  C   UNL     1      22.726 -10.098  27.766  1.00  0.00     0.146 A 
ATOM      7  O   UNL     1      25.114  -9.826  30.415  1.00  0.00    -0.285 OA
ATOM      8  C   UNL     1      23.335  -9.601  28.943  1.00  0.00     0.111 A 
ATOM      9  C   UNL     1      21.529  -9.545  27.304  1.00  0.00     0.094 A 
ATOM     10  C   UNL     1      22.709  -8.545  29.650  1.00  0.00     0.134 A 
ATOM     11  C   UNL     1      20.933  -8.477  27.986  1.00  0.00     0.123 A 
ATOM     12  C   UNL     1      21.515  -7.991  29.161  1.00  0.00     0.093 A 
BRANCH   3  13
ATOM     13  C   UNL     1      24.996 -12.667  26.498  1.00  0.00     0.025 A 
ATOM     14  C   UNL     1      26.086 -12.363  25.666  1.00  0.00     0.016 A 
ATOM     15  C   UNL     1      26.666 -13.357  24.878  1.00  0.00     0.051 A 
ATOM     16  C   UNL     1      26.180 -14.671  24.920  1.00  0.00     0.157 A 
ATOM     17  C   UNL     1      24.509 -13.985  26.534  1.00  0.00     0.062 A 
ATOM     18  C   UNL     1      25.091 -14.983  25.749  1.00  0.00     0.158 A 
BRANCH  16  19
ATOM     19  O   UNL     1      26.781 -15.671  24.159  1.00  0.00    -0.504 OA
ATOM     20  H   UNL     1      26.256 -16.216  23.486  1.00  0.00     0.293 HD
ENDBRANCH  16  19
BRANCH  18  21
ATOM     21  O   UNL     1      24.591 -16.283  25.824  1.00  0.00    -0.504 OA
ATOM     22  H   UNL     1      24.480 -16.766  26.706  1.00  0.00     0.293 HD
ENDBRANCH  18  21
ENDBRANCH   3  13
BRANCH  10  23
ATOM     23  O   UNL     1      23.254  -8.047  30.833  1.00  0.00    -0.507 OA
ATOM     24  H   UNL     1      22.748  -7.393  31.419  1.00  0.00     0.293 HD
ENDBRANCH  10  23
BRANCH  11  25
ATOM     25  O   UNL     1      19.776  -7.875  27.494  1.00  0.00    -0.508 OA
ATOM     26  H   UNL     1      19.099  -7.452  28.114  1.00  0.00     0.293 HD
ENDBRANCH  11  25
ENDBRANCH   1   2
BRANCH   1  27
ATOM     27  C   UNL     1      27.608 -11.071  28.950  1.00  0.00     0.339 C 
ATOM     28  C   UNL     1      28.817 -12.056  28.910  1.00  0.00     0.214 C 
ATOM     29  O   UNL     1      27.642 -10.147  27.871  1.00  0.00    -0.332 OA
ATOM     30  C   UNL     1      29.818 -11.664  27.798  1.00  0.00     0.180 C 
ATOM     31  C   UNL     1      28.813  -9.337  27.874  1.00  0.00     0.179 C 
ATOM     32  C   UNL     1      30.133 -10.170  27.932  1.00  0.00     0.177 C 
BRANCH  28  33
ATOM     33  O   UNL     1      28.423 -13.400  28.785  1.00  0.00    -0.384 OA
ATOM     34  H   UNL     1      27.455 -13.425  28.558  1.00  0.00     0.211 HD
ENDBRANCH  28  33
BRANCH  30  35
ATOM     35  O   UNL     1      31.002 -12.432  27.842  1.00  0.00    -0.387 OA
ATOM     36  H   UNL     1      30.874 -13.175  28.491  1.00  0.00     0.211 HD
ENDBRANCH  30  35
BRANCH  31  37
ATOM     37  C   UNL     1      28.733  -8.240  28.962  1.00  0.00     0.191 C 
BRANCH  37  38
ATOM     38  O   UNL     1      27.394  -7.890  29.217  1.00  0.00    -0.394 OA
ATOM     39  H   UNL     1      27.386  -7.409  30.087  1.00  0.00     0.210 HD
ENDBRANCH  37  38
ENDBRANCH  31  37
BRANCH  32  40
ATOM     40  O   UNL     1      31.005  -9.775  26.900  1.00  0.00    -0.387 OA
ATOM     41  H   UNL     1      31.037 -10.526  26.253  1.00  0.00     0.211 HD
ENDBRANCH  32  40
ENDBRANCH   1  27
TORSDOF 12
ENDMDL
MODEL 2
REMARK VINA RESULT:    -6.765      1.369      2.037
REMARK INTER + INTRA:         -11.102
REMARK INTER:                 -10.828
REMARK INTRA:                  -0.273
REMARK UNBOUND:                -1.173
REMARK SMILES O=c1c(O[C@@H]2O[C@@H](CO)[C@H](O)[C@@H](O)[C@@H]2O)c(-c2ccc(O)c(O)c2)oc2cc(O)cc(O)c12
REMARK SMILES IDX 4 1 3 2 16 3 25 4 2 5 26 6 1 7 33 8 27 9 31 10 28 11 30 12
REMARK SMILES IDX 17 13 18 14 19 15 20 16 24 17 22 18 21 19 23 21 32 23 29 25
REMARK SMILES IDX 5 27 14 28 6 29 12 30 7 31 10 32 15 33 13 35 8 37 9 38 11 40
REMARK H PARENT 21 20 23 22 32 24 29 26 15 34 13 36 9 39 11 41
REMARK Flexibility Score: inf
ROOT
ATOM      1  O   UNL     1      26.924 -11.666  28.209  1.00  0.00    -0.454 OA
ENDROOT
BRANCH   1   2
ATOM      2  C   UNL     1      25.567 -11.314  28.328  1.00  0.00     0.214 A 
ATOM      3  C   UNL     1      24.616 -11.929  27.489  1.00  0.00     0.180 A 
ATOM      4  O   UNL     1      23.329 -11.608  27.594  1.00  0.00    -0.452 OA
ATOM      5  C   UNL     1      25.118 -10.370  29.275  1.00  0.00     0.239 A 
ATOM      6  C   UNL     1      22.872 -10.694  28.438  1.00  0.00     0.146 A 
ATOM      7  O   UNL     1      25.936  -9.850  30.079  1.00  0.00    -0.285 OA
ATOM      8  C   UNL     1      23.749 -10.026  29.325  1.00  0.00     0.111 A 
ATOM      9  C   UNL     1      21.509 -10.383  28.426  1.00  0.00     0.094 A 
ATOM     10  C   UNL     1      23.225  -9.047  30.207  1.00  0.00     0.134 A 
ATOM     11  C   UNL     1      21.003  -9.390  29.273  1.00  0.00     0.123 A 
ATOM     12  C   UNL     1      21.857  -8.737  30.167  1.00  0.00     0.093 A 
BRANCH   3  13
ATOM     13  C   UNL     1      24.990 -12.918  26.456  1.00  0.00     0.025 A 
ATOM     14  C   UNL     1      25.847 -12.536  25.411  1.00  0.00     0.016 A 
ATOM     15  C   UNL     1      26.284 -13.480  24.482  1.00  0.00     0.051 A 
ATOM     16  C   UNL     1      25.886 -14.821  24.590  1.00  0.00     0.157 A 
ATOM     17  C   UNL     1      24.590 -14.262  26.558  1.00  0.00     0.062 A 
ATOM     18  C   UNL     1      25.030 -15.210  25.631  1.00  0.00     0.158 A 
BRANCH  16  19
ATOM     19  O   UNL     1      26.350 -15.769  23.682  1.00  0.00    -0.504 OA
ATOM     20  H   UNL     1      26.550 -16.721  23.962  1.00  0.00     0.293 HD
ENDBRANCH  16  19
BRANCH  18  21
ATOM     21  O   UNL     1      24.625 -16.537  25.775  1.00  0.00    -0.504 OA
ATOM     22  H   UNL     1      24.996 -17.136  26.501  1.00  0.00     0.293 HD
ENDBRANCH  18  21
ENDBRANCH   3  13
BRANCH  10  23
ATOM     23  O   UNL     1      24.045  -8.389  31.122  1.00  0.00    -0.507 OA
ATOM     24  H   UNL     1      23.661  -7.830  31.875  1.00  0.00     0.293 HD
ENDBRANCH  10  23
BRANCH  11  25
ATOM     25  O   UNL     1      19.658  -9.026  29.218  1.00  0.00    -0.508 OA
ATOM     26  H   UNL     1      19.009  -9.502  28.607  1.00  0.00     0.293 HD
ENDBRANCH  11  25
ENDBRANCH   1   2
BRANCH   1  27
ATOM     27  C   UNL     1      27.835 -11.025  27.313  1.00  0.00     0.339 C 
ATOM     28  C   UNL     1      28.677  -9.948  28.065  1.00  0.00     0.214 C 
ATOM     29  O   UNL     1      28.657 -12.022  26.723  1.00  0.00    -0.332 OA
ATOM     30  C   UNL     1      30.190 -10.163  27.834  1.00  0.00     0.180 C 
ATOM     31  C   UNL     1      29.568 -11.492  25.765  1.00  0.00     0.179 C 
ATOM     32  C   UNL     1      30.435 -10.321  26.329  1.00  0.00     0.177 C 
BRANCH  28  33
ATOM     33  O   UNL     1      28.379  -9.881  29.438  1.00  0.00    -0.384 OA
ATOM     34  H   UNL     1      27.999  -8.983  29.634  1.00  0.00     0.211 HD
ENDBRANCH  28  33
BRANCH  30  35
ATOM     35  O   UNL     1      30.972  -9.112  28.361  1.00  0.00    -0.387 OA
ATOM     36  H   UNL     1      30.920  -9.145  29.353  1.00  0.00     0.211 HD
ENDBRANCH  30  35
BRANCH  31  37
ATOM     37  C   UNL     1      28.848 -11.140  24.442  1.00  0.00     0.191 C 
BRANCH  37  38
ATOM     38  O   UNL     1      29.324  -9.921  23.925  1.00  0.00    -0.394 OA
ATOM     39  H   UNL     1      29.462  -9.316  24.702  1.00  0.00     0.210 HD
ENDBRANCH  37  38
ENDBRANCH  31  37
BRANCH  32  40
ATOM     40  O   UNL     1      31.801 -10.568  26.093  1.00  0.00    -0.387 OA
ATOM     41  H   UNL     1      31.947 -10.442  25.120  1.00  0.00     0.211 HD
ENDBRANCH  32  40
ENDBRANCH   1  27
TORSDOF 12
ENDMDL
MODEL 3
REMARK VINA RESULT:    -6.615      2.401      7.044
REMARK INTER + INTRA:         -10.882
REMARK INTER:                  -9.085
REMARK INTRA:                  -1.797
REMARK UNBOUND:                -1.173
REMARK SMILES O=c1c(O[C@@H]2O[C@@H](CO)[C@H](O)[C@@H](O)[C@@H]2O)c(-c2ccc(O)c(O)c2)oc2cc(O)cc(O)c12
REMARK SMILES IDX 4 1 3 2 16 3 25 4 2 5 26 6 1 7 33 8 27 9 31 10 28 11 30 12
REMARK SMILES IDX 17 13 18 14 19 15 20 16 24 17 22 18 21 19 23 21 32 23 29 25
REMARK SMILES IDX 5 27 14 28 6 29 12 30 7 31 10 32 15 33 13 35 8 37 9 38 11 40
REMARK H PARENT 21 20 23 22 32 24 29 26 15 34 13 36 9 39 11 41
REMARK Flexibility Score: inf
ROOT
ATOM      1  O   UNL     1      24.289  -9.430  29.954  1.00  0.00    -0.454 OA
ENDROOT
BRANCH   1   2
ATOM      2  C   UNL     1      24.447 -10.396  28.944  1.00  0.00     0.214 A 
ATOM      3  C   UNL     1      23.372 -10.673  28.077  1.00  0.00     0.180 A 
ATOM      4  O   UNL     1      23.510 -11.582  27.115  1.00  0.00    -0.452 OA
ATOM      5  C   UNL     1      25.660 -11.093  28.757  1.00  0.00     0.239 A 
ATOM      6  C   UNL     1      24.615 -12.291  26.934  1.00  0.00     0.146 A 
ATOM      7  O   UNL     1      26.657 -10.821  29.476  1.00  0.00    -0.285 OA
ATOM      8  C   UNL     1      25.751 -12.079  27.750  1.00  0.00     0.111 A 
ATOM      9  C   UNL     1      24.637 -13.267  25.934  1.00  0.00     0.094 A 
ATOM     10  C   UNL     1      26.912 -12.863  27.533  1.00  0.00     0.134 A 
ATOM     11  C   UNL     1      25.773 -14.063  25.747  1.00  0.00     0.123 A 
ATOM     12  C   UNL     1      26.908 -13.851  26.536  1.00  0.00     0.093 A 
BRANCH   3  13
ATOM     13  C   UNL     1      22.058 -10.008  28.203  1.00  0.00     0.025 A 
ATOM     14  C   UNL     1      21.725  -8.962  27.326  1.00  0.00     0.016 A 
ATOM     15  C   UNL     1      20.455  -8.387  27.370  1.00  0.00     0.051 A 
ATOM     16  C   UNL     1      19.494  -8.855  28.278  1.00  0.00     0.157 A 
ATOM     17  C   UNL     1      21.093 -10.471  29.114  1.00  0.00     0.062 A 
ATOM     18  C   UNL     1      19.820  -9.899  29.157  1.00  0.00     0.158 A 
BRANCH  16  19
ATOM     19  O   UNL     1      18.216  -8.304  28.298  1.00  0.00    -0.504 OA
ATOM     20  H   UNL     1      18.056  -7.340  28.563  1.00  0.00     0.293 HD
ENDBRANCH  16  19
BRANCH  18  21
ATOM     21  O   UNL     1      18.883 -10.397  30.064  1.00  0.00    -0.504 OA
ATOM     22  H   UNL     1      17.896 -10.439  29.848  1.00  0.00     0.293 HD
ENDBRANCH  18  21
ENDBRANCH   3  13
BRANCH  10  23
ATOM     23  O   UNL     1      28.066 -12.667  28.290  1.00  0.00    -0.507 OA
ATOM     24  H   UNL     1      28.339 -13.312  29.022  1.00  0.00     0.293 HD
ENDBRANCH  10  23
BRANCH  11  25
ATOM     25  O   UNL     1      25.778 -15.085  24.799  1.00  0.00    -0.508 OA
ATOM     26  H   UNL     1      25.990 -16.039  25.055  1.00  0.00     0.293 HD
ENDBRANCH  11  25
ENDBRANCH   1   2
BRANCH   1  27
ATOM     27  C   UNL     1      23.943  -9.744  31.306  1.00  0.00     0.339 C 
ATOM     28  C   UNL     1      25.118  -9.392  32.269  1.00  0.00     0.214 C 
ATOM     29  O   UNL     1      22.756  -9.037  31.638  1.00  0.00    -0.332 OA
ATOM     30  C   UNL     1      24.637  -8.488  33.428  1.00  0.00     0.180 C 
ATOM     31  C   UNL     1      22.291  -9.326  32.953  1.00  0.00     0.179 C 
ATOM     32  C   UNL     1      23.385  -9.118  34.048  1.00  0.00     0.177 C 
BRANCH  28  33
ATOM     33  O   UNL     1      26.217  -8.820  31.604  1.00  0.00    -0.384 OA
ATOM     34  H   UNL     1      27.050  -9.119  32.059  1.00  0.00     0.211 HD
ENDBRANCH  28  33
BRANCH  30  35
ATOM     35  O   UNL     1      25.635  -8.287  34.407  1.00  0.00    -0.387 OA
ATOM     36  H   UNL     1      25.922  -7.336  34.376  1.00  0.00     0.211 HD
ENDBRANCH  30  35
BRANCH  31  37
ATOM     37  C   UNL     1      21.617 -10.717  33.016  1.00  0.00     0.191 C 
BRANCH  37  38
ATOM     38  O   UNL     1      20.280 -10.642  32.582  1.00  0.00    -0.394 OA
ATOM     39  H   UNL     1      20.009 -11.566  32.335  1.00  0.00     0.210 HD
ENDBRANCH  37  38
ENDBRANCH  31  37
BRANCH  32  40
ATOM     40  O   UNL     1      22.896  -8.289  35.075  1.00  0.00    -0.387 OA
ATOM     41  H   UNL     1      23.659  -7.731  35.377  1.00  0.00     0.211 HD
ENDBRANCH  32  40
ENDBRANCH   1  27
TORSDOF 12
ENDMDL
MODEL 4
REMARK VINA RESULT:    -6.278      3.013      6.310
REMARK INTER + INTRA:         -10.387
REMARK INTER:                  -9.768
REMARK INTRA:                  -0.619
REMARK UNBOUND:                -1.173
REMARK SMILES O=c1c(O[C@@H]2O[C@@H](CO)[C@H](O)[C@@H](O)[C@@H]2O)c(-c2ccc(O)c(O)c2)oc2cc(O)cc(O)c12
REMARK SMILES IDX 4 1 3 2 16 3 25 4 2 5 26 6 1 7 33 8 27 9 31 10 28 11 30 12
REMARK SMILES IDX 17 13 18 14 19 15 20 16 24 17 22 18 21 19 23 21 32 23 29 25
REMARK SMILES IDX 5 27 14 28 6 29 12 30 7 31 10 32 15 33 13 35 8 37 9 38 11 40
REMARK H PARENT 21 20 23 22 32 24 29 26 15 34 13 36 9 39 11 41
REMARK Flexibility Score: inf
ROOT
ATOM      1  O   UNL     1      28.447 -11.425  27.366  1.00  0.00    -0.454 OA
ENDROOT
BRANCH   1   2
ATOM      2  C   UNL     1      28.865 -11.216  26.039  1.00  0.00     0.214 A 
ATOM      3  C   UNL     1      28.206 -11.889  24.992  1.00  0.00     0.180 A 
ATOM      4  O   UNL     1      28.589 -11.698  23.732  1.00  0.00    -0.452 OA
ATOM      5  C   UNL     1      29.920 -10.337  25.716  1.00  0.00     0.239 A 
ATOM      6  C   UNL     1      29.604 -10.916  23.389  1.00  0.00     0.146 A 
ATOM      7  O   UNL     1      30.486  -9.674  26.625  1.00  0.00    -0.285 OA
ATOM      8  C   UNL     1      30.323 -10.193  24.370  1.00  0.00     0.111 A 
ATOM      9  C   UNL     1      29.967 -10.832  22.042  1.00  0.00     0.094 A 
ATOM     10  C   UNL     1      31.408  -9.376  23.966  1.00  0.00     0.134 A 
ATOM     11  C   UNL     1      31.063 -10.051  21.653  1.00  0.00     0.123 A 
ATOM     12  C   UNL     1      31.769  -9.317  22.611  1.00  0.00     0.093 A 
BRANCH   3  13
ATOM     13  C   UNL     1      27.101 -12.841  25.231  1.00  0.00     0.025 A 
ATOM     14  C   UNL     1      25.835 -12.355  25.594  1.00  0.00     0.016 A 
ATOM     15  C   UNL     1      24.759 -13.232  25.731  1.00  0.00     0.051 A 
ATOM     16  C   UNL     1      24.926 -14.604  25.494  1.00  0.00     0.157 A 
ATOM     17  C   UNL     1      27.265 -14.218  24.998  1.00  0.00     0.062 A 
ATOM     18  C   UNL     1      26.188 -15.098  25.131  1.00  0.00     0.158 A 
BRANCH  16  19
ATOM     19  O   UNL     1      23.844 -15.474  25.598  1.00  0.00    -0.504 OA
ATOM     20  H   UNL     1      23.461 -15.742  26.496  1.00  0.00     0.293 HD
ENDBRANCH  16  19
BRANCH  18  21
ATOM     21  O   UNL     1      26.386 -16.455  24.876  1.00  0.00    -0.504 OA
ATOM     22  H   UNL     1      26.189 -16.866  23.973  1.00  0.00     0.293 HD
ENDBRANCH  18  21
ENDBRANCH   3  13
BRANCH  10  23
ATOM     23  O   UNL     1      32.124  -8.618  24.893  1.00  0.00    -0.507 OA
ATOM     24  H   UNL     1      31.901  -7.647  25.072  1.00  0.00     0.293 HD
ENDBRANCH  10  23
BRANCH  11  25
ATOM     25  O   UNL     1      31.474 -10.016  20.321  1.00  0.00    -0.508 OA
ATOM     26  H   UNL     1      30.894 -10.388  19.582  1.00  0.00     0.293 HD
ENDBRANCH  11  25
ENDBRANCH   1   2
BRANCH   1  27
ATOM     27  C   UNL     1      28.304 -10.376  28.327  1.00  0.00     0.339 C 
ATOM     28  C   UNL     1      26.915 -10.464  29.031  1.00  0.00     0.214 C 
ATOM     29  O   UNL     1      29.375 -10.473  29.257  1.00  0.00    -0.332 OA
ATOM     30  C   UNL     1      27.069 -10.472  30.570  1.00  0.00     0.180 C 
ATOM     31  C   UNL     1      29.357  -9.433  30.230  1.00  0.00     0.179 C 
ATOM     32  C   UNL     1      27.988  -9.314  30.972  1.00  0.00     0.177 C 
BRANCH  28  33
ATOM     33  O   UNL     1      26.148 -11.559  28.594  1.00  0.00    -0.384 OA
ATOM     34  H   UNL     1      26.744 -12.353  28.525  1.00  0.00     0.211 HD
ENDBRANCH  28  33
BRANCH  30  35
ATOM     35  O   UNL     1      25.828 -10.383  31.238  1.00  0.00    -0.387 OA
ATOM     36  H   UNL     1      25.785 -11.101  31.923  1.00  0.00     0.211 HD
ENDBRANCH  30  35
BRANCH  31  37
ATOM     37  C   UNL     1      29.848  -8.095  29.629  1.00  0.00     0.191 C 
BRANCH  37  38
ATOM     38  O   UNL     1      31.113  -8.251  29.033  1.00  0.00    -0.394 OA
ATOM     39  H   UNL     1      31.422  -7.342  28.778  1.00  0.00     0.210 HD
ENDBRANCH  37  38
ENDBRANCH  31  37
BRANCH  32  40
ATOM     40  O   UNL     1      28.187  -9.328  32.366  1.00  0.00    -0.387 OA
ATOM     41  H   UNL     1      28.306  -8.383  32.644  1.00  0.00     0.211 HD
ENDBRANCH  32  40
ENDBRANCH   1  27
TORSDOF 12
ENDMDL
MODEL 5
REMARK VINA RESULT:    -6.246      3.494      7.980
REMARK INTER + INTRA:         -10.341
REMARK INTER:                 -10.185
REMARK INTRA:                  -0.156
REMARK UNBOUND:                -1.173
REMARK SMILES O=c1c(O[C@@H]2O[C@@H](CO)[C@H](O)[C@@H](O)[C@@H]2O)c(-c2ccc(O)c(O)c2)oc2cc(O)cc(O)c12
REMARK SMILES IDX 4 1 3 2 16 3 25 4 2 5 26 6 1 7 33 8 27 9 31 10 28 11 30 12
REMARK SMILES IDX 17 13 18 14 19 15 20 16 24 17 22 18 21 19 23 21 32 23 29 25
REMARK SMILES IDX 5 27 14 28 6 29 12 30 7 31 10 32 15 33 13 35 8 37 9 38 11 40
REMARK H PARENT 21 20 23 22 32 24 29 26 15 34 13 36 9 39 11 41
REMARK Flexibility Score: inf
ROOT
ATOM      1  O   UNL     1      28.412 -12.092  24.261  1.00  0.00    -0.454 OA
ENDROOT
BRANCH   1   2
ATOM      2  C   UNL     1      28.667 -13.266  23.529  1.00  0.00     0.214 A 
ATOM      3  C   UNL     1      27.766 -14.345  23.615  1.00  0.00     0.180 A 
ATOM      4  O   UNL     1      27.994 -15.459  22.925  1.00  0.00    -0.452 OA
ATOM      5  C   UNL     1      29.795 -13.396  22.691  1.00  0.00     0.239 A 
ATOM      6  C   UNL     1      29.064 -15.640  22.163  1.00  0.00     0.146 A 
ATOM      7  O   UNL     1      30.584 -12.425  22.546  1.00  0.00    -0.285 OA
ATOM      8  C   UNL     1      30.022 -14.611  22.008  1.00  0.00     0.111 A 
ATOM      9  C   UNL     1      29.243 -16.872  21.528  1.00  0.00     0.094 A 
ATOM     10  C   UNL     1      31.159 -14.844  21.193  1.00  0.00     0.134 A 
ATOM     11  C   UNL     1      30.385 -17.110  20.754  1.00  0.00     0.123 A 
ATOM     12  C   UNL     1      31.330 -16.094  20.578  1.00  0.00     0.093 A 
BRANCH   3  13
ATOM     13  C   UNL     1      26.565 -14.311  24.476  1.00  0.00     0.025 A 
ATOM     14  C   UNL     1      25.969 -15.516  24.881  1.00  0.00     0.016 A 
ATOM     15  C   UNL     1      24.893 -15.504  25.768  1.00  0.00     0.051 A 
ATOM     16  C   UNL     1      24.406 -14.291  26.277  1.00  0.00     0.157 A 
ATOM     17  C   UNL     1      26.071 -13.097  24.986  1.00  0.00     0.062 A 
ATOM     18  C   UNL     1      24.996 -13.083  25.878  1.00  0.00     0.158 A 
BRANCH  16  19
ATOM     19  O   UNL     1      23.354 -14.281  27.190  1.00  0.00    -0.504 OA
ATOM     20  H   UNL     1      22.687 -15.042  27.242  1.00  0.00     0.293 HD
ENDBRANCH  16  19
BRANCH  18  21
ATOM     21  O   UNL     1      24.545 -11.860  26.374  1.00  0.00    -0.504 OA
ATOM     22  H   UNL     1      24.685 -10.992  25.874  1.00  0.00     0.293 HD
ENDBRANCH  18  21
ENDBRANCH   3  13
BRANCH  10  23
ATOM     23  O   UNL     1      32.112 -13.847  20.984  1.00  0.00    -0.507 OA
ATOM     24  H   UNL     1      32.519 -13.684  20.071  1.00  0.00     0.293 HD
ENDBRANCH  10  23
BRANCH  11  25
ATOM     25  O   UNL     1      30.605 -18.359  20.175  1.00  0.00    -0.508 OA
ATOM     26  H   UNL     1      31.537 -18.738  20.081  1.00  0.00     0.293 HD
ENDBRANCH  11  25
ENDBRANCH   1   2
BRANCH   1  27
ATOM     27  C   UNL     1      29.293 -11.573  25.260  1.00  0.00     0.339 C 
ATOM     28  C   UNL     1      29.894 -10.207  24.805  1.00  0.00     0.214 C 
ATOM     29  O   UNL     1      28.567 -11.452  26.476  1.00  0.00    -0.332 OA
ATOM     30  C   UNL     1      29.677  -9.117  25.879  1.00  0.00     0.180 C 
ATOM     31  C   UNL     1      29.374 -10.994  27.557  1.00  0.00     0.179 C 
ATOM     32  C   UNL     1      30.136  -9.670  27.233  1.00  0.00     0.177 C 
BRANCH  28  33
ATOM     33  O   UNL     1      29.411  -9.787  23.553  1.00  0.00    -0.384 OA
ATOM     34  H   UNL     1      29.625  -8.822  23.441  1.00  0.00     0.211 HD
ENDBRANCH  28  33
BRANCH  30  35
ATOM     35  O   UNL     1      30.352  -7.915  25.574  1.00  0.00    -0.387 OA
ATOM     36  H   UNL     1      31.331  -8.076  25.640  1.00  0.00     0.211 HD
ENDBRANCH  30  35
BRANCH  31  37
ATOM     37  C   UNL     1      30.295 -12.119  28.085  1.00  0.00     0.191 C 
BRANCH  37  38
ATOM     38  O   UNL     1      31.442 -12.242  27.279  1.00  0.00    -0.394 OA
ATOM     39  H   UNL     1      31.449 -11.455  26.671  1.00  0.00     0.210 HD
ENDBRANCH  37  38
ENDBRANCH  31  37
BRANCH  32  40
ATOM     40  O   UNL     1      29.902  -8.714  28.240  1.00  0.00    -0.387 OA
ATOM     41  H   UNL     1      30.358  -9.046  29.056  1.00  0.00     0.211 HD
ENDBRANCH  32  40
ENDBRANCH   1  27
TORSDOF 12
ENDMDL
MODEL 6
REMARK VINA RESULT:    -6.239      3.753      9.267
REMARK INTER + INTRA:         -10.330
REMARK INTER:                  -9.593
REMARK INTRA:                  -0.737
REMARK UNBOUND:                -1.173
REMARK SMILES O=c1c(O[C@@H]2O[C@@H](CO)[C@H](O)[C@@H](O)[C@@H]2O)c(-c2ccc(O)c(O)c2)oc2cc(O)cc(O)c12
REMARK SMILES IDX 4 1 3 2 16 3 25 4 2 5 26 6 1 7 33 8 27 9 31 10 28 11 30 12
REMARK SMILES IDX 17 13 18 14 19 15 20 16 24 17 22 18 21 19 23 21 32 23 29 25
REMARK SMILES IDX 5 27 14 28 6 29 12 30 7 31 10 32 15 33 13 35 8 37 9 38 11 40
REMARK H PARENT 21 20 23 22 32 24 29 26 15 34 13 36 9 39 11 41
REMARK Flexibility Score: inf
ROOT
ATOM      1  O   UNL     1      27.564 -13.310  23.844  1.00  0.00    -0.454 OA
ENDROOT
BRANCH   1   2
ATOM      2  C   UNL     1      28.352 -14.196  23.088  1.00  0.00     0.214 A 
ATOM      3  C   UNL     1      29.675 -13.839  22.760  1.00  0.00     0.180 A 
ATOM      4  O   UNL     1      30.432 -14.670  22.047  1.00  0.00    -0.452 OA
ATOM      5  C   UNL     1      27.866 -15.448  22.654  1.00  0.00     0.239 A 
ATOM      6  C   UNL     1      29.999 -15.834  21.582  1.00  0.00     0.146 A 
ATOM      7  O   UNL     1      26.709 -15.820  22.985  1.00  0.00    -0.285 OA
ATOM      8  C   UNL     1      28.687 -16.282  21.865  1.00  0.00     0.111 A 
ATOM      9  C   UNL     1      30.854 -16.606  20.790  1.00  0.00     0.094 A 
ATOM     10  C   UNL     1      28.257 -17.528  21.342  1.00  0.00     0.134 A 
ATOM     11  C   UNL     1      30.411 -17.817  20.246  1.00  0.00     0.123 A 
ATOM     12  C   UNL     1      29.123 -18.280  20.534  1.00  0.00     0.093 A 
BRANCH   3  13
ATOM     13  C   UNL     1      30.269 -12.545  23.154  1.00  0.00     0.025 A 
ATOM     14  C   UNL     1      30.087 -11.420  22.333  1.00  0.00     0.016 A 
ATOM     15  C   UNL     1      30.561 -10.172  22.736  1.00  0.00     0.051 A 
ATOM     16  C   UNL     1      31.208 -10.023  23.971  1.00  0.00     0.157 A 
ATOM     17  C   UNL     1      30.923 -12.392  24.389  1.00  0.00     0.062 A 
ATOM     18  C   UNL     1      31.394 -11.142  24.797  1.00  0.00     0.158 A 
BRANCH  16  19
ATOM     19  O   UNL     1      31.651  -8.770  24.388  1.00  0.00    -0.504 OA
ATOM     20  H   UNL     1      32.310  -8.665  25.149  1.00  0.00     0.293 HD
ENDBRANCH  16  19
BRANCH  18  21
ATOM     21  O   UNL     1      32.024 -11.026  26.037  1.00  0.00    -0.504 OA
ATOM     22  H   UNL     1      32.219 -11.832  26.617  1.00  0.00     0.293 HD
ENDBRANCH  18  21
ENDBRANCH   3  13
BRANCH  10  23
ATOM     23  O   UNL     1      26.985 -18.026  21.622  1.00  0.00    -0.507 OA
ATOM     24  H   UNL     1      26.629 -18.860  21.172  1.00  0.00     0.293 HD
ENDBRANCH  10  23
BRANCH  11  25
ATOM     25  O   UNL     1      31.233 -18.559  19.398  1.00  0.00    -0.508 OA
ATOM     26  H   UNL     1      31.056 -18.608  18.405  1.00  0.00     0.293 HD
ENDBRANCH  11  25
ENDBRANCH   1   2
BRANCH   1  27
ATOM     27  C   UNL     1      26.786 -13.708  24.976  1.00  0.00     0.339 C 
ATOM     28  C   UNL     1      27.095 -12.796  26.203  1.00  0.00     0.214 C 
ATOM     29  O   UNL     1      25.413 -13.658  24.612  1.00  0.00    -0.332 OA
ATOM     30  C   UNL     1      25.797 -12.204  26.798  1.00  0.00     0.180 C 
ATOM     31  C   UNL     1      24.549 -14.094  25.658  1.00  0.00     0.179 C 
ATOM     32  C   UNL     1      24.793 -13.343  27.005  1.00  0.00     0.177 C 
BRANCH  28  33
ATOM     33  O   UNL     1      28.025 -11.783  25.910  1.00  0.00    -0.384 OA
ATOM     34  H   UNL     1      27.629 -11.180  25.225  1.00  0.00     0.211 HD
ENDBRANCH  28  33
BRANCH  30  35
ATOM     35  O   UNL     1      26.024 -11.510  28.007  1.00  0.00    -0.387 OA
ATOM     36  H   UNL     1      26.791 -11.934  28.476  1.00  0.00     0.211 HD
ENDBRANCH  30  35
BRANCH  31  37
ATOM     37  C   UNL     1      24.574 -15.634  25.800  1.00  0.00     0.191 C 
BRANCH  37  38
ATOM     38  O   UNL     1      23.321 -16.115  26.222  1.00  0.00    -0.394 OA
ATOM     39  H   UNL     1      23.434 -16.420  27.162  1.00  0.00     0.210 HD
ENDBRANCH  37  38
ENDBRANCH  31  37
BRANCH  32  40
ATOM     40  O   UNL     1      23.582 -12.824  27.501  1.00  0.00    -0.387 OA
ATOM     41  H   UNL     1      22.871 -13.465  27.238  1.00  0.00     0.211 HD
ENDBRANCH  32  40
ENDBRANCH   1  27
TORSDOF 12
ENDMDL
MODEL 7
REMARK VINA RESULT:    -5.999      2.098      6.286
REMARK INTER + INTRA:          -9.979
REMARK INTER:                  -9.302
REMARK INTRA:                  -0.676
REMARK UNBOUND:                -1.173
REMARK SMILES O=c1c(O[C@@H]2O[C@@H](CO)[C@H](O)[C@@H](O)[C@@H]2O)c(-c2ccc(O)c(O)c2)oc2cc(O)cc(O)c12
REMARK SMILES IDX 4 1 3 2 16 3 25 4 2 5 26 6 1 7 33 8 27 9 31 10 28 11 30 12
REMARK SMILES IDX 17 13 18 14 19 15 20 16 24 17 22 18 21 19 23 21 32 23 29 25
REMARK SMILES IDX 5 27 14 28 6 29 12 30 7 31 10 32 15 33 13 35 8 37 9 38 11 40
REMARK H PARENT 21 20 23 22 32 24 29 26 15 34 13 36 9 39 11 41
REMARK Flexibility Score: inf
ROOT
ATOM      1  O   UNL     1      24.922 -11.491  27.412  1.00  0.00    -0.454 OA
ENDROOT
BRANCH   1   2
ATOM      2  C   UNL     1      25.475 -10.859  28.540  1.00  0.00     0.214 A 
ATOM      3  C   UNL     1      24.639 -10.119  29.399  1.00  0.00     0.180 A 
ATOM      4  O   UNL     1      25.149  -9.519  30.472  1.00  0.00    -0.452 OA
ATOM      5  C   UNL     1      26.848 -10.953  28.854  1.00  0.00     0.239 A 
ATOM      6  C   UNL     1      26.439  -9.544  30.777  1.00  0.00     0.146 A 
ATOM      7  O   UNL     1      27.608 -11.658  28.140  1.00  0.00    -0.285 OA
ATOM      8  C   UNL     1      27.356 -10.266  29.979  1.00  0.00     0.111 A 
ATOM      9  C   UNL     1      26.884  -8.828  31.892  1.00  0.00     0.094 A 
ATOM     10  C   UNL     1      28.730 -10.262  30.332  1.00  0.00     0.134 A 
ATOM     11  C   UNL     1      28.246  -8.797  32.215  1.00  0.00     0.123 A 
ATOM     12  C   UNL     1      29.160  -9.523  31.445  1.00  0.00     0.093 A 
BRANCH   3  13
ATOM     13  C   UNL     1      23.192  -9.949  29.147  1.00  0.00     0.025 A 
ATOM     14  C   UNL     1      22.753  -8.910  28.310  1.00  0.00     0.016 A 
ATOM     15  C   UNL     1      21.401  -8.794  27.987  1.00  0.00     0.051 A 
ATOM     16  C   UNL     1      20.470  -9.720  28.479  1.00  0.00     0.157 A 
ATOM     17  C   UNL     1      22.255 -10.873  29.642  1.00  0.00     0.062 A 
ATOM     18  C   UNL     1      20.902 -10.760  29.316  1.00  0.00     0.158 A 
BRANCH  16  19
ATOM     19  O   UNL     1      19.126  -9.623  28.129  1.00  0.00    -0.504 OA
ATOM     20  H   UNL     1      18.834  -9.224  27.246  1.00  0.00     0.293 HD
ENDBRANCH  16  19
BRANCH  18  21
ATOM     21  O   UNL     1      20.004 -11.705  29.813  1.00  0.00    -0.504 OA
ATOM     22  H   UNL     1      20.020 -12.005  30.780  1.00  0.00     0.293 HD
ENDBRANCH  18  21
ENDBRANCH   3  13
BRANCH  10  23
ATOM     23  O   UNL     1      29.665 -10.987  29.595  1.00  0.00    -0.507 OA
ATOM     24  H   UNL     1      30.333 -11.603  30.042  1.00  0.00     0.293 HD
ENDBRANCH  10  23
BRANCH  11  25
ATOM     25  O   UNL     1      28.706  -8.030  33.284  1.00  0.00    -0.508 OA
ATOM     26  H   UNL     1      29.540  -7.465  33.204  1.00  0.00     0.293 HD
ENDBRANCH  11  25
ENDBRANCH   1   2
BRANCH   1  27
ATOM     27  C   UNL     1      25.573 -12.541  26.692  1.00  0.00     0.339 C 
ATOM     28  C   UNL     1      24.705 -13.838  26.710  1.00  0.00     0.214 C 
ATOM     29  O   UNL     1      25.820 -12.089  25.368  1.00  0.00    -0.332 OA
ATOM     30  C   UNL     1      24.478 -14.376  25.279  1.00  0.00     0.180 C 
ATOM     31  C   UNL     1      26.520 -13.045  24.579  1.00  0.00     0.179 C 
ATOM     32  C   UNL     1      25.833 -14.448  24.566  1.00  0.00     0.177 C 
BRANCH  28  33
ATOM     33  O   UNL     1      23.484 -13.669  27.387  1.00  0.00    -0.384 OA
ATOM     34  H   UNL     1      23.546 -12.850  27.948  1.00  0.00     0.211 HD
ENDBRANCH  28  33
BRANCH  30  35
ATOM     35  O   UNL     1      23.840 -15.636  25.270  1.00  0.00    -0.387 OA
ATOM     36  H   UNL     1      22.983 -15.560  25.767  1.00  0.00     0.211 HD
ENDBRANCH  30  35
BRANCH  31  37
ATOM     37  C   UNL     1      28.018 -13.100  24.963  1.00  0.00     0.191 C 
BRANCH  37  38
ATOM     38  O   UNL     1      28.505 -11.812  25.252  1.00  0.00    -0.394 OA
ATOM     39  H   UNL     1      29.176 -11.917  25.978  1.00  0.00     0.210 HD
ENDBRANCH  37  38
ENDBRANCH  31  37
BRANCH  32  40
ATOM     40  O   UNL     1      25.650 -14.888  23.241  1.00  0.00    -0.387 OA
ATOM     41  H   UNL     1      26.417 -15.482  23.032  1.00  0.00     0.211 HD
ENDBRANCH  32  40
ENDBRANCH   1  27
TORSDOF 12
ENDMDL
MODEL 8
REMARK VINA RESULT:    -5.991      2.180      6.373
REMARK INTER + INTRA:          -9.966
REMARK INTER:                  -9.731
REMARK INTRA:                  -0.234
REMARK UNBOUND:                -1.173
REMARK SMILES O=c1c(O[C@@H]2O[C@@H](CO)[C@H](O)[C@@H](O)[C@@H]2O)c(-c2ccc(O)c(O)c2)oc2cc(O)cc(O)c12
REMARK SMILES IDX 4 1 3 2 16 3 25 4 2 5 26 6 1 7 33 8 27 9 31 10 28 11 30 12
REMARK SMILES IDX 17 13 18 14 19 15 20 16 24 17 22 18 21 19 23 21 32 23 29 25
REMARK SMILES IDX 5 27 14 28 6 29 12 30 7 31 10 32 15 33 13 35 8 37 9 38 11 40
REMARK H PARENT 21 20 23 22 32 24 29 26 15 34 13 36 9 39 11 41
REMARK Flexibility Score: inf
ROOT
ATOM      1  O   UNL     1      24.005 -10.959  28.176  1.00  0.00    -0.454 OA
ENDROOT
BRANCH   1   2
ATOM      2  C   UNL     1      25.268 -10.762  28.763  1.00  0.00     0.214 A 
ATOM      3  C   UNL     1      26.405 -11.344  28.169  1.00  0.00     0.180 A 
ATOM      4  O   UNL     1      27.606 -11.163  28.712  1.00  0.00    -0.452 OA
ATOM      5  C   UNL     1      25.440  -9.983  29.926  1.00  0.00     0.239 A 
ATOM      6  C   UNL     1      27.806 -10.477  29.829  1.00  0.00     0.146 A 
ATOM      7  O   UNL     1      24.451  -9.400  30.443  1.00  0.00    -0.285 OA
ATOM      8  C   UNL     1      26.727  -9.850  30.495  1.00  0.00     0.111 A 
ATOM      9  C   UNL     1      29.100 -10.399  30.353  1.00  0.00     0.094 A 
ATOM     10  C   UNL     1      26.977  -9.134  31.692  1.00  0.00     0.134 A 
ATOM     11  C   UNL     1      29.336  -9.721  31.555  1.00  0.00     0.123 A 
ATOM     12  C   UNL     1      28.280  -9.081  32.212  1.00  0.00     0.093 A 
BRANCH   3  13
ATOM     13  C   UNL     1      26.325 -12.189  26.959  1.00  0.00     0.025 A 
ATOM     14  C   UNL     1      27.218 -11.965  25.898  1.00  0.00     0.016 A 
ATOM     15  C   UNL     1      27.218 -12.812  24.790  1.00  0.00     0.051 A 
ATOM     16  C   UNL     1      26.338 -13.902  24.729  1.00  0.00     0.157 A 
ATOM     17  C   UNL     1      25.442 -13.281  26.892  1.00  0.00     0.062 A 
ATOM     18  C   UNL     1      25.443 -14.132  25.784  1.00  0.00     0.158 A 
BRANCH  16  19
ATOM     19  O   UNL     1      26.362 -14.767  23.638  1.00  0.00    -0.504 OA
ATOM     20  H   UNL     1      27.184 -15.309  23.406  1.00  0.00     0.293 HD
ENDBRANCH  16  19
BRANCH  18  21
ATOM     21  O   UNL     1      24.564 -15.215  25.762  1.00  0.00    -0.504 OA
ATOM     22  H   UNL     1      24.646 -15.988  26.410  1.00  0.00     0.293 HD
ENDBRANCH  18  21
ENDBRANCH   3  13
BRANCH  10  23
ATOM     23  O   UNL     1      25.950  -8.471  32.364  1.00  0.00    -0.507 OA
ATOM     24  H   UNL     1      25.869  -8.500  33.373  1.00  0.00     0.293 HD
ENDBRANCH  10  23
BRANCH  11  25
ATOM     25  O   UNL     1      30.610  -9.697  32.119  1.00  0.00    -0.508 OA
ATOM     26  H   UNL     1      31.302 -10.396  31.885  1.00  0.00     0.293 HD
ENDBRANCH  11  25
ENDBRANCH   1   2
BRANCH   1  27
ATOM     27  C   UNL     1      22.775 -10.565  28.790  1.00  0.00     0.339 C 
ATOM     28  C   UNL     1      21.977  -9.606  27.853  1.00  0.00     0.214 C 
ATOM     29  O   UNL     1      22.035 -11.738  29.100  1.00  0.00    -0.332 OA
ATOM     30  C   UNL     1      20.531 -10.111  27.639  1.00  0.00     0.180 C 
ATOM     31  C   UNL     1      20.810 -11.457  29.770  1.00  0.00     0.179 C 
ATOM     32  C   UNL     1      19.919 -10.425  29.008  1.00  0.00     0.177 C 
BRANCH  28  33
ATOM     33  O   UNL     1      22.621  -9.382  26.623  1.00  0.00    -0.384 OA
ATOM     34  H   UNL     1      23.598  -9.296  26.790  1.00  0.00     0.211 HD
ENDBRANCH  28  33
BRANCH  30  35
ATOM     35  O   UNL     1      19.733  -9.184  26.934  1.00  0.00    -0.387 OA
ATOM     36  H   UNL     1      20.236  -8.877  26.133  1.00  0.00     0.211 HD
ENDBRANCH  30  35
BRANCH  31  37
ATOM     37  C   UNL     1      21.055 -11.081  31.251  1.00  0.00     0.191 C 
BRANCH  37  38
ATOM     38  O   UNL     1      20.042 -10.225  31.721  1.00  0.00    -0.394 OA
ATOM     39  H   UNL     1      20.209  -9.335  31.310  1.00  0.00     0.210 HD
ENDBRANCH  37  38
ENDBRANCH  31  37
BRANCH  32  40
ATOM     40  O   UNL     1      18.617 -10.936  28.841  1.00  0.00    -0.387 OA
ATOM     41  H   UNL     1      18.030 -10.157  28.658  1.00  0.00     0.211 HD
ENDBRANCH  32  40
ENDBRANCH   1  27
TORSDOF 12
ENDMDL
