MODEL 1
REMARK VINA RESULT:    -3.376      0.000      0.000
REMARK INTER + INTRA:          -6.983
REMARK INTER:                  -5.349
REMARK INTRA:                  -1.634
REMARK UNBOUND:                -1.634
REMARK SMILES CCCCCCCCCCCC(=O)[O-]
REMARK SMILES IDX 7 1 8 2 9 3 10 4 11 5 12 6 13 7 14 8 6 9 5 10 4 11 3 12 2 13
REMARK SMILES IDX 1 14
REMARK H PARENT
REMARK Flexibility Score: inf
ROOT
ATOM      1  C   UNL     1      19.895  15.308 -16.864  1.00  0.00     0.000 C 
ENDROOT
BRANCH   1   2
ATOM      2  C   UNL     1      19.979  14.584 -15.512  1.00  0.00     0.000 C 
BRANCH   2   3
ATOM      3  C   UNL     1      19.501  13.133 -15.635  1.00  0.00     0.000 C 
BRANCH   3   4
ATOM      4  C   UNL     1      18.621  12.945 -16.879  1.00  0.00     0.006 C 
BRANCH   4   5
ATOM      5  C   UNL     1      17.876  11.603 -16.866  1.00  0.00     0.053 C 
BRANCH   5   6
ATOM      6  C   UNL     1      18.727  10.491 -17.396  1.00  0.00     0.041 C 
ATOM      7  O   UNL     1      18.798  10.282 -18.636  1.00  0.00    -0.550 OA
ATOM      8  O   UNL     1      19.416   9.664 -16.518  1.00  0.00    -0.550 OA
ENDBRANCH   5   6
ENDBRANCH   4   5
ENDBRANCH   3   4
ENDBRANCH   2   3
ENDBRANCH   1   2
BRANCH   1   9
ATOM      9  C   UNL     1      21.160  16.119 -17.185  1.00  0.00     0.000 C 
BRANCH   9  10
ATOM     10  C   UNL     1      22.451  15.370 -16.815  1.00  0.00    -0.000 C 
BRANCH  10  11
ATOM     11  C   UNL     1      22.880  14.365 -17.896  1.00  0.00    -0.000 C 
BRANCH  11  12
ATOM     12  C   UNL     1      22.687  12.904 -17.461  1.00  0.00    -0.000 C 
BRANCH  12  13
ATOM     13  C   UNL     1      21.909  12.116 -18.520  1.00  0.00    -0.003 C 
ATOM     14  C   UNL     1      21.237  13.053 -19.521  1.00  0.00     0.004 C 
ENDBRANCH  12  13
ENDBRANCH  11  12
ENDBRANCH  10  11
ENDBRANCH   9  10
ENDBRANCH   1   9
TORSDOF 10
ENDMDL
MODEL 2
REMARK VINA RESULT:    -3.328      1.154      2.484
REMARK INTER + INTRA:          -6.908
REMARK INTER:                  -5.571
REMARK INTRA:                  -1.336
REMARK UNBOUND:                -1.634
REMARK SMILES CCCCCCCCCCCC(=O)[O-]
REMARK SMILES IDX 7 1 8 2 9 3 10 4 11 5 12 6 13 7 14 8 6 9 5 10 4 11 3 12 2 13
REMARK SMILES IDX 1 14
REMARK H PARENT
REMARK Flexibility Score: inf
ROOT
ATOM      1  C   UNL     1      21.431  13.229 -17.217  1.00  0.00     0.000 C 
ENDROOT
BRANCH   1   2
ATOM      2  C   UNL     1      20.826  13.839 -15.944  1.00  0.00     0.000 C 
BRANCH   2   3
ATOM      3  C   UNL     1      19.483  13.183 -15.604  1.00  0.00     0.000 C 
BRANCH   3   4
ATOM      4  C   UNL     1      18.723  12.790 -16.880  1.00  0.00     0.006 C 
BRANCH   4   5
ATOM      5  C   UNL     1      18.098  11.392 -16.776  1.00  0.00     0.053 C 
BRANCH   5   6
ATOM      6  C   UNL     1      19.072  10.319 -17.156  1.00  0.00     0.041 C 
ATOM      7  O   UNL     1      19.356   9.403 -16.339  1.00  0.00    -0.550 OA
ATOM      8  O   UNL     1      19.690  10.349 -18.399  1.00  0.00    -0.550 OA
ENDBRANCH   5   6
ENDBRANCH   4   5
ENDBRANCH   3   4
ENDBRANCH   2   3
ENDBRANCH   1   2
BRANCH   1   9
ATOM      9  C   UNL     1      22.739  13.915 -17.642  1.00  0.00     0.000 C 
BRANCH   9  10
ATOM     10  C   UNL     1      22.824  15.374 -17.161  1.00  0.00    -0.000 C 
BRANCH  10  11
ATOM     11  C   UNL     1      22.263  16.368 -18.191  1.00  0.00    -0.000 C 
BRANCH  11  12
ATOM     12  C   UNL     1      21.065  17.168 -17.655  1.00  0.00    -0.000 C 
BRANCH  12  13
ATOM     13  C   UNL     1      19.743  16.558 -18.133  1.00  0.00    -0.003 C 
ATOM     14  C   UNL     1      19.914  15.853 -19.476  1.00  0.00     0.004 C 
ENDBRANCH  12  13
ENDBRANCH  11  12
ENDBRANCH  10  11
ENDBRANCH   9  10
ENDBRANCH   1   9
TORSDOF 10
ENDMDL
MODEL 3
REMARK VINA RESULT:    -3.283      1.437      2.178
REMARK INTER + INTRA:          -6.837
REMARK INTER:                  -5.411
REMARK INTRA:                  -1.426
REMARK UNBOUND:                -1.634
REMARK SMILES CCCCCCCCCCCC(=O)[O-]
REMARK SMILES IDX 7 1 8 2 9 3 10 4 11 5 12 6 13 7 14 8 6 9 5 10 4 11 3 12 2 13
REMARK SMILES IDX 1 14
REMARK H PARENT
REMARK Flexibility Score: inf
ROOT
ATOM      1  C   UNL     1      21.863  15.450 -16.410  1.00  0.00     0.000 C 
ENDROOT
BRANCH   1   2
ATOM      2  C   UNL     1      21.300  14.023 -16.320  1.00  0.00     0.000 C 
BRANCH   2   3
ATOM      3  C   UNL     1      19.776  14.043 -16.157  1.00  0.00     0.000 C 
BRANCH   3   4
ATOM      4  C   UNL     1      19.269  12.722 -15.561  1.00  0.00     0.006 C 
BRANCH   4   5
ATOM      5  C   UNL     1      18.589  11.833 -16.612  1.00  0.00     0.053 C 
BRANCH   5   6
ATOM      6  C   UNL     1      19.497  10.738 -17.083  1.00  0.00     0.041 C 
ATOM      7  O   UNL     1      20.261  10.927 -18.066  1.00  0.00    -0.550 OA
ATOM      8  O   UNL     1      19.476   9.499 -16.455  1.00  0.00    -0.550 OA
ENDBRANCH   5   6
ENDBRANCH   4   5
ENDBRANCH   3   4
ENDBRANCH   2   3
ENDBRANCH   1   2
BRANCH   1   9
ATOM      9  C   UNL     1      20.789  16.492 -16.760  1.00  0.00     0.000 C 
BRANCH   9  10
ATOM     10  C   UNL     1      21.137  17.298 -18.023  1.00  0.00    -0.000 C 
BRANCH  10  11
ATOM     11  C   UNL     1      21.130  16.435 -19.295  1.00  0.00    -0.000 C 
BRANCH  11  12
ATOM     12  C   UNL     1      19.728  15.920 -19.658  1.00  0.00    -0.000 C 
BRANCH  12  13
ATOM     13  C   UNL     1      19.733  14.398 -19.835  1.00  0.00    -0.003 C 
ATOM     14  C   UNL     1      21.152  13.871 -20.034  1.00  0.00     0.004 C 
ENDBRANCH  12  13
ENDBRANCH  11  12
ENDBRANCH  10  11
ENDBRANCH   9  10
ENDBRANCH   1   9
TORSDOF 10
ENDMDL
MODEL 4
REMARK VINA RESULT:    -3.279      3.994      5.571
REMARK INTER + INTRA:          -6.830
REMARK INTER:                  -6.079
REMARK INTRA:                  -0.751
REMARK UNBOUND:                -1.634
REMARK SMILES CCCCCCCCCCCC(=O)[O-]
REMARK SMILES IDX 7 1 8 2 9 3 10 4 11 5 12 6 13 7 14 8 6 9 5 10 4 11 3 12 2 13
REMARK SMILES IDX 1 14
REMARK H PARENT
REMARK Flexibility Score: inf
ROOT
ATOM      1  C   UNL     1      20.966  16.112 -16.360  1.00  0.00     0.000 C 
ENDROOT
BRANCH   1   2
ATOM      2  C   UNL     1      20.897  17.107 -17.529  1.00  0.00     0.000 C 
BRANCH   2   3
ATOM      3  C   UNL     1      19.795  16.716 -18.519  1.00  0.00     0.000 C 
BRANCH   3   4
ATOM      4  C   UNL     1      20.276  16.871 -19.969  1.00  0.00     0.006 C 
BRANCH   4   5
ATOM      5  C   UNL     1      19.143  16.655 -20.983  1.00  0.00     0.053 C 
BRANCH   5   6
ATOM      6  C   UNL     1      18.488  17.947 -21.365  1.00  0.00     0.041 C 
ATOM      7  O   UNL     1      17.246  18.095 -21.219  1.00  0.00    -0.550 OA
ATOM      8  O   UNL     1      19.244  18.975 -21.913  1.00  0.00    -0.550 OA
ENDBRANCH   5   6
ENDBRANCH   4   5
ENDBRANCH   3   4
ENDBRANCH   2   3
ENDBRANCH   1   2
BRANCH   1   9
ATOM      9  C   UNL     1      21.991  14.992 -16.591  1.00  0.00     0.000 C 
BRANCH   9  10
ATOM     10  C   UNL     1      21.347  13.595 -16.609  1.00  0.00    -0.000 C 
BRANCH  10  11
ATOM     11  C   UNL     1      19.921  13.596 -16.035  1.00  0.00    -0.000 C 
BRANCH  11  12
ATOM     12  C   UNL     1      18.863  13.175 -17.067  1.00  0.00    -0.000 C 
BRANCH  12  13
ATOM     13  C   UNL     1      18.128  11.910 -16.612  1.00  0.00    -0.003 C 
ATOM     14  C   UNL     1      19.033  10.684 -16.700  1.00  0.00     0.004 C 
ENDBRANCH  12  13
ENDBRANCH  11  12
ENDBRANCH  10  11
ENDBRANCH   9  10
ENDBRANCH   1   9
TORSDOF 10
ENDMDL
MODEL 5
REMARK VINA RESULT:    -3.278      3.230      5.155
REMARK INTER + INTRA:          -6.828
REMARK INTER:                  -5.962
REMARK INTRA:                  -0.866
REMARK UNBOUND:                -1.634
REMARK SMILES CCCCCCCCCCCC(=O)[O-]
REMARK SMILES IDX 7 1 8 2 9 3 10 4 11 5 12 6 13 7 14 8 6 9 5 10 4 11 3 12 2 13
REMARK SMILES IDX 1 14
REMARK H PARENT
REMARK Flexibility Score: inf
ROOT
ATOM      1  C   UNL     1      21.321  13.686 -16.390  1.00  0.00     0.000 C 
ENDROOT
BRANCH   1   2
ATOM      2  C   UNL     1      21.937  15.014 -16.854  1.00  0.00     0.000 C 
BRANCH   2   3
ATOM      3  C   UNL     1      21.096  16.205 -16.379  1.00  0.00     0.000 C 
BRANCH   3   4
ATOM      4  C   UNL     1      20.827  17.185 -17.531  1.00  0.00     0.006 C 
BRANCH   4   5
ATOM      5  C   UNL     1      19.989  16.550 -18.649  1.00  0.00     0.053 C 
BRANCH   5   6
ATOM      6  C   UNL     1      20.509  16.911 -20.006  1.00  0.00     0.041 C 
ATOM      7  O   UNL     1      19.819  17.627 -20.780  1.00  0.00    -0.550 OA
ATOM      8  O   UNL     1      21.742  16.431 -20.428  1.00  0.00    -0.550 OA
ENDBRANCH   5   6
ENDBRANCH   4   5
ENDBRANCH   3   4
ENDBRANCH   2   3
ENDBRANCH   1   2
BRANCH   1   9
ATOM      9  C   UNL     1      19.984  13.874 -15.656  1.00  0.00     0.000 C 
BRANCH   9  10
ATOM     10  C   UNL     1      19.084  12.629 -15.741  1.00  0.00    -0.000 C 
BRANCH  10  11
ATOM     11  C   UNL     1      18.480  12.431 -17.140  1.00  0.00    -0.000 C 
BRANCH  11  12
ATOM     12  C   UNL     1      18.332  10.950 -17.521  1.00  0.00    -0.000 C 
BRANCH  12  13
ATOM     13  C   UNL     1      19.626  10.180 -17.236  1.00  0.00    -0.003 C 
ATOM     14  C   UNL     1      19.350   8.919 -16.421  1.00  0.00     0.004 C 
ENDBRANCH  12  13
ENDBRANCH  11  12
ENDBRANCH  10  11
ENDBRANCH   9  10
ENDBRANCH   1   9
TORSDOF 10
ENDMDL
MODEL 6
REMARK VINA RESULT:    -3.277      1.902      3.415
REMARK INTER + INTRA:          -6.827
REMARK INTER:                  -6.144
REMARK INTRA:                  -0.683
REMARK UNBOUND:                -1.634
REMARK SMILES CCCCCCCCCCCC(=O)[O-]
REMARK SMILES IDX 7 1 8 2 9 3 10 4 11 5 12 6 13 7 14 8 6 9 5 10 4 11 3 12 2 13
REMARK SMILES IDX 1 14
REMARK H PARENT
REMARK Flexibility Score: inf
ROOT
ATOM      1  C   UNL     1      18.967  12.425 -15.857  1.00  0.00     0.000 C 
ENDROOT
BRANCH   1   2
ATOM      2  C   UNL     1      17.875  11.804 -16.741  1.00  0.00     0.000 C 
BRANCH   2   3
ATOM      3  C   UNL     1      18.458  10.721 -17.656  1.00  0.00     0.000 C 
BRANCH   3   4
ATOM      4  C   UNL     1      19.578   9.945 -16.948  1.00  0.00     0.006 C 
BRANCH   4   5
ATOM      5  C   UNL     1      19.077   8.626 -16.343  1.00  0.00     0.053 C 
BRANCH   5   6
ATOM      6  C   UNL     1      19.143   7.502 -17.331  1.00  0.00     0.041 C 
ATOM      7  O   UNL     1      20.150   7.372 -18.076  1.00  0.00    -0.550 OA
ATOM      8  O   UNL     1      18.078   6.618 -17.451  1.00  0.00    -0.550 OA
ENDBRANCH   5   6
ENDBRANCH   4   5
ENDBRANCH   3   4
ENDBRANCH   2   3
ENDBRANCH   1   2
BRANCH   1   9
ATOM      9  C   UNL     1      19.593  13.683 -16.479  1.00  0.00     0.000 C 
BRANCH   9  10
ATOM     10  C   UNL     1      21.131  13.644 -16.471  1.00  0.00    -0.000 C 
BRANCH  10  11
ATOM     11  C   UNL     1      21.757  15.046 -16.546  1.00  0.00    -0.000 C 
BRANCH  11  12
ATOM     12  C   UNL     1      20.718  16.170 -16.403  1.00  0.00    -0.000 C 
BRANCH  12  13
ATOM     13  C   UNL     1      20.676  17.039 -17.665  1.00  0.00    -0.003 C 
ATOM     14  C   UNL     1      21.983  16.939 -18.447  1.00  0.00     0.004 C 
ENDBRANCH  12  13
ENDBRANCH  11  12
ENDBRANCH  10  11
ENDBRANCH   9  10
ENDBRANCH   1   9
TORSDOF 10
ENDMDL
MODEL 7
REMARK VINA RESULT:    -3.274      2.651      4.358
REMARK INTER + INTRA:          -6.822
REMARK INTER:                  -6.359
REMARK INTRA:                  -0.464
REMARK UNBOUND:                -1.634
REMARK SMILES CCCCCCCCCCCC(=O)[O-]
REMARK SMILES IDX 7 1 8 2 9 3 10 4 11 5 12 6 13 7 14 8 6 9 5 10 4 11 3 12 2 13
REMARK SMILES IDX 1 14
REMARK H PARENT
REMARK Flexibility Score: inf
ROOT
ATOM      1  C   UNL     1      18.238  11.224 -16.726  1.00  0.00     0.000 C 
ENDROOT
BRANCH   1   2
ATOM      2  C   UNL     1      19.406  10.266 -17.007  1.00  0.00     0.000 C 
BRANCH   2   3
ATOM      3  C   UNL     1      19.260   8.971 -16.200  1.00  0.00     0.000 C 
BRANCH   3   4
ATOM      4  C   UNL     1      19.812   7.769 -16.981  1.00  0.00     0.006 C 
BRANCH   4   5
ATOM      5  C   UNL     1      18.791   7.207 -17.980  1.00  0.00     0.053 C 
BRANCH   5   6
ATOM      6  C   UNL     1      18.463   5.774 -17.691  1.00  0.00     0.041 C 
ATOM      7  O   UNL     1      17.330   5.312 -17.987  1.00  0.00    -0.550 OA
ATOM      8  O   UNL     1      19.398   4.960 -17.065  1.00  0.00    -0.550 OA
ENDBRANCH   5   6
ENDBRANCH   4   5
ENDBRANCH   3   4
ENDBRANCH   2   3
ENDBRANCH   1   2
BRANCH   1   9
ATOM      9  C   UNL     1      18.656  12.702 -16.781  1.00  0.00     0.000 C 
BRANCH   9  10
ATOM     10  C   UNL     1      19.470  13.132 -15.549  1.00  0.00    -0.000 C 
BRANCH  10  11
ATOM     11  C   UNL     1      20.086  14.531 -15.707  1.00  0.00    -0.000 C 
BRANCH  11  12
ATOM     12  C   UNL     1      21.519  14.492 -16.262  1.00  0.00    -0.000 C 
BRANCH  12  13
ATOM     13  C   UNL     1      21.826  15.755 -17.074  1.00  0.00    -0.003 C 
ATOM     14  C   UNL     1      20.600  16.658 -17.173  1.00  0.00     0.004 C 
ENDBRANCH  12  13
ENDBRANCH  11  12
ENDBRANCH  10  11
ENDBRANCH   9  10
ENDBRANCH   1   9
TORSDOF 10
ENDMDL
MODEL 8
REMARK VINA RESULT:    -3.227      2.256      3.490
REMARK INTER + INTRA:          -6.748
REMARK INTER:                  -5.797
REMARK INTRA:                  -0.951
REMARK UNBOUND:                -1.634
REMARK SMILES CCCCCCCCCCCC(=O)[O-]
REMARK SMILES IDX 7 1 8 2 9 3 10 4 11 5 12 6 13 7 14 8 6 9 5 10 4 11 3 12 2 13
REMARK SMILES IDX 1 14
REMARK H PARENT
REMARK Flexibility Score: inf
ROOT
ATOM      1  C   UNL     1      18.415  12.478 -16.771  1.00  0.00     0.000 C 
ENDROOT
BRANCH   1   2
ATOM      2  C   UNL     1      18.248  10.978 -17.059  1.00  0.00     0.000 C 
BRANCH   2   3
ATOM      3  C   UNL     1      19.493  10.194 -16.631  1.00  0.00     0.000 C 
BRANCH   3   4
ATOM      4  C   UNL     1      19.153   8.720 -16.367  1.00  0.00     0.006 C 
BRANCH   4   5
ATOM      5  C   UNL     1      19.769   7.785 -17.417  1.00  0.00     0.053 C 
BRANCH   5   6
ATOM      6  C   UNL     1      19.193   6.404 -17.337  1.00  0.00     0.041 C 
ATOM      7  O   UNL     1      19.944   5.416 -17.126  1.00  0.00    -0.550 OA
ATOM      8  O   UNL     1      17.832   6.207 -17.526  1.00  0.00    -0.550 OA
ENDBRANCH   5   6
ENDBRANCH   4   5
ENDBRANCH   3   4
ENDBRANCH   2   3
ENDBRANCH   1   2
BRANCH   1   9
ATOM      9  C   UNL     1      19.486  12.763 -15.706  1.00  0.00     0.000 C 
BRANCH   9  10
ATOM     10  C   UNL     1      19.842  14.257 -15.611  1.00  0.00    -0.000 C 
BRANCH  10  11
ATOM     11  C   UNL     1      21.223  14.573 -16.207  1.00  0.00    -0.000 C 
BRANCH  11  12
ATOM     12  C   UNL     1      21.916  13.334 -16.795  1.00  0.00    -0.000 C 
BRANCH  12  13
ATOM     13  C   UNL     1      22.007  13.431 -18.322  1.00  0.00    -0.003 C 
ATOM     14  C   UNL     1      21.642  12.104 -18.982  1.00  0.00     0.004 C 
ENDBRANCH  12  13
ENDBRANCH  11  12
ENDBRANCH  10  11
ENDBRANCH   9  10
ENDBRANCH   1   9
TORSDOF 10
ENDMDL
MODEL 9
REMARK VINA RESULT:    -3.166      1.777      2.955
REMARK INTER + INTRA:          -6.651
REMARK INTER:                  -5.023
REMARK INTRA:                  -1.628
REMARK UNBOUND:                -1.634
REMARK SMILES CCCCCCCCCCCC(=O)[O-]
REMARK SMILES IDX 7 1 8 2 9 3 10 4 11 5 12 6 13 7 14 8 6 9 5 10 4 11 3 12 2 13
REMARK SMILES IDX 1 14
REMARK H PARENT
REMARK Flexibility Score: inf
ROOT
ATOM      1  C   UNL     1      19.601  15.779 -19.656  1.00  0.00     0.000 C 
ENDROOT
BRANCH   1   2
ATOM      2  C   UNL     1      20.216  14.461 -20.151  1.00  0.00     0.000 C 
BRANCH   2   3
ATOM      3  C   UNL     1      19.656  13.266 -19.371  1.00  0.00     0.000 C 
BRANCH   3   4
ATOM      4  C   UNL     1      18.789  13.734 -18.193  1.00  0.00     0.006 C 
BRANCH   4   5
ATOM      5  C   UNL     1      18.135  12.561 -17.451  1.00  0.00     0.053 C 
BRANCH   5   6
ATOM      6  C   UNL     1      19.011  12.039 -16.354  1.00  0.00     0.041 C 
ATOM      7  O   UNL     1      19.421  10.849 -16.382  1.00  0.00    -0.550 OA
ATOM      8  O   UNL     1      19.348  12.859 -15.285  1.00  0.00    -0.550 OA
ENDBRANCH   5   6
ENDBRANCH   4   5
ENDBRANCH   3   4
ENDBRANCH   2   3
ENDBRANCH   1   2
BRANCH   1   9
ATOM      9  C   UNL     1      20.583  16.958 -19.730  1.00  0.00     0.000 C 
BRANCH   9  10
ATOM     10  C   UNL     1      21.469  17.069 -18.477  1.00  0.00    -0.000 C 
BRANCH  10  11
ATOM     11  C   UNL     1      20.702  16.751 -17.183  1.00  0.00    -0.000 C 
BRANCH  11  12
ATOM     12  C   UNL     1      21.400  15.684 -16.325  1.00  0.00    -0.000 C 
BRANCH  12  13
ATOM     13  C   UNL     1      22.494  14.968 -17.125  1.00  0.00    -0.003 C 
ATOM     14  C   UNL     1      22.343  13.452 -17.029  1.00  0.00     0.004 C 
ENDBRANCH  12  13
ENDBRANCH  11  12
ENDBRANCH  10  11
ENDBRANCH   9  10
ENDBRANCH   1   9
TORSDOF 10
ENDMDL
