MODEL 1
REMARK VINA RESULT:    -3.801      0.000      0.000
REMARK INTER + INTRA:          -7.831
REMARK INTER:                  -6.468
REMARK INTRA:                  -1.362
REMARK UNBOUND:                -1.362
REMARK SMILES CCCCCCCCCCCCCC(=O)[O-]
REMARK SMILES IDX 8 1 9 2 10 3 11 4 12 5 13 6 14 7 15 8 16 9 7 10 6 11 5 12
REMARK SMILES IDX 4 13 3 14 2 15 1 16
REMARK H PARENT
REMARK Flexibility Score: inf
ROOT
ATOM      1  C   UNL     1      21.588   2.291  23.644  1.00  0.00     0.000 C 
ENDROOT
BRANCH   1   2
ATOM      2  C   UNL     1      21.537   3.802  23.934  1.00  0.00     0.000 C 
BRANCH   2   3
ATOM      3  C   UNL     1      20.133   4.362  24.235  1.00  0.00     0.000 C 
BRANCH   3   4
ATOM      4  C   UNL     1      20.101   5.823  24.727  1.00  0.00     0.000 C 
BRANCH   4   5
ATOM      5  C   UNL     1      19.749   6.867  23.648  1.00  0.00     0.006 C 
BRANCH   5   6
ATOM      6  C   UNL     1      20.359   8.257  23.888  1.00  0.00     0.053 C 
BRANCH   6   7
ATOM      7  C   UNL     1      19.702   9.311  23.051  1.00  0.00     0.041 C 
ATOM      8  O   UNL     1      18.810  10.047  23.548  1.00  0.00    -0.550 OA
ATOM      9  O   UNL     1      20.100   9.502  21.734  1.00  0.00    -0.550 OA
ENDBRANCH   6   7
ENDBRANCH   5   6
ENDBRANCH   4   5
ENDBRANCH   3   4
ENDBRANCH   2   3
ENDBRANCH   1   2
BRANCH   1  10
ATOM     10  C   UNL     1      20.872   1.454  24.718  1.00  0.00     0.000 C 
BRANCH  10  11
ATOM     11  C   UNL     1      21.612   1.469  26.066  1.00  0.00    -0.000 C 
BRANCH  11  12
ATOM     12  C   UNL     1      20.785   2.126  27.185  1.00  0.00    -0.000 C 
BRANCH  12  13
ATOM     13  C   UNL     1      21.404   3.441  27.693  1.00  0.00    -0.000 C 
BRANCH  13  14
ATOM     14  C   UNL     1      22.927   3.405  27.909  1.00  0.00    -0.000 C 
BRANCH  14  15
ATOM     15  C   UNL     1      23.692   4.317  26.939  1.00  0.00    -0.003 C 
ATOM     16  C   UNL     1      24.926   3.615  26.379  1.00  0.00     0.004 C 
ENDBRANCH  14  15
ENDBRANCH  13  14
ENDBRANCH  12  13
ENDBRANCH  11  12
ENDBRANCH  10  11
ENDBRANCH   1  10
TORSDOF 12
ENDMDL
MODEL 2
REMARK VINA RESULT:    -3.695      1.630      2.888
REMARK INTER + INTRA:          -7.649
REMARK INTER:                  -6.208
REMARK INTRA:                  -1.441
REMARK UNBOUND:                -1.362
REMARK SMILES CCCCCCCCCCCCCC(=O)[O-]
REMARK SMILES IDX 8 1 9 2 10 3 11 4 12 5 13 6 14 7 15 8 16 9 7 10 6 11 5 12
REMARK SMILES IDX 4 13 3 14 2 15 1 16
REMARK H PARENT
REMARK Flexibility Score: inf
ROOT
ATOM      1  C   UNL     1      20.003   5.226  25.869  1.00  0.00     0.000 C 
ENDROOT
BRANCH   1   2
ATOM      2  C   UNL     1      19.322   4.991  24.508  1.00  0.00     0.000 C 
BRANCH   2   3
ATOM      3  C   UNL     1      18.701   6.246  23.864  1.00  0.00     0.000 C 
BRANCH   3   4
ATOM      4  C   UNL     1      18.358   7.385  24.845  1.00  0.00     0.000 C 
BRANCH   4   5
ATOM      5  C   UNL     1      19.271   8.624  24.751  1.00  0.00     0.006 C 
BRANCH   5   6
ATOM      6  C   UNL     1      20.166   8.659  23.502  1.00  0.00     0.053 C 
BRANCH   6   7
ATOM      7  C   UNL     1      19.573   9.493  22.409  1.00  0.00     0.041 C 
ATOM      8  O   UNL     1      20.187   9.638  21.320  1.00  0.00    -0.550 OA
ATOM      9  O   UNL     1      18.326  10.080  22.580  1.00  0.00    -0.550 OA
ENDBRANCH   6   7
ENDBRANCH   5   6
ENDBRANCH   4   5
ENDBRANCH   3   4
ENDBRANCH   2   3
ENDBRANCH   1   2
BRANCH   1  10
ATOM     10  C   UNL     1      20.100   3.945  26.716  1.00  0.00     0.000 C 
BRANCH  10  11
ATOM     11  C   UNL     1      18.857   3.051  26.573  1.00  0.00    -0.000 C 
BRANCH  11  12
ATOM     12  C   UNL     1      19.198   1.653  26.027  1.00  0.00    -0.000 C 
BRANCH  12  13
ATOM     13  C   UNL     1      20.702   1.469  25.750  1.00  0.00    -0.000 C 
BRANCH  13  14
ATOM     14  C   UNL     1      21.062   1.166  24.284  1.00  0.00    -0.000 C 
BRANCH  14  15
ATOM     15  C   UNL     1      21.702   2.363  23.565  1.00  0.00    -0.003 C 
ATOM     16  C   UNL     1      22.812   2.983  24.409  1.00  0.00     0.004 C 
ENDBRANCH  14  15
ENDBRANCH  13  14
ENDBRANCH  12  13
ENDBRANCH  11  12
ENDBRANCH  10  11
ENDBRANCH   1  10
TORSDOF 12
ENDMDL
MODEL 3
REMARK VINA RESULT:    -3.669      1.622      3.007
REMARK INTER + INTRA:          -7.605
REMARK INTER:                  -5.592
REMARK INTRA:                  -2.013
REMARK UNBOUND:                -1.362
REMARK SMILES CCCCCCCCCCCCCC(=O)[O-]
REMARK SMILES IDX 8 1 9 2 10 3 11 4 12 5 13 6 14 7 15 8 16 9 7 10 6 11 5 12
REMARK SMILES IDX 4 13 3 14 2 15 1 16
REMARK H PARENT
REMARK Flexibility Score: inf
ROOT
ATOM      1  C   UNL     1      19.459   1.673  26.864  1.00  0.00     0.000 C 
ENDROOT
BRANCH   1   2
ATOM      2  C   UNL     1      18.622   2.877  26.394  1.00  0.00     0.000 C 
BRANCH   2   3
ATOM      3  C   UNL     1      18.806   4.164  27.225  1.00  0.00     0.000 C 
BRANCH   3   4
ATOM      4  C   UNL     1      19.142   5.427  26.408  1.00  0.00     0.000 C 
BRANCH   4   5
ATOM      5  C   UNL     1      19.067   5.255  24.877  1.00  0.00     0.006 C 
BRANCH   5   6
ATOM      6  C   UNL     1      20.112   6.067  24.096  1.00  0.00     0.053 C 
BRANCH   6   7
ATOM      7  C   UNL     1      19.642   7.460  23.812  1.00  0.00     0.041 C 
ATOM      8  O   UNL     1      18.415   7.693  23.650  1.00  0.00    -0.550 OA
ATOM      9  O   UNL     1      20.555   8.506  23.763  1.00  0.00    -0.550 OA
ENDBRANCH   6   7
ENDBRANCH   5   6
ENDBRANCH   4   5
ENDBRANCH   3   4
ENDBRANCH   2   3
ENDBRANCH   1   2
BRANCH   1  10
ATOM     10  C   UNL     1      20.488   2.048  27.944  1.00  0.00     0.000 C 
BRANCH  10  11
ATOM     11  C   UNL     1      21.923   1.666  27.546  1.00  0.00    -0.000 C 
BRANCH  11  12
ATOM     12  C   UNL     1      22.812   2.898  27.298  1.00  0.00    -0.000 C 
BRANCH  12  13
ATOM     13  C   UNL     1      22.415   3.678  26.031  1.00  0.00    -0.000 C 
BRANCH  13  14
ATOM     14  C   UNL     1      22.775   2.989  24.702  1.00  0.00    -0.000 C 
BRANCH  14  15
ATOM     15  C   UNL     1      21.542   2.622  23.864  1.00  0.00    -0.003 C 
ATOM     16  C   UNL     1      21.209   1.138  23.994  1.00  0.00     0.004 C 
ENDBRANCH  14  15
ENDBRANCH  13  14
ENDBRANCH  12  13
ENDBRANCH  11  12
ENDBRANCH  10  11
ENDBRANCH   1  10
TORSDOF 12
ENDMDL
MODEL 4
REMARK VINA RESULT:    -3.644      1.452      3.283
REMARK INTER + INTRA:          -7.562
REMARK INTER:                  -5.306
REMARK INTRA:                  -2.256
REMARK UNBOUND:                -1.362
REMARK SMILES CCCCCCCCCCCCCC(=O)[O-]
REMARK SMILES IDX 8 1 9 2 10 3 11 4 12 5 13 6 14 7 15 8 16 9 7 10 6 11 5 12
REMARK SMILES IDX 4 13 3 14 2 15 1 16
REMARK H PARENT
REMARK Flexibility Score: inf
ROOT
ATOM      1  C   UNL     1      22.943   4.351  26.625  1.00  0.00     0.000 C 
ENDROOT
BRANCH   1   2
ATOM      2  C   UNL     1      21.595   4.574  27.334  1.00  0.00     0.000 C 
BRANCH   2   3
ATOM      3  C   UNL     1      20.715   5.687  26.730  1.00  0.00     0.000 C 
BRANCH   3   4
ATOM      4  C   UNL     1      19.357   5.219  26.172  1.00  0.00     0.000 C 
BRANCH   4   5
ATOM      5  C   UNL     1      19.218   5.299  24.638  1.00  0.00     0.006 C 
BRANCH   5   6
ATOM      6  C   UNL     1      20.142   6.331  23.972  1.00  0.00     0.053 C 
BRANCH   6   7
ATOM      7  C   UNL     1      19.406   7.578  23.588  1.00  0.00     0.041 C 
ATOM      8  O   UNL     1      18.199   7.725  23.915  1.00  0.00    -0.550 OA
ATOM      9  O   UNL     1      20.064   8.591  22.902  1.00  0.00    -0.550 OA
ENDBRANCH   6   7
ENDBRANCH   5   6
ENDBRANCH   4   5
ENDBRANCH   3   4
ENDBRANCH   2   3
ENDBRANCH   1   2
BRANCH   1  10
ATOM     10  C   UNL     1      22.980   3.047  25.811  1.00  0.00     0.000 C 
BRANCH  10  11
ATOM     11  C   UNL     1      22.417   3.224  24.390  1.00  0.00    -0.000 C 
BRANCH  11  12
ATOM     12  C   UNL     1      21.233   2.283  24.105  1.00  0.00    -0.000 C 
BRANCH  12  13
ATOM     13  C   UNL     1      20.807   1.465  25.338  1.00  0.00    -0.000 C 
BRANCH  13  14
ATOM     14  C   UNL     1      19.306   1.525  25.673  1.00  0.00    -0.000 C 
BRANCH  14  15
ATOM     15  C   UNL     1      19.034   1.801  27.160  1.00  0.00    -0.003 C 
ATOM     16  C   UNL     1      20.154   1.247  28.036  1.00  0.00     0.004 C 
ENDBRANCH  14  15
ENDBRANCH  13  14
ENDBRANCH  12  13
ENDBRANCH  11  12
ENDBRANCH  10  11
ENDBRANCH   1  10
TORSDOF 12
ENDMDL
MODEL 5
REMARK VINA RESULT:    -3.623      1.203      2.842
REMARK INTER + INTRA:          -7.526
REMARK INTER:                  -6.117
REMARK INTRA:                  -1.409
REMARK UNBOUND:                -1.362
REMARK SMILES CCCCCCCCCCCCCC(=O)[O-]
REMARK SMILES IDX 8 1 9 2 10 3 11 4 12 5 13 6 14 7 15 8 16 9 7 10 6 11 5 12
REMARK SMILES IDX 4 13 3 14 2 15 1 16
REMARK H PARENT
REMARK Flexibility Score: inf
ROOT
ATOM      1  C   UNL     1      18.957   4.080  26.395  1.00  0.00     0.000 C 
ENDROOT
BRANCH   1   2
ATOM      2  C   UNL     1      19.094   4.250  24.870  1.00  0.00     0.000 C 
BRANCH   2   3
ATOM      3  C   UNL     1      18.851   5.681  24.349  1.00  0.00     0.000 C 
BRANCH   3   4
ATOM      4  C   UNL     1      20.124   6.510  24.090  1.00  0.00     0.000 C 
BRANCH   4   5
ATOM      5  C   UNL     1      20.078   7.958  24.617  1.00  0.00     0.006 C 
BRANCH   5   6
ATOM      6  C   UNL     1      20.620   9.009  23.634  1.00  0.00     0.053 C 
BRANCH   6   7
ATOM      7  C   UNL     1      19.633   9.328  22.555  1.00  0.00     0.041 C 
ATOM      8  O   UNL     1      20.032   9.590  21.390  1.00  0.00    -0.550 OA
ATOM      9  O   UNL     1      18.271   9.302  22.827  1.00  0.00    -0.550 OA
ENDBRANCH   6   7
ENDBRANCH   5   6
ENDBRANCH   4   5
ENDBRANCH   3   4
ENDBRANCH   2   3
ENDBRANCH   1   2
BRANCH   1  10
ATOM     10  C   UNL     1      20.258   4.402  27.150  1.00  0.00     0.000 C 
BRANCH  10  11
ATOM     11  C   UNL     1      21.037   3.136  27.545  1.00  0.00    -0.000 C 
BRANCH  11  12
ATOM     12  C   UNL     1      22.485   3.151  27.025  1.00  0.00    -0.000 C 
BRANCH  12  13
ATOM     13  C   UNL     1      22.614   3.790  25.630  1.00  0.00    -0.000 C 
BRANCH  13  14
ATOM     14  C   UNL     1      22.936   2.808  24.489  1.00  0.00    -0.000 C 
BRANCH  14  15
ATOM     15  C   UNL     1      21.694   2.397  23.685  1.00  0.00    -0.003 C 
ATOM     16  C   UNL     1      21.088   1.107  24.229  1.00  0.00     0.004 C 
ENDBRANCH  14  15
ENDBRANCH  13  14
ENDBRANCH  12  13
ENDBRANCH  11  12
ENDBRANCH  10  11
ENDBRANCH   1  10
TORSDOF 12
ENDMDL
MODEL 6
REMARK VINA RESULT:    -3.609      1.263      2.340
REMARK INTER + INTRA:          -7.503
REMARK INTER:                  -5.929
REMARK INTRA:                  -1.574
REMARK UNBOUND:                -1.362
REMARK SMILES CCCCCCCCCCCCCC(=O)[O-]
REMARK SMILES IDX 8 1 9 2 10 3 11 4 12 5 13 6 14 7 15 8 16 9 7 10 6 11 5 12
REMARK SMILES IDX 4 13 3 14 2 15 1 16
REMARK H PARENT
REMARK Flexibility Score: inf
ROOT
ATOM      1  C   UNL     1      19.161   4.449  26.408  1.00  0.00     0.000 C 
ENDROOT
BRANCH   1   2
ATOM      2  C   UNL     1      18.995   4.641  24.890  1.00  0.00     0.000 C 
BRANCH   2   3
ATOM      3  C   UNL     1      20.168   5.355  24.189  1.00  0.00     0.000 C 
BRANCH   3   4
ATOM      4  C   UNL     1      19.844   6.755  23.631  1.00  0.00     0.000 C 
BRANCH   4   5
ATOM      5  C   UNL     1      20.260   7.932  24.539  1.00  0.00     0.006 C 
BRANCH   5   6
ATOM      6  C   UNL     1      20.664   9.206  23.780  1.00  0.00     0.053 C 
BRANCH   6   7
ATOM      7  C   UNL     1      19.641   9.599  22.760  1.00  0.00     0.041 C 
ATOM      8  O   UNL     1      18.513  10.022  23.126  1.00  0.00    -0.550 OA
ATOM      9  O   UNL     1      19.946   9.533  21.406  1.00  0.00    -0.550 OA
ENDBRANCH   6   7
ENDBRANCH   5   6
ENDBRANCH   4   5
ENDBRANCH   3   4
ENDBRANCH   2   3
ENDBRANCH   1   2
BRANCH   1  10
ATOM     10  C   UNL     1      19.041   2.978  26.840  1.00  0.00     0.000 C 
BRANCH  10  11
ATOM     11  C   UNL     1      19.124   2.007  25.650  1.00  0.00    -0.000 C 
BRANCH  11  12
ATOM     12  C   UNL     1      20.513   1.355  25.518  1.00  0.00    -0.000 C 
BRANCH  12  13
ATOM     13  C   UNL     1      21.287   1.841  24.279  1.00  0.00    -0.000 C 
BRANCH  13  14
ATOM     14  C   UNL     1      22.558   2.655  24.583  1.00  0.00    -0.000 C 
BRANCH  14  15
ATOM     15  C   UNL     1      22.808   2.838  26.087  1.00  0.00    -0.003 C 
ATOM     16  C   UNL     1      22.928   4.316  26.449  1.00  0.00     0.004 C 
ENDBRANCH  14  15
ENDBRANCH  13  14
ENDBRANCH  12  13
ENDBRANCH  11  12
ENDBRANCH  10  11
ENDBRANCH   1  10
TORSDOF 12
ENDMDL
MODEL 7
REMARK VINA RESULT:    -3.592      1.485      2.261
REMARK INTER + INTRA:          -7.474
REMARK INTER:                  -5.795
REMARK INTRA:                  -1.678
REMARK UNBOUND:                -1.362
REMARK SMILES CCCCCCCCCCCCCC(=O)[O-]
REMARK SMILES IDX 8 1 9 2 10 3 11 4 12 5 13 6 14 7 15 8 16 9 7 10 6 11 5 12
REMARK SMILES IDX 4 13 3 14 2 15 1 16
REMARK H PARENT
REMARK Flexibility Score: inf
ROOT
ATOM      1  C   UNL     1      18.945   2.643  25.499  1.00  0.00     0.000 C 
ENDROOT
BRANCH   1   2
ATOM      2  C   UNL     1      18.862   3.757  26.559  1.00  0.00     0.000 C 
BRANCH   2   3
ATOM      3  C   UNL     1      19.180   5.175  26.042  1.00  0.00     0.000 C 
BRANCH   3   4
ATOM      4  C   UNL     1      19.226   5.318  24.508  1.00  0.00     0.000 C 
BRANCH   4   5
ATOM      5  C   UNL     1      20.084   6.489  23.987  1.00  0.00     0.006 C 
BRANCH   5   6
ATOM      6  C   UNL     1      19.321   7.814  23.832  1.00  0.00     0.053 C 
BRANCH   6   7
ATOM      7  C   UNL     1      20.184   8.894  23.256  1.00  0.00     0.041 C 
ATOM      8  O   UNL     1      19.904   9.397  22.136  1.00  0.00    -0.550 OA
ATOM      9  O   UNL     1      21.276   9.369  23.972  1.00  0.00    -0.550 OA
ENDBRANCH   6   7
ENDBRANCH   5   6
ENDBRANCH   4   5
ENDBRANCH   3   4
ENDBRANCH   2   3
ENDBRANCH   1   2
BRANCH   1  10
ATOM     10  C   UNL     1      19.883   1.496  25.912  1.00  0.00     0.000 C 
BRANCH  10  11
ATOM     11  C   UNL     1      21.030   1.284  24.910  1.00  0.00    -0.000 C 
BRANCH  11  12
ATOM     12  C   UNL     1      21.276   2.521  24.026  1.00  0.00    -0.000 C 
BRANCH  12  13
ATOM     13  C   UNL     1      22.460   3.377  24.511  1.00  0.00    -0.000 C 
BRANCH  13  14
ATOM     14  C   UNL     1      23.069   2.944  25.858  1.00  0.00    -0.000 C 
BRANCH  14  15
ATOM     15  C   UNL     1      22.525   3.748  27.048  1.00  0.00    -0.003 C 
ATOM     16  C   UNL     1      22.831   5.235  26.893  1.00  0.00     0.004 C 
ENDBRANCH  14  15
ENDBRANCH  13  14
ENDBRANCH  12  13
ENDBRANCH  11  12
ENDBRANCH  10  11
ENDBRANCH   1  10
TORSDOF 12
ENDMDL
MODEL 8
REMARK VINA RESULT:    -3.565      1.742      3.195
REMARK INTER + INTRA:          -7.429
REMARK INTER:                  -6.282
REMARK INTRA:                  -1.147
REMARK UNBOUND:                -1.362
REMARK SMILES CCCCCCCCCCCCCC(=O)[O-]
REMARK SMILES IDX 8 1 9 2 10 3 11 4 12 5 13 6 14 7 15 8 16 9 7 10 6 11 5 12
REMARK SMILES IDX 4 13 3 14 2 15 1 16
REMARK H PARENT
REMARK Flexibility Score: inf
ROOT
ATOM      1  C   UNL     1      21.230   4.632  24.215  1.00  0.00     0.000 C 
ENDROOT
BRANCH   1   2
ATOM      2  C   UNL     1      20.051   4.978  25.143  1.00  0.00     0.000 C 
BRANCH   2   3
ATOM      3  C   UNL     1      18.749   5.380  24.422  1.00  0.00     0.000 C 
BRANCH   3   4
ATOM      4  C   UNL     1      18.793   6.743  23.702  1.00  0.00     0.000 C 
BRANCH   4   5
ATOM      5  C   UNL     1      19.486   7.874  24.488  1.00  0.00     0.006 C 
BRANCH   5   6
ATOM      6  C   UNL     1      20.405   8.766  23.639  1.00  0.00     0.053 C 
BRANCH   6   7
ATOM      7  C   UNL     1      19.649   9.495  22.571  1.00  0.00     0.041 C 
ATOM      8  O   UNL     1      20.083   9.511  21.389  1.00  0.00    -0.550 OA
ATOM      9  O   UNL     1      18.449  10.125  22.874  1.00  0.00    -0.550 OA
ENDBRANCH   6   7
ENDBRANCH   5   6
ENDBRANCH   4   5
ENDBRANCH   3   4
ENDBRANCH   2   3
ENDBRANCH   1   2
BRANCH   1  10
ATOM     10  C   UNL     1      22.025   3.405  24.693  1.00  0.00     0.000 C 
BRANCH  10  11
ATOM     11  C   UNL     1      21.827   2.183  23.780  1.00  0.00    -0.000 C 
BRANCH  11  12
ATOM     12  C   UNL     1      20.882   1.136  24.396  1.00  0.00    -0.000 C 
BRANCH  12  13
ATOM     13  C   UNL     1      20.453   1.487  25.832  1.00  0.00    -0.000 C 
BRANCH  13  14
ATOM     14  C   UNL     1      18.933   1.495  26.076  1.00  0.00    -0.000 C 
BRANCH  14  15
ATOM     15  C   UNL     1      18.563   1.711  27.551  1.00  0.00    -0.003 C 
ATOM     16  C   UNL     1      18.157   3.158  27.811  1.00  0.00     0.004 C 
ENDBRANCH  14  15
ENDBRANCH  13  14
ENDBRANCH  12  13
ENDBRANCH  11  12
ENDBRANCH  10  11
ENDBRANCH   1  10
TORSDOF 12
ENDMDL
MODEL 9
REMARK VINA RESULT:    -3.552      1.417      3.261
REMARK INTER + INTRA:          -7.406
REMARK INTER:                  -5.429
REMARK INTRA:                  -1.977
REMARK UNBOUND:                -1.362
REMARK SMILES CCCCCCCCCCCCCC(=O)[O-]
REMARK SMILES IDX 8 1 9 2 10 3 11 4 12 5 13 6 14 7 15 8 16 9 7 10 6 11 5 12
REMARK SMILES IDX 4 13 3 14 2 15 1 16
REMARK H PARENT
REMARK Flexibility Score: inf
ROOT
ATOM      1  C   UNL     1      22.528   5.187  26.733  1.00  0.00     0.000 C 
ENDROOT
BRANCH   1   2
ATOM      2  C   UNL     1      21.240   6.024  26.634  1.00  0.00     0.000 C 
BRANCH   2   3
ATOM      3  C   UNL     1      19.950   5.212  26.398  1.00  0.00     0.000 C 
BRANCH   3   4
ATOM      4  C   UNL     1      19.429   5.216  24.948  1.00  0.00     0.000 C 
BRANCH   4   5
ATOM      5  C   UNL     1      20.180   6.161  23.987  1.00  0.00     0.006 C 
BRANCH   5   6
ATOM      6  C   UNL     1      19.406   7.437  23.618  1.00  0.00     0.053 C 
BRANCH   6   7
ATOM      7  C   UNL     1      20.280   8.652  23.651  1.00  0.00     0.041 C 
ATOM      8  O   UNL     1      20.914   8.947  24.698  1.00  0.00    -0.550 OA
ATOM      9  O   UNL     1      20.421   9.439  22.515  1.00  0.00    -0.550 OA
ENDBRANCH   6   7
ENDBRANCH   5   6
ENDBRANCH   4   5
ENDBRANCH   3   4
ENDBRANCH   2   3
ENDBRANCH   1   2
BRANCH   1  10
ATOM     10  C   UNL     1      22.270   3.752  27.224  1.00  0.00     0.000 C 
BRANCH  10  11
ATOM     11  C   UNL     1      22.899   2.693  26.303  1.00  0.00    -0.000 C 
BRANCH  11  12
ATOM     12  C   UNL     1      22.813   3.081  24.816  1.00  0.00    -0.000 C 
BRANCH  12  13
ATOM     13  C   UNL     1      21.604   2.450  24.101  1.00  0.00    -0.000 C 
BRANCH  13  14
ATOM     14  C   UNL     1      20.945   1.276  24.848  1.00  0.00    -0.000 C 
BRANCH  14  15
ATOM     15  C   UNL     1      19.533   1.604  25.354  1.00  0.00    -0.003 C 
ATOM     16  C   UNL     1      19.437   1.435  26.867  1.00  0.00     0.004 C 
ENDBRANCH  14  15
ENDBRANCH  13  14
ENDBRANCH  12  13
ENDBRANCH  11  12
ENDBRANCH  10  11
ENDBRANCH   1  10
TORSDOF 12
ENDMDL
