MODEL 1
REMARK VINA RESULT:    -4.956      0.000      0.000
REMARK INTER + INTRA:          -8.196
REMARK INTER:                  -6.549
REMARK INTRA:                  -1.646
REMARK UNBOUND:                -1.646
REMARK SMILES CC[C@@H](C=C[C@@H](C)[C@H]1CC[C@H]2[C@H]3CC=C4C[C@@H](O)CC[C@@]4(C)[C@@H]3CC[C@@]12C)C(C)C
REMARK SMILES IDX 6 1 7 2 5 3 4 4 3 5 2 6 1 7 28 8 29 9 30 10 8 11 9 12 26 13
REMARK SMILES IDX 10 14 11 15 25 16 27 17 12 18 24 19 23 20 13 21 21 22 14 23
REMARK SMILES IDX 15 24 20 25 22 26 16 27 19 28 17 29 18 30
REMARK H PARENT 18 31
REMARK Flexibility Score: inf
ROOT
ATOM      1  C   UNL     1      -4.419  20.475  -8.392  1.00  0.00     0.012 C 
ATOM      2  C   UNL     1      -4.150  19.000  -8.747  1.00  0.00     0.012 C 
ENDROOT
BRANCH   1   3
ATOM      3  C   UNL     1      -3.752  20.846  -7.082  1.00  0.00    -0.028 C 
ATOM      4  C   UNL     1      -3.019  21.963  -6.953  1.00  0.00    -0.027 C 
BRANCH   4   5
ATOM      5  C   UNL     1      -2.321  22.307  -5.653  1.00  0.00     0.014 C 
BRANCH   5   6
ATOM      6  C   UNL     1      -2.065  21.026  -4.824  1.00  0.00     0.004 C 
ATOM      7  C   UNL     1      -0.633  20.512  -4.992  1.00  0.00     0.004 C 
ENDBRANCH   5   6
BRANCH   5   8
ATOM      8  C   UNL     1      -3.137  23.394  -4.889  1.00  0.00    -0.011 C 
ATOM      9  C   UNL     1      -4.114  22.780  -3.876  1.00  0.00     0.008 C 
ATOM     10  C   UNL     1      -3.876  24.369  -5.822  1.00  0.00     0.008 C 
ENDBRANCH   5   8
ENDBRANCH   4   5
ENDBRANCH   1   3
BRANCH   1  11
ATOM     11  C   UNL     1      -5.913  20.952  -8.450  1.00  0.00     0.002 C 
ATOM     12  C   UNL     1      -6.519  21.193  -7.062  1.00  0.00     0.005 C 
ATOM     13  C   UNL     1      -6.385  22.164  -9.325  1.00  0.00    -0.026 C 
ATOM     14  C   UNL     1      -7.722  22.112  -7.272  1.00  0.00     0.005 C 
ATOM     15  C   UNL     1      -7.825  22.364  -8.788  1.00  0.00    -0.001 C 
ATOM     16  C   UNL     1      -5.553  23.458  -9.085  1.00  0.00     0.007 C 
ATOM     17  C   UNL     1      -6.409  21.808 -10.830  1.00  0.00     0.012 C 
ATOM     18  C   UNL     1      -8.513  23.704  -9.202  1.00  0.00     0.000 C 
ATOM     19  C   UNL     1      -6.233  24.720  -9.620  1.00  0.00     0.005 C 
ATOM     20  C   UNL     1      -7.622  24.947  -8.975  1.00  0.00     0.003 C 
ATOM     21  C   UNL     1      -9.862  23.875  -8.485  1.00  0.00     0.031 C 
ATOM     22  C   UNL     1      -8.326  26.279  -9.465  1.00  0.00    -0.008 C 
ATOM     23  C   UNL     1     -10.502  25.204  -8.747  1.00  0.00    -0.027 C 
ATOM     24  C   UNL     1      -9.801  26.321  -9.030  1.00  0.00    -0.065 C 
ATOM     25  C   UNL     1      -7.588  27.499  -8.829  1.00  0.00     0.014 C 
ATOM     26  C   UNL     1      -8.286  26.407 -11.014  1.00  0.00     0.016 C 
ATOM     27  C   UNL     1     -10.549  27.641  -9.104  1.00  0.00     0.063 C 
ATOM     28  C   UNL     1      -8.329  28.836  -9.000  1.00  0.00     0.033 C 
ATOM     29  C   UNL     1      -9.752  28.768  -8.435  1.00  0.00     0.118 C 
BRANCH  29  30
ATOM     30  O   UNL     1      -9.698  28.574  -7.044  1.00  0.00    -0.393 OA
ATOM     31  H   UNL     1     -10.506  29.009  -6.663  1.00  0.00     0.210 HD
ENDBRANCH  29  30
ENDBRANCH   1  11
TORSDOF 6
ENDMDL
MODEL 2
REMARK VINA RESULT:    -4.951      0.745      1.259
REMARK INTER + INTRA:          -8.189
REMARK INTER:                  -6.959
REMARK INTRA:                  -1.229
REMARK UNBOUND:                -1.646
REMARK SMILES CC[C@@H](C=C[C@@H](C)[C@H]1CC[C@H]2[C@H]3CC=C4C[C@@H](O)CC[C@@]4(C)[C@@H]3CC[C@@]12C)C(C)C
REMARK SMILES IDX 6 1 7 2 5 3 4 4 3 5 2 6 1 7 28 8 29 9 30 10 8 11 9 12 26 13
REMARK SMILES IDX 10 14 11 15 25 16 27 17 12 18 24 19 23 20 13 21 21 22 14 23
REMARK SMILES IDX 15 24 20 25 22 26 16 27 19 28 17 29 18 30
REMARK H PARENT 18 31
REMARK Flexibility Score: inf
ROOT
ATOM      1  C   UNL     1      -4.584  20.550  -8.719  1.00  0.00     0.012 C 
ATOM      2  C   UNL     1      -4.419  19.018  -8.730  1.00  0.00     0.012 C 
ENDROOT
BRANCH   1   3
ATOM      3  C   UNL     1      -3.776  21.173  -7.597  1.00  0.00    -0.028 C 
ATOM      4  C   UNL     1      -3.476  20.494  -6.480  1.00  0.00    -0.027 C 
BRANCH   4   5
ATOM      5  C   UNL     1      -2.704  21.137  -5.345  1.00  0.00     0.014 C 
BRANCH   5   6
ATOM      6  C   UNL     1      -3.458  20.950  -4.007  1.00  0.00     0.004 C 
ATOM      7  C   UNL     1      -4.859  20.370  -4.216  1.00  0.00     0.004 C 
ENDBRANCH   5   6
BRANCH   5   8
ATOM      8  C   UNL     1      -2.405  22.627  -5.691  1.00  0.00    -0.011 C 
ATOM      9  C   UNL     1      -0.902  22.894  -5.854  1.00  0.00     0.008 C 
ATOM     10  C   UNL     1      -3.018  23.621  -4.689  1.00  0.00     0.008 C 
ENDBRANCH   5   8
ENDBRANCH   4   5
ENDBRANCH   1   3
BRANCH   1  11
ATOM     11  C   UNL     1      -6.054  21.100  -8.764  1.00  0.00     0.002 C 
ATOM     12  C   UNL     1      -6.642  21.353  -7.370  1.00  0.00     0.005 C 
ATOM     13  C   UNL     1      -6.470  22.344  -9.622  1.00  0.00    -0.026 C 
ATOM     14  C   UNL     1      -7.799  22.332  -7.564  1.00  0.00     0.005 C 
ATOM     15  C   UNL     1      -7.896  22.608  -9.076  1.00  0.00    -0.001 C 
ATOM     16  C   UNL     1      -5.574  23.593  -9.371  1.00  0.00     0.007 C 
ATOM     17  C   UNL     1      -6.517  22.008 -11.131  1.00  0.00     0.012 C 
ATOM     18  C   UNL     1      -8.519  23.984  -9.470  1.00  0.00     0.000 C 
ATOM     19  C   UNL     1      -6.194  24.893  -9.887  1.00  0.00     0.005 C 
ATOM     20  C   UNL     1      -7.568  25.180  -9.233  1.00  0.00     0.003 C 
ATOM     21  C   UNL     1      -9.856  24.213  -8.745  1.00  0.00     0.031 C 
ATOM     22  C   UNL     1      -8.208  26.551  -9.704  1.00  0.00    -0.008 C 
ATOM     23  C   UNL     1     -10.430  25.575  -8.988  1.00  0.00    -0.027 C 
ATOM     24  C   UNL     1      -9.677  26.660  -9.261  1.00  0.00    -0.065 C 
ATOM     25  C   UNL     1      -7.408  27.726  -9.056  1.00  0.00     0.014 C 
ATOM     26  C   UNL     1      -8.168  26.695 -11.251  1.00  0.00     0.016 C 
ATOM     27  C   UNL     1     -10.360  28.015  -9.316  1.00  0.00     0.063 C 
ATOM     28  C   UNL     1      -8.084  29.098  -9.208  1.00  0.00     0.033 C 
ATOM     29  C   UNL     1      -9.506  29.094  -8.637  1.00  0.00     0.118 C 
BRANCH  29  30
ATOM     30  O   UNL     1      -9.455  28.880  -7.248  1.00  0.00    -0.393 OA
ATOM     31  H   UNL     1      -9.124  29.724  -6.841  1.00  0.00     0.210 HD
ENDBRANCH  29  30
ENDBRANCH   1  11
TORSDOF 6
ENDMDL
MODEL 3
REMARK VINA RESULT:    -4.687      2.774      6.795
REMARK INTER + INTRA:          -7.840
REMARK INTER:                  -6.623
REMARK INTRA:                  -1.217
REMARK UNBOUND:                -1.646
REMARK SMILES CC[C@@H](C=C[C@@H](C)[C@H]1CC[C@H]2[C@H]3CC=C4C[C@@H](O)CC[C@@]4(C)[C@@H]3CC[C@@]12C)C(C)C
REMARK SMILES IDX 6 1 7 2 5 3 4 4 3 5 2 6 1 7 28 8 29 9 30 10 8 11 9 12 26 13
REMARK SMILES IDX 10 14 11 15 25 16 27 17 12 18 24 19 23 20 13 21 21 22 14 23
REMARK SMILES IDX 15 24 20 25 22 26 16 27 19 28 17 29 18 30
REMARK H PARENT 18 31
REMARK Flexibility Score: inf
ROOT
ATOM      1  C   UNL     1      -8.995  21.281  -9.255  1.00  0.00     0.012 C 
ATOM      2  C   UNL     1     -10.123  21.657 -10.235  1.00  0.00     0.012 C 
ENDROOT
BRANCH   1   3
ATOM      3  C   UNL     1      -9.316  21.757  -7.852  1.00  0.00    -0.028 C 
ATOM      4  C   UNL     1      -9.500  23.056  -7.570  1.00  0.00    -0.027 C 
BRANCH   4   5
ATOM      5  C   UNL     1      -9.778  23.529  -6.158  1.00  0.00     0.014 C 
BRANCH   5   6
ATOM      6  C   UNL     1      -8.807  24.669  -5.771  1.00  0.00     0.004 C 
ATOM      7  C   UNL     1      -7.835  25.003  -6.906  1.00  0.00     0.004 C 
ENDBRANCH   5   6
BRANCH   5   8
ATOM      8  C   UNL     1      -9.740  22.316  -5.180  1.00  0.00    -0.011 C 
ATOM      9  C   UNL     1     -10.917  22.327  -4.195  1.00  0.00     0.008 C 
ATOM     10  C   UNL     1      -8.408  22.188  -4.419  1.00  0.00     0.008 C 
ENDBRANCH   5   8
ENDBRANCH   4   5
ENDBRANCH   1   3
BRANCH   1  11
ATOM     11  C   UNL     1      -7.534  21.656  -9.687  1.00  0.00     0.002 C 
ATOM     12  C   UNL     1      -7.370  23.145 -10.018  1.00  0.00     0.005 C 
ATOM     13  C   UNL     1      -6.272  21.280  -8.835  1.00  0.00    -0.026 C 
ATOM     14  C   UNL     1      -5.877  23.449  -9.904  1.00  0.00     0.005 C 
ATOM     15  C   UNL     1      -5.182  22.121  -9.545  1.00  0.00    -0.001 C 
ATOM     16  C   UNL     1      -6.383  21.718  -7.345  1.00  0.00     0.007 C 
ATOM     17  C   UNL     1      -5.946  19.771  -8.932  1.00  0.00     0.012 C 
ATOM     18  C   UNL     1      -3.832  22.256  -8.772  1.00  0.00     0.000 C 
ATOM     19  C   UNL     1      -5.038  21.715  -6.614  1.00  0.00     0.005 C 
ATOM     20  C   UNL     1      -4.011  22.655  -7.289  1.00  0.00     0.003 C 
ATOM     21  C   UNL     1      -2.887  23.241  -9.481  1.00  0.00     0.031 C 
ATOM     22  C   UNL     1      -2.626  22.720  -6.521  1.00  0.00    -0.008 C 
ATOM     23  C   UNL     1      -1.629  23.505  -8.710  1.00  0.00    -0.027 C 
ATOM     24  C   UNL     1      -1.554  23.428  -7.366  1.00  0.00    -0.065 C 
ATOM     25  C   UNL     1      -2.825  23.526  -5.198  1.00  0.00     0.014 C 
ATOM     26  C   UNL     1      -2.099  21.298  -6.179  1.00  0.00     0.016 C 
ATOM     27  C   UNL     1      -0.273  23.887  -6.690  1.00  0.00     0.063 C 
ATOM     28  C   UNL     1      -1.511  23.898  -4.491  1.00  0.00     0.033 C 
ATOM     29  C   UNL     1      -0.576  24.685  -5.415  1.00  0.00     0.118 C 
BRANCH  29  30
ATOM     30  O   UNL     1      -1.162  25.922  -5.736  1.00  0.00    -0.393 OA
ATOM     31  H   UNL     1      -0.433  26.597  -5.718  1.00  0.00     0.210 HD
ENDBRANCH  29  30
ENDBRANCH   1  11
TORSDOF 6
ENDMDL
MODEL 4
REMARK VINA RESULT:    -4.673      2.355      7.332
REMARK INTER + INTRA:          -7.821
REMARK INTER:                  -6.437
REMARK INTRA:                  -1.384
REMARK UNBOUND:                -1.646
REMARK SMILES CC[C@@H](C=C[C@@H](C)[C@H]1CC[C@H]2[C@H]3CC=C4C[C@@H](O)CC[C@@]4(C)[C@@H]3CC[C@@]12C)C(C)C
REMARK SMILES IDX 6 1 7 2 5 3 4 4 3 5 2 6 1 7 28 8 29 9 30 10 8 11 9 12 26 13
REMARK SMILES IDX 10 14 11 15 25 16 27 17 12 18 24 19 23 20 13 21 21 22 14 23
REMARK SMILES IDX 15 24 20 25 22 26 16 27 19 28 17 29 18 30
REMARK H PARENT 18 31
REMARK Flexibility Score: inf
ROOT
ATOM      1  C   UNL     1      -9.301  22.441  -9.650  1.00  0.00     0.012 C 
ATOM      2  C   UNL     1     -10.454  21.633 -10.275  1.00  0.00     0.012 C 
ENDROOT
BRANCH   1   3
ATOM      3  C   UNL     1      -8.885  23.582 -10.558  1.00  0.00    -0.028 C 
ATOM      4  C   UNL     1      -8.619  24.806 -10.079  1.00  0.00    -0.027 C 
BRANCH   4   5
ATOM      5  C   UNL     1      -8.245  25.953 -10.996  1.00  0.00     0.014 C 
BRANCH   5   6
ATOM      6  C   UNL     1      -6.779  26.381 -10.752  1.00  0.00     0.004 C 
ATOM      7  C   UNL     1      -5.923  25.222 -10.235  1.00  0.00     0.004 C 
ENDBRANCH   5   6
BRANCH   5   8
ATOM      8  C   UNL     1      -9.271  27.114 -10.832  1.00  0.00    -0.011 C 
ATOM      9  C   UNL     1      -8.623  28.493 -11.024  1.00  0.00     0.008 C 
ATOM     10  C   UNL     1     -10.038  27.066  -9.499  1.00  0.00     0.008 C 
ENDBRANCH   5   8
ENDBRANCH   4   5
ENDBRANCH   1   3
BRANCH   1  11
ATOM     11  C   UNL     1      -8.068  21.621  -9.130  1.00  0.00     0.002 C 
ATOM     12  C   UNL     1      -6.883  21.637 -10.104  1.00  0.00     0.005 C 
ATOM     13  C   UNL     1      -7.441  21.838  -7.710  1.00  0.00    -0.026 C 
ATOM     14  C   UNL     1      -5.646  21.278  -9.281  1.00  0.00     0.005 C 
ATOM     15  C   UNL     1      -6.133  21.018  -7.843  1.00  0.00    -0.001 C 
ATOM     16  C   UNL     1      -7.096  23.327  -7.409  1.00  0.00     0.007 C 
ATOM     17  C   UNL     1      -8.339  21.255  -6.592  1.00  0.00     0.012 C 
ATOM     18  C   UNL     1      -5.074  21.260  -6.721  1.00  0.00     0.000 C 
ATOM     19  C   UNL     1      -6.145  23.498  -6.223  1.00  0.00     0.005 C 
ATOM     20  C   UNL     1      -4.804  22.757  -6.443  1.00  0.00     0.003 C 
ATOM     21  C   UNL     1      -3.758  20.529  -7.037  1.00  0.00     0.031 C 
ATOM     22  C   UNL     1      -3.775  22.965  -5.257  1.00  0.00    -0.008 C 
ATOM     23  C   UNL     1      -2.667  20.835  -6.057  1.00  0.00    -0.027 C 
ATOM     24  C   UNL     1      -2.586  21.997  -5.376  1.00  0.00    -0.065 C 
ATOM     25  C   UNL     1      -3.229  24.427  -5.318  1.00  0.00     0.014 C 
ATOM     26  C   UNL     1      -4.444  22.726  -3.875  1.00  0.00     0.016 C 
ATOM     27  C   UNL     1      -1.342  22.257  -4.545  1.00  0.00     0.063 C 
ATOM     28  C   UNL     1      -2.025  24.683  -4.397  1.00  0.00     0.033 C 
ATOM     29  C   UNL     1      -0.875  23.712  -4.689  1.00  0.00     0.118 C 
BRANCH  29  30
ATOM     30  O   UNL     1      -0.380  23.945  -5.984  1.00  0.00    -0.393 OA
ATOM     31  H   UNL     1      -0.873  24.730  -6.342  1.00  0.00     0.210 HD
ENDBRANCH  29  30
ENDBRANCH   1  11
TORSDOF 6
ENDMDL
MODEL 5
REMARK VINA RESULT:    -4.595      2.933      5.898
REMARK INTER + INTRA:          -7.718
REMARK INTER:                  -6.173
REMARK INTRA:                  -1.546
REMARK UNBOUND:                -1.646
REMARK SMILES CC[C@@H](C=C[C@@H](C)[C@H]1CC[C@H]2[C@H]3CC=C4C[C@@H](O)CC[C@@]4(C)[C@@H]3CC[C@@]12C)C(C)C
REMARK SMILES IDX 6 1 7 2 5 3 4 4 3 5 2 6 1 7 28 8 29 9 30 10 8 11 9 12 26 13
REMARK SMILES IDX 10 14 11 15 25 16 27 17 12 18 24 19 23 20 13 21 21 22 14 23
REMARK SMILES IDX 15 24 20 25 22 26 16 27 19 28 17 29 18 30
REMARK H PARENT 18 31
REMARK Flexibility Score: inf
ROOT
ATOM      1  C   UNL     1      -9.269  21.838  -9.417  1.00  0.00     0.012 C 
ATOM      2  C   UNL     1     -10.514  21.420 -10.224  1.00  0.00     0.012 C 
ENDROOT
BRANCH   1   3
ATOM      3  C   UNL     1      -9.599  21.972  -7.943  1.00  0.00    -0.028 C 
ATOM      4  C   UNL     1      -8.735  21.595  -6.988  1.00  0.00    -0.027 C 
BRANCH   4   5
ATOM      5  C   UNL     1      -9.088  21.692  -5.518  1.00  0.00     0.014 C 
BRANCH   5   6
ATOM      6  C   UNL     1     -10.508  22.279  -5.343  1.00  0.00     0.004 C 
ATOM      7  C   UNL     1     -10.818  22.601  -3.878  1.00  0.00     0.004 C 
ENDBRANCH   5   6
BRANCH   5   8
ATOM      8  C   UNL     1      -7.983  22.494  -4.764  1.00  0.00    -0.011 C 
ATOM      9  C   UNL     1      -7.657  23.824  -5.458  1.00  0.00     0.008 C 
ATOM     10  C   UNL     1      -6.696  21.684  -4.530  1.00  0.00     0.008 C 
ENDBRANCH   5   8
ENDBRANCH   4   5
ENDBRANCH   1   3
BRANCH   1  11
ATOM     11  C   UNL     1      -8.462  23.071  -9.957  1.00  0.00     0.002 C 
ATOM     12  C   UNL     1      -8.864  24.390  -9.285  1.00  0.00     0.005 C 
ATOM     13  C   UNL     1      -6.896  23.099 -10.022  1.00  0.00    -0.026 C 
ATOM     14  C   UNL     1      -7.699  25.355  -9.503  1.00  0.00     0.005 C 
ATOM     15  C   UNL     1      -6.647  24.597 -10.334  1.00  0.00    -0.001 C 
ATOM     16  C   UNL     1      -6.216  22.725  -8.672  1.00  0.00     0.007 C 
ATOM     17  C   UNL     1      -6.355  22.207 -11.165  1.00  0.00     0.012 C 
ATOM     18  C   UNL     1      -5.173  25.081 -10.156  1.00  0.00     0.000 C 
ATOM     19  C   UNL     1      -4.739  23.124  -8.610  1.00  0.00     0.005 C 
ATOM     20  C   UNL     1      -4.541  24.645  -8.813  1.00  0.00     0.003 C 
ATOM     21  C   UNL     1      -5.068  26.605 -10.327  1.00  0.00     0.031 C 
ATOM     22  C   UNL     1      -3.027  25.098  -8.694  1.00  0.00    -0.008 C 
ATOM     23  C   UNL     1      -3.697  27.136 -10.037  1.00  0.00    -0.027 C 
ATOM     24  C   UNL     1      -2.840  26.546  -9.179  1.00  0.00    -0.065 C 
ATOM     25  C   UNL     1      -2.597  25.020  -7.195  1.00  0.00     0.014 C 
ATOM     26  C   UNL     1      -2.095  24.189  -9.543  1.00  0.00     0.016 C 
ATOM     27  C   UNL     1      -1.550  27.272  -8.838  1.00  0.00     0.063 C 
ATOM     28  C   UNL     1      -1.243  25.686  -6.899  1.00  0.00     0.033 C 
ATOM     29  C   UNL     1      -1.227  27.153  -7.343  1.00  0.00     0.118 C 
BRANCH  29  30
ATOM     30  O   UNL     1      -2.153  27.886  -6.579  1.00  0.00    -0.393 OA
ATOM     31  H   UNL     1      -3.053  27.682  -6.949  1.00  0.00     0.210 HD
ENDBRANCH  29  30
ENDBRANCH   1  11
TORSDOF 6
ENDMDL
MODEL 6
REMARK VINA RESULT:    -4.513      2.655      7.392
REMARK INTER + INTRA:          -7.610
REMARK INTER:                  -6.237
REMARK INTRA:                  -1.373
REMARK UNBOUND:                -1.646
REMARK SMILES CC[C@@H](C=C[C@@H](C)[C@H]1CC[C@H]2[C@H]3CC=C4C[C@@H](O)CC[C@@]4(C)[C@@H]3CC[C@@]12C)C(C)C
REMARK SMILES IDX 6 1 7 2 5 3 4 4 3 5 2 6 1 7 28 8 29 9 30 10 8 11 9 12 26 13
REMARK SMILES IDX 10 14 11 15 25 16 27 17 12 18 24 19 23 20 13 21 21 22 14 23
REMARK SMILES IDX 15 24 20 25 22 26 16 27 19 28 17 29 18 30
REMARK H PARENT 18 31
REMARK Flexibility Score: inf
ROOT
ATOM      1  C   UNL     1      -9.102  22.344  -9.638  1.00  0.00     0.012 C 
ATOM      2  C   UNL     1      -8.623  22.898 -10.993  1.00  0.00     0.012 C 
ENDROOT
BRANCH   1   3
ATOM      3  C   UNL     1      -9.816  23.416  -8.837  1.00  0.00    -0.028 C 
ATOM      4  C   UNL     1      -9.605  24.722  -9.058  1.00  0.00    -0.027 C 
BRANCH   4   5
ATOM      5  C   UNL     1     -10.290  25.787  -8.226  1.00  0.00     0.014 C 
BRANCH   5   6
ATOM      6  C   UNL     1     -10.311  27.134  -8.986  1.00  0.00     0.004 C 
ATOM      7  C   UNL     1      -9.414  27.105 -10.226  1.00  0.00     0.004 C 
ENDBRANCH   5   6
BRANCH   5   8
ATOM      8  C   UNL     1      -9.615  25.872  -6.823  1.00  0.00    -0.011 C 
ATOM      9  C   UNL     1     -10.452  26.686  -5.825  1.00  0.00     0.008 C 
ATOM     10  C   UNL     1      -8.173  26.406  -6.871  1.00  0.00     0.008 C 
ENDBRANCH   5   8
ENDBRANCH   4   5
ENDBRANCH   1   3
BRANCH   1  11
ATOM     11  C   UNL     1      -8.040  21.573  -8.778  1.00  0.00     0.002 C 
ATOM     12  C   UNL     1      -7.080  20.730  -9.626  1.00  0.00     0.005 C 
ATOM     13  C   UNL     1      -7.137  22.278  -7.708  1.00  0.00    -0.026 C 
ATOM     14  C   UNL     1      -5.845  20.481  -8.760  1.00  0.00     0.005 C 
ATOM     15  C   UNL     1      -6.119  21.151  -7.400  1.00  0.00    -0.001 C 
ATOM     16  C   UNL     1      -6.386  23.525  -8.262  1.00  0.00     0.007 C 
ATOM     17  C   UNL     1      -7.939  22.651  -6.438  1.00  0.00     0.012 C 
ATOM     18  C   UNL     1      -4.852  21.594  -6.601  1.00  0.00     0.000 C 
ATOM     19  C   UNL     1      -5.227  23.977  -7.369  1.00  0.00     0.005 C 
ATOM     20  C   UNL     1      -4.174  22.859  -7.178  1.00  0.00     0.003 C 
ATOM     21  C   UNL     1      -3.836  20.444  -6.496  1.00  0.00     0.031 C 
ATOM     22  C   UNL     1      -2.932  23.316  -6.307  1.00  0.00    -0.008 C 
ATOM     23  C   UNL     1      -2.548  20.856  -5.852  1.00  0.00    -0.027 C 
ATOM     24  C   UNL     1      -2.061  22.113  -5.905  1.00  0.00    -0.065 C 
ATOM     25  C   UNL     1      -2.059  24.296  -7.154  1.00  0.00     0.014 C 
ATOM     26  C   UNL     1      -3.384  24.030  -5.003  1.00  0.00     0.016 C 
ATOM     27  C   UNL     1      -0.665  22.367  -5.365  1.00  0.00     0.063 C 
ATOM     28  C   UNL     1      -0.686  24.603  -6.534  1.00  0.00     0.033 C 
ATOM     29  C   UNL     1       0.116  23.323  -6.277  1.00  0.00     0.118 C 
BRANCH  29  30
ATOM     30  O   UNL     1       0.416  22.700  -7.501  1.00  0.00    -0.393 OA
ATOM     31  H   UNL     1       1.373  22.889  -7.690  1.00  0.00     0.210 HD
ENDBRANCH  29  30
ENDBRANCH   1  11
TORSDOF 6
ENDMDL
MODEL 7
REMARK VINA RESULT:    -4.475      3.924      6.364
REMARK INTER + INTRA:          -7.560
REMARK INTER:                  -6.706
REMARK INTRA:                  -0.854
REMARK UNBOUND:                -1.646
REMARK SMILES CC[C@@H](C=C[C@@H](C)[C@H]1CC[C@H]2[C@H]3CC=C4C[C@@H](O)CC[C@@]4(C)[C@@H]3CC[C@@]12C)C(C)C
REMARK SMILES IDX 6 1 7 2 5 3 4 4 3 5 2 6 1 7 28 8 29 9 30 10 8 11 9 12 26 13
REMARK SMILES IDX 10 14 11 15 25 16 27 17 12 18 24 19 23 20 13 21 21 22 14 23
REMARK SMILES IDX 15 24 20 25 22 26 16 27 19 28 17 29 18 30
REMARK H PARENT 18 31
REMARK Flexibility Score: inf
ROOT
ATOM      1  C   UNL     1      -3.199  28.686 -11.308  1.00  0.00     0.012 C 
ATOM      2  C   UNL     1      -2.972  28.948 -12.810  1.00  0.00     0.012 C 
ENDROOT
BRANCH   1   3
ATOM      3  C   UNL     1      -2.315  27.556 -10.816  1.00  0.00    -0.028 C 
ATOM      4  C   UNL     1      -1.188  27.210 -11.456  1.00  0.00    -0.027 C 
BRANCH   4   5
ATOM      5  C   UNL     1      -0.332  26.052 -10.983  1.00  0.00     0.014 C 
BRANCH   5   6
ATOM      6  C   UNL     1       0.343  25.355 -12.187  1.00  0.00     0.004 C 
ATOM      7  C   UNL     1       0.642  26.337 -13.323  1.00  0.00     0.004 C 
ENDBRANCH   5   6
BRANCH   5   8
ATOM      8  C   UNL     1      -1.188  25.091 -10.103  1.00  0.00    -0.011 C 
ATOM      9  C   UNL     1      -0.764  25.123  -8.628  1.00  0.00     0.008 C 
ATOM     10  C   UNL     1      -1.206  23.643 -10.623  1.00  0.00     0.008 C 
ENDBRANCH   5   8
ENDBRANCH   4   5
ENDBRANCH   1   3
BRANCH   1  11
ATOM     11  C   UNL     1      -4.687  28.520 -10.839  1.00  0.00     0.002 C 
ATOM     12  C   UNL     1      -5.676  28.428 -12.008  1.00  0.00     0.005 C 
ATOM     13  C   UNL     1      -5.141  27.415  -9.825  1.00  0.00    -0.026 C 
ATOM     14  C   UNL     1      -6.938  27.767 -11.452  1.00  0.00     0.005 C 
ATOM     15  C   UNL     1      -6.681  27.518  -9.954  1.00  0.00    -0.001 C 
ATOM     16  C   UNL     1      -4.676  25.983 -10.224  1.00  0.00     0.007 C 
ATOM     17  C   UNL     1      -4.691  27.745  -8.381  1.00  0.00     0.012 C 
ATOM     18  C   UNL     1      -7.486  26.338  -9.321  1.00  0.00     0.000 C 
ATOM     19  C   UNL     1      -5.426  24.876  -9.480  1.00  0.00     0.005 C 
ATOM     20  C   UNL     1      -6.953  24.944  -9.726  1.00  0.00     0.003 C 
ATOM     21  C   UNL     1      -8.984  26.454  -9.650  1.00  0.00     0.031 C 
ATOM     22  C   UNL     1      -7.751  23.774  -9.016  1.00  0.00    -0.008 C 
ATOM     23  C   UNL     1      -9.781  25.276  -9.176  1.00  0.00    -0.027 C 
ATOM     24  C   UNL     1      -9.266  24.037  -9.045  1.00  0.00    -0.065 C 
ATOM     25  C   UNL     1      -7.466  22.440  -9.777  1.00  0.00     0.014 C 
ATOM     26  C   UNL     1      -7.326  23.616  -7.530  1.00  0.00     0.016 C 
ATOM     27  C   UNL     1     -10.215  22.895  -8.725  1.00  0.00     0.063 C 
ATOM     28  C   UNL     1      -8.385  21.278  -9.364  1.00  0.00     0.033 C 
ATOM     29  C   UNL     1      -9.864  21.640  -9.536  1.00  0.00     0.118 C 
BRANCH  29  30
ATOM     30  O   UNL     1     -10.145  21.841 -10.899  1.00  0.00    -0.393 OA
ATOM     31  H   UNL     1     -10.548  22.746 -10.977  1.00  0.00     0.210 HD
ENDBRANCH  29  30
ENDBRANCH   1  11
TORSDOF 6
ENDMDL
MODEL 8
REMARK VINA RESULT:    -4.331      2.537      7.550
REMARK INTER + INTRA:          -7.370
REMARK INTER:                  -6.217
REMARK INTRA:                  -1.152
REMARK UNBOUND:                -1.646
REMARK SMILES CC[C@@H](C=C[C@@H](C)[C@H]1CC[C@H]2[C@H]3CC=C4C[C@@H](O)CC[C@@]4(C)[C@@H]3CC[C@@]12C)C(C)C
REMARK SMILES IDX 6 1 7 2 5 3 4 4 3 5 2 6 1 7 28 8 29 9 30 10 8 11 9 12 26 13
REMARK SMILES IDX 10 14 11 15 25 16 27 17 12 18 24 19 23 20 13 21 21 22 14 23
REMARK SMILES IDX 15 24 20 25 22 26 16 27 19 28 17 29 18 30
REMARK H PARENT 18 31
REMARK Flexibility Score: inf
ROOT
ATOM      1  C   UNL     1      -8.653  22.936 -10.326  1.00  0.00     0.012 C 
ATOM      2  C   UNL     1      -9.374  22.377 -11.567  1.00  0.00     0.012 C 
ENDROOT
BRANCH   1   3
ATOM      3  C   UNL     1      -8.099  24.321 -10.599  1.00  0.00    -0.028 C 
ATOM      4  C   UNL     1      -8.746  25.430 -10.210  1.00  0.00    -0.027 C 
BRANCH   4   5
ATOM      5  C   UNL     1      -8.208  26.812 -10.523  1.00  0.00     0.014 C 
BRANCH   5   6
ATOM      6  C   UNL     1      -8.968  27.426 -11.722  1.00  0.00     0.004 C 
ATOM      7  C   UNL     1      -9.850  28.604 -11.299  1.00  0.00     0.004 C 
ENDBRANCH   5   6
BRANCH   5   8
ATOM      8  C   UNL     1      -6.665  26.741 -10.731  1.00  0.00    -0.011 C 
ATOM      9  C   UNL     1      -5.890  27.129  -9.463  1.00  0.00     0.008 C 
ATOM     10  C   UNL     1      -6.173  27.567 -11.932  1.00  0.00     0.008 C 
ENDBRANCH   5   8
ENDBRANCH   4   5
ENDBRANCH   1   3
BRANCH   1  11
ATOM     11  C   UNL     1      -7.593  21.999  -9.647  1.00  0.00     0.002 C 
ATOM     12  C   UNL     1      -6.275  21.920 -10.429  1.00  0.00     0.005 C 
ATOM     13  C   UNL     1      -7.174  22.138  -8.143  1.00  0.00    -0.026 C 
ATOM     14  C   UNL     1      -5.216  21.437  -9.438  1.00  0.00     0.005 C 
ATOM     15  C   UNL     1      -5.939  21.203  -8.098  1.00  0.00    -0.001 C 
ATOM     16  C   UNL     1      -6.749  23.585  -7.753  1.00  0.00     0.007 C 
ATOM     17  C   UNL     1      -8.281  21.626  -7.191  1.00  0.00     0.012 C 
ATOM     18  C   UNL     1      -5.048  21.332  -6.822  1.00  0.00     0.000 C 
ATOM     19  C   UNL     1      -5.980  23.653  -6.431  1.00  0.00     0.005 C 
ATOM     20  C   UNL     1      -4.692  22.794  -6.466  1.00  0.00     0.003 C 
ATOM     21  C   UNL     1      -3.769  20.488  -6.955  1.00  0.00     0.031 C 
ATOM     22  C   UNL     1      -3.843  22.891  -5.133  1.00  0.00    -0.008 C 
ATOM     23  C   UNL     1      -2.819  20.679  -5.813  1.00  0.00    -0.027 C 
ATOM     24  C   UNL     1      -2.740  21.819  -5.096  1.00  0.00    -0.065 C 
ATOM     25  C   UNL     1      -3.167  24.297  -5.070  1.00  0.00     0.014 C 
ATOM     26  C   UNL     1      -4.735  22.696  -3.875  1.00  0.00     0.016 C 
ATOM     27  C   UNL     1      -1.621  21.953  -4.079  1.00  0.00     0.063 C 
ATOM     28  C   UNL     1      -2.100  24.429  -3.970  1.00  0.00     0.033 C 
ATOM     29  C   UNL     1      -1.010  23.361  -4.111  1.00  0.00     0.118 C 
BRANCH  29  30
ATOM     30  O   UNL     1      -0.303  23.564  -5.309  1.00  0.00    -0.393 OA
ATOM     31  H   UNL     1      -0.755  24.311  -5.784  1.00  0.00     0.210 HD
ENDBRANCH  29  30
ENDBRANCH   1  11
TORSDOF 6
ENDMDL
MODEL 9
REMARK VINA RESULT:    -4.299      3.636      7.466
REMARK INTER + INTRA:          -7.327
REMARK INTER:                  -5.979
REMARK INTRA:                  -1.349
REMARK UNBOUND:                -1.646
REMARK SMILES CC[C@@H](C=C[C@@H](C)[C@H]1CC[C@H]2[C@H]3CC=C4C[C@@H](O)CC[C@@]4(C)[C@@H]3CC[C@@]12C)C(C)C
REMARK SMILES IDX 6 1 7 2 5 3 4 4 3 5 2 6 1 7 28 8 29 9 30 10 8 11 9 12 26 13
REMARK SMILES IDX 10 14 11 15 25 16 27 17 12 18 24 19 23 20 13 21 21 22 14 23
REMARK SMILES IDX 15 24 20 25 22 26 16 27 19 28 17 29 18 30
REMARK H PARENT 18 31
REMARK Flexibility Score: inf
ROOT
ATOM      1  C   UNL     1      -7.726  22.461  -5.277  1.00  0.00     0.012 C 
ATOM      2  C   UNL     1      -8.663  22.322  -4.062  1.00  0.00     0.012 C 
ENDROOT
BRANCH   1   3
ATOM      3  C   UNL     1      -8.165  21.549  -6.406  1.00  0.00    -0.028 C 
ATOM      4  C   UNL     1      -7.812  21.780  -7.679  1.00  0.00    -0.027 C 
BRANCH   4   5
ATOM      5  C   UNL     1      -8.289  20.888  -8.808  1.00  0.00     0.014 C 
BRANCH   5   6
ATOM      6  C   UNL     1      -7.093  20.146  -9.450  1.00  0.00     0.004 C 
ATOM      7  C   UNL     1      -5.751  20.754  -9.032  1.00  0.00     0.004 C 
ENDBRANCH   5   6
BRANCH   5   8
ATOM      8  C   UNL     1      -9.122  21.727  -9.824  1.00  0.00    -0.011 C 
ATOM      9  C   UNL     1      -8.387  23.000 -10.266  1.00  0.00     0.008 C 
ATOM     10  C   UNL     1     -10.532  22.074  -9.316  1.00  0.00     0.008 C 
ENDBRANCH   5   8
ENDBRANCH   4   5
ENDBRANCH   1   3
BRANCH   1  11
ATOM     11  C   UNL     1      -6.186  22.352  -4.994  1.00  0.00     0.002 C 
ATOM     12  C   UNL     1      -5.611  20.970  -5.331  1.00  0.00     0.005 C 
ATOM     13  C   UNL     1      -5.144  23.382  -5.552  1.00  0.00    -0.026 C 
ATOM     14  C   UNL     1      -4.106  21.163  -5.508  1.00  0.00     0.005 C 
ATOM     15  C   UNL     1      -3.816  22.651  -5.233  1.00  0.00    -0.001 C 
ATOM     16  C   UNL     1      -5.262  23.606  -7.088  1.00  0.00     0.007 C 
ATOM     17  C   UNL     1      -5.217  24.733  -4.801  1.00  0.00     0.012 C 
ATOM     18  C   UNL     1      -2.547  23.230  -5.937  1.00  0.00     0.000 C 
ATOM     19  C   UNL     1      -4.031  24.285  -7.695  1.00  0.00     0.005 C 
ATOM     20  C   UNL     1      -2.740  23.466  -7.453  1.00  0.00     0.003 C 
ATOM     21  C   UNL     1      -1.321  22.336  -5.686  1.00  0.00     0.031 C 
ATOM     22  C   UNL     1      -1.458  24.114  -8.120  1.00  0.00    -0.008 C 
ATOM     23  C   UNL     1      -0.108  22.778  -6.447  1.00  0.00    -0.027 C 
ATOM     24  C   UNL     1      -0.170  23.436  -7.623  1.00  0.00    -0.065 C 
ATOM     25  C   UNL     1      -1.549  23.925  -9.668  1.00  0.00     0.014 C 
ATOM     26  C   UNL     1      -1.351  25.630  -7.795  1.00  0.00     0.016 C 
ATOM     27  C   UNL     1       1.125  23.675  -8.381  1.00  0.00     0.063 C 
ATOM     28  C   UNL     1      -0.249  24.262 -10.416  1.00  0.00     0.033 C 
ATOM     29  C   UNL     1       0.935  23.445  -9.887  1.00  0.00     0.118 C 
BRANCH  29  30
ATOM     30  O   UNL     1       0.722  22.081 -10.153  1.00  0.00    -0.393 OA
ATOM     31  H   UNL     1       1.462  21.585  -9.712  1.00  0.00     0.210 HD
ENDBRANCH  29  30
ENDBRANCH   1  11
TORSDOF 6
ENDMDL
