MODEL 1
REMARK VINA RESULT:    -7.624      0.000      0.000
REMARK INTER + INTRA:          -9.329
REMARK INTER:                  -9.185
REMARK INTRA:                  -0.145
REMARK UNBOUND:                -0.145
REMARK SMILES O=c1c(O)c(-c2ccc(O)c(O)c2)oc2cc(O)cc(O)c12
REMARK SMILES IDX 5 1 3 2 2 3 1 4 22 5 20 6 19 7 17 8 16 9 15 10 14 11 6 12
REMARK SMILES IDX 7 13 8 14 9 15 13 16 11 17 10 18 12 20 4 22 21 24 18 26
REMARK H PARENT 10 19 12 21 4 23 21 25 18 27
REMARK Flexibility Score: inf
ROOT
ATOM      1  C   UNL     1      61.715 151.836   3.896  1.00  0.00     0.180 A 
ATOM      2  C   UNL     1      60.568 152.214   4.617  1.00  0.00     0.208 A 
ATOM      3  C   UNL     1      59.624 153.053   4.004  1.00  0.00     0.238 A 
ATOM      4  O   UNL     1      58.574 153.343   4.635  1.00  0.00    -0.285 OA
ATOM      5  C   UNL     1      59.844 153.516   2.685  1.00  0.00     0.111 A 
ATOM      6  C   UNL     1      58.974 154.402   1.981  1.00  0.00     0.134 A 
ATOM      7  C   UNL     1      59.224 154.691   0.634  1.00  0.00     0.093 A 
ATOM      8  C   UNL     1      60.347 154.181  -0.015  1.00  0.00     0.123 A 
ATOM      9  C   UNL     1      61.238 153.361   0.681  1.00  0.00     0.094 A 
ATOM     10  C   UNL     1      60.995 153.026   2.015  1.00  0.00     0.146 A 
ATOM     11  O   UNL     1      61.860 152.235   2.638  1.00  0.00    -0.452 OA
ENDROOT
BRANCH   1  12
ATOM     12  C   UNL     1      62.767 150.975   4.483  1.00  0.00     0.025 A 
ATOM     13  C   UNL     1      64.082 151.440   4.654  1.00  0.00     0.016 A 
ATOM     14  C   UNL     1      65.064 150.601   5.187  1.00  0.00     0.051 A 
ATOM     15  C   UNL     1      64.753 149.285   5.544  1.00  0.00     0.157 A 
ATOM     16  C   UNL     1      62.463 149.646   4.821  1.00  0.00     0.062 A 
ATOM     17  C   UNL     1      63.447 148.803   5.357  1.00  0.00     0.158 A 
BRANCH  15  18
ATOM     18  O   UNL     1      65.754 148.472   6.075  1.00  0.00    -0.504 OA
ATOM     19  H   UNL     1      66.309 148.754   6.873  1.00  0.00     0.293 HD
ENDBRANCH  15  18
BRANCH  17  20
ATOM     20  O   UNL     1      63.131 147.489   5.703  1.00  0.00    -0.504 OA
ATOM     21  H   UNL     1      62.318 147.021   5.322  1.00  0.00     0.293 HD
ENDBRANCH  17  20
ENDBRANCH   1  12
BRANCH   2  22
ATOM     22  O   UNL     1      60.360 151.727   5.911  1.00  0.00    -0.502 OA
ATOM     23  H   UNL     1      61.106 151.327   6.468  1.00  0.00     0.293 HD
ENDBRANCH   2  22
BRANCH   6  24
ATOM     24  O   UNL     1      57.875 155.042   2.562  1.00  0.00    -0.507 OA
ATOM     25  H   UNL     1      57.116 155.462   2.047  1.00  0.00     0.293 HD
ENDBRANCH   6  24
BRANCH   8  26
ATOM     26  O   UNL     1      60.574 154.501  -1.352  1.00  0.00    -0.508 OA
ATOM     27  H   UNL     1      60.018 155.198  -1.833  1.00  0.00     0.293 HD
ENDBRANCH   8  26
TORSDOF 6
ENDMDL
MODEL 2
REMARK VINA RESULT:    -7.200      1.578      2.016
REMARK INTER + INTRA:          -8.817
REMARK INTER:                  -8.483
REMARK INTRA:                  -0.334
REMARK UNBOUND:                -0.145
REMARK SMILES O=c1c(O)c(-c2ccc(O)c(O)c2)oc2cc(O)cc(O)c12
REMARK SMILES IDX 5 1 3 2 2 3 1 4 22 5 20 6 19 7 17 8 16 9 15 10 14 11 6 12
REMARK SMILES IDX 7 13 8 14 9 15 13 16 11 17 10 18 12 20 4 22 21 24 18 26
REMARK H PARENT 10 19 12 21 4 23 21 25 18 27
REMARK Flexibility Score: inf
ROOT
ATOM      1  C   UNL     1      61.493 152.256   5.223  1.00  0.00     0.180 A 
ATOM      2  C   UNL     1      60.969 152.942   6.332  1.00  0.00     0.208 A 
ATOM      3  C   UNL     1      59.935 153.871   6.133  1.00  0.00     0.238 A 
ATOM      4  O   UNL     1      59.434 154.442   7.136  1.00  0.00    -0.285 OA
ATOM      5  C   UNL     1      59.450 154.114   4.826  1.00  0.00     0.111 A 
ATOM      6  C   UNL     1      58.434 155.062   4.502  1.00  0.00     0.134 A 
ATOM      7  C   UNL     1      57.940 155.127   3.193  1.00  0.00     0.093 A 
ATOM      8  C   UNL     1      58.469 154.324   2.184  1.00  0.00     0.123 A 
ATOM      9  C   UNL     1      59.505 153.435   2.477  1.00  0.00     0.094 A 
ATOM     10  C   UNL     1      59.993 153.323   3.780  1.00  0.00     0.146 A 
ATOM     11  O   UNL     1      60.971 152.458   4.019  1.00  0.00    -0.452 OA
ENDROOT
BRANCH   1  12
ATOM     12  C   UNL     1      62.599 151.279   5.351  1.00  0.00     0.025 A 
ATOM     13  C   UNL     1      63.944 151.687   5.294  1.00  0.00     0.016 A 
ATOM     14  C   UNL     1      64.971 150.745   5.392  1.00  0.00     0.051 A 
ATOM     15  C   UNL     1      64.674 149.386   5.535  1.00  0.00     0.157 A 
ATOM     16  C   UNL     1      62.305 149.912   5.473  1.00  0.00     0.062 A 
ATOM     17  C   UNL     1      63.335 148.966   5.572  1.00  0.00     0.158 A 
BRANCH  15  18
ATOM     18  O   UNL     1      65.721 148.469   5.632  1.00  0.00    -0.504 OA
ATOM     19  H   UNL     1      65.839 147.714   4.968  1.00  0.00     0.293 HD
ENDBRANCH  15  18
BRANCH  17  20
ATOM     20  O   UNL     1      63.031 147.611   5.707  1.00  0.00    -0.504 OA
ATOM     21  H   UNL     1      62.121 147.244   5.456  1.00  0.00     0.293 HD
ENDBRANCH  17  20
ENDBRANCH   1  12
BRANCH   2  22
ATOM     22  O   UNL     1      61.448 152.671   7.618  1.00  0.00    -0.502 OA
ATOM     23  H   UNL     1      61.652 153.403   8.288  1.00  0.00     0.293 HD
ENDBRANCH   2  22
BRANCH   6  24
ATOM     24  O   UNL     1      57.900 155.976   5.415  1.00  0.00    -0.507 OA
ATOM     25  H   UNL     1      56.923 156.041   5.660  1.00  0.00     0.293 HD
ENDBRANCH   6  24
BRANCH   8  26
ATOM     26  O   UNL     1      57.965 154.425   0.889  1.00  0.00    -0.508 OA
ATOM     27  H   UNL     1      58.477 154.900   0.155  1.00  0.00     0.293 HD
ENDBRANCH   8  26
TORSDOF 6
ENDMDL
MODEL 3
REMARK VINA RESULT:    -6.765      1.570      6.820
REMARK INTER + INTRA:          -8.294
REMARK INTER:                  -8.493
REMARK INTRA:                   0.199
REMARK UNBOUND:                -0.145
REMARK SMILES O=c1c(O)c(-c2ccc(O)c(O)c2)oc2cc(O)cc(O)c12
REMARK SMILES IDX 5 1 3 2 2 3 1 4 22 5 20 6 19 7 17 8 16 9 15 10 14 11 6 12
REMARK SMILES IDX 7 13 8 14 9 15 13 16 11 17 10 18 12 20 4 22 21 24 18 26
REMARK H PARENT 10 19 12 21 4 23 21 25 18 27
REMARK Flexibility Score: inf
ROOT
ATOM      1  C   UNL     1      60.210 152.454   4.474  1.00  0.00     0.180 A 
ATOM      2  C   UNL     1      59.525 151.994   5.612  1.00  0.00     0.208 A 
ATOM      3  C   UNL     1      60.140 151.039   6.437  1.00  0.00     0.238 A 
ATOM      4  O   UNL     1      59.544 150.672   7.484  1.00  0.00    -0.285 OA
ATOM      5  C   UNL     1      61.423 150.543   6.106  1.00  0.00     0.111 A 
ATOM      6  C   UNL     1      62.123 149.545   6.848  1.00  0.00     0.134 A 
ATOM      7  C   UNL     1      63.442 149.225   6.503  1.00  0.00     0.093 A 
ATOM      8  C   UNL     1      64.063 149.818   5.405  1.00  0.00     0.123 A 
ATOM      9  C   UNL     1      63.367 150.753   4.636  1.00  0.00     0.094 A 
ATOM     10  C   UNL     1      62.063 151.118   4.977  1.00  0.00     0.146 A 
ATOM     11  O   UNL     1      61.439 152.018   4.226  1.00  0.00    -0.452 OA
ENDROOT
BRANCH   1  12
ATOM     12  C   UNL     1      59.617 153.442   3.543  1.00  0.00     0.025 A 
ATOM     13  C   UNL     1      58.813 154.496   4.010  1.00  0.00     0.016 A 
ATOM     14  C   UNL     1      58.244 155.401   3.111  1.00  0.00     0.051 A 
ATOM     15  C   UNL     1      58.456 155.262   1.736  1.00  0.00     0.157 A 
ATOM     16  C   UNL     1      59.810 153.291   2.160  1.00  0.00     0.062 A 
ATOM     17  C   UNL     1      59.240 154.200   1.257  1.00  0.00     0.158 A 
BRANCH  15  18
ATOM     18  O   UNL     1      57.876 156.182   0.863  1.00  0.00    -0.504 OA
ATOM     19  H   UNL     1      57.149 156.822   1.160  1.00  0.00     0.293 HD
ENDBRANCH  15  18
BRANCH  17  20
ATOM     20  O   UNL     1      59.451 154.049  -0.114  1.00  0.00    -0.504 OA
ATOM     21  H   UNL     1      60.280 154.414  -0.567  1.00  0.00     0.293 HD
ENDBRANCH  17  20
ENDBRANCH   1  12
BRANCH   2  22
ATOM     22  O   UNL     1      58.267 152.513   5.933  1.00  0.00    -0.502 OA
ATOM     23  H   UNL     1      57.982 153.450   5.673  1.00  0.00     0.293 HD
ENDBRANCH   2  22
BRANCH   6  24
ATOM     24  O   UNL     1      61.563 148.824   7.907  1.00  0.00    -0.507 OA
ATOM     25  H   UNL     1      60.772 149.128   8.454  1.00  0.00     0.293 HD
ENDBRANCH   6  24
BRANCH   8  26
ATOM     26  O   UNL     1      65.371 149.465   5.080  1.00  0.00    -0.508 OA
ATOM     27  H   UNL     1      66.134 150.127   5.157  1.00  0.00     0.293 HD
ENDBRANCH   8  26
TORSDOF 6
ENDMDL
MODEL 4
REMARK VINA RESULT:    -6.493      1.474      3.086
REMARK INTER + INTRA:          -7.967
REMARK INTER:                  -7.644
REMARK INTRA:                  -0.322
REMARK UNBOUND:                -0.145
REMARK SMILES O=c1c(O)c(-c2ccc(O)c(O)c2)oc2cc(O)cc(O)c12
REMARK SMILES IDX 5 1 3 2 2 3 1 4 22 5 20 6 19 7 17 8 16 9 15 10 14 11 6 12
REMARK SMILES IDX 7 13 8 14 9 15 13 16 11 17 10 18 12 20 4 22 21 24 18 26
REMARK H PARENT 10 19 12 21 4 23 21 25 18 27
REMARK Flexibility Score: inf
ROOT
ATOM      1  C   UNL     1      61.654 152.030   4.188  1.00  0.00     0.180 A 
ATOM      2  C   UNL     1      61.316 152.124   2.827  1.00  0.00     0.208 A 
ATOM      3  C   UNL     1      60.280 152.990   2.440  1.00  0.00     0.238 A 
ATOM      4  O   UNL     1      60.017 153.109   1.215  1.00  0.00    -0.285 OA
ATOM      5  C   UNL     1      59.586 153.738   3.420  1.00  0.00     0.111 A 
ATOM      6  C   UNL     1      58.493 154.616   3.148  1.00  0.00     0.134 A 
ATOM      7  C   UNL     1      57.967 155.405   4.177  1.00  0.00     0.093 A 
ATOM      8  C   UNL     1      58.447 155.302   5.482  1.00  0.00     0.123 A 
ATOM      9  C   UNL     1      59.476 154.403   5.772  1.00  0.00     0.094 A 
ATOM     10  C   UNL     1      60.046 153.629   4.759  1.00  0.00     0.146 A 
ATOM     11  O   UNL     1      61.029 152.794   5.074  1.00  0.00    -0.452 OA
ENDROOT
BRANCH   1  12
ATOM     12  C   UNL     1      62.718 151.122   4.674  1.00  0.00     0.025 A 
ATOM     13  C   UNL     1      64.052 151.551   4.786  1.00  0.00     0.016 A 
ATOM     14  C   UNL     1      65.043 150.669   5.223  1.00  0.00     0.051 A 
ATOM     15  C   UNL     1      64.723 149.346   5.542  1.00  0.00     0.157 A 
ATOM     16  C   UNL     1      62.403 149.786   4.974  1.00  0.00     0.062 A 
ATOM     17  C   UNL     1      63.397 148.900   5.414  1.00  0.00     0.158 A 
BRANCH  15  18
ATOM     18  O   UNL     1      65.733 148.489   5.978  1.00  0.00    -0.504 OA
ATOM     19  H   UNL     1      66.421 148.773   6.665  1.00  0.00     0.293 HD
ENDBRANCH  15  18
BRANCH  17  20
ATOM     20  O   UNL     1      63.070 147.580   5.723  1.00  0.00    -0.504 OA
ATOM     21  H   UNL     1      62.122 147.235   5.643  1.00  0.00     0.293 HD
ENDBRANCH  17  20
ENDBRANCH   1  12
BRANCH   2  22
ATOM     22  O   UNL     1      62.028 151.391   1.872  1.00  0.00    -0.502 OA
ATOM     23  H   UNL     1      62.710 150.686   2.126  1.00  0.00     0.293 HD
ENDBRANCH   2  22
BRANCH   6  24
ATOM     24  O   UNL     1      57.876 154.727   1.898  1.00  0.00    -0.507 OA
ATOM     25  H   UNL     1      57.069 155.302   1.705  1.00  0.00     0.293 HD
ENDBRANCH   6  24
BRANCH   8  26
ATOM     26  O   UNL     1      57.890 156.091   6.485  1.00  0.00    -0.508 OA
ATOM     27  H   UNL     1      57.848 157.100   6.405  1.00  0.00     0.293 HD
ENDBRANCH   8  26
TORSDOF 6
ENDMDL
MODEL 5
REMARK VINA RESULT:    -6.414      2.135      7.306
REMARK INTER + INTRA:          -7.871
REMARK INTER:                  -8.083
REMARK INTRA:                   0.212
REMARK UNBOUND:                -0.145
REMARK SMILES O=c1c(O)c(-c2ccc(O)c(O)c2)oc2cc(O)cc(O)c12
REMARK SMILES IDX 5 1 3 2 2 3 1 4 22 5 20 6 19 7 17 8 16 9 15 10 14 11 6 12
REMARK SMILES IDX 7 13 8 14 9 15 13 16 11 17 10 18 12 20 4 22 21 24 18 26
REMARK H PARENT 10 19 12 21 4 23 21 25 18 27
REMARK Flexibility Score: inf
ROOT
ATOM      1  C   UNL     1      60.387 152.261   4.210  1.00  0.00     0.180 A 
ATOM      2  C   UNL     1      61.690 151.788   3.976  1.00  0.00     0.208 A 
ATOM      3  C   UNL     1      62.241 150.845   4.859  1.00  0.00     0.238 A 
ATOM      4  O   UNL     1      63.386 150.385   4.614  1.00  0.00    -0.285 OA
ATOM      5  C   UNL     1      61.489 150.400   5.972  1.00  0.00     0.111 A 
ATOM      6  C   UNL     1      61.962 149.477   6.953  1.00  0.00     0.134 A 
ATOM      7  C   UNL     1      61.086 149.008   7.940  1.00  0.00     0.093 A 
ATOM      8  C   UNL     1      59.775 149.475   8.021  1.00  0.00     0.123 A 
ATOM      9  C   UNL     1      59.319 150.423   7.102  1.00  0.00     0.094 A 
ATOM     10  C   UNL     1      60.159 150.883   6.085  1.00  0.00     0.146 A 
ATOM     11  O   UNL     1      59.684 151.776   5.225  1.00  0.00    -0.452 OA
ENDROOT
BRANCH   1  12
ATOM     12  C   UNL     1      59.749 153.274   3.337  1.00  0.00     0.025 A 
ATOM     13  C   UNL     1      58.904 154.266   3.865  1.00  0.00     0.016 A 
ATOM     14  C   UNL     1      58.293 155.195   3.020  1.00  0.00     0.051 A 
ATOM     15  C   UNL     1      58.503 155.142   1.639  1.00  0.00     0.157 A 
ATOM     16  C   UNL     1      59.941 153.209   1.948  1.00  0.00     0.062 A 
ATOM     17  C   UNL     1      59.328 154.142   1.098  1.00  0.00     0.158 A 
BRANCH  15  18
ATOM     18  O   UNL     1      57.881 156.084   0.820  1.00  0.00    -0.504 OA
ATOM     19  H   UNL     1      56.876 156.206   0.807  1.00  0.00     0.293 HD
ENDBRANCH  15  18
BRANCH  17  20
ATOM     20  O   UNL     1      59.537 154.077  -0.279  1.00  0.00    -0.504 OA
ATOM     21  H   UNL     1      60.102 153.347  -0.697  1.00  0.00     0.293 HD
ENDBRANCH  17  20
ENDBRANCH   1  12
BRANCH   2  22
ATOM     22  O   UNL     1      62.407 152.225   2.858  1.00  0.00    -0.502 OA
ATOM     23  H   UNL     1      63.412 152.119   2.781  1.00  0.00     0.293 HD
ENDBRANCH   2  22
BRANCH   6  24
ATOM     24  O   UNL     1      63.280 149.017   7.020  1.00  0.00    -0.507 OA
ATOM     25  H   UNL     1      63.572 148.076   6.800  1.00  0.00     0.293 HD
ENDBRANCH   6  24
BRANCH   8  26
ATOM     26  O   UNL     1      58.935 148.998   9.024  1.00  0.00    -0.508 OA
ATOM     27  H   UNL     1      58.713 149.556   9.840  1.00  0.00     0.293 HD
ENDBRANCH   8  26
TORSDOF 6
ENDMDL
MODEL 6
REMARK VINA RESULT:    -6.277      3.045      7.190
REMARK INTER + INTRA:          -7.706
REMARK INTER:                  -7.397
REMARK INTRA:                  -0.309
REMARK UNBOUND:                -0.145
REMARK SMILES O=c1c(O)c(-c2ccc(O)c(O)c2)oc2cc(O)cc(O)c12
REMARK SMILES IDX 5 1 3 2 2 3 1 4 22 5 20 6 19 7 17 8 16 9 15 10 14 11 6 12
REMARK SMILES IDX 7 13 8 14 9 15 13 16 11 17 10 18 12 20 4 22 21 24 18 26
REMARK H PARENT 10 19 12 21 4 23 21 25 18 27
REMARK Flexibility Score: inf
ROOT
ATOM      1  C   UNL     1      61.650 152.381   6.177  1.00  0.00     0.180 A 
ATOM      2  C   UNL     1      63.024 152.623   6.004  1.00  0.00     0.208 A 
ATOM      3  C   UNL     1      63.883 151.538   5.770  1.00  0.00     0.238 A 
ATOM      4  O   UNL     1      65.103 151.767   5.561  1.00  0.00    -0.285 OA
ATOM      5  C   UNL     1      63.361 150.223   5.728  1.00  0.00     0.111 A 
ATOM      6  C   UNL     1      64.144 149.045   5.537  1.00  0.00     0.134 A 
ATOM      7  C   UNL     1      63.507 147.808   5.383  1.00  0.00     0.093 A 
ATOM      8  C   UNL     1      62.121 147.696   5.477  1.00  0.00     0.123 A 
ATOM      9  C   UNL     1      61.348 148.833   5.722  1.00  0.00     0.094 A 
ATOM     10  C   UNL     1      61.953 150.086   5.845  1.00  0.00     0.146 A 
ATOM     11  O   UNL     1      61.183 151.144   6.068  1.00  0.00    -0.452 OA
ENDROOT
BRANCH   1  12
ATOM     12  C   UNL     1      60.686 153.471   6.452  1.00  0.00     0.025 A 
ATOM     13  C   UNL     1      60.542 154.011   7.743  1.00  0.00     0.016 A 
ATOM     14  C   UNL     1      59.608 155.022   7.983  1.00  0.00     0.051 A 
ATOM     15  C   UNL     1      58.798 155.500   6.948  1.00  0.00     0.157 A 
ATOM     16  C   UNL     1      59.856 153.937   5.420  1.00  0.00     0.062 A 
ATOM     17  C   UNL     1      58.920 154.953   5.660  1.00  0.00     0.158 A 
BRANCH  15  18
ATOM     18  O   UNL     1      57.877 156.511   7.219  1.00  0.00    -0.504 OA
ATOM     19  H   UNL     1      58.122 157.492   7.164  1.00  0.00     0.293 HD
ENDBRANCH  15  18
BRANCH  17  20
ATOM     20  O   UNL     1      58.110 155.418   4.624  1.00  0.00    -0.504 OA
ATOM     21  H   UNL     1      57.964 154.877   3.781  1.00  0.00     0.293 HD
ENDBRANCH  17  20
ENDBRANCH   1  12
BRANCH   2  22
ATOM     22  O   UNL     1      63.516 153.932   6.028  1.00  0.00    -0.502 OA
ATOM     23  H   UNL     1      63.889 154.388   5.203  1.00  0.00     0.293 HD
ENDBRANCH   2  22
BRANCH   6  24
ATOM     24  O   UNL     1      65.543 149.032   5.521  1.00  0.00    -0.507 OA
ATOM     25  H   UNL     1      66.129 149.625   6.089  1.00  0.00     0.293 HD
ENDBRANCH   6  24
BRANCH   8  26
ATOM     26  O   UNL     1      61.520 146.447   5.334  1.00  0.00    -0.508 OA
ATOM     27  H   UNL     1      60.972 146.213   4.514  1.00  0.00     0.293 HD
ENDBRANCH   8  26
TORSDOF 6
ENDMDL
MODEL 7
REMARK VINA RESULT:    -5.898      2.440      6.953
REMARK INTER + INTRA:          -7.250
REMARK INTER:                  -6.963
REMARK INTRA:                  -0.287
REMARK UNBOUND:                -0.145
REMARK SMILES O=c1c(O)c(-c2ccc(O)c(O)c2)oc2cc(O)cc(O)c12
REMARK SMILES IDX 5 1 3 2 2 3 1 4 22 5 20 6 19 7 17 8 16 9 15 10 14 11 6 12
REMARK SMILES IDX 7 13 8 14 9 15 13 16 11 17 10 18 12 20 4 22 21 24 18 26
REMARK H PARENT 10 19 12 21 4 23 21 25 18 27
REMARK Flexibility Score: inf
ROOT
ATOM      1  C   UNL     1      60.168 152.140   5.384  1.00  0.00     0.180 A 
ATOM      2  C   UNL     1      59.510 151.216   6.215  1.00  0.00     0.208 A 
ATOM      3  C   UNL     1      60.148 150.004   6.526  1.00  0.00     0.238 A 
ATOM      4  O   UNL     1      59.577 149.205   7.313  1.00  0.00    -0.285 OA
ATOM      5  C   UNL     1      61.428 149.725   5.991  1.00  0.00     0.111 A 
ATOM      6  C   UNL     1      62.151 148.513   6.207  1.00  0.00     0.134 A 
ATOM      7  C   UNL     1      63.464 148.398   5.736  1.00  0.00     0.093 A 
ATOM      8  C   UNL     1      64.058 149.423   5.001  1.00  0.00     0.123 A 
ATOM      9  C   UNL     1      63.340 150.589   4.733  1.00  0.00     0.094 A 
ATOM     10  C   UNL     1      62.041 150.748   5.220  1.00  0.00     0.146 A 
ATOM     11  O   UNL     1      61.395 151.876   4.952  1.00  0.00    -0.452 OA
ENDROOT
BRANCH   1  12
ATOM     12  C   UNL     1      59.549 153.427   4.992  1.00  0.00     0.025 A 
ATOM     13  C   UNL     1      58.983 153.608   3.718  1.00  0.00     0.016 A 
ATOM     14  C   UNL     1      58.427 154.839   3.362  1.00  0.00     0.051 A 
ATOM     15  C   UNL     1      58.439 155.909   4.262  1.00  0.00     0.157 A 
ATOM     16  C   UNL     1      59.579 154.509   5.886  1.00  0.00     0.062 A 
ATOM     17  C   UNL     1      59.021 155.745   5.530  1.00  0.00     0.158 A 
BRANCH  15  18
ATOM     18  O   UNL     1      57.875 157.125   3.878  1.00  0.00    -0.504 OA
ATOM     19  H   UNL     1      57.820 157.916   4.509  1.00  0.00     0.293 HD
ENDBRANCH  15  18
BRANCH  17  20
ATOM     20  O   UNL     1      59.043 156.809   6.431  1.00  0.00    -0.504 OA
ATOM     21  H   UNL     1      58.216 157.364   6.618  1.00  0.00     0.293 HD
ENDBRANCH  17  20
ENDBRANCH   1  12
BRANCH   2  22
ATOM     22  O   UNL     1      58.255 151.521   6.750  1.00  0.00    -0.502 OA
ATOM     23  H   UNL     1      57.954 151.184   7.657  1.00  0.00     0.293 HD
ENDBRANCH   2  22
BRANCH   6  24
ATOM     24  O   UNL     1      61.618 147.391   6.849  1.00  0.00    -0.507 OA
ATOM     25  H   UNL     1      60.638 147.256   7.051  1.00  0.00     0.293 HD
ENDBRANCH   6  24
BRANCH   8  26
ATOM     26  O   UNL     1      65.362 149.268   4.534  1.00  0.00    -0.508 OA
ATOM     27  H   UNL     1      65.981 150.062   4.418  1.00  0.00     0.293 HD
ENDBRANCH   8  26
TORSDOF 6
ENDMDL
MODEL 8
REMARK VINA RESULT:    -5.429      4.011      7.145
REMARK INTER + INTRA:          -6.685
REMARK INTER:                  -6.391
REMARK INTRA:                  -0.294
REMARK UNBOUND:                -0.145
REMARK SMILES O=c1c(O)c(-c2ccc(O)c(O)c2)oc2cc(O)cc(O)c12
REMARK SMILES IDX 5 1 3 2 2 3 1 4 22 5 20 6 19 7 17 8 16 9 15 10 14 11 6 12
REMARK SMILES IDX 7 13 8 14 9 15 13 16 11 17 10 18 12 20 4 22 21 24 18 26
REMARK H PARENT 10 19 12 21 4 23 21 25 18 27
REMARK Flexibility Score: inf
ROOT
ATOM      1  C   UNL     1      60.165 151.502   6.977  1.00  0.00     0.180 A 
ATOM      2  C   UNL     1      59.461 150.888   8.027  1.00  0.00     0.208 A 
ATOM      3  C   UNL     1      59.506 149.490   8.151  1.00  0.00     0.238 A 
ATOM      4  O   UNL     1      58.917 148.951   9.125  1.00  0.00    -0.285 OA
ATOM      5  C   UNL     1      60.240 148.723   7.216  1.00  0.00     0.111 A 
ATOM      6  C   UNL     1      60.322 147.298   7.222  1.00  0.00     0.134 A 
ATOM      7  C   UNL     1      61.183 146.651   6.328  1.00  0.00     0.093 A 
ATOM      8  C   UNL     1      61.915 147.371   5.385  1.00  0.00     0.123 A 
ATOM      9  C   UNL     1      61.798 148.762   5.330  1.00  0.00     0.094 A 
ATOM     10  C   UNL     1      60.974 149.437   6.233  1.00  0.00     0.146 A 
ATOM     11  O   UNL     1      60.898 150.760   6.155  1.00  0.00    -0.452 OA
ENDROOT
BRANCH   1  12
ATOM     12  C   UNL     1      60.145 152.968   6.766  1.00  0.00     0.025 A 
ATOM     13  C   UNL     1      59.041 153.607   6.175  1.00  0.00     0.016 A 
ATOM     14  C   UNL     1      59.055 154.988   5.963  1.00  0.00     0.051 A 
ATOM     15  C   UNL     1      60.172 155.748   6.324  1.00  0.00     0.157 A 
ATOM     16  C   UNL     1      61.274 153.731   7.107  1.00  0.00     0.062 A 
ATOM     17  C   UNL     1      61.289 155.117   6.896  1.00  0.00     0.158 A 
BRANCH  15  18
ATOM     18  O   UNL     1      60.156 157.125   6.103  1.00  0.00    -0.504 OA
ATOM     19  H   UNL     1      60.077 157.792   6.861  1.00  0.00     0.293 HD
ENDBRANCH  15  18
BRANCH  17  20
ATOM     20  O   UNL     1      62.409 155.867   7.252  1.00  0.00    -0.504 OA
ATOM     21  H   UNL     1      62.568 156.164   8.208  1.00  0.00     0.293 HD
ENDBRANCH  17  20
ENDBRANCH   1  12
BRANCH   2  22
ATOM     22  O   UNL     1      58.759 151.666   8.952  1.00  0.00    -0.502 OA
ATOM     23  H   UNL     1      57.774 151.526   9.145  1.00  0.00     0.293 HD
ENDBRANCH   2  22
BRANCH   6  24
ATOM     24  O   UNL     1      59.564 146.477   8.062  1.00  0.00    -0.507 OA
ATOM     25  H   UNL     1      59.729 145.492   8.205  1.00  0.00     0.293 HD
ENDBRANCH   6  24
BRANCH   8  26
ATOM     26  O   UNL     1      62.751 146.694   4.499  1.00  0.00    -0.508 OA
ATOM     27  H   UNL     1      62.731 145.685   4.417  1.00  0.00     0.293 HD
ENDBRANCH   8  26
TORSDOF 6
ENDMDL
MODEL 9
REMARK VINA RESULT:    -5.380      3.060      7.494
REMARK INTER + INTRA:          -6.626
REMARK INTER:                  -6.345
REMARK INTRA:                  -0.281
REMARK UNBOUND:                -0.145
REMARK SMILES O=c1c(O)c(-c2ccc(O)c(O)c2)oc2cc(O)cc(O)c12
REMARK SMILES IDX 5 1 3 2 2 3 1 4 22 5 20 6 19 7 17 8 16 9 15 10 14 11 6 12
REMARK SMILES IDX 7 13 8 14 9 15 13 16 11 17 10 18 12 20 4 22 21 24 18 26
REMARK H PARENT 10 19 12 21 4 23 21 25 18 27
REMARK Flexibility Score: inf
ROOT
ATOM      1  C   UNL     1      60.594 151.707   6.124  1.00  0.00     0.180 A 
ATOM      2  C   UNL     1      61.662 151.296   5.308  1.00  0.00     0.208 A 
ATOM      3  C   UNL     1      62.020 149.938   5.287  1.00  0.00     0.238 A 
ATOM      4  O   UNL     1      62.942 149.568   4.514  1.00  0.00    -0.285 OA
ATOM      5  C   UNL     1      61.316 149.012   6.092  1.00  0.00     0.111 A 
ATOM      6  C   UNL     1      61.618 147.620   6.179  1.00  0.00     0.134 A 
ATOM      7  C   UNL     1      60.773 146.773   6.907  1.00  0.00     0.093 A 
ATOM      8  C   UNL     1      59.676 147.277   7.604  1.00  0.00     0.123 A 
ATOM      9  C   UNL     1      59.405 148.646   7.575  1.00  0.00     0.094 A 
ATOM     10  C   UNL     1      60.209 149.510   6.828  1.00  0.00     0.146 A 
ATOM     11  O   UNL     1      59.912 150.804   6.817  1.00  0.00    -0.452 OA
ENDROOT
BRANCH   1  12
ATOM     12  C   UNL     1      60.175 153.124   6.219  1.00  0.00     0.025 A 
ATOM     13  C   UNL     1      60.510 153.914   7.333  1.00  0.00     0.016 A 
ATOM     14  C   UNL     1      60.083 155.241   7.411  1.00  0.00     0.051 A 
ATOM     15  C   UNL     1      59.305 155.796   6.390  1.00  0.00     0.157 A 
ATOM     16  C   UNL     1      59.375 153.678   5.205  1.00  0.00     0.062 A 
ATOM     17  C   UNL     1      58.946 155.010   5.283  1.00  0.00     0.158 A 
BRANCH  15  18
ATOM     18  O   UNL     1      58.894 157.125   6.496  1.00  0.00    -0.504 OA
ATOM     19  H   UNL     1      58.159 157.509   5.915  1.00  0.00     0.293 HD
ENDBRANCH  15  18
BRANCH  17  20
ATOM     20  O   UNL     1      58.164 155.555   4.264  1.00  0.00    -0.504 OA
ATOM     21  H   UNL     1      58.581 155.963   3.436  1.00  0.00     0.293 HD
ENDBRANCH  17  20
ENDBRANCH   1  12
BRANCH   2  22
ATOM     22  O   UNL     1      62.331 152.224   4.505  1.00  0.00    -0.502 OA
ATOM     23  H   UNL     1      62.725 151.980   3.604  1.00  0.00     0.293 HD
ENDBRANCH   2  22
BRANCH   6  24
ATOM     24  O   UNL     1      62.743 147.027   5.597  1.00  0.00    -0.507 OA
ATOM     25  H   UNL     1      62.774 146.649   4.662  1.00  0.00     0.293 HD
ENDBRANCH   6  24
BRANCH   8  26
ATOM     26  O   UNL     1      58.865 146.408   8.332  1.00  0.00    -0.508 OA
ATOM     27  H   UNL     1      58.063 145.953   7.911  1.00  0.00     0.293 HD
ENDBRANCH   8  26
TORSDOF 6
ENDMDL
