MODEL 1
REMARK VINA RESULT:    -6.797      0.000      0.000
REMARK INTER + INTRA:          -8.518
REMARK INTER:                  -8.188
REMARK INTRA:                  -0.330
REMARK UNBOUND:                -0.330
REMARK SMILES O=c1c(O)c(-c2ccc(O)c(O)c2)oc2cc(O)cc(O)c12
REMARK SMILES IDX 5 1 3 2 2 3 1 4 22 5 20 6 19 7 17 8 16 9 15 10 14 11 6 12
REMARK SMILES IDX 7 13 8 14 9 15 13 16 11 17 10 18 12 20 4 22 21 24 18 26
REMARK H PARENT 10 19 12 21 4 23 21 25 18 27
REMARK Flexibility Score: inf
ROOT
ATOM      1  C   UNL     1     -60.683  20.096 -30.124  1.00  0.00     0.180 A 
ATOM      2  C   UNL     1     -59.578  20.870 -29.720  1.00  0.00     0.208 A 
ATOM      3  C   UNL     1     -59.639  22.265 -29.858  1.00  0.00     0.238 A 
ATOM      4  O   UNL     1     -58.660  22.968 -29.488  1.00  0.00    -0.285 OA
ATOM      5  C   UNL     1     -60.789  22.860 -30.415  1.00  0.00     0.111 A 
ATOM      6  C   UNL     1     -60.929  24.257 -30.593  1.00  0.00     0.134 A 
ATOM      7  C   UNL     1     -62.102  24.773 -31.164  1.00  0.00     0.093 A 
ATOM      8  C   UNL     1     -63.135  23.920 -31.560  1.00  0.00     0.123 A 
ATOM      9  C   UNL     1     -63.004  22.539 -31.386  1.00  0.00     0.094 A 
ATOM     10  C   UNL     1     -61.843  22.006 -30.818  1.00  0.00     0.146 A 
ATOM     11  O   UNL     1     -61.746  20.691 -30.660  1.00  0.00    -0.452 OA
ENDROOT
BRANCH   1  12
ATOM     12  C   UNL     1     -60.702  18.622 -29.993  1.00  0.00     0.025 A 
ATOM     13  C   UNL     1     -61.228  17.995 -28.850  1.00  0.00     0.016 A 
ATOM     14  C   UNL     1     -61.258  16.601 -28.758  1.00  0.00     0.051 A 
ATOM     15  C   UNL     1     -60.776  15.812 -29.812  1.00  0.00     0.157 A 
ATOM     16  C   UNL     1     -60.241  17.827 -31.055  1.00  0.00     0.062 A 
ATOM     17  C   UNL     1     -60.267  16.430 -30.967  1.00  0.00     0.158 A 
BRANCH  15  18
ATOM     18  O   UNL     1     -60.805  14.422 -29.717  1.00  0.00    -0.504 OA
ATOM     19  H   UNL     1     -60.515  13.942 -28.873  1.00  0.00     0.293 HD
ENDBRANCH  15  18
BRANCH  17  20
ATOM     20  O   UNL     1     -59.787  15.674 -32.036  1.00  0.00    -0.504 OA
ATOM     21  H   UNL     1     -58.890  15.207 -32.004  1.00  0.00     0.293 HD
ENDBRANCH  17  20
ENDBRANCH   1  12
BRANCH   2  22
ATOM     22  O   UNL     1     -58.430  20.251 -29.216  1.00  0.00    -0.502 OA
ATOM     23  H   UNL     1     -58.085  20.427 -28.281  1.00  0.00     0.293 HD
ENDBRANCH   2  22
BRANCH   6  24
ATOM     24  O   UNL     1     -59.914  25.135 -30.208  1.00  0.00    -0.507 OA
ATOM     25  H   UNL     1     -58.952  24.994 -30.491  1.00  0.00     0.293 HD
ENDBRANCH   6  24
BRANCH   8  26
ATOM     26  O   UNL     1     -64.291  24.457 -32.125  1.00  0.00    -0.508 OA
ATOM     27  H   UNL     1     -64.472  25.454 -32.114  1.00  0.00     0.293 HD
ENDBRANCH   8  26
TORSDOF 6
ENDMDL
MODEL 2
REMARK VINA RESULT:    -6.785      2.269      6.705
REMARK INTER + INTRA:          -8.503
REMARK INTER:                  -8.355
REMARK INTRA:                  -0.148
REMARK UNBOUND:                -0.330
REMARK SMILES O=c1c(O)c(-c2ccc(O)c(O)c2)oc2cc(O)cc(O)c12
REMARK SMILES IDX 5 1 3 2 2 3 1 4 22 5 20 6 19 7 17 8 16 9 15 10 14 11 6 12
REMARK SMILES IDX 7 13 8 14 9 15 13 16 11 17 10 18 12 20 4 22 21 24 18 26
REMARK H PARENT 10 19 12 21 4 23 21 25 18 27
REMARK Flexibility Score: inf
ROOT
ATOM      1  C   UNL     1     -60.465  22.393 -30.383  1.00  0.00     0.180 A 
ATOM      2  C   UNL     1     -59.198  21.829 -30.627  1.00  0.00     0.208 A 
ATOM      3  C   UNL     1     -59.121  20.516 -31.117  1.00  0.00     0.238 A 
ATOM      4  O   UNL     1     -57.992  20.006 -31.350  1.00  0.00    -0.285 OA
ATOM      5  C   UNL     1     -60.305  19.783 -31.333  1.00  0.00     0.111 A 
ATOM      6  C   UNL     1     -60.315  18.454 -31.819  1.00  0.00     0.134 A 
ATOM      7  C   UNL     1     -61.537  17.787 -31.999  1.00  0.00     0.093 A 
ATOM      8  C   UNL     1     -62.745  18.423 -31.702  1.00  0.00     0.123 A 
ATOM      9  C   UNL     1     -62.742  19.735 -31.223  1.00  0.00     0.094 A 
ATOM     10  C   UNL     1     -61.536  20.418 -31.037  1.00  0.00     0.146 A 
ATOM     11  O   UNL     1     -61.561  21.665 -30.585  1.00  0.00    -0.452 OA
ENDROOT
BRANCH   1  12
ATOM     12  C   UNL     1     -60.629  23.777 -29.885  1.00  0.00     0.025 A 
ATOM     13  C   UNL     1     -60.129  24.168 -28.631  1.00  0.00     0.016 A 
ATOM     14  C   UNL     1     -60.274  25.486 -28.192  1.00  0.00     0.051 A 
ATOM     15  C   UNL     1     -60.908  26.436 -29.003  1.00  0.00     0.157 A 
ATOM     16  C   UNL     1     -61.245  24.738 -30.703  1.00  0.00     0.062 A 
ATOM     17  C   UNL     1     -61.394  26.059 -30.267  1.00  0.00     0.158 A 
BRANCH  15  18
ATOM     18  O   UNL     1     -61.053  27.750 -28.562  1.00  0.00    -0.504 OA
ATOM     19  H   UNL     1     -61.882  28.055 -28.065  1.00  0.00     0.293 HD
ENDBRANCH  15  18
BRANCH  17  20
ATOM     20  O   UNL     1     -62.023  26.982 -31.102  1.00  0.00    -0.504 OA
ATOM     21  H   UNL     1     -62.903  27.417 -30.855  1.00  0.00     0.293 HD
ENDBRANCH  17  20
ENDBRANCH   1  12
BRANCH   2  22
ATOM     22  O   UNL     1     -58.037  22.560 -30.358  1.00  0.00    -0.502 OA
ATOM     23  H   UNL     1     -57.206  22.489 -30.932  1.00  0.00     0.293 HD
ENDBRANCH   2  22
BRANCH   6  24
ATOM     24  O   UNL     1     -59.125  17.792 -32.125  1.00  0.00    -0.507 OA
ATOM     25  H   UNL     1     -58.911  16.878 -31.742  1.00  0.00     0.293 HD
ENDBRANCH   6  24
BRANCH   8  26
ATOM     26  O   UNL     1     -63.945  17.739 -31.889  1.00  0.00    -0.508 OA
ATOM     27  H   UNL     1     -64.767  18.202 -32.258  1.00  0.00     0.293 HD
ENDBRANCH   8  26
TORSDOF 6
ENDMDL
MODEL 3
REMARK VINA RESULT:    -6.720      1.221      2.860
REMARK INTER + INTRA:          -8.425
REMARK INTER:                  -8.105
REMARK INTRA:                  -0.320
REMARK UNBOUND:                -0.330
REMARK SMILES O=c1c(O)c(-c2ccc(O)c(O)c2)oc2cc(O)cc(O)c12
REMARK SMILES IDX 5 1 3 2 2 3 1 4 22 5 20 6 19 7 17 8 16 9 15 10 14 11 6 12
REMARK SMILES IDX 7 13 8 14 9 15 13 16 11 17 10 18 12 20 4 22 21 24 18 26
REMARK H PARENT 10 19 12 21 4 23 21 25 18 27
REMARK Flexibility Score: inf
ROOT
ATOM      1  C   UNL     1     -61.360  20.351 -30.319  1.00  0.00     0.180 A 
ATOM      2  C   UNL     1     -62.523  20.856 -30.932  1.00  0.00     0.208 A 
ATOM      3  C   UNL     1     -62.658  22.243 -31.096  1.00  0.00     0.238 A 
ATOM      4  O   UNL     1     -63.690  22.704 -31.655  1.00  0.00    -0.285 OA
ATOM      5  C   UNL     1     -61.642  23.101 -30.629  1.00  0.00     0.111 A 
ATOM      6  C   UNL     1     -61.702  24.510 -30.751  1.00  0.00     0.134 A 
ATOM      7  C   UNL     1     -60.654  25.298 -30.251  1.00  0.00     0.093 A 
ATOM      8  C   UNL     1     -59.551  24.704 -29.632  1.00  0.00     0.123 A 
ATOM      9  C   UNL     1     -59.485  23.314 -29.509  1.00  0.00     0.094 A 
ATOM     10  C   UNL     1     -60.518  22.511 -30.002  1.00  0.00     0.146 A 
ATOM     11  O   UNL     1     -60.429  21.193 -29.876  1.00  0.00    -0.452 OA
ENDROOT
BRANCH   1  12
ATOM     12  C   UNL     1     -61.137  18.901 -30.127  1.00  0.00     0.025 A 
ATOM     13  C   UNL     1     -61.517  18.252 -28.939  1.00  0.00     0.016 A 
ATOM     14  C   UNL     1     -61.318  16.877 -28.790  1.00  0.00     0.051 A 
ATOM     15  C   UNL     1     -60.749  16.128 -29.829  1.00  0.00     0.157 A 
ATOM     16  C   UNL     1     -60.587  18.141 -31.173  1.00  0.00     0.062 A 
ATOM     17  C   UNL     1     -60.384  16.764 -31.027  1.00  0.00     0.158 A 
BRANCH  15  18
ATOM     18  O   UNL     1     -60.550  14.757 -29.676  1.00  0.00    -0.504 OA
ATOM     19  H   UNL     1     -59.693  14.385 -29.284  1.00  0.00     0.293 HD
ENDBRANCH  15  18
BRANCH  17  20
ATOM     20  O   UNL     1     -59.823  16.046 -32.082  1.00  0.00    -0.504 OA
ATOM     21  H   UNL     1     -59.571  16.487 -32.958  1.00  0.00     0.293 HD
ENDBRANCH  17  20
ENDBRANCH   1  12
BRANCH   2  22
ATOM     22  O   UNL     1     -63.538  19.986 -31.343  1.00  0.00    -0.502 OA
ATOM     23  H   UNL     1     -63.870  19.227 -30.762  1.00  0.00     0.293 HD
ENDBRANCH   2  22
BRANCH   6  24
ATOM     24  O   UNL     1     -62.791  25.132 -31.364  1.00  0.00    -0.507 OA
ATOM     25  H   UNL     1     -62.674  25.746 -32.161  1.00  0.00     0.293 HD
ENDBRANCH   6  24
BRANCH   8  26
ATOM     26  O   UNL     1     -58.523  25.509 -29.143  1.00  0.00    -0.508 OA
ATOM     27  H   UNL     1     -57.975  26.100 -29.758  1.00  0.00     0.293 HD
ENDBRANCH   8  26
TORSDOF 6
ENDMDL
MODEL 4
REMARK VINA RESULT:    -6.404      2.148      6.889
REMARK INTER + INTRA:          -8.045
REMARK INTER:                  -7.836
REMARK INTRA:                  -0.208
REMARK UNBOUND:                -0.330
REMARK SMILES O=c1c(O)c(-c2ccc(O)c(O)c2)oc2cc(O)cc(O)c12
REMARK SMILES IDX 5 1 3 2 2 3 1 4 22 5 20 6 19 7 17 8 16 9 15 10 14 11 6 12
REMARK SMILES IDX 7 13 8 14 9 15 13 16 11 17 10 18 12 20 4 22 21 24 18 26
REMARK H PARENT 10 19 12 21 4 23 21 25 18 27
REMARK Flexibility Score: inf
ROOT
ATOM      1  C   UNL     1     -60.602  22.445 -30.705  1.00  0.00     0.180 A 
ATOM      2  C   UNL     1     -59.436  21.928 -31.301  1.00  0.00     0.208 A 
ATOM      3  C   UNL     1     -59.367  20.554 -31.580  1.00  0.00     0.238 A 
ATOM      4  O   UNL     1     -58.332  20.083 -32.125  1.00  0.00    -0.285 OA
ATOM      5  C   UNL     1     -60.451  19.720 -31.242  1.00  0.00     0.111 A 
ATOM      6  C   UNL     1     -60.460  18.325 -31.485  1.00  0.00     0.134 A 
ATOM      7  C   UNL     1     -61.575  17.560 -31.111  1.00  0.00     0.093 A 
ATOM      8  C   UNL     1     -62.678  18.161 -30.499  1.00  0.00     0.123 A 
ATOM      9  C   UNL     1     -62.675  19.538 -30.257  1.00  0.00     0.094 A 
ATOM     10  C   UNL     1     -61.575  20.318 -30.623  1.00  0.00     0.146 A 
ATOM     11  O   UNL     1     -61.600  21.624 -30.386  1.00  0.00    -0.452 OA
ENDROOT
BRANCH   1  12
ATOM     12  C   UNL     1     -60.758  23.884 -30.397  1.00  0.00     0.025 A 
ATOM     13  C   UNL     1     -61.687  24.684 -31.086  1.00  0.00     0.016 A 
ATOM     14  C   UNL     1     -61.834  26.035 -30.761  1.00  0.00     0.051 A 
ATOM     15  C   UNL     1     -61.066  26.604 -29.736  1.00  0.00     0.157 A 
ATOM     16  C   UNL     1     -60.007  24.454 -29.356  1.00  0.00     0.062 A 
ATOM     17  C   UNL     1     -60.149  25.807 -29.029  1.00  0.00     0.158 A 
BRANCH  15  18
ATOM     18  O   UNL     1     -61.213  27.952 -29.416  1.00  0.00    -0.504 OA
ATOM     19  H   UNL     1     -62.120  28.405 -29.429  1.00  0.00     0.293 HD
ENDBRANCH  15  18
BRANCH  17  20
ATOM     20  O   UNL     1     -59.376  26.341 -27.999  1.00  0.00    -0.504 OA
ATOM     21  H   UNL     1     -59.501  27.290 -27.669  1.00  0.00     0.293 HD
ENDBRANCH  17  20
ENDBRANCH   1  12
BRANCH   2  22
ATOM     22  O   UNL     1     -58.355  22.769 -31.581  1.00  0.00    -0.502 OA
ATOM     23  H   UNL     1     -57.676  22.557 -32.302  1.00  0.00     0.293 HD
ENDBRANCH   2  22
BRANCH   6  24
ATOM     24  O   UNL     1     -59.374  17.696 -32.095  1.00  0.00    -0.507 OA
ATOM     25  H   UNL     1     -58.948  18.065 -32.937  1.00  0.00     0.293 HD
ENDBRANCH   6  24
BRANCH   8  26
ATOM     26  O   UNL     1     -63.772  17.379 -30.136  1.00  0.00    -0.508 OA
ATOM     27  H   UNL     1     -64.710  17.602 -30.448  1.00  0.00     0.293 HD
ENDBRANCH   8  26
TORSDOF 6
ENDMDL
MODEL 5
REMARK VINA RESULT:    -5.887      2.421      3.303
REMARK INTER + INTRA:          -7.422
REMARK INTER:                  -7.796
REMARK INTRA:                   0.374
REMARK UNBOUND:                -0.330
REMARK SMILES O=c1c(O)c(-c2ccc(O)c(O)c2)oc2cc(O)cc(O)c12
REMARK SMILES IDX 5 1 3 2 2 3 1 4 22 5 20 6 19 7 17 8 16 9 15 10 14 11 6 12
REMARK SMILES IDX 7 13 8 14 9 15 13 16 11 17 10 18 12 20 4 22 21 24 18 26
REMARK H PARENT 10 19 12 21 4 23 21 25 18 27
REMARK Flexibility Score: inf
ROOT
ATOM      1  C   UNL     1     -60.260  22.249 -30.549  1.00  0.00     0.180 A 
ATOM      2  C   UNL     1     -58.885  22.550 -30.496  1.00  0.00     0.208 A 
ATOM      3  C   UNL     1     -58.485  23.821 -30.055  1.00  0.00     0.238 A 
ATOM      4  O   UNL     1     -57.256  24.097 -29.993  1.00  0.00    -0.285 OA
ATOM      5  C   UNL     1     -59.460  24.772 -29.695  1.00  0.00     0.111 A 
ATOM      6  C   UNL     1     -59.141  26.076 -29.244  1.00  0.00     0.134 A 
ATOM      7  C   UNL     1     -60.171  26.970 -28.913  1.00  0.00     0.093 A 
ATOM      8  C   UNL     1     -61.510  26.586 -29.024  1.00  0.00     0.123 A 
ATOM      9  C   UNL     1     -61.831  25.300 -29.467  1.00  0.00     0.094 A 
ATOM     10  C   UNL     1     -60.820  24.394 -29.801  1.00  0.00     0.146 A 
ATOM     11  O   UNL     1     -61.152  23.177 -30.215  1.00  0.00    -0.452 OA
ENDROOT
BRANCH   1  12
ATOM     12  C   UNL     1     -60.760  20.926 -30.985  1.00  0.00     0.025 A 
ATOM     13  C   UNL     1     -59.959  20.054 -31.745  1.00  0.00     0.016 A 
ATOM     14  C   UNL     1     -60.444  18.800 -32.125  1.00  0.00     0.051 A 
ATOM     15  C   UNL     1     -61.729  18.392 -31.742  1.00  0.00     0.157 A 
ATOM     16  C   UNL     1     -62.038  20.503 -30.586  1.00  0.00     0.062 A 
ATOM     17  C   UNL     1     -62.528  19.248 -30.965  1.00  0.00     0.158 A 
BRANCH  15  18
ATOM     18  O   UNL     1     -62.210  17.142 -32.124  1.00  0.00    -0.504 OA
ATOM     19  H   UNL     1     -63.028  16.732 -31.689  1.00  0.00     0.293 HD
ENDBRANCH  15  18
BRANCH  17  20
ATOM     20  O   UNL     1     -63.807  18.870 -30.561  1.00  0.00    -0.504 OA
ATOM     21  H   UNL     1     -64.631  19.398 -30.820  1.00  0.00     0.293 HD
ENDBRANCH  17  20
ENDBRANCH   1  12
BRANCH   2  22
ATOM     22  O   UNL     1     -57.939  21.606 -30.906  1.00  0.00    -0.502 OA
ATOM     23  H   UNL     1     -56.946  21.734 -30.760  1.00  0.00     0.293 HD
ENDBRANCH   2  22
BRANCH   6  24
ATOM     24  O   UNL     1     -57.813  26.489 -29.123  1.00  0.00    -0.507 OA
ATOM     25  H   UNL     1     -57.260  26.746 -29.932  1.00  0.00     0.293 HD
ENDBRANCH   6  24
BRANCH   8  26
ATOM     26  O   UNL     1     -62.513  27.493 -28.689  1.00  0.00    -0.508 OA
ATOM     27  H   UNL     1     -63.002  28.029 -29.398  1.00  0.00     0.293 HD
ENDBRANCH   8  26
TORSDOF 6
ENDMDL
MODEL 6
REMARK VINA RESULT:    -5.841      2.719      8.101
REMARK INTER + INTRA:          -7.367
REMARK INTER:                  -7.641
REMARK INTRA:                   0.274
REMARK UNBOUND:                -0.330
REMARK SMILES O=c1c(O)c(-c2ccc(O)c(O)c2)oc2cc(O)cc(O)c12
REMARK SMILES IDX 5 1 3 2 2 3 1 4 22 5 20 6 19 7 17 8 16 9 15 10 14 11 6 12
REMARK SMILES IDX 7 13 8 14 9 15 13 16 11 17 10 18 12 20 4 22 21 24 18 26
REMARK H PARENT 10 19 12 21 4 23 21 25 18 27
REMARK Flexibility Score: inf
ROOT
ATOM      1  C   UNL     1     -60.343  24.545 -29.684  1.00  0.00     0.180 A 
ATOM      2  C   UNL     1     -61.081  24.131 -30.810  1.00  0.00     0.208 A 
ATOM      3  C   UNL     1     -61.186  22.759 -31.087  1.00  0.00     0.238 A 
ATOM      4  O   UNL     1     -61.853  22.377 -32.086  1.00  0.00    -0.285 OA
ATOM      5  C   UNL     1     -60.538  21.828 -30.249  1.00  0.00     0.111 A 
ATOM      6  C   UNL     1     -60.591  20.430 -30.460  1.00  0.00     0.134 A 
ATOM      7  C   UNL     1     -59.911  19.568 -29.586  1.00  0.00     0.093 A 
ATOM      8  C   UNL     1     -59.181  20.077 -28.509  1.00  0.00     0.123 A 
ATOM      9  C   UNL     1     -59.127  21.456 -28.295  1.00  0.00     0.094 A 
ATOM     10  C   UNL     1     -59.798  22.333 -29.153  1.00  0.00     0.146 A 
ATOM     11  O   UNL     1     -59.733  23.638 -28.925  1.00  0.00    -0.452 OA
ENDROOT
BRANCH   1  12
ATOM     12  C   UNL     1     -60.202  25.971 -29.316  1.00  0.00     0.025 A 
ATOM     13  C   UNL     1     -59.015  26.467 -28.747  1.00  0.00     0.016 A 
ATOM     14  C   UNL     1     -58.896  27.823 -28.430  1.00  0.00     0.051 A 
ATOM     15  C   UNL     1     -59.954  28.705 -28.688  1.00  0.00     0.157 A 
ATOM     16  C   UNL     1     -61.250  26.864 -29.592  1.00  0.00     0.062 A 
ATOM     17  C   UNL     1     -61.136  28.223 -29.274  1.00  0.00     0.158 A 
BRANCH  15  18
ATOM     18  O   UNL     1     -59.832  30.056 -28.368  1.00  0.00    -0.504 OA
ATOM     19  H   UNL     1     -60.490  30.745 -28.715  1.00  0.00     0.293 HD
ENDBRANCH  15  18
BRANCH  17  20
ATOM     20  O   UNL     1     -62.204  29.076 -29.551  1.00  0.00    -0.504 OA
ATOM     21  H   UNL     1     -62.700  29.047 -30.433  1.00  0.00     0.293 HD
ENDBRANCH  17  20
ENDBRANCH   1  12
BRANCH   2  22
ATOM     22  O   UNL     1     -61.672  25.077 -31.653  1.00  0.00    -0.502 OA
ATOM     23  H   UNL     1     -62.521  24.886 -32.171  1.00  0.00     0.293 HD
ENDBRANCH   2  22
BRANCH   6  24
ATOM     24  O   UNL     1     -61.311  19.891 -31.527  1.00  0.00    -0.507 OA
ATOM     25  H   UNL     1     -62.081  20.391 -31.956  1.00  0.00     0.293 HD
ENDBRANCH   6  24
BRANCH   8  26
ATOM     26  O   UNL     1     -58.515  19.199 -27.656  1.00  0.00    -0.508 OA
ATOM     27  H   UNL     1     -58.231  19.478 -26.724  1.00  0.00     0.293 HD
ENDBRANCH   8  26
TORSDOF 6
ENDMDL
MODEL 7
REMARK VINA RESULT:    -5.597      1.982      3.884
REMARK INTER + INTRA:          -7.072
REMARK INTER:                  -6.997
REMARK INTRA:                  -0.075
REMARK UNBOUND:                -0.330
REMARK SMILES O=c1c(O)c(-c2ccc(O)c(O)c2)oc2cc(O)cc(O)c12
REMARK SMILES IDX 5 1 3 2 2 3 1 4 22 5 20 6 19 7 17 8 16 9 15 10 14 11 6 12
REMARK SMILES IDX 7 13 8 14 9 15 13 16 11 17 10 18 12 20 4 22 21 24 18 26
REMARK H PARENT 10 19 12 21 4 23 21 25 18 27
REMARK Flexibility Score: inf
ROOT
ATOM      1  C   UNL     1     -61.246  22.293 -30.622  1.00  0.00     0.180 A 
ATOM      2  C   UNL     1     -62.243  22.961 -31.358  1.00  0.00     0.208 A 
ATOM      3  C   UNL     1     -62.318  24.361 -31.285  1.00  0.00     0.238 A 
ATOM      4  O   UNL     1     -63.200  24.970 -31.949  1.00  0.00    -0.285 OA
ATOM      5  C   UNL     1     -61.413  25.065 -30.465  1.00  0.00     0.111 A 
ATOM      6  C   UNL     1     -61.424  26.474 -30.333  1.00  0.00     0.134 A 
ATOM      7  C   UNL     1     -60.496  27.101 -29.489  1.00  0.00     0.093 A 
ATOM      8  C   UNL     1     -59.559  26.348 -28.776  1.00  0.00     0.123 A 
ATOM      9  C   UNL     1     -59.542  24.956 -28.904  1.00  0.00     0.094 A 
ATOM     10  C   UNL     1     -60.459  24.312 -29.741  1.00  0.00     0.146 A 
ATOM     11  O   UNL     1     -60.419  22.989 -29.847  1.00  0.00    -0.452 OA
ENDROOT
BRANCH   1  12
ATOM     12  C   UNL     1     -61.091  20.821 -30.662  1.00  0.00     0.025 A 
ATOM     13  C   UNL     1     -59.874  20.223 -31.033  1.00  0.00     0.016 A 
ATOM     14  C   UNL     1     -59.743  18.832 -31.040  1.00  0.00     0.051 A 
ATOM     15  C   UNL     1     -60.820  18.018 -30.664  1.00  0.00     0.157 A 
ATOM     16  C   UNL     1     -62.160  20.002 -30.265  1.00  0.00     0.062 A 
ATOM     17  C   UNL     1     -62.034  18.608 -30.272  1.00  0.00     0.158 A 
BRANCH  15  18
ATOM     18  O   UNL     1     -60.688  16.631 -30.674  1.00  0.00    -0.504 OA
ATOM     19  H   UNL     1     -60.004  16.159 -30.093  1.00  0.00     0.293 HD
ENDBRANCH  15  18
BRANCH  17  20
ATOM     20  O   UNL     1     -63.123  17.827 -29.885  1.00  0.00    -0.504 OA
ATOM     21  H   UNL     1     -63.080  17.203 -29.089  1.00  0.00     0.293 HD
ENDBRANCH  17  20
ENDBRANCH   1  12
BRANCH   2  22
ATOM     22  O   UNL     1     -63.160  22.236 -32.125  1.00  0.00    -0.502 OA
ATOM     23  H   UNL     1     -62.946  21.905 -33.058  1.00  0.00     0.293 HD
ENDBRANCH   2  22
BRANCH   6  24
ATOM     24  O   UNL     1     -62.348  27.254 -31.031  1.00  0.00    -0.507 OA
ATOM     25  H   UNL     1     -62.141  27.629 -31.949  1.00  0.00     0.293 HD
ENDBRANCH   6  24
BRANCH   8  26
ATOM     26  O   UNL     1     -58.647  26.995 -27.944  1.00  0.00    -0.508 OA
ATOM     27  H   UNL     1     -58.786  27.042 -26.941  1.00  0.00     0.293 HD
ENDBRANCH   8  26
TORSDOF 6
ENDMDL
MODEL 8
REMARK VINA RESULT:    -5.244      2.481      4.673
REMARK INTER + INTRA:          -6.647
REMARK INTER:                  -6.619
REMARK INTRA:                  -0.029
REMARK UNBOUND:                -0.330
REMARK SMILES O=c1c(O)c(-c2ccc(O)c(O)c2)oc2cc(O)cc(O)c12
REMARK SMILES IDX 5 1 3 2 2 3 1 4 22 5 20 6 19 7 17 8 16 9 15 10 14 11 6 12
REMARK SMILES IDX 7 13 8 14 9 15 13 16 11 17 10 18 12 20 4 22 21 24 18 26
REMARK H PARENT 10 19 12 21 4 23 21 25 18 27
REMARK Flexibility Score: inf
ROOT
ATOM      1  C   UNL     1     -60.817  23.620 -30.319  1.00  0.00     0.180 A 
ATOM      2  C   UNL     1     -61.740  24.197 -31.212  1.00  0.00     0.208 A 
ATOM      3  C   UNL     1     -61.971  25.581 -31.150  1.00  0.00     0.238 A 
ATOM      4  O   UNL     1     -62.787  26.109 -31.953  1.00  0.00    -0.285 OA
ATOM      5  C   UNL     1     -61.294  26.357 -30.189  1.00  0.00     0.111 A 
ATOM      6  C   UNL     1     -61.474  27.755 -30.057  1.00  0.00     0.134 A 
ATOM      7  C   UNL     1     -60.770  28.458 -29.067  1.00  0.00     0.093 A 
ATOM      8  C   UNL     1     -59.893  27.790 -28.208  1.00  0.00     0.123 A 
ATOM      9  C   UNL     1     -59.712  26.411 -28.333  1.00  0.00     0.094 A 
ATOM     10  C   UNL     1     -60.402  25.692 -29.314  1.00  0.00     0.146 A 
ATOM     11  O   UNL     1     -60.208  24.383 -29.414  1.00  0.00    -0.452 OA
ENDROOT
BRANCH   1  12
ATOM     12  C   UNL     1     -60.505  22.173 -30.334  1.00  0.00     0.025 A 
ATOM     13  C   UNL     1     -61.522  21.205 -30.259  1.00  0.00     0.016 A 
ATOM     14  C   UNL     1     -61.206  19.844 -30.299  1.00  0.00     0.051 A 
ATOM     15  C   UNL     1     -59.873  19.431 -30.428  1.00  0.00     0.157 A 
ATOM     16  C   UNL     1     -59.174  21.754 -30.485  1.00  0.00     0.062 A 
ATOM     17  C   UNL     1     -58.853  20.392 -30.524  1.00  0.00     0.158 A 
BRANCH  15  18
ATOM     18  O   UNL     1     -59.561  18.073 -30.466  1.00  0.00    -0.504 OA
ATOM     19  H   UNL     1     -59.457  17.577 -31.344  1.00  0.00     0.293 HD
ENDBRANCH  15  18
BRANCH  17  20
ATOM     20  O   UNL     1     -57.517  20.014 -30.661  1.00  0.00    -0.504 OA
ATOM     21  H   UNL     1     -56.771  20.695 -30.734  1.00  0.00     0.293 HD
ENDBRANCH  17  20
ENDBRANCH   1  12
BRANCH   2  22
ATOM     22  O   UNL     1     -62.434  23.397 -32.124  1.00  0.00    -0.502 OA
ATOM     23  H   UNL     1     -62.157  23.314 -33.094  1.00  0.00     0.293 HD
ENDBRANCH   2  22
BRANCH   6  24
ATOM     24  O   UNL     1     -62.342  28.451 -30.900  1.00  0.00    -0.507 OA
ATOM     25  H   UNL     1     -62.760  28.012 -31.713  1.00  0.00     0.293 HD
ENDBRANCH   6  24
BRANCH   8  26
ATOM     26  O   UNL     1     -59.207  28.511 -27.233  1.00  0.00    -0.508 OA
ATOM     27  H   UNL     1     -59.682  29.171 -26.629  1.00  0.00     0.293 HD
ENDBRANCH   8  26
TORSDOF 6
ENDMDL
MODEL 9
REMARK VINA RESULT:    -5.214      2.880      7.924
REMARK INTER + INTRA:          -6.611
REMARK INTER:                  -6.851
REMARK INTRA:                   0.241
REMARK UNBOUND:                -0.330
REMARK SMILES O=c1c(O)c(-c2ccc(O)c(O)c2)oc2cc(O)cc(O)c12
REMARK SMILES IDX 5 1 3 2 2 3 1 4 22 5 20 6 19 7 17 8 16 9 15 10 14 11 6 12
REMARK SMILES IDX 7 13 8 14 9 15 13 16 11 17 10 18 12 20 4 22 21 24 18 26
REMARK H PARENT 10 19 12 21 4 23 21 25 18 27
REMARK Flexibility Score: inf
ROOT
ATOM      1  C   UNL     1     -60.795  24.462 -30.389  1.00  0.00     0.180 A 
ATOM      2  C   UNL     1     -62.013  23.825 -30.693  1.00  0.00     0.208 A 
ATOM      3  C   UNL     1     -61.989  22.500 -31.158  1.00  0.00     0.238 A 
ATOM      4  O   UNL     1     -63.075  21.916 -31.422  1.00  0.00    -0.285 OA
ATOM      5  C   UNL     1     -60.753  21.845 -31.331  1.00  0.00     0.111 A 
ATOM      6  C   UNL     1     -60.642  20.514 -31.799  1.00  0.00     0.134 A 
ATOM      7  C   UNL     1     -59.374  19.934 -31.953  1.00  0.00     0.093 A 
ATOM      8  C   UNL     1     -58.218  20.658 -31.650  1.00  0.00     0.123 A 
ATOM      9  C   UNL     1     -58.322  21.972 -31.187  1.00  0.00     0.094 A 
ATOM     10  C   UNL     1     -59.576  22.569 -31.025  1.00  0.00     0.146 A 
ATOM     11  O   UNL     1     -59.646  23.817 -30.579  1.00  0.00    -0.452 OA
ENDROOT
BRANCH   1  12
ATOM     12  C   UNL     1     -60.738  25.849 -29.877  1.00  0.00     0.025 A 
ATOM     13  C   UNL     1     -61.686  26.813 -30.265  1.00  0.00     0.016 A 
ATOM     14  C   UNL     1     -61.627  28.110 -29.750  1.00  0.00     0.051 A 
ATOM     15  C   UNL     1     -60.630  28.461 -28.830  1.00  0.00     0.157 A 
ATOM     16  C   UNL     1     -59.754  26.201 -28.939  1.00  0.00     0.062 A 
ATOM     17  C   UNL     1     -59.690  27.500 -28.421  1.00  0.00     0.158 A 
BRANCH  15  18
ATOM     18  O   UNL     1     -60.573  29.757 -28.319  1.00  0.00    -0.504 OA
ATOM     19  H   UNL     1     -60.824  29.960 -27.359  1.00  0.00     0.293 HD
ENDBRANCH  15  18
BRANCH  17  20
ATOM     20  O   UNL     1     -58.691  27.815 -27.502  1.00  0.00    -0.504 OA
ATOM     21  H   UNL     1     -58.697  28.680 -26.976  1.00  0.00     0.293 HD
ENDBRANCH  17  20
ENDBRANCH   1  12
BRANCH   2  22
ATOM     22  O   UNL     1     -63.222  24.513 -30.560  1.00  0.00    -0.502 OA
ATOM     23  H   UNL     1     -63.910  24.550 -31.302  1.00  0.00     0.293 HD
ENDBRANCH   2  22
BRANCH   6  24
ATOM     24  O   UNL     1     -61.777  19.764 -32.110  1.00  0.00    -0.507 OA
ATOM     25  H   UNL     1     -62.655  20.206 -32.358  1.00  0.00     0.293 HD
ENDBRANCH   6  24
BRANCH   8  26
ATOM     26  O   UNL     1     -56.970  20.059 -31.812  1.00  0.00    -0.508 OA
ATOM     27  H   UNL     1     -56.470  19.655 -31.029  1.00  0.00     0.293 HD
ENDBRANCH   8  26
TORSDOF 6
ENDMDL
