MODEL 1
REMARK VINA RESULT:    -8.149      0.000      0.000
REMARK INTER + INTRA:          -9.640
REMARK INTER:                  -9.816
REMARK INTRA:                   0.177
REMARK UNBOUND:                 0.177
REMARK SMILES O=c1c(O)c(-c2ccc(O)c(O)c2)oc2cc(O)cc(O)c12
REMARK SMILES IDX 5 1 3 2 2 3 1 4 22 5 20 6 19 7 17 8 16 9 15 10 14 11 6 12
REMARK SMILES IDX 7 13 8 14 9 15 13 16 11 17 10 18 12 20 4 22 21 24 18 26
REMARK H PARENT 10 19 12 21 4 23 21 25 18 27
REMARK Flexibility Score: inf
ROOT
ATOM      1  C   UNL     1      37.680 -12.890   8.836  1.00  0.00     0.180 A 
ATOM      2  C   UNL     1      37.960 -11.535   9.087  1.00  0.00     0.208 A 
ATOM      3  C   UNL     1      39.062 -11.205   9.891  1.00  0.00     0.238 A 
ATOM      4  O   UNL     1      39.340  -9.990  10.066  1.00  0.00    -0.285 OA
ATOM      5  C   UNL     1      39.861 -12.234  10.448  1.00  0.00     0.111 A 
ATOM      6  C   UNL     1      40.978 -12.015  11.309  1.00  0.00     0.134 A 
ATOM      7  C   UNL     1      41.774 -13.100  11.696  1.00  0.00     0.093 A 
ATOM      8  C   UNL     1      41.458 -14.400  11.307  1.00  0.00     0.123 A 
ATOM      9  C   UNL     1      40.334 -14.632  10.513  1.00  0.00     0.094 A 
ATOM     10  C   UNL     1      39.540 -13.567  10.081  1.00  0.00     0.146 A 
ATOM     11  O   UNL     1      38.486 -13.829   9.319  1.00  0.00    -0.452 OA
ENDROOT
BRANCH   1  12
ATOM     12  C   UNL     1      36.521 -13.317   8.019  1.00  0.00     0.025 A 
ATOM     13  C   UNL     1      35.303 -12.635   8.139  1.00  0.00     0.016 A 
ATOM     14  C   UNL     1      34.204 -13.007   7.364  1.00  0.00     0.051 A 
ATOM     15  C   UNL     1      34.302 -14.056   6.443  1.00  0.00     0.157 A 
ATOM     16  C   UNL     1      36.630 -14.356   7.079  1.00  0.00     0.062 A 
ATOM     17  C   UNL     1      35.534 -14.735   6.294  1.00  0.00     0.158 A 
BRANCH  15  18
ATOM     18  O   UNL     1      33.164 -14.384   5.704  1.00  0.00    -0.504 OA
ATOM     19  H   UNL     1      33.011 -15.284   5.272  1.00  0.00     0.293 HD
ENDBRANCH  15  18
BRANCH  17  20
ATOM     20  O   UNL     1      35.714 -15.777   5.382  1.00  0.00    -0.504 OA
ATOM     21  H   UNL     1      36.382 -16.524   5.502  1.00  0.00     0.293 HD
ENDBRANCH  17  20
ENDBRANCH   1  12
BRANCH   2  22
ATOM     22  O   UNL     1      37.171 -10.536   8.509  1.00  0.00    -0.502 OA
ATOM     23  H   UNL     1      36.161 -10.531   8.584  1.00  0.00     0.293 HD
ENDBRANCH   2  22
BRANCH   6  24
ATOM     24  O   UNL     1      41.328 -10.767  11.832  1.00  0.00    -0.507 OA
ATOM     25  H   UNL     1      41.189  -9.886  11.359  1.00  0.00     0.293 HD
ENDBRANCH   6  24
BRANCH   8  26
ATOM     26  O   UNL     1      42.264 -15.458  11.722  1.00  0.00    -0.508 OA
ATOM     27  H   UNL     1      43.153 -15.654  11.279  1.00  0.00     0.293 HD
ENDBRANCH   8  26
TORSDOF 6
ENDMDL
MODEL 2
REMARK VINA RESULT:    -7.986      5.353     11.407
REMARK INTER + INTRA:          -9.444
REMARK INTER:                  -9.699
REMARK INTRA:                   0.255
REMARK UNBOUND:                 0.177
REMARK SMILES O=c1c(O)c(-c2ccc(O)c(O)c2)oc2cc(O)cc(O)c12
REMARK SMILES IDX 5 1 3 2 2 3 1 4 22 5 20 6 19 7 17 8 16 9 15 10 14 11 6 12
REMARK SMILES IDX 7 13 8 14 9 15 13 16 11 17 10 18 12 20 4 22 21 24 18 26
REMARK H PARENT 10 19 12 21 4 23 21 25 18 27
REMARK Flexibility Score: inf
ROOT
ATOM      1  C   UNL     1      32.205 -14.941   3.172  1.00  0.00     0.180 A 
ATOM      2  C   UNL     1      32.597 -15.017   1.824  1.00  0.00     0.208 A 
ATOM      3  C   UNL     1      31.611 -15.164   0.835  1.00  0.00     0.238 A 
ATOM      4  O   UNL     1      31.963 -15.176  -0.373  1.00  0.00    -0.285 OA
ATOM      5  C   UNL     1      30.247 -15.250   1.208  1.00  0.00     0.111 A 
ATOM      6  C   UNL     1      29.168 -15.440   0.293  1.00  0.00     0.134 A 
ATOM      7  C   UNL     1      27.849 -15.379   0.760  1.00  0.00     0.093 A 
ATOM      8  C   UNL     1      27.572 -15.201   2.114  1.00  0.00     0.123 A 
ATOM      9  C   UNL     1      28.621 -15.073   3.026  1.00  0.00     0.094 A 
ATOM     10  C   UNL     1      29.947 -15.094   2.586  1.00  0.00     0.146 A 
ATOM     11  O   UNL     1      30.915 -14.959   3.484  1.00  0.00    -0.452 OA
ENDROOT
BRANCH   1  12
ATOM     12  C   UNL     1      33.189 -14.811   4.271  1.00  0.00     0.025 A 
ATOM     13  C   UNL     1      34.444 -15.422   4.151  1.00  0.00     0.016 A 
ATOM     14  C   UNL     1      35.393 -15.296   5.166  1.00  0.00     0.051 A 
ATOM     15  C   UNL     1      35.115 -14.545   6.314  1.00  0.00     0.157 A 
ATOM     16  C   UNL     1      32.914 -14.038   5.412  1.00  0.00     0.062 A 
ATOM     17  C   UNL     1      33.861 -13.902   6.436  1.00  0.00     0.158 A 
BRANCH  15  18
ATOM     18  O   UNL     1      36.104 -14.464   7.297  1.00  0.00    -0.504 OA
ATOM     19  H   UNL     1      35.993 -14.808   8.239  1.00  0.00     0.293 HD
ENDBRANCH  15  18
BRANCH  17  20
ATOM     20  O   UNL     1      33.519 -13.120   7.541  1.00  0.00    -0.504 OA
ATOM     21  H   UNL     1      33.255 -12.148   7.485  1.00  0.00     0.293 HD
ENDBRANCH  17  20
ENDBRANCH   1  12
BRANCH   2  22
ATOM     22  O   UNL     1      33.947 -14.908   1.477  1.00  0.00    -0.502 OA
ATOM     23  H   UNL     1      34.566 -15.710   1.444  1.00  0.00     0.293 HD
ENDBRANCH   2  22
BRANCH   6  24
ATOM     24  O   UNL     1      29.337 -15.716  -1.066  1.00  0.00    -0.507 OA
ATOM     25  H   UNL     1      29.942 -16.433  -1.436  1.00  0.00     0.293 HD
ENDBRANCH   6  24
BRANCH   8  26
ATOM     26  O   UNL     1      26.248 -15.161   2.546  1.00  0.00    -0.508 OA
ATOM     27  H   UNL     1      26.002 -15.302   3.519  1.00  0.00     0.293 HD
ENDBRANCH   8  26
TORSDOF 6
ENDMDL
MODEL 3
REMARK VINA RESULT:    -7.630      1.307      1.811
REMARK INTER + INTRA:          -9.015
REMARK INTER:                  -8.744
REMARK INTRA:                  -0.271
REMARK UNBOUND:                 0.177
REMARK SMILES O=c1c(O)c(-c2ccc(O)c(O)c2)oc2cc(O)cc(O)c12
REMARK SMILES IDX 5 1 3 2 2 3 1 4 22 5 20 6 19 7 17 8 16 9 15 10 14 11 6 12
REMARK SMILES IDX 7 13 8 14 9 15 13 16 11 17 10 18 12 20 4 22 21 24 18 26
REMARK H PARENT 10 19 12 21 4 23 21 25 18 27
REMARK Flexibility Score: inf
ROOT
ATOM      1  C   UNL     1      36.456 -12.946   7.587  1.00  0.00     0.180 A 
ATOM      2  C   UNL     1      36.744 -11.572   7.648  1.00  0.00     0.208 A 
ATOM      3  C   UNL     1      37.795 -11.132   8.468  1.00  0.00     0.238 A 
ATOM      4  O   UNL     1      38.084  -9.907   8.476  1.00  0.00    -0.285 OA
ATOM      5  C   UNL     1      38.535 -12.070   9.228  1.00  0.00     0.111 A 
ATOM      6  C   UNL     1      39.595 -11.731  10.122  1.00  0.00     0.134 A 
ATOM      7  C   UNL     1      40.343 -12.752  10.723  1.00  0.00     0.093 A 
ATOM      8  C   UNL     1      40.029 -14.093  10.515  1.00  0.00     0.123 A 
ATOM      9  C   UNL     1      38.958 -14.434   9.689  1.00  0.00     0.094 A 
ATOM     10  C   UNL     1      38.215 -13.440   9.047  1.00  0.00     0.146 A 
ATOM     11  O   UNL     1      37.209 -13.807   8.262  1.00  0.00    -0.452 OA
ENDROOT
BRANCH   1  12
ATOM     12  C   UNL     1      35.347 -13.483   6.766  1.00  0.00     0.025 A 
ATOM     13  C   UNL     1      34.026 -13.332   7.206  1.00  0.00     0.016 A 
ATOM     14  C   UNL     1      32.964 -13.812   6.438  1.00  0.00     0.051 A 
ATOM     15  C   UNL     1      33.199 -14.438   5.209  1.00  0.00     0.157 A 
ATOM     16  C   UNL     1      35.585 -14.091   5.521  1.00  0.00     0.062 A 
ATOM     17  C   UNL     1      34.527 -14.574   4.741  1.00  0.00     0.158 A 
BRANCH  15  18
ATOM     18  O   UNL     1      32.094 -14.903   4.492  1.00  0.00    -0.504 OA
ATOM     19  H   UNL     1      31.922 -15.877   4.289  1.00  0.00     0.293 HD
ENDBRANCH  15  18
BRANCH  17  20
ATOM     20  O   UNL     1      34.837 -15.168   3.516  1.00  0.00    -0.504 OA
ATOM     21  H   UNL     1      35.603 -14.880   2.926  1.00  0.00     0.293 HD
ENDBRANCH  17  20
ENDBRANCH   1  12
BRANCH   2  22
ATOM     22  O   UNL     1      36.015 -10.666   6.872  1.00  0.00    -0.502 OA
ATOM     23  H   UNL     1      35.847 -10.809   5.883  1.00  0.00     0.293 HD
ENDBRANCH   2  22
BRANCH   6  24
ATOM     24  O   UNL     1      39.933 -10.421  10.473  1.00  0.00    -0.507 OA
ATOM     25  H   UNL     1      40.391 -10.156  11.332  1.00  0.00     0.293 HD
ENDBRANCH   6  24
BRANCH   8  26
ATOM     26  O   UNL     1      40.785 -15.082  11.141  1.00  0.00    -0.508 OA
ATOM     27  H   UNL     1      40.471 -15.531  11.993  1.00  0.00     0.293 HD
ENDBRANCH   8  26
TORSDOF 6
ENDMDL
MODEL 4
REMARK VINA RESULT:    -7.603      2.493      7.316
REMARK INTER + INTRA:          -8.981
REMARK INTER:                  -8.672
REMARK INTRA:                  -0.310
REMARK UNBOUND:                 0.177
REMARK SMILES O=c1c(O)c(-c2ccc(O)c(O)c2)oc2cc(O)cc(O)c12
REMARK SMILES IDX 5 1 3 2 2 3 1 4 22 5 20 6 19 7 17 8 16 9 15 10 14 11 6 12
REMARK SMILES IDX 7 13 8 14 9 15 13 16 11 17 10 18 12 20 4 22 21 24 18 26
REMARK H PARENT 10 19 12 21 4 23 21 25 18 27
REMARK Flexibility Score: inf
ROOT
ATOM      1  C   UNL     1      37.859 -11.837   8.357  1.00  0.00     0.180 A 
ATOM      2  C   UNL     1      36.627 -12.449   8.648  1.00  0.00     0.208 A 
ATOM      3  C   UNL     1      35.678 -12.590   7.624  1.00  0.00     0.238 A 
ATOM      4  O   UNL     1      34.600 -13.187   7.877  1.00  0.00    -0.285 OA
ATOM      5  C   UNL     1      35.966 -12.104   6.325  1.00  0.00     0.111 A 
ATOM      6  C   UNL     1      35.062 -12.158   5.222  1.00  0.00     0.134 A 
ATOM      7  C   UNL     1      35.501 -11.765   3.951  1.00  0.00     0.093 A 
ATOM      8  C   UNL     1      36.784 -11.260   3.756  1.00  0.00     0.123 A 
ATOM      9  C   UNL     1      37.657 -11.148   4.840  1.00  0.00     0.094 A 
ATOM     10  C   UNL     1      37.261 -11.564   6.113  1.00  0.00     0.146 A 
ATOM     11  O   UNL     1      38.124 -11.450   7.115  1.00  0.00    -0.452 OA
ENDROOT
BRANCH   1  12
ATOM     12  C   UNL     1      38.900 -11.630   9.390  1.00  0.00     0.025 A 
ATOM     13  C   UNL     1      40.015 -12.478   9.427  1.00  0.00     0.016 A 
ATOM     14  C   UNL     1      41.017 -12.288  10.380  1.00  0.00     0.051 A 
ATOM     15  C   UNL     1      40.934 -11.241  11.303  1.00  0.00     0.157 A 
ATOM     16  C   UNL     1      38.825 -10.563  10.302  1.00  0.00     0.062 A 
ATOM     17  C   UNL     1      39.826 -10.362  11.260  1.00  0.00     0.158 A 
BRANCH  15  18
ATOM     18  O   UNL     1      41.966 -11.110  12.236  1.00  0.00    -0.504 OA
ATOM     19  H   UNL     1      42.627 -10.346  12.244  1.00  0.00     0.293 HD
ENDBRANCH  15  18
BRANCH  17  20
ATOM     20  O   UNL     1      39.685  -9.284  12.135  1.00  0.00    -0.504 OA
ATOM     21  H   UNL     1      40.029  -8.354  11.946  1.00  0.00     0.293 HD
ENDBRANCH  17  20
ENDBRANCH   1  12
BRANCH   2  22
ATOM     22  O   UNL     1      36.373 -12.941   9.931  1.00  0.00    -0.502 OA
ATOM     23  H   UNL     1      35.980 -12.365  10.667  1.00  0.00     0.293 HD
ENDBRANCH   2  22
BRANCH   6  24
ATOM     24  O   UNL     1      33.727 -12.559   5.324  1.00  0.00    -0.507 OA
ATOM     25  H   UNL     1      33.000 -12.026   5.777  1.00  0.00     0.293 HD
ENDBRANCH   6  24
BRANCH   8  26
ATOM     26  O   UNL     1      37.182 -10.864   2.481  1.00  0.00    -0.508 OA
ATOM     27  H   UNL     1      37.403 -11.541   1.760  1.00  0.00     0.293 HD
ENDBRANCH   8  26
TORSDOF 6
ENDMDL
MODEL 5
REMARK VINA RESULT:    -7.326      2.144      7.160
REMARK INTER + INTRA:          -8.649
REMARK INTER:                  -8.329
REMARK INTRA:                  -0.320
REMARK UNBOUND:                 0.177
REMARK SMILES O=c1c(O)c(-c2ccc(O)c(O)c2)oc2cc(O)cc(O)c12
REMARK SMILES IDX 5 1 3 2 2 3 1 4 22 5 20 6 19 7 17 8 16 9 15 10 14 11 6 12
REMARK SMILES IDX 7 13 8 14 9 15 13 16 11 17 10 18 12 20 4 22 21 24 18 26
REMARK H PARENT 10 19 12 21 4 23 21 25 18 27
REMARK Flexibility Score: inf
ROOT
ATOM      1  C   UNL     1      38.304 -11.535   8.012  1.00  0.00     0.180 A 
ATOM      2  C   UNL     1      38.580 -10.894   6.791  1.00  0.00     0.208 A 
ATOM      3  C   UNL     1      37.687 -11.056   5.720  1.00  0.00     0.238 A 
ATOM      4  O   UNL     1      37.910 -10.436   4.648  1.00  0.00    -0.285 OA
ATOM      5  C   UNL     1      36.537 -11.868   5.878  1.00  0.00     0.111 A 
ATOM      6  C   UNL     1      35.586 -12.133   4.848  1.00  0.00     0.134 A 
ATOM      7  C   UNL     1      34.419 -12.845   5.154  1.00  0.00     0.093 A 
ATOM      8  C   UNL     1      34.200 -13.355   6.431  1.00  0.00     0.123 A 
ATOM      9  C   UNL     1      35.152 -13.152   7.431  1.00  0.00     0.094 A 
ATOM     10  C   UNL     1      36.310 -12.416   7.167  1.00  0.00     0.146 A 
ATOM     11  O   UNL     1      37.185 -12.237   8.148  1.00  0.00    -0.452 OA
ENDROOT
BRANCH   1  12
ATOM     12  C   UNL     1      39.212 -11.432   9.178  1.00  0.00     0.025 A 
ATOM     13  C   UNL     1      40.300 -12.309   9.284  1.00  0.00     0.016 A 
ATOM     14  C   UNL     1      41.179 -12.216  10.364  1.00  0.00     0.051 A 
ATOM     15  C   UNL     1      41.000 -11.240  11.349  1.00  0.00     0.157 A 
ATOM     16  C   UNL     1      39.041 -10.436  10.153  1.00  0.00     0.062 A 
ATOM     17  C   UNL     1      39.919 -10.333  11.240  1.00  0.00     0.158 A 
BRANCH  15  18
ATOM     18  O   UNL     1      41.910 -11.205  12.408  1.00  0.00    -0.504 OA
ATOM     19  H   UNL     1      42.235 -10.355  12.846  1.00  0.00     0.293 HD
ENDBRANCH  15  18
BRANCH  17  20
ATOM     20  O   UNL     1      39.688  -9.320  12.173  1.00  0.00    -0.504 OA
ATOM     21  H   UNL     1      38.825  -9.210  12.684  1.00  0.00     0.293 HD
ENDBRANCH  17  20
ENDBRANCH   1  12
BRANCH   2  22
ATOM     22  O   UNL     1      39.709 -10.080   6.664  1.00  0.00    -0.502 OA
ATOM     23  H   UNL     1      40.282 -10.071   5.828  1.00  0.00     0.293 HD
ENDBRANCH   2  22
BRANCH   6  24
ATOM     24  O   UNL     1      35.751 -11.748   3.515  1.00  0.00    -0.507 OA
ATOM     25  H   UNL     1      36.456 -11.107   3.185  1.00  0.00     0.293 HD
ENDBRANCH   6  24
BRANCH   8  26
ATOM     26  O   UNL     1      33.035 -14.071   6.697  1.00  0.00    -0.508 OA
ATOM     27  H   UNL     1      32.798 -14.910   6.180  1.00  0.00     0.293 HD
ENDBRANCH   8  26
TORSDOF 6
ENDMDL
MODEL 6
REMARK VINA RESULT:    -7.311      2.095      6.898
REMARK INTER + INTRA:          -8.630
REMARK INTER:                  -8.518
REMARK INTRA:                  -0.112
REMARK UNBOUND:                 0.177
REMARK SMILES O=c1c(O)c(-c2ccc(O)c(O)c2)oc2cc(O)cc(O)c12
REMARK SMILES IDX 5 1 3 2 2 3 1 4 22 5 20 6 19 7 17 8 16 9 15 10 14 11 6 12
REMARK SMILES IDX 7 13 8 14 9 15 13 16 11 17 10 18 12 20 4 22 21 24 18 26
REMARK H PARENT 10 19 12 21 4 23 21 25 18 27
REMARK Flexibility Score: inf
ROOT
ATOM      1  C   UNL     1      39.470 -11.623   8.934  1.00  0.00     0.180 A 
ATOM      2  C   UNL     1      39.860 -10.854   7.824  1.00  0.00     0.208 A 
ATOM      3  C   UNL     1      38.986 -10.746   6.730  1.00  0.00     0.238 A 
ATOM      4  O   UNL     1      39.316 -10.012   5.762  1.00  0.00    -0.285 OA
ATOM      5  C   UNL     1      37.742 -11.421   6.754  1.00  0.00     0.111 A 
ATOM      6  C   UNL     1      36.796 -11.414   5.684  1.00  0.00     0.134 A 
ATOM      7  C   UNL     1      35.542 -12.010   5.868  1.00  0.00     0.093 A 
ATOM      8  C   UNL     1      35.224 -12.666   7.055  1.00  0.00     0.123 A 
ATOM      9  C   UNL     1      36.162 -12.730   8.085  1.00  0.00     0.094 A 
ATOM     10  C   UNL     1      37.409 -12.115   7.946  1.00  0.00     0.146 A 
ATOM     11  O   UNL     1      38.270 -12.190   8.953  1.00  0.00    -0.452 OA
ENDROOT
BRANCH   1  12
ATOM     12  C   UNL     1      40.348 -11.804  10.113  1.00  0.00     0.025 A 
ATOM     13  C   UNL     1      40.710 -10.689  10.882  1.00  0.00     0.016 A 
ATOM     14  C   UNL     1      41.519 -10.840  12.009  1.00  0.00     0.051 A 
ATOM     15  C   UNL     1      41.970 -12.105  12.400  1.00  0.00     0.157 A 
ATOM     16  C   UNL     1      40.780 -13.079  10.516  1.00  0.00     0.062 A 
ATOM     17  C   UNL     1      41.590 -13.241  11.647  1.00  0.00     0.158 A 
BRANCH  15  18
ATOM     18  O   UNL     1      42.783 -12.187  13.533  1.00  0.00    -0.504 OA
ATOM     19  H   UNL     1      43.792 -12.194  13.504  1.00  0.00     0.293 HD
ENDBRANCH  15  18
BRANCH  17  20
ATOM     20  O   UNL     1      41.984 -14.537  11.987  1.00  0.00    -0.504 OA
ATOM     21  H   UNL     1      42.154 -14.845  12.933  1.00  0.00     0.293 HD
ENDBRANCH  17  20
ENDBRANCH   1  12
BRANCH   2  22
ATOM     22  O   UNL     1      41.083 -10.178   7.831  1.00  0.00    -0.502 OA
ATOM     23  H   UNL     1      41.435  -9.681   7.021  1.00  0.00     0.293 HD
ENDBRANCH   2  22
BRANCH   6  24
ATOM     24  O   UNL     1      37.047 -10.866   4.423  1.00  0.00    -0.507 OA
ATOM     25  H   UNL     1      36.949  -9.889   4.192  1.00  0.00     0.293 HD
ENDBRANCH   6  24
BRANCH   8  26
ATOM     26  O   UNL     1      33.971 -13.261   7.199  1.00  0.00    -0.508 OA
ATOM     27  H   UNL     1      33.703 -13.732   8.053  1.00  0.00     0.293 HD
ENDBRANCH   8  26
TORSDOF 6
ENDMDL
MODEL 7
REMARK VINA RESULT:    -7.290      3.429      9.079
REMARK INTER + INTRA:          -8.604
REMARK INTER:                  -8.317
REMARK INTRA:                  -0.287
REMARK UNBOUND:                 0.177
REMARK SMILES O=c1c(O)c(-c2ccc(O)c(O)c2)oc2cc(O)cc(O)c12
REMARK SMILES IDX 5 1 3 2 2 3 1 4 22 5 20 6 19 7 17 8 16 9 15 10 14 11 6 12
REMARK SMILES IDX 7 13 8 14 9 15 13 16 11 17 10 18 12 20 4 22 21 24 18 26
REMARK H PARENT 10 19 12 21 4 23 21 25 18 27
REMARK Flexibility Score: inf
ROOT
ATOM      1  C   UNL     1      34.600 -13.706   4.968  1.00  0.00     0.180 A 
ATOM      2  C   UNL     1      35.262 -13.671   3.729  1.00  0.00     0.208 A 
ATOM      3  C   UNL     1      34.596 -14.144   2.587  1.00  0.00     0.238 A 
ATOM      4  O   UNL     1      35.173 -14.060   1.472  1.00  0.00    -0.285 OA
ATOM      5  C   UNL     1      33.282 -14.660   2.702  1.00  0.00     0.111 A 
ATOM      6  C   UNL     1      32.527 -15.202   1.618  1.00  0.00     0.134 A 
ATOM      7  C   UNL     1      31.189 -15.564   1.822  1.00  0.00     0.093 A 
ATOM      8  C   UNL     1      30.600 -15.465   3.080  1.00  0.00     0.123 A 
ATOM      9  C   UNL     1      31.347 -14.991   4.160  1.00  0.00     0.094 A 
ATOM     10  C   UNL     1      32.673 -14.589   3.982  1.00  0.00     0.146 A 
ATOM     11  O   UNL     1      33.345 -14.135   5.032  1.00  0.00    -0.452 OA
ENDROOT
BRANCH   1  12
ATOM     12  C   UNL     1      35.246 -13.249   6.220  1.00  0.00     0.025 A 
ATOM     13  C   UNL     1      35.818 -14.191   7.085  1.00  0.00     0.016 A 
ATOM     14  C   UNL     1      36.450 -13.780   8.260  1.00  0.00     0.051 A 
ATOM     15  C   UNL     1      36.539 -12.423   8.586  1.00  0.00     0.157 A 
ATOM     16  C   UNL     1      35.353 -11.883   6.532  1.00  0.00     0.062 A 
ATOM     17  C   UNL     1      35.988 -11.460   7.707  1.00  0.00     0.158 A 
BRANCH  15  18
ATOM     18  O   UNL     1      37.177 -12.078   9.780  1.00  0.00    -0.504 OA
ATOM     19  H   UNL     1      36.693 -11.766  10.609  1.00  0.00     0.293 HD
ENDBRANCH  15  18
BRANCH  17  20
ATOM     20  O   UNL     1      36.055 -10.088   7.956  1.00  0.00    -0.504 OA
ATOM     21  H   UNL     1      36.235  -9.686   8.864  1.00  0.00     0.293 HD
ENDBRANCH  17  20
ENDBRANCH   1  12
BRANCH   2  22
ATOM     22  O   UNL     1      36.551 -13.138   3.635  1.00  0.00    -0.502 OA
ATOM     23  H   UNL     1      36.837 -12.314   4.150  1.00  0.00     0.293 HD
ENDBRANCH   2  22
BRANCH   6  24
ATOM     24  O   UNL     1      33.048 -15.430   0.341  1.00  0.00    -0.507 OA
ATOM     25  H   UNL     1      32.821 -16.225  -0.238  1.00  0.00     0.293 HD
ENDBRANCH   6  24
BRANCH   8  26
ATOM     26  O   UNL     1      29.271 -15.848   3.250  1.00  0.00    -0.508 OA
ATOM     27  H   UNL     1      28.885 -16.651   2.770  1.00  0.00     0.293 HD
ENDBRANCH   8  26
TORSDOF 6
ENDMDL
MODEL 8
REMARK VINA RESULT:    -7.237      6.595     10.019
REMARK INTER + INTRA:          -8.541
REMARK INTER:                  -8.424
REMARK INTRA:                  -0.116
REMARK UNBOUND:                 0.177
REMARK SMILES O=c1c(O)c(-c2ccc(O)c(O)c2)oc2cc(O)cc(O)c12
REMARK SMILES IDX 5 1 3 2 2 3 1 4 22 5 20 6 19 7 17 8 16 9 15 10 14 11 6 12
REMARK SMILES IDX 7 13 8 14 9 15 13 16 11 17 10 18 12 20 4 22 21 24 18 26
REMARK H PARENT 10 19 12 21 4 23 21 25 18 27
REMARK Flexibility Score: inf
ROOT
ATOM      1  C   UNL     1      31.400 -14.115   1.200  1.00  0.00     0.180 A 
ATOM      2  C   UNL     1      31.982 -12.965   0.639  1.00  0.00     0.208 A 
ATOM      3  C   UNL     1      33.168 -12.461   1.194  1.00  0.00     0.238 A 
ATOM      4  O   UNL     1      33.713 -11.463   0.654  1.00  0.00    -0.285 OA
ATOM      5  C   UNL     1      33.750 -13.103   2.314  1.00  0.00     0.111 A 
ATOM      6  C   UNL     1      34.929 -12.656   2.983  1.00  0.00     0.134 A 
ATOM      7  C   UNL     1      35.487 -13.443   3.998  1.00  0.00     0.093 A 
ATOM      8  C   UNL     1      34.875 -14.624   4.412  1.00  0.00     0.123 A 
ATOM      9  C   UNL     1      33.690 -15.041   3.805  1.00  0.00     0.094 A 
ATOM     10  C   UNL     1      33.127 -14.296   2.766  1.00  0.00     0.146 A 
ATOM     11  O   UNL     1      32.005 -14.732   2.208  1.00  0.00    -0.452 OA
ENDROOT
BRANCH   1  12
ATOM     12  C   UNL     1      30.137 -14.690   0.685  1.00  0.00     0.025 A 
ATOM     13  C   UNL     1      30.087 -15.185  -0.626  1.00  0.00     0.016 A 
ATOM     14  C   UNL     1      28.912 -15.750  -1.124  1.00  0.00     0.051 A 
ATOM     15  C   UNL     1      27.770 -15.847  -0.323  1.00  0.00     0.157 A 
ATOM     16  C   UNL     1      28.999 -14.807   1.501  1.00  0.00     0.062 A 
ATOM     17  C   UNL     1      27.816 -15.375   1.010  1.00  0.00     0.158 A 
BRANCH  15  18
ATOM     18  O   UNL     1      26.625 -16.415  -0.884  1.00  0.00    -0.504 OA
ATOM     19  H   UNL     1      26.007 -17.044  -0.391  1.00  0.00     0.293 HD
ENDBRANCH  15  18
BRANCH  17  20
ATOM     20  O   UNL     1      26.723 -15.456   1.876  1.00  0.00    -0.504 OA
ATOM     21  H   UNL     1      26.002 -14.752   1.943  1.00  0.00     0.293 HD
ENDBRANCH  17  20
ENDBRANCH   1  12
BRANCH   2  22
ATOM     22  O   UNL     1      31.402 -12.359  -0.480  1.00  0.00    -0.502 OA
ATOM     23  H   UNL     1      31.070 -12.891  -1.276  1.00  0.00     0.293 HD
ENDBRANCH   2  22
BRANCH   6  24
ATOM     24  O   UNL     1      35.569 -11.444   2.710  1.00  0.00    -0.507 OA
ATOM     25  H   UNL     1      36.393 -11.346   2.135  1.00  0.00     0.293 HD
ENDBRANCH   6  24
BRANCH   8  26
ATOM     26  O   UNL     1      35.450 -15.375   5.436  1.00  0.00    -0.508 OA
ATOM     27  H   UNL     1      35.319 -15.132   6.410  1.00  0.00     0.293 HD
ENDBRANCH   8  26
TORSDOF 6
ENDMDL
