MODEL 1
REMARK VINA RESULT:    66.118      0.000      0.000
REMARK INTER + INTRA:          91.548
REMARK INTER:                  91.242
REMARK INTRA:                   0.306
REMARK UNBOUND:                 0.306
REMARK SMILES CC[C@H](CC[C@H](C)[C@@H]1CC[C@@H]2C3=CC[C@H]4C[C@@H](O)CC[C@]4(C)[C@@H]3CC[C@@]21C)C(C)C
REMARK SMILES IDX 5 1 4 2 3 3 2 4 1 5 28 6 29 7 30 8 6 9 7 10 8 11 9 12 26 13
REMARK SMILES IDX 10 14 11 15 25 16 27 17 12 18 24 19 23 20 13 21 21 22 14 23
REMARK SMILES IDX 15 24 20 25 22 26 16 27 19 28 17 29 18 30
REMARK H PARENT 18 31
REMARK Flexibility Score: inf
ROOT
ATOM      1  C   UNL     1      79.173   4.208  64.113  1.00  0.00     0.004 C 
ENDROOT
BRANCH   1   2
ATOM      2  C   UNL     1      78.376   5.370  64.746  1.00  0.00     0.004 C 
BRANCH   2   3
ATOM      3  C   UNL     1      78.878   6.771  64.297  1.00  0.00    -0.009 C 
BRANCH   3   4
ATOM      4  C   UNL     1      78.458   7.930  65.246  1.00  0.00     0.000 C 
ATOM      5  C   UNL     1      77.260   7.642  66.152  1.00  0.00     0.004 C 
ENDBRANCH   3   4
BRANCH   3   6
ATOM      6  C   UNL     1      80.409   6.802  63.955  1.00  0.00    -0.014 C 
ATOM      7  C   UNL     1      80.887   8.109  63.288  1.00  0.00     0.007 C 
ATOM      8  C   UNL     1      81.262   6.533  65.207  1.00  0.00     0.007 C 
ENDBRANCH   3   6
ENDBRANCH   2   3
ENDBRANCH   1   2
BRANCH   1   9
ATOM      9  C   UNL     1      78.594   3.682  62.768  1.00  0.00    -0.011 C 
ATOM     10  C   UNL     1      77.342   4.494  62.383  1.00  0.00     0.008 C 
BRANCH   9  11
ATOM     11  C   UNL     1      78.331   2.133  62.765  1.00  0.00    -0.002 C 
ATOM     12  C   UNL     1      76.875   1.784  63.103  1.00  0.00     0.005 C 
ATOM     13  C   UNL     1      79.192   1.249  63.729  1.00  0.00    -0.023 C 
ATOM     14  C   UNL     1      76.890   0.414  63.768  1.00  0.00     0.009 C 
ATOM     15  C   UNL     1      78.355  -0.054  63.811  1.00  0.00     0.021 C 
ATOM     16  C   UNL     1      79.299   1.895  65.158  1.00  0.00     0.008 C 
ATOM     17  C   UNL     1      80.599   0.968  63.114  1.00  0.00     0.012 C 
ATOM     18  C   UNL     1      78.653  -0.910  65.040  1.00  0.00    -0.067 C 
ATOM     19  C   UNL     1      79.703   0.947  66.320  1.00  0.00     0.009 C 
ATOM     20  C   UNL     1      79.847  -0.536  65.919  1.00  0.00     0.021 C 
ATOM     21  C   UNL     1      77.800  -1.910  65.364  1.00  0.00    -0.027 C 
ATOM     22  C   UNL     1      80.115  -1.553  67.101  1.00  0.00    -0.023 C 
ATOM     23  C   UNL     1      77.895  -2.715  66.629  1.00  0.00     0.031 C 
ATOM     24  C   UNL     1      78.747  -2.013  67.696  1.00  0.00     0.002 C 
ATOM     25  C   UNL     1      80.971  -0.913  68.240  1.00  0.00     0.010 C 
ATOM     26  C   UNL     1      80.913  -2.756  66.506  1.00  0.00     0.012 C 
ATOM     27  C   UNL     1      78.895  -2.914  68.943  1.00  0.00     0.036 C 
ATOM     28  C   UNL     1      81.140  -1.839  69.454  1.00  0.00     0.032 C 
ATOM     29  C   UNL     1      79.771  -2.249  70.019  1.00  0.00     0.114 C 
BRANCH  29  30
ATOM     30  O   UNL     1      79.931  -3.099  71.127  1.00  0.00    -0.393 OA
ATOM     31  H   UNL     1      79.055  -3.535  71.302  1.00  0.00     0.210 HD
ENDBRANCH  29  30
ENDBRANCH   9  11
ENDBRANCH   1   9
TORSDOF 7
ENDMDL
