MODEL 1
REMARK VINA RESULT:    -5.702      0.000      0.000
REMARK INTER + INTRA:         -11.667
REMARK INTER:                 -10.368
REMARK INTRA:                  -1.299
REMARK UNBOUND:                -1.299
REMARK SMILES CCCCCCCCCCCCCCCC(=O)[O-]
REMARK SMILES IDX 9 1 10 2 11 3 12 4 13 5 14 6 15 7 16 8 17 9 18 10 8 11 7 12
REMARK SMILES IDX 6 13 5 14 4 15 3 16 2 17 1 18
REMARK H PARENT
REMARK Flexibility Score: inf
ROOT
ATOM      1  C   UNL     1      10.695   3.378  54.705  1.00  0.00     0.000 C 
ENDROOT
BRANCH   1   2
ATOM      2  C   UNL     1       9.494   4.340  54.757  1.00  0.00     0.000 C 
BRANCH   2   3
ATOM      3  C   UNL     1       9.522   5.253  55.992  1.00  0.00     0.000 C 
BRANCH   3   4
ATOM      4  C   UNL     1       9.531   6.745  55.628  1.00  0.00     0.000 C 
BRANCH   4   5
ATOM      5  C   UNL     1       9.418   6.941  54.112  1.00  0.00     0.000 C 
BRANCH   5   6
ATOM      6  C   UNL     1       8.552   8.162  53.776  1.00  0.00     0.006 C 
BRANCH   6   7
ATOM      7  C   UNL     1       8.118   8.141  52.308  1.00  0.00     0.053 C 
BRANCH   7   8
ATOM      8  C   UNL     1       9.276   8.454  51.415  1.00  0.00     0.041 C 
ATOM      9  O   UNL     1       9.791   9.603  51.423  1.00  0.00    -0.550 OA
ATOM     10  O   UNL     1       9.761   7.487  50.541  1.00  0.00    -0.550 OA
ENDBRANCH   7   8
ENDBRANCH   6   7
ENDBRANCH   5   6
ENDBRANCH   4   5
ENDBRANCH   3   4
ENDBRANCH   2   3
ENDBRANCH   1   2
BRANCH   1  11
ATOM     11  C   UNL     1      11.803   3.877  53.762  1.00  0.00     0.000 C 
BRANCH  11  12
ATOM     12  C   UNL     1      12.878   4.693  54.500  1.00  0.00    -0.000 C 
BRANCH  12  13
ATOM     13  C   UNL     1      13.082   4.237  55.957  1.00  0.00    -0.000 C 
BRANCH  13  14
ATOM     14  C   UNL     1      14.154   3.149  56.156  1.00  0.00    -0.000 C 
BRANCH  14  15
ATOM     15  C   UNL     1      15.449   3.433  55.381  1.00  0.00    -0.000 C 
BRANCH  15  16
ATOM     16  C   UNL     1      16.488   2.332  55.627  1.00  0.00    -0.000 C 
BRANCH  16  17
ATOM     17  C   UNL     1      15.844   1.103  56.280  1.00  0.00    -0.003 C 
ATOM     18  C   UNL     1      16.530  -0.183  55.830  1.00  0.00     0.004 C 
ENDBRANCH  16  17
ENDBRANCH  15  16
ENDBRANCH  14  15
ENDBRANCH  13  14
ENDBRANCH  12  13
ENDBRANCH  11  12
ENDBRANCH   1  11
TORSDOF 14
ENDMDL
MODEL 2
REMARK VINA RESULT:    -5.603      1.251      1.789
REMARK INTER + INTRA:         -11.487
REMARK INTER:                  -9.957
REMARK INTRA:                  -1.530
REMARK UNBOUND:                -1.299
REMARK SMILES CCCCCCCCCCCCCCCC(=O)[O-]
REMARK SMILES IDX 9 1 10 2 11 3 12 4 13 5 14 6 15 7 16 8 17 9 18 10 8 11 7 12
REMARK SMILES IDX 6 13 5 14 4 15 3 16 2 17 1 18
REMARK H PARENT
REMARK Flexibility Score: inf
ROOT
ATOM      1  C   UNL     1      11.349   4.033  53.546  1.00  0.00     0.000 C 
ENDROOT
BRANCH   1   2
ATOM      2  C   UNL     1      12.400   5.140  53.350  1.00  0.00     0.000 C 
BRANCH   2   3
ATOM      3  C   UNL     1      11.782   6.465  52.879  1.00  0.00     0.000 C 
BRANCH   3   4
ATOM      4  C   UNL     1      11.702   7.515  53.997  1.00  0.00     0.000 C 
BRANCH   4   5
ATOM      5  C   UNL     1      10.377   7.403  54.762  1.00  0.00     0.000 C 
BRANCH   5   6
ATOM      6  C   UNL     1       9.214   7.103  53.808  1.00  0.00     0.006 C 
BRANCH   6   7
ATOM      7  C   UNL     1       8.500   8.391  53.390  1.00  0.00     0.053 C 
BRANCH   7   8
ATOM      8  C   UNL     1       8.329   8.437  51.905  1.00  0.00     0.041 C 
ATOM      9  O   UNL     1       7.291   8.943  51.401  1.00  0.00    -0.550 OA
ATOM     10  O   UNL     1       9.297   7.882  51.076  1.00  0.00    -0.550 OA
ENDBRANCH   7   8
ENDBRANCH   6   7
ENDBRANCH   5   6
ENDBRANCH   4   5
ENDBRANCH   3   4
ENDBRANCH   2   3
ENDBRANCH   1   2
BRANCH   1  11
ATOM     11  C   UNL     1      11.558   3.254  54.856  1.00  0.00     0.000 C 
BRANCH  11  12
ATOM     12  C   UNL     1      11.628   4.178  56.084  1.00  0.00    -0.000 C 
BRANCH  12  13
ATOM     13  C   UNL     1      12.980   4.101  56.817  1.00  0.00    -0.000 C 
BRANCH  13  14
ATOM     14  C   UNL     1      13.903   2.954  56.363  1.00  0.00    -0.000 C 
BRANCH  14  15
ATOM     15  C   UNL     1      15.129   3.444  55.579  1.00  0.00    -0.000 C 
BRANCH  15  16
ATOM     16  C   UNL     1      16.236   2.383  55.571  1.00  0.00    -0.000 C 
BRANCH  16  17
ATOM     17  C   UNL     1      15.833   1.161  56.405  1.00  0.00    -0.003 C 
ATOM     18  C   UNL     1      16.501  -0.108  55.884  1.00  0.00     0.004 C 
ENDBRANCH  16  17
ENDBRANCH  15  16
ENDBRANCH  14  15
ENDBRANCH  13  14
ENDBRANCH  12  13
ENDBRANCH  11  12
ENDBRANCH   1  11
TORSDOF 14
ENDMDL
MODEL 3
REMARK VINA RESULT:    -5.569      3.550      7.260
REMARK INTER + INTRA:         -11.425
REMARK INTER:                  -9.387
REMARK INTRA:                  -2.038
REMARK UNBOUND:                -1.299
REMARK SMILES CCCCCCCCCCCCCCCC(=O)[O-]
REMARK SMILES IDX 9 1 10 2 11 3 12 4 13 5 14 6 15 7 16 8 17 9 18 10 8 11 7 12
REMARK SMILES IDX 6 13 5 14 4 15 3 16 2 17 1 18
REMARK H PARENT
REMARK Flexibility Score: inf
ROOT
ATOM      1  C   UNL     1      12.345   5.199  53.517  1.00  0.00     0.000 C 
ENDROOT
BRANCH   1   2
ATOM      2  C   UNL     1      11.770   3.833  53.099  1.00  0.00     0.000 C 
BRANCH   2   3
ATOM      3  C   UNL     1      10.954   3.168  54.218  1.00  0.00     0.000 C 
BRANCH   3   4
ATOM      4  C   UNL     1       9.858   4.085  54.780  1.00  0.00     0.000 C 
BRANCH   4   5
ATOM      5  C   UNL     1       9.940   4.167  56.309  1.00  0.00     0.000 C 
BRANCH   5   6
ATOM      6  C   UNL     1      11.330   4.630  56.762  1.00  0.00     0.006 C 
BRANCH   6   7
ATOM      7  C   UNL     1      11.910   3.682  57.814  1.00  0.00     0.053 C 
BRANCH   7   8
ATOM      8  C   UNL     1      12.888   2.739  57.188  1.00  0.00     0.041 C 
ATOM      9  O   UNL     1      12.864   1.513  57.477  1.00  0.00    -0.550 OA
ATOM     10  O   UNL     1      13.856   3.221  56.315  1.00  0.00    -0.550 OA
ENDBRANCH   7   8
ENDBRANCH   6   7
ENDBRANCH   5   6
ENDBRANCH   4   5
ENDBRANCH   3   4
ENDBRANCH   2   3
ENDBRANCH   1   2
BRANCH   1  11
ATOM     11  C   UNL     1      11.828   6.346  52.632  1.00  0.00     0.000 C 
BRANCH  11  12
ATOM     12  C   UNL     1      11.776   7.688  53.382  1.00  0.00    -0.000 C 
BRANCH  12  13
ATOM     13  C   UNL     1      11.246   7.551  54.821  1.00  0.00    -0.000 C 
BRANCH  13  14
ATOM     14  C   UNL     1       9.834   8.121  55.053  1.00  0.00    -0.000 C 
BRANCH  14  15
ATOM     15  C   UNL     1       8.769   7.472  54.157  1.00  0.00    -0.000 C 
BRANCH  15  16
ATOM     16  C   UNL     1       8.019   8.530  53.340  1.00  0.00    -0.000 C 
BRANCH  16  17
ATOM     17  C   UNL     1       8.363   8.421  51.849  1.00  0.00    -0.003 C 
ATOM     18  C   UNL     1       9.362   9.497  51.434  1.00  0.00     0.004 C 
ENDBRANCH  16  17
ENDBRANCH  15  16
ENDBRANCH  14  15
ENDBRANCH  13  14
ENDBRANCH  12  13
ENDBRANCH  11  12
ENDBRANCH   1  11
TORSDOF 14
ENDMDL
MODEL 4
REMARK VINA RESULT:    -5.515      3.861      7.730
REMARK INTER + INTRA:         -11.328
REMARK INTER:                  -9.523
REMARK INTRA:                  -1.804
REMARK UNBOUND:                -1.299
REMARK SMILES CCCCCCCCCCCCCCCC(=O)[O-]
REMARK SMILES IDX 9 1 10 2 11 3 12 4 13 5 14 6 15 7 16 8 17 9 18 10 8 11 7 12
REMARK SMILES IDX 6 13 5 14 4 15 3 16 2 17 1 18
REMARK H PARENT
REMARK Flexibility Score: inf
ROOT
ATOM      1  C   UNL     1      11.103   3.716  54.062  1.00  0.00     0.000 C 
ENDROOT
BRANCH   1   2
ATOM      2  C   UNL     1      10.750   3.754  55.560  1.00  0.00     0.000 C 
BRANCH   2   3
ATOM      3  C   UNL     1      11.880   4.342  56.419  1.00  0.00     0.000 C 
BRANCH   3   4
ATOM      4  C   UNL     1      12.085   3.578  57.736  1.00  0.00     0.000 C 
BRANCH   4   5
ATOM      5  C   UNL     1      12.686   2.191  57.477  1.00  0.00     0.000 C 
BRANCH   5   6
ATOM      6  C   UNL     1      14.034   2.299  56.754  1.00  0.00     0.006 C 
BRANCH   6   7
ATOM      7  C   UNL     1      14.904   1.070  57.028  1.00  0.00     0.053 C 
BRANCH   7   8
ATOM      8  C   UNL     1      16.075   1.040  56.097  1.00  0.00     0.041 C 
ATOM      9  O   UNL     1      16.558  -0.061  55.719  1.00  0.00    -0.550 OA
ATOM     10  O   UNL     1      16.661   2.229  55.679  1.00  0.00    -0.550 OA
ENDBRANCH   7   8
ENDBRANCH   6   7
ENDBRANCH   5   6
ENDBRANCH   4   5
ENDBRANCH   3   4
ENDBRANCH   2   3
ENDBRANCH   1   2
BRANCH   1  11
ATOM     11  C   UNL     1      12.392   4.494  53.746  1.00  0.00     0.000 C 
BRANCH  11  12
ATOM     12  C   UNL     1      12.208   5.488  52.586  1.00  0.00    -0.000 C 
BRANCH  12  13
ATOM     13  C   UNL     1      11.326   6.693  52.963  1.00  0.00    -0.000 C 
BRANCH  13  14
ATOM     14  C   UNL     1      11.867   7.564  54.112  1.00  0.00    -0.000 C 
BRANCH  14  15
ATOM     15  C   UNL     1      10.847   7.770  55.242  1.00  0.00    -0.000 C 
BRANCH  15  16
ATOM     16  C   UNL     1       9.496   7.141  54.884  1.00  0.00    -0.000 C 
BRANCH  16  17
ATOM     17  C   UNL     1       8.406   8.212  54.757  1.00  0.00    -0.003 C 
ATOM     18  C   UNL     1       7.966   8.381  53.306  1.00  0.00     0.004 C 
ENDBRANCH  16  17
ENDBRANCH  15  16
ENDBRANCH  14  15
ENDBRANCH  13  14
ENDBRANCH  12  13
ENDBRANCH  11  12
ENDBRANCH   1  11
TORSDOF 14
ENDMDL
MODEL 5
REMARK VINA RESULT:    -5.389      4.024      7.427
REMARK INTER + INTRA:         -11.099
REMARK INTER:                  -8.951
REMARK INTRA:                  -2.149
REMARK UNBOUND:                -1.299
REMARK SMILES CCCCCCCCCCCCCCCC(=O)[O-]
REMARK SMILES IDX 9 1 10 2 11 3 12 4 13 5 14 6 15 7 16 8 17 9 18 10 8 11 7 12
REMARK SMILES IDX 6 13 5 14 4 15 3 16 2 17 1 18
REMARK H PARENT
REMARK Flexibility Score: inf
ROOT
ATOM      1  C   UNL     1      11.561   6.622  52.653  1.00  0.00     0.000 C 
ENDROOT
BRANCH   1   2
ATOM      2  C   UNL     1      12.433   5.437  53.108  1.00  0.00     0.000 C 
BRANCH   2   3
ATOM      3  C   UNL     1      11.761   4.079  52.860  1.00  0.00     0.000 C 
BRANCH   3   4
ATOM      4  C   UNL     1      11.366   3.364  54.161  1.00  0.00     0.000 C 
BRANCH   4   5
ATOM      5  C   UNL     1      10.172   4.057  54.827  1.00  0.00     0.000 C 
BRANCH   5   6
ATOM      6  C   UNL     1      10.479   4.398  56.291  1.00  0.00     0.006 C 
BRANCH   6   7
ATOM      7  C   UNL     1      11.984   4.336  56.565  1.00  0.00     0.053 C 
BRANCH   7   8
ATOM      8  C   UNL     1      12.273   3.392  57.689  1.00  0.00     0.041 C 
ATOM      9  O   UNL     1      12.560   2.189  57.450  1.00  0.00    -0.550 OA
ATOM     10  O   UNL     1      12.183   3.830  59.005  1.00  0.00    -0.550 OA
ENDBRANCH   7   8
ENDBRANCH   6   7
ENDBRANCH   5   6
ENDBRANCH   4   5
ENDBRANCH   3   4
ENDBRANCH   2   3
ENDBRANCH   1   2
BRANCH   1  11
ATOM     11  C   UNL     1      11.784   7.877  53.514  1.00  0.00     0.000 C 
BRANCH  11  12
ATOM     12  C   UNL     1      11.574   7.606  55.014  1.00  0.00    -0.000 C 
BRANCH  12  13
ATOM     13  C   UNL     1      10.382   8.382  55.602  1.00  0.00    -0.000 C 
BRANCH  13  14
ATOM     14  C   UNL     1       8.998   7.777  55.303  1.00  0.00    -0.000 C 
BRANCH  14  15
ATOM     15  C   UNL     1       7.937   8.837  54.975  1.00  0.00    -0.000 C 
BRANCH  15  16
ATOM     16  C   UNL     1       8.030   9.271  53.507  1.00  0.00    -0.000 C 
BRANCH  16  17
ATOM     17  C   UNL     1       8.179   8.057  52.582  1.00  0.00    -0.003 C 
ATOM     18  C   UNL     1       8.764   8.461  51.232  1.00  0.00     0.004 C 
ENDBRANCH  16  17
ENDBRANCH  15  16
ENDBRANCH  14  15
ENDBRANCH  13  14
ENDBRANCH  12  13
ENDBRANCH  11  12
ENDBRANCH   1  11
TORSDOF 14
ENDMDL
MODEL 6
REMARK VINA RESULT:    -5.364      4.337      7.951
REMARK INTER + INTRA:         -11.054
REMARK INTER:                  -9.318
REMARK INTRA:                  -1.736
REMARK UNBOUND:                -1.299
REMARK SMILES CCCCCCCCCCCCCCCC(=O)[O-]
REMARK SMILES IDX 9 1 10 2 11 3 12 4 13 5 14 6 15 7 16 8 17 9 18 10 8 11 7 12
REMARK SMILES IDX 6 13 5 14 4 15 3 16 2 17 1 18
REMARK H PARENT
REMARK Flexibility Score: inf
ROOT
ATOM      1  C   UNL     1      11.702   4.038  53.704  1.00  0.00     0.000 C 
ENDROOT
BRANCH   1   2
ATOM      2  C   UNL     1      12.946   4.350  54.555  1.00  0.00     0.000 C 
BRANCH   2   3
ATOM      3  C   UNL     1      12.853   3.769  55.974  1.00  0.00     0.000 C 
BRANCH   3   4
ATOM      4  C   UNL     1      14.223   3.379  56.548  1.00  0.00     0.000 C 
BRANCH   4   5
ATOM      5  C   UNL     1      15.319   3.497  55.482  1.00  0.00     0.000 C 
BRANCH   5   6
ATOM      6  C   UNL     1      16.503   2.577  55.803  1.00  0.00     0.006 C 
BRANCH   6   7
ATOM      7  C   UNL     1      16.294   1.183  55.206  1.00  0.00     0.053 C 
BRANCH   7   8
ATOM      8  C   UNL     1      16.643   0.127  56.207  1.00  0.00     0.041 C 
ATOM      9  O   UNL     1      16.997   0.449  57.372  1.00  0.00    -0.550 OA
ATOM     10  O   UNL     1      16.618  -1.214  55.840  1.00  0.00    -0.550 OA
ENDBRANCH   7   8
ENDBRANCH   6   7
ENDBRANCH   5   6
ENDBRANCH   4   5
ENDBRANCH   3   4
ENDBRANCH   2   3
ENDBRANCH   1   2
BRANCH   1  11
ATOM     11  C   UNL     1      10.636   3.256  54.492  1.00  0.00     0.000 C 
BRANCH  11  12
ATOM     12  C   UNL     1       9.409   4.118  54.833  1.00  0.00    -0.000 C 
BRANCH  12  13
ATOM     13  C   UNL     1       9.581   4.917  56.139  1.00  0.00    -0.000 C 
BRANCH  13  14
ATOM     14  C   UNL     1       9.171   6.399  56.056  1.00  0.00    -0.000 C 
BRANCH  14  15
ATOM     15  C   UNL     1       9.637   7.079  54.760  1.00  0.00    -0.000 C 
BRANCH  15  16
ATOM     16  C   UNL     1      11.103   7.516  54.866  1.00  0.00    -0.000 C 
BRANCH  16  17
ATOM     17  C   UNL     1      11.721   7.710  53.476  1.00  0.00    -0.003 C 
ATOM     18  C   UNL     1      10.746   7.297  52.377  1.00  0.00     0.004 C 
ENDBRANCH  16  17
ENDBRANCH  15  16
ENDBRANCH  14  15
ENDBRANCH  13  14
ENDBRANCH  12  13
ENDBRANCH  11  12
ENDBRANCH   1  11
TORSDOF 14
ENDMDL
MODEL 7
REMARK VINA RESULT:    -5.338      1.411      2.556
REMARK INTER + INTRA:         -11.006
REMARK INTER:                  -9.487
REMARK INTRA:                  -1.519
REMARK UNBOUND:                -1.299
REMARK SMILES CCCCCCCCCCCCCCCC(=O)[O-]
REMARK SMILES IDX 9 1 10 2 11 3 12 4 13 5 14 6 15 7 16 8 17 9 18 10 8 11 7 12
REMARK SMILES IDX 6 13 5 14 4 15 3 16 2 17 1 18
REMARK H PARENT
REMARK Flexibility Score: inf
ROOT
ATOM      1  C   UNL     1      11.717   3.842  53.026  1.00  0.00     0.000 C 
ENDROOT
BRANCH   1   2
ATOM      2  C   UNL     1      12.480   5.159  53.258  1.00  0.00     0.000 C 
BRANCH   2   3
ATOM      3  C   UNL     1      11.742   6.378  52.683  1.00  0.00     0.000 C 
BRANCH   3   4
ATOM      4  C   UNL     1      11.698   7.562  53.660  1.00  0.00     0.000 C 
BRANCH   4   5
ATOM      5  C   UNL     1      10.416   8.381  53.472  1.00  0.00     0.000 C 
BRANCH   5   6
ATOM      6  C   UNL     1       9.263   7.496  52.980  1.00  0.00     0.006 C 
BRANCH   6   7
ATOM      7  C   UNL     1       8.450   8.207  51.895  1.00  0.00     0.053 C 
BRANCH   7   8
ATOM      8  C   UNL     1       9.310   8.505  50.708  1.00  0.00     0.041 C 
ATOM      9  O   UNL     1       9.795   7.565  50.023  1.00  0.00    -0.550 OA
ATOM     10  O   UNL     1       9.611   9.822  50.380  1.00  0.00    -0.550 OA
ENDBRANCH   7   8
ENDBRANCH   6   7
ENDBRANCH   5   6
ENDBRANCH   4   5
ENDBRANCH   3   4
ENDBRANCH   2   3
ENDBRANCH   1   2
BRANCH   1  11
ATOM     11  C   UNL     1      11.022   3.336  54.302  1.00  0.00     0.000 C 
BRANCH  11  12
ATOM     12  C   UNL     1      10.320   4.465  55.075  1.00  0.00    -0.000 C 
BRANCH  12  13
ATOM     13  C   UNL     1      11.043   4.836  56.383  1.00  0.00    -0.000 C 
BRANCH  13  14
ATOM     14  C   UNL     1      11.445   3.641  57.268  1.00  0.00    -0.000 C 
BRANCH  14  15
ATOM     15  C   UNL     1      12.961   3.544  57.492  1.00  0.00    -0.000 C 
BRANCH  15  16
ATOM     16  C   UNL     1      13.630   2.730  56.378  1.00  0.00    -0.000 C 
BRANCH  16  17
ATOM     17  C   UNL     1      14.719   3.551  55.675  1.00  0.00    -0.003 C 
ATOM     18  C   UNL     1      16.024   2.766  55.577  1.00  0.00     0.004 C 
ENDBRANCH  16  17
ENDBRANCH  15  16
ENDBRANCH  14  15
ENDBRANCH  13  14
ENDBRANCH  12  13
ENDBRANCH  11  12
ENDBRANCH   1  11
TORSDOF 14
ENDMDL
MODEL 8
REMARK VINA RESULT:    -5.295      4.400      7.680
REMARK INTER + INTRA:         -10.927
REMARK INTER:                  -9.108
REMARK INTRA:                  -1.819
REMARK UNBOUND:                -1.299
REMARK SMILES CCCCCCCCCCCCCCCC(=O)[O-]
REMARK SMILES IDX 9 1 10 2 11 3 12 4 13 5 14 6 15 7 16 8 17 9 18 10 8 11 7 12
REMARK SMILES IDX 6 13 5 14 4 15 3 16 2 17 1 18
REMARK H PARENT
REMARK Flexibility Score: inf
ROOT
ATOM      1  C   UNL     1      10.932   3.454  56.375  1.00  0.00     0.000 C 
ENDROOT
BRANCH   1   2
ATOM      2  C   UNL     1      12.421   3.118  56.573  1.00  0.00     0.000 C 
BRANCH   2   3
ATOM      3  C   UNL     1      13.340   4.319  56.301  1.00  0.00     0.000 C 
BRANCH   3   4
ATOM      4  C   UNL     1      14.822   4.001  56.544  1.00  0.00     0.000 C 
BRANCH   4   5
ATOM      5  C   UNL     1      15.539   3.681  55.227  1.00  0.00     0.000 C 
BRANCH   5   6
ATOM      6  C   UNL     1      16.355   2.388  55.343  1.00  0.00     0.006 C 
BRANCH   6   7
ATOM      7  C   UNL     1      15.884   1.546  56.531  1.00  0.00     0.053 C 
BRANCH   7   8
ATOM      8  C   UNL     1      16.684   0.286  56.629  1.00  0.00     0.041 C 
ATOM      9  O   UNL     1      17.483   0.114  57.588  1.00  0.00    -0.550 OA
ATOM     10  O   UNL     1      16.578  -0.684  55.639  1.00  0.00    -0.550 OA
ENDBRANCH   7   8
ENDBRANCH   6   7
ENDBRANCH   5   6
ENDBRANCH   4   5
ENDBRANCH   3   4
ENDBRANCH   2   3
ENDBRANCH   1   2
BRANCH   1  11
ATOM     11  C   UNL     1      10.656   4.964  56.468  1.00  0.00     0.000 C 
BRANCH  11  12
ATOM     12  C   UNL     1       9.514   5.411  55.540  1.00  0.00    -0.000 C 
BRANCH  12  13
ATOM     13  C   UNL     1       9.587   6.905  55.175  1.00  0.00    -0.000 C 
BRANCH  13  14
ATOM     14  C   UNL     1      10.998   7.520  55.224  1.00  0.00    -0.000 C 
BRANCH  14  15
ATOM     15  C   UNL     1      11.586   7.787  53.830  1.00  0.00    -0.000 C 
BRANCH  15  16
ATOM     16  C   UNL     1      11.353   6.592  52.898  1.00  0.00    -0.000 C 
BRANCH  16  17
ATOM     17  C   UNL     1      12.506   5.585  52.996  1.00  0.00    -0.003 C 
ATOM     18  C   UNL     1      11.991   4.150  52.930  1.00  0.00     0.004 C 
ENDBRANCH  16  17
ENDBRANCH  15  16
ENDBRANCH  14  15
ENDBRANCH  13  14
ENDBRANCH  12  13
ENDBRANCH  11  12
ENDBRANCH   1  11
TORSDOF 14
ENDMDL
MODEL 9
REMARK VINA RESULT:    -5.183      2.962      7.450
REMARK INTER + INTRA:         -10.725
REMARK INTER:                  -8.501
REMARK INTRA:                  -2.224
REMARK UNBOUND:                -1.299
REMARK SMILES CCCCCCCCCCCCCCCC(=O)[O-]
REMARK SMILES IDX 9 1 10 2 11 3 12 4 13 5 14 6 15 7 16 8 17 9 18 10 8 11 7 12
REMARK SMILES IDX 6 13 5 14 4 15 3 16 2 17 1 18
REMARK H PARENT
REMARK Flexibility Score: inf
ROOT
ATOM      1  C   UNL     1      11.505   7.470  54.946  1.00  0.00     0.000 C 
ENDROOT
BRANCH   1   2
ATOM      2  C   UNL     1      10.669   6.763  53.863  1.00  0.00     0.000 C 
BRANCH   2   3
ATOM      3  C   UNL     1       9.438   6.048  54.441  1.00  0.00     0.000 C 
BRANCH   3   4
ATOM      4  C   UNL     1       9.573   5.749  55.941  1.00  0.00     0.000 C 
BRANCH   4   5
ATOM      5  C   UNL     1      10.066   4.316  56.173  1.00  0.00     0.000 C 
BRANCH   5   6
ATOM      6  C   UNL     1      11.395   4.307  56.938  1.00  0.00     0.006 C 
BRANCH   6   7
ATOM      7  C   UNL     1      12.339   3.234  56.388  1.00  0.00     0.053 C 
BRANCH   7   8
ATOM      8  C   UNL     1      13.349   3.846  55.470  1.00  0.00     0.041 C 
ATOM      9  O   UNL     1      14.551   3.955  55.832  1.00  0.00    -0.550 OA
ATOM     10  O   UNL     1      12.956   4.334  54.229  1.00  0.00    -0.550 OA
ENDBRANCH   7   8
ENDBRANCH   6   7
ENDBRANCH   5   6
ENDBRANCH   4   5
ENDBRANCH   3   4
ENDBRANCH   2   3
ENDBRANCH   1   2
BRANCH   1  11
ATOM     11  C   UNL     1      11.326   8.997  54.920  1.00  0.00     0.000 C 
BRANCH  11  12
ATOM     12  C   UNL     1      10.340   9.491  55.993  1.00  0.00    -0.000 C 
BRANCH  12  13
ATOM     13  C   UNL     1       9.054  10.090  55.396  1.00  0.00    -0.000 C 
BRANCH  13  14
ATOM     14  C   UNL     1       7.850   9.131  55.343  1.00  0.00    -0.000 C 
BRANCH  14  15
ATOM     15  C   UNL     1       7.216   9.040  53.947  1.00  0.00    -0.000 C 
BRANCH  15  16
ATOM     16  C   UNL     1       8.198   9.503  52.866  1.00  0.00    -0.000 C 
BRANCH  16  17
ATOM     17  C   UNL     1       8.049   8.664  51.590  1.00  0.00    -0.003 C 
ATOM     18  C   UNL     1       9.402   8.429  50.924  1.00  0.00     0.004 C 
ENDBRANCH  16  17
ENDBRANCH  15  16
ENDBRANCH  14  15
ENDBRANCH  13  14
ENDBRANCH  12  13
ENDBRANCH  11  12
ENDBRANCH   1  11
TORSDOF 14
ENDMDL
