MODEL 1
REMARK VINA RESULT:    -4.220      0.000      0.000
REMARK INTER + INTRA:          -9.843
REMARK INTER:                  -8.168
REMARK INTRA:                  -1.675
REMARK UNBOUND:                -1.675
REMARK SMILES CCCCCCCCCCCCCCCCCC(=O)[O-]
REMARK SMILES IDX 10 1 11 2 12 3 13 4 14 5 15 6 16 7 17 8 18 9 19 10 20 11
REMARK SMILES IDX 9 12 8 13 7 14 6 15 5 16 4 17 3 18 2 19 1 20
REMARK H PARENT
REMARK Flexibility Score: inf
ROOT
ATOM      1  C   UNL     1     -43.300  28.120  -0.168  1.00  0.00     0.000 C 
ENDROOT
BRANCH   1   2
ATOM      2  C   UNL     1     -42.565  29.064   0.796  1.00  0.00     0.000 C 
BRANCH   2   3
ATOM      3  C   UNL     1     -42.944  28.761   2.254  1.00  0.00     0.000 C 
BRANCH   3   4
ATOM      4  C   UNL     1     -43.755  27.464   2.399  1.00  0.00     0.000 C 
BRANCH   4   5
ATOM      5  C   UNL     1     -45.192  27.713   2.882  1.00  0.00     0.000 C 
BRANCH   5   6
ATOM      6  C   UNL     1     -45.279  29.019   3.686  1.00  0.00     0.000 C 
BRANCH   6   7
ATOM      7  C   UNL     1     -45.225  28.789   5.207  1.00  0.00     0.006 C 
BRANCH   7   8
ATOM      8  C   UNL     1     -43.873  29.135   5.851  1.00  0.00     0.053 C 
BRANCH   8   9
ATOM      9  C   UNL     1     -43.126  27.910   6.280  1.00  0.00     0.041 C 
ATOM     10  O   UNL     1     -41.993  28.014   6.819  1.00  0.00    -0.550 OA
ATOM     11  O   UNL     1     -43.696  26.655   6.113  1.00  0.00    -0.550 OA
ENDBRANCH   8   9
ENDBRANCH   7   8
ENDBRANCH   6   7
ENDBRANCH   5   6
ENDBRANCH   4   5
ENDBRANCH   3   4
ENDBRANCH   2   3
ENDBRANCH   1   2
BRANCH   1  12
ATOM     12  C   UNL     1     -44.516  28.783  -0.838  1.00  0.00     0.000 C 
BRANCH  12  13
ATOM     13  C   UNL     1     -45.684  27.802  -1.042  1.00  0.00    -0.000 C 
BRANCH  13  14
ATOM     14  C   UNL     1     -45.216  26.346  -1.226  1.00  0.00    -0.000 C 
BRANCH  14  15
ATOM     15  C   UNL     1     -45.638  25.681  -2.551  1.00  0.00    -0.000 C 
BRANCH  15  16
ATOM     16  C   UNL     1     -46.677  26.466  -3.372  1.00  0.00    -0.000 C 
BRANCH  16  17
ATOM     17  C   UNL     1     -46.276  26.615  -4.850  1.00  0.00    -0.000 C 
BRANCH  17  18
ATOM     18  C   UNL     1     -46.054  28.080  -5.256  1.00  0.00    -0.000 C 
BRANCH  18  19
ATOM     19  C   UNL     1     -45.537  28.221  -6.696  1.00  0.00    -0.003 C 
ATOM     20  C   UNL     1     -45.452  26.862  -7.385  1.00  0.00     0.004 C 
ENDBRANCH  18  19
ENDBRANCH  17  18
ENDBRANCH  16  17
ENDBRANCH  15  16
ENDBRANCH  14  15
ENDBRANCH  13  14
ENDBRANCH  12  13
ENDBRANCH   1  12
TORSDOF 16
ENDMDL
MODEL 2
REMARK VINA RESULT:    -4.219      1.135      1.525
REMARK INTER + INTRA:          -9.840
REMARK INTER:                  -8.574
REMARK INTRA:                  -1.266
REMARK UNBOUND:                -1.675
REMARK SMILES CCCCCCCCCCCCCCCCCC(=O)[O-]
REMARK SMILES IDX 10 1 11 2 12 3 13 4 14 5 15 6 16 7 17 8 18 9 19 10 20 11
REMARK SMILES IDX 9 12 8 13 7 14 6 15 5 16 4 17 3 18 2 19 1 20
REMARK H PARENT
REMARK Flexibility Score: inf
ROOT
ATOM      1  C   UNL     1     -42.553  28.046  -0.084  1.00  0.00     0.000 C 
ENDROOT
BRANCH   1   2
ATOM      2  C   UNL     1     -42.982  29.518   0.008  1.00  0.00     0.000 C 
BRANCH   2   3
ATOM      3  C   UNL     1     -42.575  30.124   1.361  1.00  0.00     0.000 C 
BRANCH   3   4
ATOM      4  C   UNL     1     -43.694  30.036   2.411  1.00  0.00     0.000 C 
BRANCH   4   5
ATOM      5  C   UNL     1     -43.300  29.184   3.628  1.00  0.00     0.000 C 
BRANCH   5   6
ATOM      6  C   UNL     1     -44.050  27.844   3.624  1.00  0.00     0.000 C 
BRANCH   6   7
ATOM      7  C   UNL     1     -44.497  27.406   5.031  1.00  0.00     0.006 C 
BRANCH   7   8
ATOM      8  C   UNL     1     -44.302  28.474   6.118  1.00  0.00     0.053 C 
BRANCH   8   9
ATOM      9  C   UNL     1     -43.320  28.039   7.162  1.00  0.00     0.041 C 
ATOM     10  O   UNL     1     -42.083  28.155   6.958  1.00  0.00    -0.550 OA
ATOM     11  O   UNL     1     -43.773  27.536   8.375  1.00  0.00    -0.550 OA
ENDBRANCH   8   9
ENDBRANCH   7   8
ENDBRANCH   6   7
ENDBRANCH   5   6
ENDBRANCH   4   5
ENDBRANCH   3   4
ENDBRANCH   2   3
ENDBRANCH   1   2
BRANCH   1  12
ATOM     12  C   UNL     1     -43.720  27.070   0.144  1.00  0.00     0.000 C 
BRANCH  12  13
ATOM     13  C   UNL     1     -44.883  27.304  -0.836  1.00  0.00    -0.000 C 
BRANCH  13  14
ATOM     14  C   UNL     1     -45.217  26.055  -1.673  1.00  0.00    -0.000 C 
BRANCH  14  15
ATOM     15  C   UNL     1     -46.346  26.239  -2.709  1.00  0.00    -0.000 C 
BRANCH  15  16
ATOM     16  C   UNL     1     -46.528  27.678  -3.225  1.00  0.00    -0.000 C 
BRANCH  16  17
ATOM     17  C   UNL     1     -46.450  27.772  -4.759  1.00  0.00    -0.000 C 
BRANCH  17  18
ATOM     18  C   UNL     1     -46.099  26.428  -5.416  1.00  0.00    -0.000 C 
BRANCH  18  19
ATOM     19  C   UNL     1     -45.713  26.578  -6.895  1.00  0.00    -0.003 C 
ATOM     20  C   UNL     1     -45.444  28.038  -7.248  1.00  0.00     0.004 C 
ENDBRANCH  18  19
ENDBRANCH  17  18
ENDBRANCH  16  17
ENDBRANCH  15  16
ENDBRANCH  14  15
ENDBRANCH  13  14
ENDBRANCH  12  13
ENDBRANCH   1  12
TORSDOF 16
ENDMDL
MODEL 3
REMARK VINA RESULT:    -4.078      1.450      2.040
REMARK INTER + INTRA:          -9.568
REMARK INTER:                  -8.388
REMARK INTRA:                  -1.180
REMARK UNBOUND:                -1.675
REMARK SMILES CCCCCCCCCCCCCCCCCC(=O)[O-]
REMARK SMILES IDX 10 1 11 2 12 3 13 4 14 5 15 6 16 7 17 8 18 9 19 10 20 11
REMARK SMILES IDX 9 12 8 13 7 14 6 15 5 16 4 17 3 18 2 19 1 20
REMARK H PARENT
REMARK Flexibility Score: inf
ROOT
ATOM      1  C   UNL     1     -43.152  27.534   0.227  1.00  0.00     0.000 C 
ENDROOT
BRANCH   1   2
ATOM      2  C   UNL     1     -43.014  27.874   1.719  1.00  0.00     0.000 C 
BRANCH   2   3
ATOM      3  C   UNL     1     -44.095  27.160   2.546  1.00  0.00     0.000 C 
BRANCH   3   4
ATOM      4  C   UNL     1     -44.345  27.834   3.904  1.00  0.00     0.000 C 
BRANCH   4   5
ATOM      5  C   UNL     1     -43.195  28.762   4.327  1.00  0.00     0.000 C 
BRANCH   5   6
ATOM      6  C   UNL     1     -43.168  28.940   5.852  1.00  0.00     0.000 C 
BRANCH   6   7
ATOM      7  C   UNL     1     -43.215  27.601   6.611  1.00  0.00     0.006 C 
BRANCH   7   8
ATOM      8  C   UNL     1     -44.003  27.648   7.929  1.00  0.00     0.053 C 
BRANCH   8   9
ATOM      9  C   UNL     1     -45.482  27.704   7.698  1.00  0.00     0.041 C 
ATOM     10  O   UNL     1     -46.181  28.581   8.270  1.00  0.00    -0.550 OA
ATOM     11  O   UNL     1     -46.082  26.808   6.822  1.00  0.00    -0.550 OA
ENDBRANCH   8   9
ENDBRANCH   7   8
ENDBRANCH   6   7
ENDBRANCH   5   6
ENDBRANCH   4   5
ENDBRANCH   3   4
ENDBRANCH   2   3
ENDBRANCH   1   2
BRANCH   1  12
ATOM     12  C   UNL     1     -44.036  28.537  -0.532  1.00  0.00     0.000 C 
BRANCH  12  13
ATOM     13  C   UNL     1     -45.332  27.899  -1.061  1.00  0.00    -0.000 C 
BRANCH  13  14
ATOM     14  C   UNL     1     -45.155  26.417  -1.440  1.00  0.00    -0.000 C 
BRANCH  14  15
ATOM     15  C   UNL     1     -45.822  25.991  -2.765  1.00  0.00    -0.000 C 
BRANCH  15  16
ATOM     16  C   UNL     1     -46.773  27.034  -3.380  1.00  0.00    -0.000 C 
BRANCH  16  17
ATOM     17  C   UNL     1     -46.239  27.619  -4.698  1.00  0.00    -0.000 C 
BRANCH  17  18
ATOM     18  C   UNL     1     -45.998  26.543  -5.767  1.00  0.00    -0.000 C 
BRANCH  18  19
ATOM     19  C   UNL     1     -45.539  27.135  -7.108  1.00  0.00    -0.003 C 
ATOM     20  C   UNL     1     -45.327  28.642  -6.999  1.00  0.00     0.004 C 
ENDBRANCH  18  19
ENDBRANCH  17  18
ENDBRANCH  16  17
ENDBRANCH  15  16
ENDBRANCH  14  15
ENDBRANCH  13  14
ENDBRANCH  12  13
ENDBRANCH   1  12
TORSDOF 16
ENDMDL
MODEL 4
REMARK VINA RESULT:    -4.071      1.851      2.801
REMARK INTER + INTRA:          -9.553
REMARK INTER:                  -7.937
REMARK INTRA:                  -1.616
REMARK UNBOUND:                -1.675
REMARK SMILES CCCCCCCCCCCCCCCCCC(=O)[O-]
REMARK SMILES IDX 10 1 11 2 12 3 13 4 14 5 15 6 16 7 17 8 18 9 19 10 20 11
REMARK SMILES IDX 9 12 8 13 7 14 6 15 5 16 4 17 3 18 2 19 1 20
REMARK H PARENT
REMARK Flexibility Score: inf
ROOT
ATOM      1  C   UNL     1     -44.507  26.749  -1.025  1.00  0.00     0.000 C 
ENDROOT
BRANCH   1   2
ATOM      2  C   UNL     1     -43.957  27.383   0.261  1.00  0.00     0.000 C 
BRANCH   2   3
ATOM      3  C   UNL     1     -42.570  27.998   0.019  1.00  0.00     0.000 C 
BRANCH   3   4
ATOM      4  C   UNL     1     -42.560  29.526   0.191  1.00  0.00     0.000 C 
BRANCH   4   5
ATOM      5  C   UNL     1     -43.446  29.997   1.354  1.00  0.00     0.000 C 
BRANCH   5   6
ATOM      6  C   UNL     1     -42.669  29.974   2.679  1.00  0.00     0.000 C 
BRANCH   6   7
ATOM      7  C   UNL     1     -43.315  29.056   3.734  1.00  0.00     0.006 C 
BRANCH   7   8
ATOM      8  C   UNL     1     -44.805  28.770   3.496  1.00  0.00     0.053 C 
BRANCH   8   9
ATOM      9  C   UNL     1     -45.171  27.364   3.861  1.00  0.00     0.041 C 
ATOM     10  O   UNL     1     -44.441  26.404   3.499  1.00  0.00    -0.550 OA
ATOM     11  O   UNL     1     -46.302  27.117   4.629  1.00  0.00    -0.550 OA
ENDBRANCH   8   9
ENDBRANCH   7   8
ENDBRANCH   6   7
ENDBRANCH   5   6
ENDBRANCH   4   5
ENDBRANCH   3   4
ENDBRANCH   2   3
ENDBRANCH   1   2
BRANCH   1  12
ATOM     12  C   UNL     1     -45.990  27.078  -1.264  1.00  0.00     0.000 C 
BRANCH  12  13
ATOM     13  C   UNL     1     -46.298  28.575  -1.087  1.00  0.00    -0.000 C 
BRANCH  13  14
ATOM     14  C   UNL     1     -45.624  29.453  -2.158  1.00  0.00    -0.000 C 
BRANCH  14  15
ATOM     15  C   UNL     1     -46.546  29.922  -3.302  1.00  0.00    -0.000 C 
BRANCH  15  16
ATOM     16  C   UNL     1     -45.929  29.839  -4.710  1.00  0.00    -0.000 C 
BRANCH  16  17
ATOM     17  C   UNL     1     -45.997  28.422  -5.306  1.00  0.00    -0.000 C 
BRANCH  17  18
ATOM     18  C   UNL     1     -45.478  28.364  -6.750  1.00  0.00    -0.000 C 
BRANCH  18  19
ATOM     19  C   UNL     1     -45.458  26.934  -7.312  1.00  0.00    -0.003 C 
ATOM     20  C   UNL     1     -46.530  26.070  -6.654  1.00  0.00     0.004 C 
ENDBRANCH  18  19
ENDBRANCH  17  18
ENDBRANCH  16  17
ENDBRANCH  15  16
ENDBRANCH  14  15
ENDBRANCH  13  14
ENDBRANCH  12  13
ENDBRANCH   1  12
TORSDOF 16
ENDMDL
MODEL 5
REMARK VINA RESULT:    -4.035      1.370      2.326
REMARK INTER + INTRA:          -9.483
REMARK INTER:                  -8.407
REMARK INTRA:                  -1.076
REMARK UNBOUND:                -1.675
REMARK SMILES CCCCCCCCCCCCCCCCCC(=O)[O-]
REMARK SMILES IDX 10 1 11 2 12 3 13 4 14 5 15 6 16 7 17 8 18 9 19 10 20 11
REMARK SMILES IDX 9 12 8 13 7 14 6 15 5 16 4 17 3 18 2 19 1 20
REMARK H PARENT
REMARK Flexibility Score: inf
ROOT
ATOM      1  C   UNL     1     -44.926  27.322  -0.340  1.00  0.00     0.000 C 
ENDROOT
BRANCH   1   2
ATOM      2  C   UNL     1     -43.676  27.234   0.549  1.00  0.00     0.000 C 
BRANCH   2   3
ATOM      3  C   UNL     1     -42.820  28.503   0.418  1.00  0.00     0.000 C 
BRANCH   3   4
ATOM      4  C   UNL     1     -43.416  29.702   1.173  1.00  0.00     0.000 C 
BRANCH   4   5
ATOM      5  C   UNL     1     -42.612  30.070   2.430  1.00  0.00     0.000 C 
BRANCH   5   6
ATOM      6  C   UNL     1     -43.044  29.210   3.627  1.00  0.00     0.000 C 
BRANCH   6   7
ATOM      7  C   UNL     1     -44.528  29.399   3.993  1.00  0.00     0.006 C 
BRANCH   7   8
ATOM      8  C   UNL     1     -45.344  28.097   4.017  1.00  0.00     0.053 C 
BRANCH   8   9
ATOM      9  C   UNL     1     -44.512  26.920   4.425  1.00  0.00     0.041 C 
ATOM     10  O   UNL     1     -44.161  26.777   5.626  1.00  0.00    -0.550 OA
ATOM     11  O   UNL     1     -44.153  25.964   3.484  1.00  0.00    -0.550 OA
ENDBRANCH   8   9
ENDBRANCH   7   8
ENDBRANCH   6   7
ENDBRANCH   5   6
ENDBRANCH   4   5
ENDBRANCH   3   4
ENDBRANCH   2   3
ENDBRANCH   1   2
BRANCH   1  12
ATOM     12  C   UNL     1     -44.869  26.364  -1.542  1.00  0.00     0.000 C 
BRANCH  12  13
ATOM     13  C   UNL     1     -46.173  25.567  -1.722  1.00  0.00    -0.000 C 
BRANCH  13  14
ATOM     14  C   UNL     1     -47.000  26.041  -2.932  1.00  0.00    -0.000 C 
BRANCH  14  15
ATOM     15  C   UNL     1     -46.415  27.244  -3.699  1.00  0.00    -0.000 C 
BRANCH  15  16
ATOM     16  C   UNL     1     -46.896  27.385  -5.155  1.00  0.00    -0.000 C 
BRANCH  16  17
ATOM     17  C   UNL     1     -46.128  26.471  -6.125  1.00  0.00    -0.000 C 
BRANCH  17  18
ATOM     18  C   UNL     1     -45.479  27.249  -7.280  1.00  0.00    -0.000 C 
BRANCH  18  19
ATOM     19  C   UNL     1     -45.343  28.749  -6.977  1.00  0.00    -0.003 C 
ATOM     20  C   UNL     1     -46.134  29.586  -7.977  1.00  0.00     0.004 C 
ENDBRANCH  18  19
ENDBRANCH  17  18
ENDBRANCH  16  17
ENDBRANCH  15  16
ENDBRANCH  14  15
ENDBRANCH  13  14
ENDBRANCH  12  13
ENDBRANCH   1  12
TORSDOF 16
ENDMDL
MODEL 6
REMARK VINA RESULT:    -3.985      4.591      9.774
REMARK INTER + INTRA:          -9.387
REMARK INTER:                  -8.339
REMARK INTRA:                  -1.048
REMARK UNBOUND:                -1.675
REMARK SMILES CCCCCCCCCCCCCCCCCC(=O)[O-]
REMARK SMILES IDX 10 1 11 2 12 3 13 4 14 5 15 6 16 7 17 8 18 9 19 10 20 11
REMARK SMILES IDX 9 12 8 13 7 14 6 15 5 16 4 17 3 18 2 19 1 20
REMARK H PARENT
REMARK Flexibility Score: inf
ROOT
ATOM      1  C   UNL     1     -42.717  27.963  -0.212  1.00  0.00     0.000 C 
ENDROOT
BRANCH   1   2
ATOM      2  C   UNL     1     -43.992  27.172   0.115  1.00  0.00     0.000 C 
BRANCH   2   3
ATOM      3  C   UNL     1     -44.980  27.216  -1.061  1.00  0.00     0.000 C 
BRANCH   3   4
ATOM      4  C   UNL     1     -45.289  25.821  -1.629  1.00  0.00     0.000 C 
BRANCH   4   5
ATOM      5  C   UNL     1     -46.102  25.878  -2.931  1.00  0.00     0.000 C 
BRANCH   5   6
ATOM      6  C   UNL     1     -46.365  27.332  -3.349  1.00  0.00     0.000 C 
BRANCH   6   7
ATOM      7  C   UNL     1     -46.251  27.547  -4.870  1.00  0.00     0.006 C 
BRANCH   7   8
ATOM      8  C   UNL     1     -46.679  26.336  -5.713  1.00  0.00     0.053 C 
BRANCH   8   9
ATOM      9  C   UNL     1     -46.070  26.363  -7.082  1.00  0.00     0.041 C 
ATOM     10  O   UNL     1     -45.111  27.139  -7.334  1.00  0.00    -0.550 OA
ATOM     11  O   UNL     1     -46.539  25.505  -8.068  1.00  0.00    -0.550 OA
ENDBRANCH   8   9
ENDBRANCH   7   8
ENDBRANCH   6   7
ENDBRANCH   5   6
ENDBRANCH   4   5
ENDBRANCH   3   4
ENDBRANCH   2   3
ENDBRANCH   1   2
BRANCH   1  12
ATOM     12  C   UNL     1     -42.505  29.165   0.724  1.00  0.00     0.000 C 
BRANCH  12  13
ATOM     13  C   UNL     1     -43.452  29.142   1.936  1.00  0.00    -0.000 C 
BRANCH  13  14
ATOM     14  C   UNL     1     -42.793  29.684   3.218  1.00  0.00    -0.000 C 
BRANCH  14  15
ATOM     15  C   UNL     1     -43.288  29.049   4.534  1.00  0.00    -0.000 C 
BRANCH  15  16
ATOM     16  C   UNL     1     -44.119  27.764   4.364  1.00  0.00    -0.000 C 
BRANCH  16  17
ATOM     17  C   UNL     1     -44.063  26.853   5.603  1.00  0.00    -0.000 C 
BRANCH  17  18
ATOM     18  C   UNL     1     -43.277  27.482   6.763  1.00  0.00    -0.000 C 
BRANCH  18  19
ATOM     19  C   UNL     1     -44.120  27.622   8.039  1.00  0.00    -0.003 C 
ATOM     20  C   UNL     1     -45.568  27.967   7.707  1.00  0.00     0.004 C 
ENDBRANCH  18  19
ENDBRANCH  17  18
ENDBRANCH  16  17
ENDBRANCH  15  16
ENDBRANCH  14  15
ENDBRANCH  13  14
ENDBRANCH  12  13
ENDBRANCH   1  12
TORSDOF 16
ENDMDL
MODEL 7
REMARK VINA RESULT:    -3.927      4.321      9.422
REMARK INTER + INTRA:          -9.275
REMARK INTER:                  -7.807
REMARK INTRA:                  -1.468
REMARK UNBOUND:                -1.675
REMARK SMILES CCCCCCCCCCCCCCCCCC(=O)[O-]
REMARK SMILES IDX 10 1 11 2 12 3 13 4 14 5 15 6 16 7 17 8 18 9 19 10 20 11
REMARK SMILES IDX 9 12 8 13 7 14 6 15 5 16 4 17 3 18 2 19 1 20
REMARK H PARENT
REMARK Flexibility Score: inf
ROOT
ATOM      1  C   UNL     1     -42.507  28.136   0.756  1.00  0.00     0.000 C 
ENDROOT
BRANCH   1   2
ATOM      2  C   UNL     1     -43.601  27.156   0.305  1.00  0.00     0.000 C 
BRANCH   2   3
ATOM      3  C   UNL     1     -44.908  27.900  -0.008  1.00  0.00     0.000 C 
BRANCH   3   4
ATOM      4  C   UNL     1     -45.408  27.646  -1.439  1.00  0.00     0.000 C 
BRANCH   4   5
ATOM      5  C   UNL     1     -45.687  26.161  -1.715  1.00  0.00     0.000 C 
BRANCH   5   6
ATOM      6  C   UNL     1     -46.666  25.997  -2.887  1.00  0.00     0.000 C 
BRANCH   6   7
ATOM      7  C   UNL     1     -46.424  27.016  -4.015  1.00  0.00     0.006 C 
BRANCH   7   8
ATOM      8  C   UNL     1     -46.795  26.509  -5.417  1.00  0.00     0.053 C 
BRANCH   8   9
ATOM      9  C   UNL     1     -45.818  26.967  -6.456  1.00  0.00     0.041 C 
ATOM     10  O   UNL     1     -45.383  28.149  -6.442  1.00  0.00    -0.550 OA
ATOM     11  O   UNL     1     -45.361  26.078  -7.420  1.00  0.00    -0.550 OA
ENDBRANCH   8   9
ENDBRANCH   7   8
ENDBRANCH   6   7
ENDBRANCH   5   6
ENDBRANCH   4   5
ENDBRANCH   3   4
ENDBRANCH   2   3
ENDBRANCH   1   2
BRANCH   1  12
ATOM     12  C   UNL     1     -43.065  29.315   1.572  1.00  0.00     0.000 C 
BRANCH  12  13
ATOM     13  C   UNL     1     -43.172  28.995   3.073  1.00  0.00    -0.000 C 
BRANCH  13  14
ATOM     14  C   UNL     1     -44.629  28.841   3.547  1.00  0.00    -0.000 C 
BRANCH  14  15
ATOM     15  C   UNL     1     -45.022  27.426   4.020  1.00  0.00    -0.000 C 
BRANCH  15  16
ATOM     16  C   UNL     1     -45.905  27.382   5.280  1.00  0.00    -0.000 C 
BRANCH  16  17
ATOM     17  C   UNL     1     -45.153  27.821   6.548  1.00  0.00    -0.000 C 
BRANCH  17  18
ATOM     18  C   UNL     1     -43.817  27.083   6.727  1.00  0.00    -0.000 C 
BRANCH  18  19
ATOM     19  C   UNL     1     -42.676  28.023   7.145  1.00  0.00    -0.003 C 
ATOM     20  C   UNL     1     -43.103  29.484   7.046  1.00  0.00     0.004 C 
ENDBRANCH  18  19
ENDBRANCH  17  18
ENDBRANCH  16  17
ENDBRANCH  15  16
ENDBRANCH  14  15
ENDBRANCH  13  14
ENDBRANCH  12  13
ENDBRANCH   1  12
TORSDOF 16
ENDMDL
MODEL 8
REMARK VINA RESULT:    -3.921      1.648      2.960
REMARK INTER + INTRA:          -9.263
REMARK INTER:                  -7.385
REMARK INTRA:                  -1.878
REMARK UNBOUND:                -1.675
REMARK SMILES CCCCCCCCCCCCCCCCCC(=O)[O-]
REMARK SMILES IDX 10 1 11 2 12 3 13 4 14 5 15 6 16 7 17 8 18 9 19 10 20 11
REMARK SMILES IDX 9 12 8 13 7 14 6 15 5 16 4 17 3 18 2 19 1 20
REMARK H PARENT
REMARK Flexibility Score: inf
ROOT
ATOM      1  C   UNL     1     -42.902  27.162   1.407  1.00  0.00     0.000 C 
ENDROOT
BRANCH   1   2
ATOM      2  C   UNL     1     -43.413  28.006   2.585  1.00  0.00     0.000 C 
BRANCH   2   3
ATOM      3  C   UNL     1     -44.376  27.192   3.464  1.00  0.00     0.000 C 
BRANCH   3   4
ATOM      4  C   UNL     1     -45.653  27.969   3.822  1.00  0.00     0.000 C 
BRANCH   4   5
ATOM      5  C   UNL     1     -46.272  27.512   5.152  1.00  0.00     0.000 C 
BRANCH   5   6
ATOM      6  C   UNL     1     -45.696  28.315   6.328  1.00  0.00     0.000 C 
BRANCH   6   7
ATOM      7  C   UNL     1     -44.772  27.475   7.229  1.00  0.00     0.006 C 
BRANCH   7   8
ATOM      8  C   UNL     1     -43.911  28.300   8.198  1.00  0.00     0.053 C 
BRANCH   8   9
ATOM      9  C   UNL     1     -42.543  28.563   7.647  1.00  0.00     0.041 C 
ATOM     10  O   UNL     1     -41.658  29.087   8.373  1.00  0.00    -0.550 OA
ATOM     11  O   UNL     1     -42.238  28.198   6.342  1.00  0.00    -0.550 OA
ENDBRANCH   8   9
ENDBRANCH   7   8
ENDBRANCH   6   7
ENDBRANCH   5   6
ENDBRANCH   4   5
ENDBRANCH   3   4
ENDBRANCH   2   3
ENDBRANCH   1   2
BRANCH   1  12
ATOM     12  C   UNL     1     -42.829  27.958   0.093  1.00  0.00     0.000 C 
BRANCH  12  13
ATOM     13  C   UNL     1     -43.624  29.274   0.156  1.00  0.00    -0.000 C 
BRANCH  13  14
ATOM     14  C   UNL     1     -44.780  29.322  -0.859  1.00  0.00    -0.000 C 
BRANCH  14  15
ATOM     15  C   UNL     1     -46.176  29.007  -0.283  1.00  0.00    -0.000 C 
BRANCH  15  16
ATOM     16  C   UNL     1     -46.359  27.569   0.234  1.00  0.00    -0.000 C 
BRANCH  16  17
ATOM     17  C   UNL     1     -46.870  26.607  -0.852  1.00  0.00    -0.000 C 
BRANCH  17  18
ATOM     18  C   UNL     1     -45.735  26.032  -1.713  1.00  0.00    -0.000 C 
BRANCH  18  19
ATOM     19  C   UNL     1     -46.062  26.058  -3.214  1.00  0.00    -0.003 C 
ATOM     20  C   UNL     1     -46.430  27.466  -3.672  1.00  0.00     0.004 C 
ENDBRANCH  18  19
ENDBRANCH  17  18
ENDBRANCH  16  17
ENDBRANCH  15  16
ENDBRANCH  14  15
ENDBRANCH  13  14
ENDBRANCH  12  13
ENDBRANCH   1  12
TORSDOF 16
ENDMDL
MODEL 9
REMARK VINA RESULT:    -3.813      3.279      8.195
REMARK INTER + INTRA:          -9.056
REMARK INTER:                  -6.567
REMARK INTRA:                  -2.488
REMARK UNBOUND:                -1.675
REMARK SMILES CCCCCCCCCCCCCCCCCC(=O)[O-]
REMARK SMILES IDX 10 1 11 2 12 3 13 4 14 5 15 6 16 7 17 8 18 9 19 10 20 11
REMARK SMILES IDX 9 12 8 13 7 14 6 15 5 16 4 17 3 18 2 19 1 20
REMARK H PARENT
REMARK Flexibility Score: inf
ROOT
ATOM      1  C   UNL     1     -44.193  27.491   2.879  1.00  0.00     0.000 C 
ENDROOT
BRANCH   1   2
ATOM      2  C   UNL     1     -43.856  27.205   1.408  1.00  0.00     0.000 C 
BRANCH   2   3
ATOM      3  C   UNL     1     -42.593  27.967   0.977  1.00  0.00     0.000 C 
BRANCH   3   4
ATOM      4  C   UNL     1     -42.863  28.969  -0.158  1.00  0.00     0.000 C 
BRANCH   4   5
ATOM      5  C   UNL     1     -44.215  29.683  -0.009  1.00  0.00     0.000 C 
BRANCH   5   6
ATOM      6  C   UNL     1     -44.994  29.659  -1.333  1.00  0.00     0.000 C 
BRANCH   6   7
ATOM      7  C   UNL     1     -46.141  28.631  -1.332  1.00  0.00     0.006 C 
BRANCH   7   8
ATOM      8  C   UNL     1     -45.839  27.347  -2.120  1.00  0.00     0.053 C 
BRANCH   8   9
ATOM      9  C   UNL     1     -46.125  26.116  -1.317  1.00  0.00     0.041 C 
ATOM     10  O   UNL     1     -45.642  25.006  -1.663  1.00  0.00    -0.550 OA
ATOM     11  O   UNL     1     -46.898  26.202  -0.166  1.00  0.00    -0.550 OA
ENDBRANCH   8   9
ENDBRANCH   7   8
ENDBRANCH   6   7
ENDBRANCH   5   6
ENDBRANCH   4   5
ENDBRANCH   3   4
ENDBRANCH   2   3
ENDBRANCH   1   2
BRANCH   1  12
ATOM     12  C   UNL     1     -43.278  28.558   3.503  1.00  0.00     0.000 C 
BRANCH  12  13
ATOM     13  C   UNL     1     -44.054  29.804   3.963  1.00  0.00    -0.000 C 
BRANCH  13  14
ATOM     14  C   UNL     1     -45.574  29.569   4.030  1.00  0.00    -0.000 C 
BRANCH  14  15
ATOM     15  C   UNL     1     -46.185  29.601   5.446  1.00  0.00    -0.000 C 
BRANCH  15  16
ATOM     16  C   UNL     1     -46.994  28.351   5.835  1.00  0.00    -0.000 C 
BRANCH  16  17
ATOM     17  C   UNL     1     -46.100  27.139   6.150  1.00  0.00    -0.000 C 
BRANCH  17  18
ATOM     18  C   UNL     1     -45.060  27.441   7.240  1.00  0.00    -0.000 C 
BRANCH  18  19
ATOM     19  C   UNL     1     -43.628  27.108   6.795  1.00  0.00    -0.003 C 
ATOM     20  C   UNL     1     -42.647  28.186   7.248  1.00  0.00     0.004 C 
ENDBRANCH  18  19
ENDBRANCH  17  18
ENDBRANCH  16  17
ENDBRANCH  15  16
ENDBRANCH  14  15
ENDBRANCH  13  14
ENDBRANCH  12  13
ENDBRANCH   1  12
TORSDOF 16
ENDMDL
