MODEL 1
REMARK VINA RESULT:    -3.705      0.000      0.000
REMARK INTER + INTRA:         -12.401
REMARK INTER:                  -8.469
REMARK INTRA:                  -3.932
REMARK UNBOUND:                -3.932
REMARK SMILES CCCCCCCCCCCCCCCCCCCCCCCC(=O)[O-]
REMARK SMILES IDX 13 1 14 2 15 3 16 4 17 5 18 6 19 7 20 8 21 9 22 10 23 11
REMARK SMILES IDX 24 12 25 13 26 14 12 15 11 16 10 17 9 18 8 19 7 20 6 21 5 22
REMARK SMILES IDX 4 23 3 24 2 25 1 26
REMARK H PARENT
REMARK Flexibility Score: inf
ROOT
ATOM      1  C   UNL     1      22.880  -6.831  53.615  1.00  0.00     0.000 C 
ENDROOT
BRANCH   1   2
ATOM      2  C   UNL     1      23.764  -5.581  53.730  1.00  0.00     0.000 C 
BRANCH   2   3
ATOM      3  C   UNL     1      24.469  -5.272  52.398  1.00  0.00     0.000 C 
BRANCH   3   4
ATOM      4  C   UNL     1      24.022  -3.925  51.806  1.00  0.00     0.000 C 
BRANCH   4   5
ATOM      5  C   UNL     1      22.750  -4.054  50.950  1.00  0.00     0.000 C 
BRANCH   5   6
ATOM      6  C   UNL     1      21.935  -2.749  50.927  1.00  0.00     0.000 C 
BRANCH   6   7
ATOM      7  C   UNL     1      21.437  -2.401  49.510  1.00  0.00     0.000 C 
BRANCH   7   8
ATOM      8  C   UNL     1      21.954  -3.395  48.448  1.00  0.00     0.000 C 
BRANCH   8   9
ATOM      9  C   UNL     1      22.943  -2.763  47.455  1.00  0.00     0.000 C 
BRANCH   9  10
ATOM     10  C   UNL     1      24.404  -3.157  47.738  1.00  0.00     0.006 C 
BRANCH  10  11
ATOM     11  C   UNL     1      25.180  -2.037  48.443  1.00  0.00     0.053 C 
BRANCH  11  12
ATOM     12  C   UNL     1      26.244  -1.456  47.562  1.00  0.00     0.041 C 
ATOM     13  O   UNL     1      27.255  -2.142  47.256  1.00  0.00    -0.550 OA
ATOM     14  O   UNL     1      26.152  -0.138  47.132  1.00  0.00    -0.550 OA
ENDBRANCH  11  12
ENDBRANCH  10  11
ENDBRANCH   9  10
ENDBRANCH   8   9
ENDBRANCH   7   8
ENDBRANCH   6   7
ENDBRANCH   5   6
ENDBRANCH   4   5
ENDBRANCH   3   4
ENDBRANCH   2   3
ENDBRANCH   1   2
BRANCH   1  15
ATOM     15  C   UNL     1      21.560  -6.703  54.394  1.00  0.00     0.000 C 
BRANCH  15  16
ATOM     16  C   UNL     1      20.944  -5.295  54.296  1.00  0.00     0.000 C 
BRANCH  16  17
ATOM     17  C   UNL     1      20.524  -4.731  55.668  1.00  0.00     0.000 C 
BRANCH  17  18
ATOM     18  C   UNL     1      21.571  -4.897  56.786  1.00  0.00    -0.000 C 
BRANCH  18  19
ATOM     19  C   UNL     1      21.617  -3.696  57.747  1.00  0.00    -0.000 C 
BRANCH  19  20
ATOM     20  C   UNL     1      22.996  -3.015  57.767  1.00  0.00    -0.000 C 
BRANCH  20  21
ATOM     21  C   UNL     1      23.853  -3.396  56.551  1.00  0.00    -0.000 C 
BRANCH  21  22
ATOM     22  C   UNL     1      24.041  -2.195  55.611  1.00  0.00    -0.000 C 
BRANCH  22  23
ATOM     23  C   UNL     1      22.808  -1.968  54.707  1.00  0.00    -0.000 C 
BRANCH  23  24
ATOM     24  C   UNL     1      21.933  -0.782  55.151  1.00  0.00    -0.000 C 
BRANCH  24  25
ATOM     25  C   UNL     1      20.425  -1.082  55.187  1.00  0.00    -0.003 C 
ATOM     26  C   UNL     1      19.883  -1.572  53.843  1.00  0.00     0.004 C 
ENDBRANCH  24  25
ENDBRANCH  23  24
ENDBRANCH  22  23
ENDBRANCH  21  22
ENDBRANCH  20  21
ENDBRANCH  19  20
ENDBRANCH  18  19
ENDBRANCH  17  18
ENDBRANCH  16  17
ENDBRANCH  15  16
ENDBRANCH   1  15
TORSDOF 22
ENDMDL
MODEL 2
REMARK VINA RESULT:    -3.702     12.993     18.636
REMARK INTER + INTRA:         -12.394
REMARK INTER:                  -9.239
REMARK INTRA:                  -3.155
REMARK UNBOUND:                -3.932
REMARK SMILES CCCCCCCCCCCCCCCCCCCCCCCC(=O)[O-]
REMARK SMILES IDX 13 1 14 2 15 3 16 4 17 5 18 6 19 7 20 8 21 9 22 10 23 11
REMARK SMILES IDX 24 12 25 13 26 14 12 15 11 16 10 17 9 18 8 19 7 20 6 21 5 22
REMARK SMILES IDX 4 23 3 24 2 25 1 26
REMARK H PARENT
REMARK Flexibility Score: inf
ROOT
ATOM      1  C   UNL     1      35.035   7.270  38.007  1.00  0.00     0.000 C 
ENDROOT
BRANCH   1   2
ATOM      2  C   UNL     1      36.568   7.193  37.952  1.00  0.00     0.000 C 
BRANCH   2   3
ATOM      3  C   UNL     1      37.093   5.974  38.728  1.00  0.00     0.000 C 
BRANCH   3   4
ATOM      4  C   UNL     1      36.601   4.648  38.124  1.00  0.00     0.000 C 
BRANCH   4   5
ATOM      5  C   UNL     1      36.015   3.701  39.186  1.00  0.00     0.000 C 
BRANCH   5   6
ATOM      6  C   UNL     1      35.640   4.446  40.478  1.00  0.00     0.000 C 
BRANCH   6   7
ATOM      7  C   UNL     1      34.127   4.729  40.568  1.00  0.00     0.000 C 
BRANCH   7   8
ATOM      8  C   UNL     1      33.748   5.479  41.863  1.00  0.00     0.000 C 
BRANCH   8   9
ATOM      9  C   UNL     1      32.481   6.338  41.718  1.00  0.00     0.000 C 
BRANCH   9  10
ATOM     10  C   UNL     1      31.519   5.803  40.643  1.00  0.00     0.006 C 
BRANCH  10  11
ATOM     11  C   UNL     1      30.124   5.509  41.208  1.00  0.00     0.053 C 
BRANCH  11  12
ATOM     12  C   UNL     1      29.274   4.755  40.231  1.00  0.00     0.041 C 
ATOM     13  O   UNL     1      28.127   4.356  40.566  1.00  0.00    -0.550 OA
ATOM     14  O   UNL     1      29.772   4.436  38.974  1.00  0.00    -0.550 OA
ENDBRANCH  11  12
ENDBRANCH  10  11
ENDBRANCH   9  10
ENDBRANCH   8   9
ENDBRANCH   7   8
ENDBRANCH   6   7
ENDBRANCH   5   6
ENDBRANCH   4   5
ENDBRANCH   3   4
ENDBRANCH   2   3
ENDBRANCH   1   2
BRANCH   1  15
ATOM     15  C   UNL     1      34.520   8.066  39.219  1.00  0.00     0.000 C 
BRANCH  15  16
ATOM     16  C   UNL     1      35.618   8.917  39.884  1.00  0.00     0.000 C 
BRANCH  16  17
ATOM     17  C   UNL     1      35.806   8.588  41.377  1.00  0.00     0.000 C 
BRANCH  17  18
ATOM     18  C   UNL     1      34.896   9.381  42.336  1.00  0.00    -0.000 C 
BRANCH  18  19
ATOM     19  C   UNL     1      34.660   8.657  43.673  1.00  0.00    -0.000 C 
BRANCH  19  20
ATOM     20  C   UNL     1      33.676   9.413  44.583  1.00  0.00    -0.000 C 
BRANCH  20  21
ATOM     21  C   UNL     1      33.254   8.582  45.803  1.00  0.00    -0.000 C 
BRANCH  21  22
ATOM     22  C   UNL     1      33.288   7.079  45.484  1.00  0.00    -0.000 C 
BRANCH  22  23
ATOM     23  C   UNL     1      31.876   6.450  45.503  1.00  0.00    -0.000 C 
BRANCH  23  24
ATOM     24  C   UNL     1      31.724   5.316  46.533  1.00  0.00    -0.000 C 
BRANCH  24  25
ATOM     25  C   UNL     1      30.925   5.700  47.790  1.00  0.00    -0.003 C 
ATOM     26  C   UNL     1      31.351   4.914  49.030  1.00  0.00     0.004 C 
ENDBRANCH  24  25
ENDBRANCH  23  24
ENDBRANCH  22  23
ENDBRANCH  21  22
ENDBRANCH  20  21
ENDBRANCH  19  20
ENDBRANCH  18  19
ENDBRANCH  17  18
ENDBRANCH  16  17
ENDBRANCH  15  16
ENDBRANCH   1  15
TORSDOF 22
ENDMDL
MODEL 3
REMARK VINA RESULT:    -3.691     12.359     15.936
REMARK INTER + INTRA:         -12.370
REMARK INTER:                  -9.424
REMARK INTRA:                  -2.946
REMARK UNBOUND:                -3.932
REMARK SMILES CCCCCCCCCCCCCCCCCCCCCCCC(=O)[O-]
REMARK SMILES IDX 13 1 14 2 15 3 16 4 17 5 18 6 19 7 20 8 21 9 22 10 23 11
REMARK SMILES IDX 24 12 25 13 26 14 12 15 11 16 10 17 9 18 8 19 7 20 6 21 5 22
REMARK SMILES IDX 4 23 3 24 2 25 1 26
REMARK H PARENT
REMARK Flexibility Score: inf
ROOT
ATOM      1  C   UNL     1      32.685   5.786  44.170  1.00  0.00     0.000 C 
ENDROOT
BRANCH   1   2
ATOM      2  C   UNL     1      33.255   7.201  44.340  1.00  0.00     0.000 C 
BRANCH   2   3
ATOM      3  C   UNL     1      33.573   7.501  45.814  1.00  0.00     0.000 C 
BRANCH   3   4
ATOM      4  C   UNL     1      33.147   8.922  46.220  1.00  0.00     0.000 C 
BRANCH   4   5
ATOM      5  C   UNL     1      31.980   9.450  45.367  1.00  0.00     0.000 C 
BRANCH   5   6
ATOM      6  C   UNL     1      30.624   9.271  46.070  1.00  0.00     0.000 C 
BRANCH   6   7
ATOM      7  C   UNL     1      29.762   8.182  45.402  1.00  0.00     0.000 C 
BRANCH   7   8
ATOM      8  C   UNL     1      29.160   7.200  46.431  1.00  0.00     0.000 C 
BRANCH   8   9
ATOM      9  C   UNL     1      30.027   5.950  46.658  1.00  0.00     0.000 C 
BRANCH   9  10
ATOM     10  C   UNL     1      30.656   5.909  48.062  1.00  0.00     0.006 C 
BRANCH  10  11
ATOM     11  C   UNL     1      31.931   5.058  48.102  1.00  0.00     0.053 C 
BRANCH  11  12
ATOM     12  C   UNL     1      31.837   3.959  49.116  1.00  0.00     0.041 C 
ATOM     13  O   UNL     1      32.678   3.022  49.114  1.00  0.00    -0.550 OA
ATOM     14  O   UNL     1      30.785   3.936  50.024  1.00  0.00    -0.550 OA
ENDBRANCH  11  12
ENDBRANCH  10  11
ENDBRANCH   9  10
ENDBRANCH   8   9
ENDBRANCH   7   8
ENDBRANCH   6   7
ENDBRANCH   5   6
ENDBRANCH   4   5
ENDBRANCH   3   4
ENDBRANCH   2   3
ENDBRANCH   1   2
BRANCH   1  15
ATOM     15  C   UNL     1      31.914   5.606  42.850  1.00  0.00     0.000 C 
BRANCH  15  16
ATOM     16  C   UNL     1      31.329   6.927  42.317  1.00  0.00     0.000 C 
BRANCH  16  17
ATOM     17  C   UNL     1      30.247   6.709  41.241  1.00  0.00     0.000 C 
BRANCH  17  18
ATOM     18  C   UNL     1      28.873   7.324  41.570  1.00  0.00    -0.000 C 
BRANCH  18  19
ATOM     19  C   UNL     1      27.769   6.265  41.740  1.00  0.00    -0.000 C 
BRANCH  19  20
ATOM     20  C   UNL     1      28.267   4.844  41.424  1.00  0.00    -0.000 C 
BRANCH  20  21
ATOM     21  C   UNL     1      27.134   3.923  40.946  1.00  0.00    -0.000 C 
BRANCH  21  22
ATOM     22  C   UNL     1      25.997   3.867  41.976  1.00  0.00    -0.000 C 
BRANCH  22  23
ATOM     23  C   UNL     1      24.741   3.160  41.416  1.00  0.00    -0.000 C 
BRANCH  23  24
ATOM     24  C   UNL     1      24.797   2.925  39.896  1.00  0.00    -0.000 C 
BRANCH  24  25
ATOM     25  C   UNL     1      24.114   1.630  39.427  1.00  0.00    -0.003 C 
ATOM     26  C   UNL     1      22.805   1.884  38.679  1.00  0.00     0.004 C 
ENDBRANCH  24  25
ENDBRANCH  23  24
ENDBRANCH  22  23
ENDBRANCH  21  22
ENDBRANCH  20  21
ENDBRANCH  19  20
ENDBRANCH  18  19
ENDBRANCH  17  18
ENDBRANCH  16  17
ENDBRANCH  15  16
ENDBRANCH   1  15
TORSDOF 22
ENDMDL
MODEL 4
REMARK VINA RESULT:    -3.646      5.840     10.137
REMARK INTER + INTRA:         -12.267
REMARK INTER:                  -9.784
REMARK INTRA:                  -2.483
REMARK UNBOUND:                -3.932
REMARK SMILES CCCCCCCCCCCCCCCCCCCCCCCC(=O)[O-]
REMARK SMILES IDX 13 1 14 2 15 3 16 4 17 5 18 6 19 7 20 8 21 9 22 10 23 11
REMARK SMILES IDX 24 12 25 13 26 14 12 15 11 16 10 17 9 18 8 19 7 20 6 21 5 22
REMARK SMILES IDX 4 23 3 24 2 25 1 26
REMARK H PARENT
REMARK Flexibility Score: inf
ROOT
ATOM      1  C   UNL     1      20.347  -2.541  45.029  1.00  0.00     0.000 C 
ENDROOT
BRANCH   1   2
ATOM      2  C   UNL     1      21.294  -3.735  45.209  1.00  0.00     0.000 C 
BRANCH   2   3
ATOM      3  C   UNL     1      20.610  -4.879  45.976  1.00  0.00     0.000 C 
BRANCH   3   4
ATOM      4  C   UNL     1      21.025  -6.261  45.444  1.00  0.00     0.000 C 
BRANCH   4   5
ATOM      5  C   UNL     1      22.540  -6.504  45.558  1.00  0.00     0.000 C 
BRANCH   5   6
ATOM      6  C   UNL     1      22.895  -7.372  46.778  1.00  0.00     0.000 C 
BRANCH   6   7
ATOM      7  C   UNL     1      23.579  -6.556  47.892  1.00  0.00     0.000 C 
BRANCH   7   8
ATOM      8  C   UNL     1      24.005  -5.151  47.411  1.00  0.00     0.000 C 
BRANCH   8   9
ATOM      9  C   UNL     1      23.625  -4.032  48.394  1.00  0.00     0.000 C 
BRANCH   9  10
ATOM     10  C   UNL     1      23.547  -2.650  47.721  1.00  0.00     0.006 C 
BRANCH  10  11
ATOM     11  C   UNL     1      24.926  -2.136  47.289  1.00  0.00     0.053 C 
BRANCH  11  12
ATOM     12  C   UNL     1      24.967  -0.640  47.218  1.00  0.00     0.041 C 
ATOM     13  O   UNL     1      25.836   0.000  47.868  1.00  0.00    -0.550 OA
ATOM     14  O   UNL     1      24.008   0.050  46.488  1.00  0.00    -0.550 OA
ENDBRANCH  11  12
ENDBRANCH  10  11
ENDBRANCH   9  10
ENDBRANCH   8   9
ENDBRANCH   7   8
ENDBRANCH   6   7
ENDBRANCH   5   6
ENDBRANCH   4   5
ENDBRANCH   3   4
ENDBRANCH   2   3
ENDBRANCH   1   2
BRANCH   1  15
ATOM     15  C   UNL     1      18.994  -2.739  45.734  1.00  0.00     0.000 C 
BRANCH  15  16
ATOM     16  C   UNL     1      17.886  -1.834  45.163  1.00  0.00     0.000 C 
BRANCH  16  17
ATOM     17  C   UNL     1      18.309  -1.119  43.865  1.00  0.00     0.000 C 
BRANCH  17  18
ATOM     18  C   UNL     1      17.911   0.367  43.784  1.00  0.00    -0.000 C 
BRANCH  18  19
ATOM     19  C   UNL     1      19.109   1.294  43.511  1.00  0.00    -0.000 C 
BRANCH  19  20
ATOM     20  C   UNL     1      20.312   0.977  44.417  1.00  0.00    -0.000 C 
BRANCH  20  21
ATOM     21  C   UNL     1      21.590   0.697  43.612  1.00  0.00    -0.000 C 
BRANCH  21  22
ATOM     22  C   UNL     1      22.010   1.931  42.799  1.00  0.00    -0.000 C 
BRANCH  22  23
ATOM     23  C   UNL     1      23.281   1.667  41.960  1.00  0.00    -0.000 C 
BRANCH  23  24
ATOM     24  C   UNL     1      23.094   1.949  40.458  1.00  0.00    -0.000 C 
BRANCH  24  25
ATOM     25  C   UNL     1      23.912   1.034  39.532  1.00  0.00    -0.003 C 
ATOM     26  C   UNL     1      23.776  -0.447  39.885  1.00  0.00     0.004 C 
ENDBRANCH  24  25
ENDBRANCH  23  24
ENDBRANCH  22  23
ENDBRANCH  21  22
ENDBRANCH  20  21
ENDBRANCH  19  20
ENDBRANCH  18  19
ENDBRANCH  17  18
ENDBRANCH  16  17
ENDBRANCH  15  16
ENDBRANCH   1  15
TORSDOF 22
ENDMDL
MODEL 5
REMARK VINA RESULT:    -3.615     14.080     19.201
REMARK INTER + INTRA:         -12.196
REMARK INTER:                  -7.761
REMARK INTRA:                  -4.436
REMARK UNBOUND:                -3.932
REMARK SMILES CCCCCCCCCCCCCCCCCCCCCCCC(=O)[O-]
REMARK SMILES IDX 13 1 14 2 15 3 16 4 17 5 18 6 19 7 20 8 21 9 22 10 23 11
REMARK SMILES IDX 24 12 25 13 26 14 12 15 11 16 10 17 9 18 8 19 7 20 6 21 5 22
REMARK SMILES IDX 4 23 3 24 2 25 1 26
REMARK H PARENT
REMARK Flexibility Score: inf
ROOT
ATOM      1  C   UNL     1      35.318   7.418  37.902  1.00  0.00     0.000 C 
ENDROOT
BRANCH   1   2
ATOM      2  C   UNL     1      35.346   8.620  38.856  1.00  0.00     0.000 C 
BRANCH   2   3
ATOM      3  C   UNL     1      36.287   8.368  40.045  1.00  0.00     0.000 C 
BRANCH   3   4
ATOM      4  C   UNL     1      35.603   8.646  41.394  1.00  0.00     0.000 C 
BRANCH   4   5
ATOM      5  C   UNL     1      34.236   9.331  41.228  1.00  0.00     0.000 C 
BRANCH   5   6
ATOM      6  C   UNL     1      33.351   9.164  42.475  1.00  0.00     0.000 C 
BRANCH   6   7
ATOM      7  C   UNL     1      33.719   7.904  43.284  1.00  0.00     0.000 C 
BRANCH   7   8
ATOM      8  C   UNL     1      33.674   8.154  44.808  1.00  0.00     0.000 C 
BRANCH   8   9
ATOM      9  C   UNL     1      32.379   8.840  45.273  1.00  0.00     0.000 C 
BRANCH   9  10
ATOM     10  C   UNL     1      31.514   7.933  46.167  1.00  0.00     0.006 C 
BRANCH  10  11
ATOM     11  C   UNL     1      32.363   6.978  47.017  1.00  0.00     0.053 C 
BRANCH  11  12
ATOM     12  C   UNL     1      31.518   5.968  47.732  1.00  0.00     0.041 C 
ATOM     13  O   UNL     1      30.485   5.504  47.182  1.00  0.00    -0.550 OA
ATOM     14  O   UNL     1      31.835   5.588  49.031  1.00  0.00    -0.550 OA
ENDBRANCH  11  12
ENDBRANCH  10  11
ENDBRANCH   9  10
ENDBRANCH   8   9
ENDBRANCH   7   8
ENDBRANCH   6   7
ENDBRANCH   5   6
ENDBRANCH   4   5
ENDBRANCH   3   4
ENDBRANCH   2   3
ENDBRANCH   1   2
BRANCH   1  15
ATOM     15  C   UNL     1      36.630   6.614  37.915  1.00  0.00     0.000 C 
BRANCH  15  16
ATOM     16  C   UNL     1      36.410   5.118  38.209  1.00  0.00     0.000 C 
BRANCH  16  17
ATOM     17  C   UNL     1      36.722   4.746  39.671  1.00  0.00     0.000 C 
BRANCH  17  18
ATOM     18  C   UNL     1      35.556   4.089  40.436  1.00  0.00    -0.000 C 
BRANCH  18  19
ATOM     19  C   UNL     1      34.515   5.109  40.931  1.00  0.00    -0.000 C 
BRANCH  19  20
ATOM     20  C   UNL     1      33.189   5.016  40.156  1.00  0.00    -0.000 C 
BRANCH  20  21
ATOM     21  C   UNL     1      32.480   6.375  40.048  1.00  0.00    -0.000 C 
BRANCH  21  22
ATOM     22  C   UNL     1      31.048   6.208  39.520  1.00  0.00    -0.000 C 
BRANCH  22  23
ATOM     23  C   UNL     1      30.017   6.092  40.666  1.00  0.00    -0.000 C 
BRANCH  23  24
ATOM     24  C   UNL     1      30.403   6.895  41.921  1.00  0.00    -0.000 C 
BRANCH  24  25
ATOM     25  C   UNL     1      30.295   6.110  43.239  1.00  0.00    -0.003 C 
ATOM     26  C   UNL     1      31.322   4.982  43.346  1.00  0.00     0.004 C 
ENDBRANCH  24  25
ENDBRANCH  23  24
ENDBRANCH  22  23
ENDBRANCH  21  22
ENDBRANCH  20  21
ENDBRANCH  19  20
ENDBRANCH  18  19
ENDBRANCH  17  18
ENDBRANCH  16  17
ENDBRANCH  15  16
ENDBRANCH   1  15
TORSDOF 22
ENDMDL
MODEL 6
REMARK VINA RESULT:    -3.595     12.532     16.916
REMARK INTER + INTRA:         -12.150
REMARK INTER:                  -8.682
REMARK INTRA:                  -3.468
REMARK UNBOUND:                -3.932
REMARK SMILES CCCCCCCCCCCCCCCCCCCCCCCC(=O)[O-]
REMARK SMILES IDX 13 1 14 2 15 3 16 4 17 5 18 6 19 7 20 8 21 9 22 10 23 11
REMARK SMILES IDX 24 12 25 13 26 14 12 15 11 16 10 17 9 18 8 19 7 20 6 21 5 22
REMARK SMILES IDX 4 23 3 24 2 25 1 26
REMARK H PARENT
REMARK Flexibility Score: inf
ROOT
ATOM      1  C   UNL     1      31.534   5.132  41.612  1.00  0.00     0.000 C 
ENDROOT
BRANCH   1   2
ATOM      2  C   UNL     1      31.911   4.982  40.131  1.00  0.00     0.000 C 
BRANCH   2   3
ATOM      3  C   UNL     1      30.662   4.994  39.233  1.00  0.00     0.000 C 
BRANCH   3   4
ATOM      4  C   UNL     1      30.585   6.262  38.366  1.00  0.00     0.000 C 
BRANCH   4   5
ATOM      5  C   UNL     1      31.764   7.217  38.618  1.00  0.00     0.000 C 
BRANCH   5   6
ATOM      6  C   UNL     1      31.320   8.509  39.326  1.00  0.00     0.000 C 
BRANCH   6   7
ATOM      7  C   UNL     1      29.825   8.482  39.700  1.00  0.00     0.000 C 
BRANCH   7   8
ATOM      8  C   UNL     1      29.604   8.428  41.228  1.00  0.00     0.000 C 
BRANCH   8   9
ATOM      9  C   UNL     1      28.234   7.853  41.624  1.00  0.00     0.000 C 
BRANCH   9  10
ATOM     10  C   UNL     1      28.151   6.328  41.432  1.00  0.00     0.006 C 
BRANCH  10  11
ATOM     11  C   UNL     1      26.789   5.764  41.854  1.00  0.00     0.053 C 
BRANCH  11  12
ATOM     12  C   UNL     1      26.853   4.291  42.122  1.00  0.00     0.041 C 
ATOM     13  O   UNL     1      25.812   3.587  42.040  1.00  0.00    -0.550 OA
ATOM     14  O   UNL     1      28.048   3.707  42.525  1.00  0.00    -0.550 OA
ENDBRANCH  11  12
ENDBRANCH  10  11
ENDBRANCH   9  10
ENDBRANCH   8   9
ENDBRANCH   7   8
ENDBRANCH   6   7
ENDBRANCH   5   6
ENDBRANCH   4   5
ENDBRANCH   3   4
ENDBRANCH   2   3
ENDBRANCH   1   2
BRANCH   1  15
ATOM     15  C   UNL     1      32.654   5.767  42.453  1.00  0.00     0.000 C 
BRANCH  15  16
ATOM     16  C   UNL     1      33.867   6.194  41.605  1.00  0.00     0.000 C 
BRANCH  16  17
ATOM     17  C   UNL     1      34.169   7.701  41.713  1.00  0.00     0.000 C 
BRANCH  17  18
ATOM     18  C   UNL     1      33.482   8.418  42.892  1.00  0.00    -0.000 C 
BRANCH  18  19
ATOM     19  C   UNL     1      34.450   8.730  44.048  1.00  0.00    -0.000 C 
BRANCH  19  20
ATOM     20  C   UNL     1      34.051   8.022  45.353  1.00  0.00    -0.000 C 
BRANCH  20  21
ATOM     21  C   UNL     1      32.783   8.622  45.980  1.00  0.00    -0.000 C 
BRANCH  21  22
ATOM     22  C   UNL     1      31.909   7.528  46.610  1.00  0.00    -0.000 C 
BRANCH  22  23
ATOM     23  C   UNL     1      32.350   6.112  46.177  1.00  0.00    -0.000 C 
BRANCH  23  24
ATOM     24  C   UNL     1      31.524   4.987  46.826  1.00  0.00    -0.000 C 
BRANCH  24  25
ATOM     25  C   UNL     1      31.474   5.039  48.363  1.00  0.00    -0.003 C 
ATOM     26  C   UNL     1      31.998   3.761  49.019  1.00  0.00     0.004 C 
ENDBRANCH  24  25
ENDBRANCH  23  24
ENDBRANCH  22  23
ENDBRANCH  21  22
ENDBRANCH  20  21
ENDBRANCH  19  20
ENDBRANCH  18  19
ENDBRANCH  17  18
ENDBRANCH  16  17
ENDBRANCH  15  16
ENDBRANCH   1  15
TORSDOF 22
ENDMDL
MODEL 7
REMARK VINA RESULT:    -3.577     13.203     16.743
REMARK INTER + INTRA:         -12.108
REMARK INTER:                  -9.306
REMARK INTRA:                  -2.802
REMARK UNBOUND:                -3.932
REMARK SMILES CCCCCCCCCCCCCCCCCCCCCCCC(=O)[O-]
REMARK SMILES IDX 13 1 14 2 15 3 16 4 17 5 18 6 19 7 20 8 21 9 22 10 23 11
REMARK SMILES IDX 24 12 25 13 26 14 12 15 11 16 10 17 9 18 8 19 7 20 6 21 5 22
REMARK SMILES IDX 4 23 3 24 2 25 1 26
REMARK H PARENT
REMARK Flexibility Score: inf
ROOT
ATOM      1  C   UNL     1      29.990   8.130  39.112  1.00  0.00     0.000 C 
ENDROOT
BRANCH   1   2
ATOM      2  C   UNL     1      30.904   7.052  38.510  1.00  0.00     0.000 C 
BRANCH   2   3
ATOM      3  C   UNL     1      30.411   5.640  38.868  1.00  0.00     0.000 C 
BRANCH   3   4
ATOM      4  C   UNL     1      31.281   4.981  39.951  1.00  0.00     0.000 C 
BRANCH   4   5
ATOM      5  C   UNL     1      32.743   5.459  39.900  1.00  0.00     0.000 C 
BRANCH   5   6
ATOM      6  C   UNL     1      33.313   5.721  41.305  1.00  0.00     0.000 C 
BRANCH   6   7
ATOM      7  C   UNL     1      32.285   5.425  42.414  1.00  0.00     0.000 C 
BRANCH   7   8
ATOM      8  C   UNL     1      32.823   5.775  43.819  1.00  0.00     0.000 C 
BRANCH   8   9
ATOM      9  C   UNL     1      32.141   7.006  44.440  1.00  0.00     0.000 C 
BRANCH   9  10
ATOM     10  C   UNL     1      31.710   6.773  45.900  1.00  0.00     0.006 C 
BRANCH  10  11
ATOM     11  C   UNL     1      31.799   5.295  46.302  1.00  0.00     0.053 C 
BRANCH  11  12
ATOM     12  C   UNL     1      31.456   5.088  47.745  1.00  0.00     0.041 C 
ATOM     13  O   UNL     1      31.854   4.058  48.349  1.00  0.00    -0.550 OA
ATOM     14  O   UNL     1      30.642   6.001  48.406  1.00  0.00    -0.550 OA
ENDBRANCH  11  12
ENDBRANCH  10  11
ENDBRANCH   9  10
ENDBRANCH   8   9
ENDBRANCH   7   8
ENDBRANCH   6   7
ENDBRANCH   5   6
ENDBRANCH   4   5
ENDBRANCH   3   4
ENDBRANCH   2   3
ENDBRANCH   1   2
BRANCH   1  15
ATOM     15  C   UNL     1      30.511   8.675  40.453  1.00  0.00     0.000 C 
BRANCH  15  16
ATOM     16  C   UNL     1      29.822   8.026  41.668  1.00  0.00     0.000 C 
BRANCH  16  17
ATOM     17  C   UNL     1      28.290   8.190  41.643  1.00  0.00     0.000 C 
BRANCH  17  18
ATOM     18  C   UNL     1      27.495   6.873  41.736  1.00  0.00    -0.000 C 
BRANCH  18  19
ATOM     19  C   UNL     1      28.398   5.640  41.918  1.00  0.00    -0.000 C 
BRANCH  19  20
ATOM     20  C   UNL     1      27.654   4.323  41.639  1.00  0.00    -0.000 C 
BRANCH  20  21
ATOM     21  C   UNL     1      26.243   4.557  41.079  1.00  0.00    -0.000 C 
BRANCH  21  22
ATOM     22  C   UNL     1      25.868   3.471  40.060  1.00  0.00    -0.000 C 
BRANCH  22  23
ATOM     23  C   UNL     1      24.577   2.721  40.460  1.00  0.00    -0.000 C 
BRANCH  23  24
ATOM     24  C   UNL     1      24.163   1.633  39.454  1.00  0.00    -0.000 C 
BRANCH  24  25
ATOM     25  C   UNL     1      22.910   1.971  38.629  1.00  0.00    -0.003 C 
ATOM     26  C   UNL     1      21.720   2.386  39.495  1.00  0.00     0.004 C 
ENDBRANCH  24  25
ENDBRANCH  23  24
ENDBRANCH  22  23
ENDBRANCH  21  22
ENDBRANCH  20  21
ENDBRANCH  19  20
ENDBRANCH  18  19
ENDBRANCH  17  18
ENDBRANCH  16  17
ENDBRANCH  15  16
ENDBRANCH   1  15
TORSDOF 22
ENDMDL
MODEL 8
REMARK VINA RESULT:    -3.541      2.880      5.463
REMARK INTER + INTRA:         -12.026
REMARK INTER:                  -8.563
REMARK INTRA:                  -3.463
REMARK UNBOUND:                -3.932
REMARK SMILES CCCCCCCCCCCCCCCCCCCCCCCC(=O)[O-]
REMARK SMILES IDX 13 1 14 2 15 3 16 4 17 5 18 6 19 7 20 8 21 9 22 10 23 11
REMARK SMILES IDX 24 12 25 13 26 14 12 15 11 16 10 17 9 18 8 19 7 20 6 21 5 22
REMARK SMILES IDX 4 23 3 24 2 25 1 26
REMARK H PARENT
REMARK Flexibility Score: inf
ROOT
ATOM      1  C   UNL     1      21.702  -6.854  45.357  1.00  0.00     0.000 C 
ENDROOT
BRANCH   1   2
ATOM      2  C   UNL     1      21.092  -8.075  46.061  1.00  0.00     0.000 C 
BRANCH   2   3
ATOM      3  C   UNL     1      19.597  -7.863  46.349  1.00  0.00     0.000 C 
BRANCH   3   4
ATOM      4  C   UNL     1      19.360  -7.201  47.717  1.00  0.00     0.000 C 
BRANCH   4   5
ATOM      5  C   UNL     1      18.504  -5.926  47.611  1.00  0.00     0.000 C 
BRANCH   5   6
ATOM      6  C   UNL     1      19.369  -4.655  47.549  1.00  0.00     0.000 C 
BRANCH   6   7
ATOM      7  C   UNL     1      19.427  -4.060  46.128  1.00  0.00     0.000 C 
BRANCH   7   8
ATOM      8  C   UNL     1      20.733  -3.274  45.877  1.00  0.00     0.000 C 
BRANCH   8   9
ATOM      9  C   UNL     1      21.507  -2.954  47.166  1.00  0.00     0.000 C 
BRANCH   9  10
ATOM     10  C   UNL     1      22.984  -2.609  46.903  1.00  0.00     0.006 C 
BRANCH  10  11
ATOM     11  C   UNL     1      23.728  -2.232  48.191  1.00  0.00     0.053 C 
BRANCH  11  12
ATOM     12  C   UNL     1      25.215  -2.272  48.007  1.00  0.00     0.041 C 
ATOM     13  O   UNL     1      25.724  -3.023  47.134  1.00  0.00    -0.550 OA
ATOM     14  O   UNL     1      26.041  -1.530  48.843  1.00  0.00    -0.550 OA
ENDBRANCH  11  12
ENDBRANCH  10  11
ENDBRANCH   9  10
ENDBRANCH   8   9
ENDBRANCH   7   8
ENDBRANCH   6   7
ENDBRANCH   5   6
ENDBRANCH   4   5
ENDBRANCH   3   4
ENDBRANCH   2   3
ENDBRANCH   1   2
BRANCH   1  15
ATOM     15  C   UNL     1      22.904  -6.265  46.115  1.00  0.00     0.000 C 
BRANCH  15  16
ATOM     16  C   UNL     1      23.169  -6.975  47.456  1.00  0.00     0.000 C 
BRANCH  16  17
ATOM     17  C   UNL     1      23.482  -5.991  48.600  1.00  0.00     0.000 C 
BRANCH  17  18
ATOM     18  C   UNL     1      22.301  -5.701  49.547  1.00  0.00    -0.000 C 
BRANCH  18  19
ATOM     19  C   UNL     1      22.644  -5.952  51.026  1.00  0.00    -0.000 C 
BRANCH  19  20
ATOM     20  C   UNL     1      23.893  -5.175  51.478  1.00  0.00    -0.000 C 
BRANCH  20  21
ATOM     21  C   UNL     1      24.352  -5.578  52.887  1.00  0.00    -0.000 C 
BRANCH  21  22
ATOM     22  C   UNL     1      23.493  -4.894  53.962  1.00  0.00    -0.000 C 
BRANCH  22  23
ATOM     23  C   UNL     1      23.291  -3.389  53.672  1.00  0.00    -0.000 C 
BRANCH  23  24
ATOM     24  C   UNL     1      23.635  -2.484  54.868  1.00  0.00    -0.000 C 
BRANCH  24  25
ATOM     25  C   UNL     1      23.208  -3.043  56.236  1.00  0.00    -0.003 C 
ATOM     26  C   UNL     1      24.369  -3.153  57.224  1.00  0.00     0.004 C 
ENDBRANCH  24  25
ENDBRANCH  23  24
ENDBRANCH  22  23
ENDBRANCH  21  22
ENDBRANCH  20  21
ENDBRANCH  19  20
ENDBRANCH  18  19
ENDBRANCH  17  18
ENDBRANCH  16  17
ENDBRANCH  15  16
ENDBRANCH   1  15
TORSDOF 22
ENDMDL
MODEL 9
REMARK VINA RESULT:    -3.439      7.489     11.836
REMARK INTER + INTRA:         -11.794
REMARK INTER:                  -7.885
REMARK INTRA:                  -3.909
REMARK UNBOUND:                -3.932
REMARK SMILES CCCCCCCCCCCCCCCCCCCCCCCC(=O)[O-]
REMARK SMILES IDX 13 1 14 2 15 3 16 4 17 5 18 6 19 7 20 8 21 9 22 10 23 11
REMARK SMILES IDX 24 12 25 13 26 14 12 15 11 16 10 17 9 18 8 19 7 20 6 21 5 22
REMARK SMILES IDX 4 23 3 24 2 25 1 26
REMARK H PARENT
REMARK Flexibility Score: inf
ROOT
ATOM      1  C   UNL     1      17.050   0.118  45.978  1.00  0.00     0.000 C 
ENDROOT
BRANCH   1   2
ATOM      2  C   UNL     1      17.927  -0.922  46.691  1.00  0.00     0.000 C 
BRANCH   2   3
ATOM      3  C   UNL     1      18.994  -0.246  47.567  1.00  0.00     0.000 C 
BRANCH   3   4
ATOM      4  C   UNL     1      19.097   1.264  47.292  1.00  0.00     0.000 C 
BRANCH   4   5
ATOM      5  C   UNL     1      20.489   1.674  46.783  1.00  0.00     0.000 C 
BRANCH   5   6
ATOM      6  C   UNL     1      20.513   1.862  45.256  1.00  0.00     0.000 C 
BRANCH   6   7
ATOM      7  C   UNL     1      20.872   0.559  44.516  1.00  0.00     0.000 C 
BRANCH   7   8
ATOM      8  C   UNL     1      22.193  -0.059  45.027  1.00  0.00     0.000 C 
BRANCH   8   9
ATOM      9  C   UNL     1      22.005  -1.441  45.674  1.00  0.00     0.000 C 
BRANCH   9  10
ATOM     10  C   UNL     1      20.865  -2.250  45.029  1.00  0.00     0.006 C 
BRANCH  10  11
ATOM     11  C   UNL     1      20.907  -3.730  45.430  1.00  0.00     0.053 C 
BRANCH  11  12
ATOM     12  C   UNL     1      20.081  -4.001  46.651  1.00  0.00     0.041 C 
ATOM     13  O   UNL     1      18.859  -4.282  46.538  1.00  0.00    -0.550 OA
ATOM     14  O   UNL     1      20.645  -3.879  47.915  1.00  0.00    -0.550 OA
ENDBRANCH  11  12
ENDBRANCH  10  11
ENDBRANCH   9  10
ENDBRANCH   8   9
ENDBRANCH   7   8
ENDBRANCH   6   7
ENDBRANCH   5   6
ENDBRANCH   4   5
ENDBRANCH   3   4
ENDBRANCH   2   3
ENDBRANCH   1   2
BRANCH   1  15
ATOM     15  C   UNL     1      17.241   0.115  44.451  1.00  0.00     0.000 C 
BRANCH  15  16
ATOM     16  C   UNL     1      17.026   1.503  43.821  1.00  0.00     0.000 C 
BRANCH  16  17
ATOM     17  C   UNL     1      17.974   1.773  42.636  1.00  0.00     0.000 C 
BRANCH  17  18
ATOM     18  C   UNL     1      17.938   3.215  42.093  1.00  0.00    -0.000 C 
BRANCH  18  19
ATOM     19  C   UNL     1      19.282   3.948  42.253  1.00  0.00    -0.000 C 
BRANCH  19  20
ATOM     20  C   UNL     1      20.449   3.176  41.614  1.00  0.00    -0.000 C 
BRANCH  20  21
ATOM     21  C   UNL     1      21.789   3.912  41.767  1.00  0.00    -0.000 C 
BRANCH  21  22
ATOM     22  C   UNL     1      22.798   3.062  42.553  1.00  0.00    -0.000 C 
BRANCH  22  23
ATOM     23  C   UNL     1      23.134   1.740  41.826  1.00  0.00    -0.000 C 
BRANCH  23  24
ATOM     24  C   UNL     1      24.008   1.935  40.574  1.00  0.00    -0.000 C 
BRANCH  24  25
ATOM     25  C   UNL     1      23.611   1.054  39.377  1.00  0.00    -0.003 C 
ATOM     26  C   UNL     1      22.535   1.693  38.498  1.00  0.00     0.004 C 
ENDBRANCH  24  25
ENDBRANCH  23  24
ENDBRANCH  22  23
ENDBRANCH  21  22
ENDBRANCH  20  21
ENDBRANCH  19  20
ENDBRANCH  18  19
ENDBRANCH  17  18
ENDBRANCH  16  17
ENDBRANCH  15  16
ENDBRANCH   1  15
TORSDOF 22
ENDMDL
