MODEL 1
REMARK VINA RESULT:    -7.810      0.000      0.000
REMARK INTER + INTRA:         -12.397
REMARK INTER:                 -11.234
REMARK INTRA:                  -1.163
REMARK UNBOUND:                -1.163
REMARK SMILES O=c1c(O[C@@H]2O[C@@H](CO)[C@@H](O)[C@@H](O)[C@H]2O)c(-c2ccc(O)cc2)oc2cc(O)cc(O)c12
REMARK SMILES IDX 4 1 3 2 16 3 24 4 2 5 25 6 1 7 32 8 26 9 30 10 27 11 29 12
REMARK SMILES IDX 17 13 18 14 19 15 20 16 23 17 22 18 21 19 31 21 28 23 5 25
REMARK SMILES IDX 14 26 6 27 12 28 7 29 10 30 15 31 13 33 8 35 9 36 11 38
REMARK H PARENT 21 20 31 22 28 24 15 32 13 34 9 37 11 39
REMARK Flexibility Score: inf
ROOT
ATOM      1  O   UNL     1     -37.898   5.205  82.223  1.00  0.00    -0.454 OA
ENDROOT
BRANCH   1   2
ATOM      2  C   UNL     1     -38.735   4.746  81.186  1.00  0.00     0.214 A 
ATOM      3  C   UNL     1     -38.220   4.748  79.874  1.00  0.00     0.180 A 
ATOM      4  O   UNL     1     -38.942   4.264  78.872  1.00  0.00    -0.452 OA
ATOM      5  C   UNL     1     -40.044   4.248  81.388  1.00  0.00     0.239 A 
ATOM      6  C   UNL     1     -40.177   3.806  79.015  1.00  0.00     0.146 A 
ATOM      7  O   UNL     1     -40.498   4.140  82.555  1.00  0.00    -0.285 OA
ATOM      8  C   UNL     1     -40.815   3.822  80.279  1.00  0.00     0.111 A 
ATOM      9  C   UNL     1     -40.835   3.300  77.891  1.00  0.00     0.094 A 
ATOM     10  C   UNL     1     -42.166   3.369  80.364  1.00  0.00     0.134 A 
ATOM     11  C   UNL     1     -42.130   2.797  77.998  1.00  0.00     0.123 A 
ATOM     12  C   UNL     1     -42.787   2.831  79.230  1.00  0.00     0.093 A 
BRANCH   3  13
ATOM     13  C   UNL     1     -36.860   5.246  79.570  1.00  0.00     0.021 A 
ATOM     14  C   UNL     1     -36.660   6.617  79.342  1.00  0.00     0.016 A 
ATOM     15  C   UNL     1     -35.380   7.108  79.063  1.00  0.00     0.047 A 
ATOM     16  C   UNL     1     -34.285   6.237  79.025  1.00  0.00     0.115 A 
ATOM     17  C   UNL     1     -35.752   4.381  79.553  1.00  0.00     0.016 A 
ATOM     18  C   UNL     1     -34.474   4.874  79.274  1.00  0.00     0.047 A 
BRANCH  16  19
ATOM     19  O   UNL     1     -33.006   6.713  78.747  1.00  0.00    -0.508 OA
ATOM     20  H   UNL     1     -32.696   7.620  79.076  1.00  0.00     0.293 HD
ENDBRANCH  16  19
ENDBRANCH   3  13
BRANCH  10  21
ATOM     21  O   UNL     1     -42.947   3.458  81.520  1.00  0.00    -0.507 OA
ATOM     22  H   UNL     1     -43.352   4.314  81.872  1.00  0.00     0.293 HD
ENDBRANCH  10  21
BRANCH  11  23
ATOM     23  O   UNL     1     -42.760   2.275  76.870  1.00  0.00    -0.508 OA
ATOM     24  H   UNL     1     -42.474   2.538  75.934  1.00  0.00     0.293 HD
ENDBRANCH  11  23
ENDBRANCH   1   2
BRANCH   1  25
ATOM     25  C   UNL     1     -37.567   4.530  83.443  1.00  0.00     0.339 C 
ATOM     26  C   UNL     1     -36.467   3.479  83.180  1.00  0.00     0.214 C 
ATOM     27  O   UNL     1     -37.182   5.443  84.463  1.00  0.00    -0.332 OA
ATOM     28  C   UNL     1     -35.119   4.161  82.883  1.00  0.00     0.180 C 
ATOM     29  C   UNL     1     -36.036   6.191  84.089  1.00  0.00     0.179 C 
ATOM     30  C   UNL     1     -34.801   5.272  83.907  1.00  0.00     0.177 C 
BRANCH  26  31
ATOM     31  O   UNL     1     -36.344   2.621  84.286  1.00  0.00    -0.384 OA
ATOM     32  H   UNL     1     -36.969   1.865  84.137  1.00  0.00     0.211 HD
ENDBRANCH  26  31
BRANCH  28  33
ATOM     33  O   UNL     1     -34.094   3.199  82.860  1.00  0.00    -0.387 OA
ATOM     34  H   UNL     1     -33.434   3.502  82.183  1.00  0.00     0.211 HD
ENDBRANCH  28  33
BRANCH  29  35
ATOM     35  C   UNL     1     -35.788   7.296  85.125  1.00  0.00     0.191 C 
BRANCH  35  36
ATOM     36  O   UNL     1     -34.443   7.689  85.125  1.00  0.00    -0.394 OA
ATOM     37  H   UNL     1     -33.932   6.921  85.488  1.00  0.00     0.210 HD
ENDBRANCH  35  36
ENDBRANCH  29  35
BRANCH  30  38
ATOM     38  O   UNL     1     -34.345   4.731  85.125  1.00  0.00    -0.387 OA
ATOM     39  H   UNL     1     -35.134   4.476  85.668  1.00  0.00     0.211 HD
ENDBRANCH  30  38
ENDBRANCH   1  25
TORSDOF 11
ENDMDL
MODEL 2
REMARK VINA RESULT:    -6.932      2.951      7.506
REMARK INTER + INTRA:         -11.134
REMARK INTER:                 -10.111
REMARK INTRA:                  -1.024
REMARK UNBOUND:                -1.163
REMARK SMILES O=c1c(O[C@@H]2O[C@@H](CO)[C@@H](O)[C@@H](O)[C@H]2O)c(-c2ccc(O)cc2)oc2cc(O)cc(O)c12
REMARK SMILES IDX 4 1 3 2 16 3 24 4 2 5 25 6 1 7 32 8 26 9 30 10 27 11 29 12
REMARK SMILES IDX 17 13 18 14 19 15 20 16 23 17 22 18 21 19 31 21 28 23 5 25
REMARK SMILES IDX 14 26 6 27 12 28 7 29 10 30 15 31 13 33 8 35 9 36 11 38
REMARK H PARENT 21 20 31 22 28 24 15 32 13 34 9 37 11 39
REMARK Flexibility Score: inf
ROOT
ATOM      1  O   UNL     1     -38.759   4.744  78.553  1.00  0.00    -0.454 OA
ENDROOT
BRANCH   1   2
ATOM      2  C   UNL     1     -37.680   5.622  78.785  1.00  0.00     0.214 A 
ATOM      3  C   UNL     1     -37.954   7.004  78.834  1.00  0.00     0.180 A 
ATOM      4  O   UNL     1     -36.987   7.867  79.115  1.00  0.00    -0.452 OA
ATOM      5  C   UNL     1     -36.349   5.197  79.008  1.00  0.00     0.239 A 
ATOM      6  C   UNL     1     -35.725   7.513  79.312  1.00  0.00     0.146 A 
ATOM      7  O   UNL     1     -36.087   3.969  79.069  1.00  0.00    -0.285 OA
ATOM      8  C   UNL     1     -35.329   6.156  79.217  1.00  0.00     0.111 A 
ATOM      9  C   UNL     1     -34.794   8.507  79.623  1.00  0.00     0.094 A 
ATOM     10  C   UNL     1     -33.946   5.840  79.383  1.00  0.00     0.134 A 
ATOM     11  C   UNL     1     -33.459   8.178  79.850  1.00  0.00     0.123 A 
ATOM     12  C   UNL     1     -33.043   6.851  79.733  1.00  0.00     0.093 A 
BRANCH   3  13
ATOM     13  C   UNL     1     -39.317   7.538  78.616  1.00  0.00     0.021 A 
ATOM     14  C   UNL     1     -40.243   7.525  79.671  1.00  0.00     0.016 A 
ATOM     15  C   UNL     1     -41.532   8.036  79.488  1.00  0.00     0.047 A 
ATOM     16  C   UNL     1     -41.903   8.580  78.252  1.00  0.00     0.115 A 
ATOM     17  C   UNL     1     -39.689   8.108  77.386  1.00  0.00     0.016 A 
ATOM     18  C   UNL     1     -40.978   8.618  77.204  1.00  0.00     0.047 A 
BRANCH  16  19
ATOM     19  O   UNL     1     -43.184   9.090  78.056  1.00  0.00    -0.508 OA
ATOM     20  H   UNL     1     -43.903   9.005  78.766  1.00  0.00     0.293 HD
ENDBRANCH  16  19
ENDBRANCH   3  13
BRANCH  10  21
ATOM     21  O   UNL     1     -33.410   4.565  79.183  1.00  0.00    -0.507 OA
ATOM     22  H   UNL     1     -33.051   3.974  79.920  1.00  0.00     0.293 HD
ENDBRANCH  10  21
BRANCH  11  23
ATOM     23  O   UNL     1     -32.551   9.182  80.182  1.00  0.00    -0.508 OA
ATOM     24  H   UNL     1     -32.860  10.112  80.442  1.00  0.00     0.293 HD
ENDBRANCH  11  23
ENDBRANCH   1   2
BRANCH   1  25
ATOM     25  C   UNL     1     -38.990   3.466  79.156  1.00  0.00     0.339 C 
ATOM     26  C   UNL     1     -39.289   3.641  80.661  1.00  0.00     0.214 C 
ATOM     27  O   UNL     1     -40.029   2.752  78.498  1.00  0.00    -0.332 OA
ATOM     28  C   UNL     1     -40.672   4.285  80.872  1.00  0.00     0.180 C 
ATOM     29  C   UNL     1     -41.261   3.455  78.552  1.00  0.00     0.179 C 
ATOM     30  C   UNL     1     -41.759   3.603  80.012  1.00  0.00     0.177 C 
BRANCH  26  31
ATOM     31  O   UNL     1     -39.228   2.398  81.314  1.00  0.00    -0.384 OA
ATOM     32  H   UNL     1     -39.018   2.582  82.267  1.00  0.00     0.211 HD
ENDBRANCH  26  31
BRANCH  28  33
ATOM     33  O   UNL     1     -41.016   4.239  82.234  1.00  0.00    -0.387 OA
ATOM     34  H   UNL     1     -41.954   3.916  82.281  1.00  0.00     0.211 HD
ENDBRANCH  28  33
BRANCH  29  35
ATOM     35  C   UNL     1     -42.289   2.750  77.657  1.00  0.00     0.191 C 
BRANCH  35  36
ATOM     36  O   UNL     1     -43.593   2.997  78.105  1.00  0.00    -0.394 OA
ATOM     37  H   UNL     1     -43.524   3.160  79.081  1.00  0.00     0.210 HD
ENDBRANCH  35  36
ENDBRANCH  29  35
BRANCH  30  38
ATOM     38  O   UNL     1     -42.161   2.375  80.574  1.00  0.00    -0.387 OA
ATOM     39  H   UNL     1     -41.988   1.659  79.912  1.00  0.00     0.211 HD
ENDBRANCH  30  38
ENDBRANCH   1  25
TORSDOF 11
ENDMDL
MODEL 3
REMARK VINA RESULT:    -6.890      1.383      2.191
REMARK INTER + INTRA:         -11.073
REMARK INTER:                  -9.845
REMARK INTRA:                  -1.229
REMARK UNBOUND:                -1.163
REMARK SMILES O=c1c(O[C@@H]2O[C@@H](CO)[C@@H](O)[C@@H](O)[C@H]2O)c(-c2ccc(O)cc2)oc2cc(O)cc(O)c12
REMARK SMILES IDX 4 1 3 2 16 3 24 4 2 5 25 6 1 7 32 8 26 9 30 10 27 11 29 12
REMARK SMILES IDX 17 13 18 14 19 15 20 16 23 17 22 18 21 19 31 21 28 23 5 25
REMARK SMILES IDX 14 26 6 27 12 28 7 29 10 30 15 31 13 33 8 35 9 36 11 38
REMARK H PARENT 21 20 31 22 28 24 15 32 13 34 9 37 11 39
REMARK Flexibility Score: inf
ROOT
ATOM      1  O   UNL     1     -37.951   5.061  81.960  1.00  0.00    -0.454 OA
ENDROOT
BRANCH   1   2
ATOM      2  C   UNL     1     -38.811   4.619  80.934  1.00  0.00     0.214 A 
ATOM      3  C   UNL     1     -38.321   4.634  79.613  1.00  0.00     0.180 A 
ATOM      4  O   UNL     1     -39.066   4.167  78.619  1.00  0.00    -0.452 OA
ATOM      5  C   UNL     1     -40.119   4.128  81.156  1.00  0.00     0.239 A 
ATOM      6  C   UNL     1     -40.301   3.715  78.781  1.00  0.00     0.146 A 
ATOM      7  O   UNL     1     -40.550   4.009  82.331  1.00  0.00    -0.285 OA
ATOM      8  C   UNL     1     -40.914   3.720  80.058  1.00  0.00     0.111 A 
ATOM      9  C   UNL     1     -40.985   3.227  77.664  1.00  0.00     0.094 A 
ATOM     10  C   UNL     1     -42.267   3.275  80.163  1.00  0.00     0.134 A 
ATOM     11  C   UNL     1     -42.280   2.731  77.791  1.00  0.00     0.123 A 
ATOM     12  C   UNL     1     -42.913   2.754  79.035  1.00  0.00     0.093 A 
BRANCH   3  13
ATOM     13  C   UNL     1     -36.965   5.128  79.287  1.00  0.00     0.021 A 
ATOM     14  C   UNL     1     -35.845   4.505  79.862  1.00  0.00     0.016 A 
ATOM     15  C   UNL     1     -34.554   4.950  79.558  1.00  0.00     0.047 A 
ATOM     16  C   UNL     1     -34.369   6.012  78.663  1.00  0.00     0.115 A 
ATOM     17  C   UNL     1     -36.770   6.178  78.373  1.00  0.00     0.016 A 
ATOM     18  C   UNL     1     -35.479   6.621  78.070  1.00  0.00     0.047 A 
BRANCH  16  19
ATOM     19  O   UNL     1     -33.089   6.466  78.354  1.00  0.00    -0.508 OA
ATOM     20  H   UNL     1     -32.690   6.338  77.431  1.00  0.00     0.293 HD
ENDBRANCH  16  19
ENDBRANCH   3  13
BRANCH  10  21
ATOM     21  O   UNL     1     -43.023   3.355  81.336  1.00  0.00    -0.507 OA
ATOM     22  H   UNL     1     -42.706   3.044  82.243  1.00  0.00     0.293 HD
ENDBRANCH  10  21
BRANCH  11  23
ATOM     23  O   UNL     1     -42.936   2.226  76.669  1.00  0.00    -0.508 OA
ATOM     24  H   UNL     1     -43.365   2.840  75.986  1.00  0.00     0.293 HD
ENDBRANCH  11  23
ENDBRANCH   1   2
BRANCH   1  25
ATOM     25  C   UNL     1     -38.142   6.172  82.844  1.00  0.00     0.339 C 
ATOM     26  C   UNL     1     -37.339   5.953  84.145  1.00  0.00     0.214 C 
ATOM     27  O   UNL     1     -37.803   7.405  82.223  1.00  0.00    -0.332 OA
ATOM     28  C   UNL     1     -35.827   6.085  83.882  1.00  0.00     0.180 C 
ATOM     29  C   UNL     1     -36.442   7.433  81.827  1.00  0.00     0.179 C 
ATOM     30  C   UNL     1     -35.498   7.346  83.053  1.00  0.00     0.177 C 
BRANCH  26  31
ATOM     31  O   UNL     1     -37.744   6.876  85.124  1.00  0.00    -0.384 OA
ATOM     32  H   UNL     1     -38.043   7.692  84.645  1.00  0.00     0.211 HD
ENDBRANCH  26  31
BRANCH  28  33
ATOM     33  O   UNL     1     -35.131   6.097  85.102  1.00  0.00    -0.387 OA
ATOM     34  H   UNL     1     -34.523   6.882  85.076  1.00  0.00     0.211 HD
ENDBRANCH  28  33
BRANCH  29  35
ATOM     35  C   UNL     1     -36.182   8.689  80.984  1.00  0.00     0.191 C 
BRANCH  35  36
ATOM     36  O   UNL     1     -34.808   8.913  80.831  1.00  0.00    -0.394 OA
ATOM     37  H   UNL     1     -34.711   9.508  80.043  1.00  0.00     0.210 HD
ENDBRANCH  35  36
ENDBRANCH  29  35
BRANCH  30  38
ATOM     38  O   UNL     1     -35.537   8.507  83.850  1.00  0.00    -0.387 OA
ATOM     39  H   UNL     1     -34.674   8.983  83.750  1.00  0.00     0.211 HD
ENDBRANCH  30  38
ENDBRANCH   1  25
TORSDOF 11
ENDMDL
MODEL 4
REMARK VINA RESULT:    -6.758      2.184      6.527
REMARK INTER + INTRA:         -10.883
REMARK INTER:                  -9.672
REMARK INTRA:                  -1.212
REMARK UNBOUND:                -1.163
REMARK SMILES O=c1c(O[C@@H]2O[C@@H](CO)[C@@H](O)[C@@H](O)[C@H]2O)c(-c2ccc(O)cc2)oc2cc(O)cc(O)c12
REMARK SMILES IDX 4 1 3 2 16 3 24 4 2 5 25 6 1 7 32 8 26 9 30 10 27 11 29 12
REMARK SMILES IDX 17 13 18 14 19 15 20 16 23 17 22 18 21 19 31 21 28 23 5 25
REMARK SMILES IDX 14 26 6 27 12 28 7 29 10 30 15 31 13 33 8 35 9 36 11 38
REMARK H PARENT 21 20 31 22 28 24 15 32 13 34 9 37 11 39
REMARK Flexibility Score: inf
ROOT
ATOM      1  O   UNL     1     -37.554   4.154  81.491  1.00  0.00    -0.454 OA
ENDROOT
BRANCH   1   2
ATOM      2  C   UNL     1     -36.940   5.033  80.575  1.00  0.00     0.214 A 
ATOM      3  C   UNL     1     -37.482   5.115  79.277  1.00  0.00     0.180 A 
ATOM      4  O   UNL     1     -36.983   5.974  78.398  1.00  0.00    -0.452 OA
ATOM      5  C   UNL     1     -35.838   5.863  80.893  1.00  0.00     0.239 A 
ATOM      6  C   UNL     1     -35.942   6.756  78.649  1.00  0.00     0.146 A 
ATOM      7  O   UNL     1     -35.394   5.887  82.068  1.00  0.00    -0.285 OA
ATOM      8  C   UNL     1     -35.280   6.703  79.900  1.00  0.00     0.111 A 
ATOM      9  C   UNL     1     -35.516   7.640  77.654  1.00  0.00     0.094 A 
ATOM     10  C   UNL     1     -34.130   7.527  80.094  1.00  0.00     0.134 A 
ATOM     11  C   UNL     1     -34.434   8.488  77.879  1.00  0.00     0.123 A 
ATOM     12  C   UNL     1     -33.750   8.431  79.095  1.00  0.00     0.093 A 
BRANCH   3  13
ATOM     13  C   UNL     1     -38.634   4.287  78.857  1.00  0.00     0.021 A 
ATOM     14  C   UNL     1     -39.849   4.909  78.529  1.00  0.00     0.016 A 
ATOM     15  C   UNL     1     -40.947   4.144  78.119  1.00  0.00     0.047 A 
ATOM     16  C   UNL     1     -40.836   2.751  78.018  1.00  0.00     0.115 A 
ATOM     17  C   UNL     1     -38.523   2.891  78.731  1.00  0.00     0.016 A 
ATOM     18  C   UNL     1     -39.622   2.129  78.322  1.00  0.00     0.047 A 
BRANCH  16  19
ATOM     19  O   UNL     1     -41.922   1.979  77.614  1.00  0.00    -0.508 OA
ATOM     20  H   UNL     1     -42.594   2.323  76.937  1.00  0.00     0.293 HD
ENDBRANCH  16  19
ENDBRANCH   3  13
BRANCH  10  21
ATOM     21  O   UNL     1     -33.315   7.470  81.228  1.00  0.00    -0.507 OA
ATOM     22  H   UNL     1     -33.466   8.010  82.068  1.00  0.00     0.293 HD
ENDBRANCH  10  21
BRANCH  11  23
ATOM     23  O   UNL     1     -34.040   9.378  76.882  1.00  0.00    -0.508 OA
ATOM     24  H   UNL     1     -33.442   9.087  76.117  1.00  0.00     0.293 HD
ENDBRANCH  11  23
ENDBRANCH   1   2
BRANCH   1  25
ATOM     25  C   UNL     1     -38.260   4.494  82.690  1.00  0.00     0.339 C 
ATOM     26  C   UNL     1     -39.650   5.067  82.336  1.00  0.00     0.214 C 
ATOM     27  O   UNL     1     -38.363   3.385  83.574  1.00  0.00    -0.332 OA
ATOM     28  C   UNL     1     -40.574   3.962  81.792  1.00  0.00     0.180 C 
ATOM     29  C   UNL     1     -39.068   2.307  82.980  1.00  0.00     0.179 C 
ATOM     30  C   UNL     1     -40.538   2.697  82.677  1.00  0.00     0.177 C 
BRANCH  26  31
ATOM     31  O   UNL     1     -40.226   5.668  83.468  1.00  0.00    -0.384 OA
ATOM     32  H   UNL     1     -40.420   6.611  83.228  1.00  0.00     0.211 HD
ENDBRANCH  26  31
BRANCH  28  33
ATOM     33  O   UNL     1     -41.886   4.451  81.681  1.00  0.00    -0.387 OA
ATOM     34  H   UNL     1     -41.816   5.387  81.355  1.00  0.00     0.211 HD
ENDBRANCH  28  33
BRANCH  29  35
ATOM     35  C   UNL     1     -38.971   1.073  83.887  1.00  0.00     0.191 C 
BRANCH  35  36
ATOM     36  O   UNL     1     -39.815   0.051  83.433  1.00  0.00    -0.394 OA
ATOM     37  H   UNL     1     -40.729   0.436  83.416  1.00  0.00     0.210 HD
ENDBRANCH  35  36
ENDBRANCH  29  35
BRANCH  30  38
ATOM     38  O   UNL     1     -41.304   2.867  83.846  1.00  0.00    -0.387 OA
ATOM     39  H   UNL     1     -41.080   3.748  84.240  1.00  0.00     0.211 HD
ENDBRANCH  30  38
ENDBRANCH   1  25
TORSDOF 11
ENDMDL
MODEL 5
REMARK VINA RESULT:    -6.632      1.330      2.509
REMARK INTER + INTRA:         -10.703
REMARK INTER:                  -9.762
REMARK INTRA:                  -0.941
REMARK UNBOUND:                -1.163
REMARK SMILES O=c1c(O[C@@H]2O[C@@H](CO)[C@@H](O)[C@@H](O)[C@H]2O)c(-c2ccc(O)cc2)oc2cc(O)cc(O)c12
REMARK SMILES IDX 4 1 3 2 16 3 24 4 2 5 25 6 1 7 32 8 26 9 30 10 27 11 29 12
REMARK SMILES IDX 17 13 18 14 19 15 20 16 23 17 22 18 21 19 31 21 28 23 5 25
REMARK SMILES IDX 14 26 6 27 12 28 7 29 10 30 15 31 13 33 8 35 9 36 11 38
REMARK H PARENT 21 20 31 22 28 24 15 32 13 34 9 37 11 39
REMARK Flexibility Score: inf
ROOT
ATOM      1  O   UNL     1     -38.342   6.021  81.469  1.00  0.00    -0.454 OA
ENDROOT
BRANCH   1   2
ATOM      2  C   UNL     1     -39.183   5.328  80.575  1.00  0.00     0.214 A 
ATOM      3  C   UNL     1     -38.806   5.280  79.219  1.00  0.00     0.180 A 
ATOM      4  O   UNL     1     -39.528   4.585  78.349  1.00  0.00    -0.452 OA
ATOM      5  C   UNL     1     -40.361   4.647  80.966  1.00  0.00     0.239 A 
ATOM      6  C   UNL     1     -40.646   3.949  78.669  1.00  0.00     0.146 A 
ATOM      7  O   UNL     1     -40.674   4.587  82.182  1.00  0.00    -0.285 OA
ATOM      8  C   UNL     1     -41.151   3.990  79.991  1.00  0.00     0.111 A 
ATOM      9  C   UNL     1     -41.313   3.230  77.673  1.00  0.00     0.094 A 
ATOM     10  C   UNL     1     -42.389   3.335  80.266  1.00  0.00     0.134 A 
ATOM     11  C   UNL     1     -42.484   2.537  77.968  1.00  0.00     0.123 A 
ATOM     12  C   UNL     1     -43.014   2.589  79.258  1.00  0.00     0.093 A 
BRANCH   3  13
ATOM     13  C   UNL     1     -37.589   5.959  78.721  1.00  0.00     0.021 A 
ATOM     14  C   UNL     1     -36.418   5.215  78.510  1.00  0.00     0.016 A 
ATOM     15  C   UNL     1     -35.261   5.837  78.030  1.00  0.00     0.047 A 
ATOM     16  C   UNL     1     -35.267   7.207  77.741  1.00  0.00     0.115 A 
ATOM     17  C   UNL     1     -37.595   7.330  78.407  1.00  0.00     0.016 A 
ATOM     18  C   UNL     1     -36.437   7.950  77.928  1.00  0.00     0.047 A 
BRANCH  16  19
ATOM     19  O   UNL     1     -34.121   7.839  77.265  1.00  0.00    -0.508 OA
ATOM     20  H   UNL     1     -33.945   8.821  77.443  1.00  0.00     0.293 HD
ENDBRANCH  16  19
ENDBRANCH   3  13
BRANCH  10  21
ATOM     21  O   UNL     1     -43.057   3.413  81.491  1.00  0.00    -0.507 OA
ATOM     22  H   UNL     1     -42.694   3.056  82.363  1.00  0.00     0.293 HD
ENDBRANCH  10  21
BRANCH  11  23
ATOM     23  O   UNL     1     -43.121   1.807  76.966  1.00  0.00    -0.508 OA
ATOM     24  H   UNL     1     -42.605   1.191  76.350  1.00  0.00     0.293 HD
ENDBRANCH  11  23
ENDBRANCH   1   2
BRANCH   1  25
ATOM     25  C   UNL     1     -36.968   5.745  81.769  1.00  0.00     0.339 C 
ATOM     26  C   UNL     1     -36.355   6.925  82.555  1.00  0.00     0.214 C 
ATOM     27  O   UNL     1     -36.817   4.517  82.469  1.00  0.00    -0.332 OA
ATOM     28  C   UNL     1     -36.928   6.986  83.983  1.00  0.00     0.180 C 
ATOM     29  C   UNL     1     -37.506   4.535  83.709  1.00  0.00     0.179 C 
ATOM     30  C   UNL     1     -36.914   5.600  84.666  1.00  0.00     0.177 C 
BRANCH  26  31
ATOM     31  O   UNL     1     -34.956   6.802  82.598  1.00  0.00    -0.384 OA
ATOM     32  H   UNL     1     -34.580   7.690  82.364  1.00  0.00     0.211 HD
ENDBRANCH  26  31
BRANCH  28  33
ATOM     33  O   UNL     1     -36.208   7.921  84.745  1.00  0.00    -0.387 OA
ATOM     34  H   UNL     1     -35.299   7.543  84.878  1.00  0.00     0.211 HD
ENDBRANCH  28  33
BRANCH  29  35
ATOM     35  C   UNL     1     -37.485   3.128  84.323  1.00  0.00     0.191 C 
BRANCH  35  36
ATOM     36  O   UNL     1     -36.243   2.513  84.120  1.00  0.00    -0.394 OA
ATOM     37  H   UNL     1     -36.126   2.445  83.137  1.00  0.00     0.210 HD
ENDBRANCH  35  36
ENDBRANCH  29  35
BRANCH  30  38
ATOM     38  O   UNL     1     -35.623   5.264  85.117  1.00  0.00    -0.387 OA
ATOM     39  H   UNL     1     -35.654   5.159  86.102  1.00  0.00     0.211 HD
ENDBRANCH  30  38
ENDBRANCH   1  25
TORSDOF 11
ENDMDL
MODEL 6
REMARK VINA RESULT:    -6.515      2.103      7.002
REMARK INTER + INTRA:         -10.535
REMARK INTER:                  -9.223
REMARK INTRA:                  -1.312
REMARK UNBOUND:                -1.163
REMARK SMILES O=c1c(O[C@@H]2O[C@@H](CO)[C@@H](O)[C@@H](O)[C@H]2O)c(-c2ccc(O)cc2)oc2cc(O)cc(O)c12
REMARK SMILES IDX 4 1 3 2 16 3 24 4 2 5 25 6 1 7 32 8 26 9 30 10 27 11 29 12
REMARK SMILES IDX 17 13 18 14 19 15 20 16 23 17 22 18 21 19 31 21 28 23 5 25
REMARK SMILES IDX 14 26 6 27 12 28 7 29 10 30 15 31 13 33 8 35 9 36 11 38
REMARK H PARENT 21 20 31 22 28 24 15 32 13 34 9 37 11 39
REMARK Flexibility Score: inf
ROOT
ATOM      1  O   UNL     1     -38.831   4.991  81.422  1.00  0.00    -0.454 OA
ENDROOT
BRANCH   1   2
ATOM      2  C   UNL     1     -37.572   5.578  81.665  1.00  0.00     0.214 A 
ATOM      3  C   UNL     1     -37.046   6.439  80.682  1.00  0.00     0.180 A 
ATOM      4  O   UNL     1     -35.897   7.069  80.891  1.00  0.00    -0.452 OA
ATOM      5  C   UNL     1     -36.825   5.384  82.852  1.00  0.00     0.239 A 
ATOM      6  C   UNL     1     -35.159   6.902  81.979  1.00  0.00     0.146 A 
ATOM      7  O   UNL     1     -37.310   4.701  83.790  1.00  0.00    -0.285 OA
ATOM      8  C   UNL     1     -35.562   6.005  82.998  1.00  0.00     0.111 A 
ATOM      9  C   UNL     1     -33.975   7.634  82.100  1.00  0.00     0.094 A 
ATOM     10  C   UNL     1     -34.699   5.822  84.121  1.00  0.00     0.134 A 
ATOM     11  C   UNL     1     -33.174   7.498  83.232  1.00  0.00     0.123 A 
ATOM     12  C   UNL     1     -33.539   6.599  84.236  1.00  0.00     0.093 A 
BRANCH   3  13
ATOM     13  C   UNL     1     -37.759   6.704  79.413  1.00  0.00     0.021 A 
ATOM     14  C   UNL     1     -38.837   7.603  79.398  1.00  0.00     0.016 A 
ATOM     15  C   UNL     1     -39.517   7.874  78.206  1.00  0.00     0.047 A 
ATOM     16  C   UNL     1     -39.115   7.261  77.012  1.00  0.00     0.115 A 
ATOM     17  C   UNL     1     -37.347   6.110  78.206  1.00  0.00     0.016 A 
ATOM     18  C   UNL     1     -38.027   6.383  77.016  1.00  0.00     0.047 A 
BRANCH  16  19
ATOM     19  O   UNL     1     -39.784   7.521  75.819  1.00  0.00    -0.508 OA
ATOM     20  H   UNL     1     -39.695   6.909  75.017  1.00  0.00     0.293 HD
ENDBRANCH  16  19
ENDBRANCH   3  13
BRANCH  10  21
ATOM     21  O   UNL     1     -34.917   4.874  85.124  1.00  0.00    -0.507 OA
ATOM     22  H   UNL     1     -35.230   5.093  86.059  1.00  0.00     0.293 HD
ENDBRANCH  10  21
BRANCH  11  23
ATOM     23  O   UNL     1     -32.010   8.256  83.345  1.00  0.00    -0.508 OA
ATOM     24  H   UNL     1     -31.157   7.863  83.726  1.00  0.00     0.293 HD
ENDBRANCH  11  23
ENDBRANCH   1   2
BRANCH   1  25
ATOM     25  C   UNL     1     -39.148   3.595  81.363  1.00  0.00     0.339 C 
ATOM     26  C   UNL     1     -40.272   3.269  82.370  1.00  0.00     0.214 C 
ATOM     27  O   UNL     1     -39.494   3.188  80.045  1.00  0.00    -0.332 OA
ATOM     28  C   UNL     1     -41.614   3.862  81.903  1.00  0.00     0.180 C 
ATOM     29  C   UNL     1     -40.634   3.884  79.567  1.00  0.00     0.179 C 
ATOM     30  C   UNL     1     -41.890   3.555  80.415  1.00  0.00     0.177 C 
BRANCH  26  31
ATOM     31  O   UNL     1     -40.387   1.877  82.531  1.00  0.00    -0.384 OA
ATOM     32  H   UNL     1     -39.712   1.460  81.934  1.00  0.00     0.211 HD
ENDBRANCH  26  31
BRANCH  28  33
ATOM     33  O   UNL     1     -42.656   3.377  82.711  1.00  0.00    -0.387 OA
ATOM     34  H   UNL     1     -43.032   4.160  83.193  1.00  0.00     0.211 HD
ENDBRANCH  28  33
BRANCH  29  35
ATOM     35  C   UNL     1     -40.839   3.564  78.080  1.00  0.00     0.191 C 
BRANCH  35  36
ATOM     36  O   UNL     1     -40.541   2.221  77.813  1.00  0.00    -0.394 OA
ATOM     37  H   UNL     1     -39.569   2.117  77.975  1.00  0.00     0.210 HD
ENDBRANCH  35  36
ENDBRANCH  29  35
BRANCH  30  38
ATOM     38  O   UNL     1     -42.329   2.228  80.239  1.00  0.00    -0.387 OA
ATOM     39  H   UNL     1     -42.847   2.181  79.396  1.00  0.00     0.211 HD
ENDBRANCH  30  38
ENDBRANCH   1  25
TORSDOF 11
ENDMDL
MODEL 7
REMARK VINA RESULT:    -6.367      2.750      5.392
REMARK INTER + INTRA:         -10.322
REMARK INTER:                  -8.761
REMARK INTRA:                  -1.561
REMARK UNBOUND:                -1.163
REMARK SMILES O=c1c(O[C@@H]2O[C@@H](CO)[C@@H](O)[C@@H](O)[C@H]2O)c(-c2ccc(O)cc2)oc2cc(O)cc(O)c12
REMARK SMILES IDX 4 1 3 2 16 3 24 4 2 5 25 6 1 7 32 8 26 9 30 10 27 11 29 12
REMARK SMILES IDX 17 13 18 14 19 15 20 16 23 17 22 18 21 19 31 21 28 23 5 25
REMARK SMILES IDX 14 26 6 27 12 28 7 29 10 30 15 31 13 33 8 35 9 36 11 38
REMARK H PARENT 21 20 31 22 28 24 15 32 13 34 9 37 11 39
REMARK Flexibility Score: inf
ROOT
ATOM      1  O   UNL     1     -36.830   6.187  79.863  1.00  0.00    -0.454 OA
ENDROOT
BRANCH   1   2
ATOM      2  C   UNL     1     -37.920   5.580  80.521  1.00  0.00     0.214 A 
ATOM      3  C   UNL     1     -39.213   5.834  80.024  1.00  0.00     0.180 A 
ATOM      4  O   UNL     1     -40.266   5.235  80.564  1.00  0.00    -0.452 OA
ATOM      5  C   UNL     1     -37.788   4.703  81.624  1.00  0.00     0.239 A 
ATOM      6  C   UNL     1     -40.189   4.421  81.608  1.00  0.00     0.146 A 
ATOM      7  O   UNL     1     -36.644   4.378  82.030  1.00  0.00    -0.285 OA
ATOM      8  C   UNL     1     -38.944   4.152  82.228  1.00  0.00     0.111 A 
ATOM      9  C   UNL     1     -41.363   3.829  82.080  1.00  0.00     0.094 A 
ATOM     10  C   UNL     1     -38.929   3.314  83.383  1.00  0.00     0.134 A 
ATOM     11  C   UNL     1     -41.327   2.959  83.167  1.00  0.00     0.123 A 
ATOM     12  C   UNL     1     -40.114   2.703  83.810  1.00  0.00     0.093 A 
BRANCH   3  13
ATOM     13  C   UNL     1     -39.445   6.735  78.873  1.00  0.00     0.021 A 
ATOM     14  C   UNL     1     -39.168   6.283  77.573  1.00  0.00     0.016 A 
ATOM     15  C   UNL     1     -39.391   7.116  76.472  1.00  0.00     0.047 A 
ATOM     16  C   UNL     1     -39.910   8.404  76.657  1.00  0.00     0.115 A 
ATOM     17  C   UNL     1     -39.988   8.020  79.050  1.00  0.00     0.016 A 
ATOM     18  C   UNL     1     -40.210   8.851  77.948  1.00  0.00     0.047 A 
BRANCH  16  19
ATOM     19  O   UNL     1     -40.134   9.244  75.569  1.00  0.00    -0.508 OA
ATOM     20  H   UNL     1     -39.388   9.493  74.930  1.00  0.00     0.293 HD
ENDBRANCH  16  19
ENDBRANCH   3  13
BRANCH  10  21
ATOM     21  O   UNL     1     -37.790   3.080  84.159  1.00  0.00    -0.507 OA
ATOM     22  H   UNL     1     -37.231   3.804  84.587  1.00  0.00     0.293 HD
ENDBRANCH  10  21
BRANCH  11  23
ATOM     23  O   UNL     1     -42.506   2.360  83.608  1.00  0.00    -0.508 OA
ATOM     24  H   UNL     1     -42.912   1.569  83.123  1.00  0.00     0.293 HD
ENDBRANCH  11  23
ENDBRANCH   1   2
BRANCH   1  25
ATOM     25  C   UNL     1     -36.024   7.277  80.330  1.00  0.00     0.339 C 
ATOM     26  C   UNL     1     -34.530   6.897  80.247  1.00  0.00     0.214 C 
ATOM     27  O   UNL     1     -36.297   8.477  79.618  1.00  0.00    -0.332 OA
ATOM     28  C   UNL     1     -34.062   6.833  78.781  1.00  0.00     0.180 C 
ATOM     29  C   UNL     1     -36.026   8.336  78.233  1.00  0.00     0.179 C 
ATOM     30  C   UNL     1     -34.520   8.071  77.979  1.00  0.00     0.177 C 
BRANCH  26  31
ATOM     31  O   UNL     1     -33.755   7.825  80.964  1.00  0.00    -0.384 OA
ATOM     32  H   UNL     1     -34.035   7.762  81.914  1.00  0.00     0.211 HD
ENDBRANCH  26  31
BRANCH  28  33
ATOM     33  O   UNL     1     -32.664   6.700  78.733  1.00  0.00    -0.387 OA
ATOM     34  H   UNL     1     -32.318   6.999  79.614  1.00  0.00     0.211 HD
ENDBRANCH  28  33
BRANCH  29  35
ATOM     35  C   UNL     1     -36.530   9.579  77.487  1.00  0.00     0.191 C 
BRANCH  35  36
ATOM     36  O   UNL     1     -35.612   9.979  76.506  1.00  0.00    -0.394 OA
ATOM     37  H   UNL     1     -34.907  10.490  76.981  1.00  0.00     0.210 HD
ENDBRANCH  35  36
ENDBRANCH  29  35
BRANCH  30  38
ATOM     38  O   UNL     1     -33.718   9.192  78.266  1.00  0.00    -0.387 OA
ATOM     39  H   UNL     1     -33.532   9.667  77.416  1.00  0.00     0.211 HD
ENDBRANCH  30  38
ENDBRANCH   1  25
TORSDOF 11
ENDMDL
MODEL 8
REMARK VINA RESULT:    -6.164      3.077      7.307
REMARK INTER + INTRA:         -10.029
REMARK INTER:                  -9.256
REMARK INTRA:                  -0.773
REMARK UNBOUND:                -1.163
REMARK SMILES O=c1c(O[C@@H]2O[C@@H](CO)[C@@H](O)[C@@H](O)[C@H]2O)c(-c2ccc(O)cc2)oc2cc(O)cc(O)c12
REMARK SMILES IDX 4 1 3 2 16 3 24 4 2 5 25 6 1 7 32 8 26 9 30 10 27 11 29 12
REMARK SMILES IDX 17 13 18 14 19 15 20 16 23 17 22 18 21 19 31 21 28 23 5 25
REMARK SMILES IDX 14 26 6 27 12 28 7 29 10 30 15 31 13 33 8 35 9 36 11 38
REMARK H PARENT 21 20 31 22 28 24 15 32 13 34 9 37 11 39
REMARK Flexibility Score: inf
ROOT
ATOM      1  O   UNL     1     -38.509   5.622  78.043  1.00  0.00    -0.454 OA
ENDROOT
BRANCH   1   2
ATOM      2  C   UNL     1     -37.415   6.473  78.303  1.00  0.00     0.214 A 
ATOM      3  C   UNL     1     -37.604   7.859  78.133  1.00  0.00     0.180 A 
ATOM      4  O   UNL     1     -36.627   8.707  78.428  1.00  0.00    -0.452 OA
ATOM      5  C   UNL     1     -36.153   6.021  78.758  1.00  0.00     0.239 A 
ATOM      6  C   UNL     1     -35.426   8.325  78.840  1.00  0.00     0.146 A 
ATOM      7  O   UNL     1     -35.982   4.802  79.014  1.00  0.00    -0.285 OA
ATOM      8  C   UNL     1     -35.109   6.952  78.978  1.00  0.00     0.111 A 
ATOM      9  C   UNL     1     -34.481   9.309  79.142  1.00  0.00     0.094 A 
ATOM     10  C   UNL     1     -33.783   6.597  79.370  1.00  0.00     0.134 A 
ATOM     11  C   UNL     1     -33.211   8.953  79.590  1.00  0.00     0.123 A 
ATOM     12  C   UNL     1     -32.869   7.604  79.705  1.00  0.00     0.093 A 
BRANCH   3  13
ATOM     13  C   UNL     1     -38.890   8.421  77.664  1.00  0.00     0.021 A 
ATOM     14  C   UNL     1     -39.171   8.453  76.289  1.00  0.00     0.016 A 
ATOM     15  C   UNL     1     -40.385   8.971  75.827  1.00  0.00     0.047 A 
ATOM     16  C   UNL     1     -41.339   9.447  76.736  1.00  0.00     0.115 A 
ATOM     17  C   UNL     1     -39.861   8.879  78.572  1.00  0.00     0.016 A 
ATOM     18  C   UNL     1     -41.074   9.396  78.108  1.00  0.00     0.047 A 
BRANCH  16  19
ATOM     19  O   UNL     1     -42.550   9.966  76.289  1.00  0.00    -0.508 OA
ATOM     20  H   UNL     1     -42.588  10.784  75.690  1.00  0.00     0.293 HD
ENDBRANCH  16  19
ENDBRANCH   3  13
BRANCH  10  21
ATOM     21  O   UNL     1     -33.309   5.283  79.413  1.00  0.00    -0.507 OA
ATOM     22  H   UNL     1     -33.882   4.464  79.267  1.00  0.00     0.293 HD
ENDBRANCH  10  21
BRANCH  11  23
ATOM     23  O   UNL     1     -32.290   9.949  79.908  1.00  0.00    -0.508 OA
ATOM     24  H   UNL     1     -31.536  10.196  79.277  1.00  0.00     0.293 HD
ENDBRANCH  11  23
ENDBRANCH   1   2
BRANCH   1  25
ATOM     25  C   UNL     1     -39.736   5.527  78.777  1.00  0.00     0.339 C 
ATOM     26  C   UNL     1     -40.574   4.342  78.247  1.00  0.00     0.214 C 
ATOM     27  O   UNL     1     -39.507   5.418  80.176  1.00  0.00    -0.332 OA
ATOM     28  C   UNL     1     -39.929   2.999  78.637  1.00  0.00     0.180 C 
ATOM     29  C   UNL     1     -38.753   4.260  80.493  1.00  0.00     0.179 C 
ATOM     30  C   UNL     1     -39.528   2.968  80.128  1.00  0.00     0.177 C 
BRANCH  26  31
ATOM     31  O   UNL     1     -41.884   4.416  78.749  1.00  0.00    -0.384 OA
ATOM     32  H   UNL     1     -41.994   5.321  79.140  1.00  0.00     0.211 HD
ENDBRANCH  26  31
BRANCH  28  33
ATOM     33  O   UNL     1     -40.808   1.945  78.338  1.00  0.00    -0.387 OA
ATOM     34  H   UNL     1     -40.827   1.353  79.135  1.00  0.00     0.211 HD
ENDBRANCH  28  33
BRANCH  29  35
ATOM     35  C   UNL     1     -38.358   4.299  81.976  1.00  0.00     0.191 C 
BRANCH  35  36
ATOM     36  O   UNL     1     -38.032   3.018  82.441  1.00  0.00    -0.394 OA
ATOM     37  H   UNL     1     -38.788   2.431  82.181  1.00  0.00     0.210 HD
ENDBRANCH  35  36
ENDBRANCH  29  35
BRANCH  30  38
ATOM     38  O   UNL     1     -40.648   2.757  80.956  1.00  0.00    -0.387 OA
ATOM     39  H   UNL     1     -41.392   2.424  80.394  1.00  0.00     0.211 HD
ENDBRANCH  30  38
ENDBRANCH   1  25
TORSDOF 11
ENDMDL
MODEL 9
REMARK VINA RESULT:    -6.090      2.309      7.541
REMARK INTER + INTRA:          -9.923
REMARK INTER:                  -8.976
REMARK INTRA:                  -0.947
REMARK UNBOUND:                -1.163
REMARK SMILES O=c1c(O[C@@H]2O[C@@H](CO)[C@@H](O)[C@@H](O)[C@H]2O)c(-c2ccc(O)cc2)oc2cc(O)cc(O)c12
REMARK SMILES IDX 4 1 3 2 16 3 24 4 2 5 25 6 1 7 32 8 26 9 30 10 27 11 29 12
REMARK SMILES IDX 17 13 18 14 19 15 20 16 23 17 22 18 21 19 31 21 28 23 5 25
REMARK SMILES IDX 14 26 6 27 12 28 7 29 10 30 15 31 13 33 8 35 9 36 11 38
REMARK H PARENT 21 20 31 22 28 24 15 32 13 34 9 37 11 39
REMARK Flexibility Score: inf
ROOT
ATOM      1  O   UNL     1     -37.122   3.748  80.434  1.00  0.00    -0.454 OA
ENDROOT
BRANCH   1   2
ATOM      2  C   UNL     1     -36.332   4.832  80.867  1.00  0.00     0.214 A 
ATOM      3  C   UNL     1     -36.670   5.447  82.088  1.00  0.00     0.180 A 
ATOM      4  O   UNL     1     -35.919   6.428  82.573  1.00  0.00    -0.452 OA
ATOM      5  C   UNL     1     -35.199   5.314  80.167  1.00  0.00     0.239 A 
ATOM      6  C   UNL     1     -34.862   6.920  81.942  1.00  0.00     0.146 A 
ATOM      7  O   UNL     1     -34.812   4.725  79.126  1.00  0.00    -0.285 OA
ATOM      8  C   UNL     1     -34.476   6.420  80.674  1.00  0.00     0.111 A 
ATOM      9  C   UNL     1     -34.132   7.940  82.558  1.00  0.00     0.094 A 
ATOM     10  C   UNL     1     -33.364   7.026  80.015  1.00  0.00     0.134 A 
ATOM     11  C   UNL     1     -33.008   8.478  81.936  1.00  0.00     0.123 A 
ATOM     12  C   UNL     1     -32.627   8.019  80.674  1.00  0.00     0.093 A 
BRANCH   3  13
ATOM     13  C   UNL     1     -37.834   5.008  82.889  1.00  0.00     0.021 A 
ATOM     14  C   UNL     1     -38.952   5.849  83.004  1.00  0.00     0.016 A 
ATOM     15  C   UNL     1     -40.067   5.447  83.747  1.00  0.00     0.047 A 
ATOM     16  C   UNL     1     -40.082   4.193  84.370  1.00  0.00     0.115 A 
ATOM     17  C   UNL     1     -37.866   3.741  83.497  1.00  0.00     0.016 A 
ATOM     18  C   UNL     1     -38.981   3.341  84.240  1.00  0.00     0.047 A 
BRANCH  16  19
ATOM     19  O   UNL     1     -41.185   3.782  85.114  1.00  0.00    -0.508 OA
ATOM     20  H   UNL     1     -42.132   3.947  84.793  1.00  0.00     0.293 HD
ENDBRANCH  16  19
ENDBRANCH   3  13
BRANCH  10  21
ATOM     21  O   UNL     1     -32.967   6.715  78.712  1.00  0.00    -0.507 OA
ATOM     22  H   UNL     1     -33.214   7.255  77.895  1.00  0.00     0.293 HD
ENDBRANCH  10  21
BRANCH  11  23
ATOM     23  O   UNL     1     -32.280   9.478  82.578  1.00  0.00    -0.508 OA
ATOM     24  H   UNL     1     -31.487   9.260  83.170  1.00  0.00     0.293 HD
ENDBRANCH  11  23
ENDBRANCH   1   2
BRANCH   1  25
ATOM     25  C   UNL     1     -37.773   3.590  79.168  1.00  0.00     0.339 C 
ATOM     26  C   UNL     1     -39.008   2.677  79.322  1.00  0.00     0.214 C 
ATOM     27  O   UNL     1     -38.119   4.843  78.593  1.00  0.00    -0.332 OA
ATOM     28  C   UNL     1     -40.125   3.395  80.103  1.00  0.00     0.180 C 
ATOM     29  C   UNL     1     -39.014   5.568  79.421  1.00  0.00     0.179 C 
ATOM     30  C   UNL     1     -40.367   4.825  79.571  1.00  0.00     0.177 C 
BRANCH  26  31
ATOM     31  O   UNL     1     -39.477   2.281  78.058  1.00  0.00    -0.384 OA
ATOM     32  H   UNL     1     -39.596   1.296  78.089  1.00  0.00     0.211 HD
ENDBRANCH  26  31
BRANCH  28  33
ATOM     33  O   UNL     1     -41.307   2.639  80.047  1.00  0.00    -0.387 OA
ATOM     34  H   UNL     1     -41.769   2.766  80.917  1.00  0.00     0.211 HD
ENDBRANCH  28  33
BRANCH  29  35
ATOM     35  C   UNL     1     -39.191   6.986  78.861  1.00  0.00     0.191 C 
BRANCH  35  36
ATOM     36  O   UNL     1     -39.319   6.960  77.466  1.00  0.00    -0.394 OA
ATOM     37  H   UNL     1     -40.292   6.980  77.278  1.00  0.00     0.210 HD
ENDBRANCH  35  36
ENDBRANCH  29  35
BRANCH  30  38
ATOM     38  O   UNL     1     -41.110   4.808  78.375  1.00  0.00    -0.387 OA
ATOM     39  H   UNL     1     -41.315   5.744  78.122  1.00  0.00     0.211 HD
ENDBRANCH  30  38
ENDBRANCH   1  25
TORSDOF 11
ENDMDL
