MODEL 1
REMARK VINA RESULT:    58.463      0.000      0.000
REMARK INTER + INTRA:          63.723
REMARK INTER:                  63.589
REMARK INTRA:                   0.134
REMARK UNBOUND:                 0.134
REMARK SMILES CC1(C)CC[C@]2(C(=O)[O-])CC[C@@]3(C)C(=CC[C@@H]4[C@]5(C)CC[C@H](O)C(C)(C)[C@@H]5CC[C@]43C)[C@@H]2C1
REMARK SMILES IDX 6 1 5 2 10 3 32 4 4 5 11 6 14 7 33 8 2 9 12 10 15 11 1 12
REMARK SMILES IDX 3 13 13 14 30 15 16 16 17 17 29 18 31 19 18 20 28 21 27 22
REMARK SMILES IDX 20 23 19 24 24 25 21 26 22 27 25 28 26 29 7 30 8 31 9 32
REMARK SMILES IDX 23 33
REMARK H PARENT 23 34
REMARK Flexibility Score: inf
ROOT
ATOM      1  C   UNL     1     121.005  72.531   1.812  1.00  0.00     0.017 C 
ATOM      2  C   UNL     1     120.218  72.777   3.154  1.00  0.00     0.014 C 
ATOM      3  C   UNL     1     119.952  72.533   0.635  1.00  0.00     0.014 C 
ATOM      4  C   UNL     1     121.805  71.164   1.870  1.00  0.00     0.028 C 
ATOM      5  C   UNL     1     120.971  72.220   4.367  1.00  0.00     0.007 C 
ATOM      6  C   UNL     1     120.224  71.641  -0.612  1.00  0.00     0.013 C 
ATOM      7  C   UNL     1     122.124  70.533   0.498  1.00  0.00    -0.064 C 
ATOM      8  C   UNL     1     121.054  70.173   2.815  1.00  0.00     0.015 C 
ATOM      9  C   UNL     1     121.067  70.666   4.298  1.00  0.00    -0.035 C 
ATOM     10  C   UNL     1     121.703  71.208  -0.832  1.00  0.00    -0.006 C 
ATOM     11  C   UNL     1     122.686  69.297   0.516  1.00  0.00    -0.027 C 
ATOM     12  C   UNL     1     122.369  70.212   4.998  1.00  0.00     0.011 C 
ATOM     13  C   UNL     1     119.875  70.033   5.050  1.00  0.00     0.011 C 
ATOM     14  C   UNL     1     122.533  72.510  -1.093  1.00  0.00     0.017 C 
ATOM     15  C   UNL     1     121.901  70.202  -2.098  1.00  0.00    -0.020 C 
ATOM     16  C   UNL     1     122.545  68.287  -0.587  1.00  0.00     0.032 C 
ATOM     17  C   UNL     1     121.543  68.743  -1.673  1.00  0.00     0.006 C 
ATOM     18  C   UNL     1     120.956  70.587  -3.264  1.00  0.00     0.008 C 
ATOM     19  C   UNL     1     123.394  70.244  -2.589  1.00  0.00     0.012 C 
ATOM     20  C   UNL     1     121.239  67.629  -2.811  1.00  0.00    -0.025 C 
ATOM     21  C   UNL     1     121.165  69.702  -4.478  1.00  0.00     0.005 C 
ATOM     22  C   UNL     1     120.772  68.221  -4.227  1.00  0.00     0.003 C 
ATOM     23  C   UNL     1     122.443  66.665  -3.037  1.00  0.00     0.010 C 
ATOM     24  C   UNL     1     120.073  66.772  -2.201  1.00  0.00     0.012 C 
ATOM     25  C   UNL     1     121.083  67.323  -5.522  1.00  0.00    -0.006 C 
ATOM     26  C   UNL     1     122.181  65.504  -4.016  1.00  0.00     0.033 C 
ATOM     27  C   UNL     1     121.168  65.813  -5.152  1.00  0.00     0.120 C 
ATOM     28  C   UNL     1     119.922  67.490  -6.540  1.00  0.00     0.014 C 
ATOM     29  C   UNL     1     122.391  67.736  -6.265  1.00  0.00     0.014 C 
ENDROOT
BRANCH   1  30
ATOM     30  C   UNL     1     121.965  73.720   1.692  1.00  0.00     0.048 C 
ATOM     31  O   UNL     1     123.004  73.770   2.402  1.00  0.00    -0.550 OA
ATOM     32  O   UNL     1     121.754  74.735   0.763  1.00  0.00    -0.550 OA
ENDBRANCH   1  30
BRANCH  27  33
ATOM     33  O   UNL     1     121.396  65.004  -6.287  1.00  0.00    -0.393 OA
ATOM     34  H   UNL     1     121.646  65.577  -7.054  1.00  0.00     0.210 HD
ENDBRANCH  27  33
TORSDOF 2
ENDMDL
